AV-unprocessed.smi:1740|AV-procd|sdf|7014|dock1
  -GOLD-   22720 8233D 1   1.00000     0.00000
 Structure written by MMmdl.
 52 54  0  0  0  0  0  0  0  0  4 V2000
  152.4183  140.8280  159.5731 N   0  5  0  0  0  0  0  0  0  0  0  0
  152.4786  140.3073  158.3308 C   0  0  0  0  0  0  0  0  0  0  0  0
  153.2981  139.5074  157.8860 O   0  0  0  0  0  0  0  0  0  0  0  0
  151.3545  140.8242  157.4262 C   0  0  0  0  0  0  0  0  0  0  0  0
  150.7807  139.7217  156.6131 N   0  3  2  0  0  0  0  0  0  0  0  0
  150.3668  138.5460  157.4257 C   0  0  0  0  0  0  0  0  0  0  0  0
  149.6645  137.4877  156.5581 C   0  0  0  0  0  0  0  0  0  0  0  0
  150.5591  137.0504  155.3842 C   0  0  1  0  0  0  0  0  0  0  0  0
  149.8575  136.1129  154.5118 N   0  0  0  0  0  0  0  0  0  0  0  0
  149.6991  134.8038  154.7537 C   0  0  0  0  0  0  0  0  0  0  0  0
  150.1155  134.2427  155.7671 O   0  0  0  0  0  0  0  0  0  0  0  0
  149.0186  134.2035  153.7629 N   0  0  0  0  0  0  0  0  0  0  0  0
  148.6314  132.8364  153.6676 C   0  0  0  0  0  0  0  0  0  0  0  0
  149.3587  131.8182  154.3371 C   0  0  0  0  0  0  0  0  0  0  0  0
  148.9987  130.4683  154.1662 C   0  0  0  0  0  0  0  0  0  0  0  0
  147.9263  130.1530  153.3148 C   0  0  0  0  0  0  0  0  0  0  0  0
  147.2620  131.1421  152.6825 N   0  3  0  0  0  0  0  0  0  0  0  0
  147.5503  132.4609  152.8177 C   0  0  0  0  0  0  0  0  0  0  0  0
  146.7584  133.3860  152.0999 N   0  0  0  0  0  0  0  0  0  0  0  0
  145.8491  132.9276  151.0557 C   0  0  0  0  0  0  0  0  0  0  0  0
  144.9335  134.1169  150.7782 C   0  0  0  0  0  0  0  0  0  0  0  0
  144.7890  134.7486  152.1594 C   0  0  0  0  0  0  0  0  0  0  0  0
  146.1536  134.5069  152.8129 C   0  0  0  0  0  0  0  0  0  0  0  0
  150.9902  138.2883  154.5820 C   0  0  0  0  0  0  0  0  0  0  0  0
  151.6677  139.3290  155.4891 C   0  0  0  0  0  0  0  0  0  0  0  0
  153.2804  140.8723  160.1301 H   0  0  0  0  0  0  0  0  0  0  0  0
  150.5875  141.2641  158.0660 H   0  0  0  0  0  0  0  0  0  0  0  0
  151.7165  141.6252  156.7797 H   0  0  0  0  0  0  0  0  0  0  0  0
  151.2426  138.1109  157.9096 H   0  0  0  0  0  0  0  0  0  0  0  0
  149.6906  138.8580  158.2222 H   0  0  0  0  0  0  0  0  0  0  0  0
  149.4014  136.6271  157.1743 H   0  0  0  0  0  0  0  0  0  0  0  0
  148.7261  137.8956  156.1793 H   0  0  0  0  0  0  0  0  0  0  0  0
  151.4565  136.5692  155.7790 H   0  0  0  0  0  0  0  0  0  0  0  0
  149.4751  136.4892  153.6565 H   0  0  0  0  0  0  0  0  0  0  0  0
  148.6555  134.8096  153.0418 H   0  0  0  0  0  0  0  0  0  0  0  0
  150.2069  132.0490  154.9635 H   0  0  0  0  0  0  0  0  0  0  0  0
  149.5470  129.6862  154.6708 H   0  0  0  0  0  0  0  0  0  0  0  0
  147.5845  129.1474  153.1167 H   0  0  0  0  0  0  0  0  0  0  0  0
  146.3915  132.6170  150.1621 H   0  0  0  0  0  0  0  0  0  0  0  0
  145.2549  132.0838  151.4092 H   0  0  0  0  0  0  0  0  0  0  0  0
  145.4233  134.8161  150.0988 H   0  0  0  0  0  0  0  0  0  0  0  0
  143.9792  133.8264  150.3380 H   0  0  0  0  0  0  0  0  0  0  0  0
  144.5184  135.8041  152.1200 H   0  0  0  0  0  0  0  0  0  0  0  0
  144.0146  134.2246  152.7214 H   0  0  0  0  0  0  0  0  0  0  0  0
  146.0527  134.3114  153.8814 H   0  0  0  0  0  0  0  0  0  0  0  0
  146.7872  135.3848  152.6858 H   0  0  0  0  0  0  0  0  0  0  0  0
  151.6726  137.9982  153.7822 H   0  0  0  0  0  0  0  0  0  0  0  0
  150.1222  138.7409  154.0997 H   0  0  0  0  0  0  0  0  0  0  0  0
  151.9195  140.2088  154.8958 H   0  0  0  0  0  0  0  0  0  0  0  0
  152.6042  138.9331  155.8850 H   0  0  0  0  0  0  0  0  0  0  0  0
  149.9431  140.1065  156.1982 H   0  0  0  0  0  0  0  0  0  0  0  0
  146.4894  130.8808  152.0698 H   0  0  0  0  0  0  0  0  0  0  0  0
  1  2  1  0  0  0  0
  1 26  1  0  0  0  0
  2  3  2  0  0  0  0
  2  4  1  0  0  0  0
  4  5  1  0  0  0  0
  4 27  1  0  0  0  0
  4 28  1  0  0  0  0
  5 25  1  0  0  0  0
  5  6  1  0  0  0  0
  5 51  1  0  0  0  0
  6  7  1  0  0  0  0
  6 29  1  0  0  0  0
  6 30  1  0  0  0  0
  7  8  1  0  0  0  0
  7 31  1  0  0  0  0
  7 32  1  0  0  0  0
  8  9  1  0  0  0  0
  8 24  1  0  0  0  0
  8 33  1  0  0  0  0
  9 10  1  0  0  0  0
  9 34  1  0  0  0  0
 10 11  2  0  0  0  0
 10 12  1  0  0  0  0
 12 13  1  0  0  0  0
 12 35  1  0  0  0  0
 13 18  1  0  0  0  0
 13 14  2  0  0  0  0
 14 15  1  0  0  0  0
 14 36  1  0  0  0  0
 15 16  2  0  0  0  0
 15 37  1  0  0  0  0
 16 17  1  0  0  0  0
 16 38  1  0  0  0  0
 17 18  2  0  0  0  0
 17 52  1  0  0  0  0
 18 19  1  0  0  0  0
 19 23  1  0  0  0  0
 19 20  1  0  0  0  0
 20 21  1  0  0  0  0
 20 39  1  0  0  0  0
 20 40  1  0  0  0  0
 21 22  1  0  0  0  0
 21 41  1  0  0  0  0
 21 42  1  0  0  0  0
 22 23  1  0  0  0  0
 22 43  1  0  0  0  0
 22 44  1  0  0  0  0
 23 45  1  0  0  0  0
 23 46  1  0  0  0  0
 24 25  1  0  0  0  0
 24 47  1  0  0  0  0
 24 48  1  0  0  0  0
 25 49  1  0  0  0  0
 25 50  1  0  0  0  0
M  CHG  1   1  -1
M  CHG  1   5   1
M  CHG  1  17   1
M  END
> <s_m_source_file>
AV-unprocessed.smi

> <i_m_source_file_index>
1740

> <i_lp_mmshare_version>
43012

> <i_f3d_flags>
0

> <s_epik_input>
W05IMl1DKD1PKVtDSDJdTjFbQ0gyXVtDSDJdW0NIXShbQ0gyXVtDSDJdMSlbTkhdQyg9TylbTkhdYzJbY0hdW2NIXVtjSF1uYzJOM1tDSDJdW0NIMl1bQ0gyXVtDSDJdMw==

> <s_epik_cmdline>
J2VwaWtfcHl0aG9uJywgJy1waCcsICc3LjAnLCAnLXRuJywgJzgnLCAnLW1hJywgJzIwMCcsICctbWV0YWxfYmluZGluZycsICctaW1hZScsICc8aW5maWxlLm1hZT4nLCAnLW9tYWUnLCAnPG91dGZpbGUubWFlPic=

> <r_lp_tautomer_probability>
0.999994

> <r_epik_Ionization_Penalty>
6.97817

> <r_epik_Ionization_Penalty_Charging>
6.97815

> <r_epik_Ionization_Penalty_Neutral>
1.88285e-05

> <r_epik_State_Penalty>
7.80985

> <r_epik_Charging_Adjusted_Penalty>
14.788

> <i_epik_Tot_Q>
1

> <i_epik_Tot_abs_Q>
3

> <r_epik_Metal_State_Penalty>
3.85728

> <b_epik_Metal_Only>
1

> <s_lp_Force_Field>
OPLS_2005

> <r_lp_Energy>
44.3343

> <b_lp_Chiralities_Consistent>
1

> <s_lp_Variant>
AV-unprocessed.smi:1740-9

> <Gold.Version>
5.8.1

> <Gold.Id.Protein>
6NUR|6NUR_protein|mol2

> <Gold.PLP.Fitness>
45.3801

> <Gold.PLP.PLP>
-37.7542

> <Gold.PLP.part.hbond>
-4.3042

> <Gold.PLP.part.metal>
0.0000

> <Gold.PLP.part.buried>
-4.1087

> <Gold.PLP.part.nonpolar>
-29.6871

> <Gold.PLP.part.repulsive>
0.3048

> <Gold.PLP.ligand.clash>
0.0000

> <Gold.PLP.ligand.torsion>
0.9162

> <Gold.PLP.Chemscore.Hbond>
2.9920

> <Gold.PLP.Chemscore.CHOScore>
0.0000

> <Gold.PLP.Chemscore.Metal>
0.0000

> <Gold.Chemscore.Hbonds>
donor molecule, donor type, donor heavy atom, donor atom, acceptor molecule, acceptor atom, score
      L1  H     9    34       P1  7948  0.98
      L1  H    12    35       P1  7948  0.94
      P1  H  7997  8009       L1     3  1.00

> <Gold.PLP.Chemscore.Internal.Correction>
0.4822

> <Gold.Rescore>
     Score         DG    S(hbond)    S(metal)    S(lipo)     H(rot)  DE(clash)    DE(int)     intcor
     13.58     -15.60       2.27        0.00      69.48       2.18       0.00       2.01       ----

> <Gold.Chemscore.Fitness>
13.5847

> <Gold.Chemscore.DG>
-15.6025

> <Gold.Chemscore.ZeroCoef>
-5.4800

> <Gold.Chemscore.Hbond>
2.2703

> <Gold.Chemscore.Metal>
0.0000

> <Gold.Chemscore.Lipo>
69.4768

> <Gold.Chemscore.Internal_Hbond>
0.0000

> <Gold.Chemscore.DEClash>
0.0044

> <Gold.Chemscore.DEInternal>
2.0134

> <Gold.Chemscore.Rot>
2.1832

> <Gold.Chemscore.Internal.Correction>
   9.000000E+99

> <Gold.Chemscore.Hbonds>
donor molecule, donor type, donor heavy atom, donor atom, acceptor molecule, acceptor atom, score
      L1  H     9    34       P1  7948  0.73
      L1  H    12    35       P1  7948  0.32
      P1  H  7997  8009       L1     3  0.95

> <Gold.Chemscore.Hbond.Weighted>
-7.5828

> <Gold.Chemscore.Metal.Weighted>
-0.0000

> <Gold.Chemscore.Lipo.Weighted>
-8.1288

> <Gold.Chemscore.Internal_Hbond.Weighted>
0.0000

> <Gold.Chemscore.DEClash.Weighted>
0.0044

> <Gold.Chemscore.DEInternal.Weighted>
2.0134

> <Gold.Chemscore.Rot.Weighted>
5.5891

> <Gold.Chemscore.Internal.Correction.Weighted>
   9.000000E+99

> <Gold.Protein.RotatedTorsions>
[ 6907 6896 6895 6894 ] final  119.40 input  -60.11 | X-H torsion
[ 7974 7965 7964 7962 ] final   52.29 input  175.53 | X-H torsion
[ 8008 7997 7996 7995 ] final  171.59 input   59.86 | X-H torsion
[ 10167 10162 10161 10158 ] final -117.20 input  -65.29 | X-H torsion
[ 10718 10713 10712 10709 ] final   86.89 input   66.30 | X-H torsion
[ 10763 10752 10751 10750 ] final   64.01 input  -60.55 | X-H torsion
[ 11005 11000 10999 10996 ] final  171.11 input  -57.11 | X-H torsion

> <Gold.Protein.ActiveResidues>
 VAL166  LYS551  ARG553  GLY616  TRP617  ASP618  TYR619  PRO620  LYS621  CYS622 
 ASP623  PHE694  ASN695  SER759  ASP760  ASP761  ALA762  ILE779  LEU786  VAL792 
 PHE793  MET794  SER795  GLU796  ALA797  LYS798  CYS799  TRP800  GLU811  SER814 

> <Gold.Protein.RotatedAtoms>
  152.4474  133.7563  159.6721 H   0  0  0  0  0  0  0  0  0  0  0  0  # atno 6907 bound_to 6896
  150.8377  133.7976  159.3079 H   0  0  0  0  0  0  0  0  0  0  0  0  # atno 6908 bound_to 6896
  151.5610  135.1068  160.0024 H   0  0  0  0  0  0  0  0  0  0  0  0  # atno 6909 bound_to 6896
  145.9828  139.4259  143.0121 H   0  0  0  0  0  0  0  0  0  0  0  0  # atno 7974 bound_to 7965
  156.1256  140.1508  156.9141 H   0  0  0  0  0  0  0  0  0  0  0  0  # atno 8008 bound_to 7997
  154.4869  140.0862  156.7547 H   0  0  0  0  0  0  0  0  0  0  0  0  # atno 8009 bound_to 7997
  155.4349  140.3428  155.4286 H   0  0  0  0  0  0  0  0  0  0  0  0  # atno 8010 bound_to 7997
  140.0709  143.4878  152.1980 H   0  0  0  0  0  0  0  0  0  0  0  0  # atno 10167 bound_to 10162
  157.6934  131.0234  150.3041 H   0  0  0  0  0  0  0  0  0  0  0  0  # atno 10718 bound_to 10713
  153.0039  135.5408  154.6443 H   0  0  0  0  0  0  0  0  0  0  0  0  # atno 10763 bound_to 10752
  154.5690  135.2840  155.0847 H   0  0  0  0  0  0  0  0  0  0  0  0  # atno 10764 bound_to 10752
  154.2020  135.6482  153.5142 H   0  0  0  0  0  0  0  0  0  0  0  0  # atno 10765 bound_to 10752
  140.3155  134.7481  157.4024 H   0  0  0  0  0  0  0  0  0  0  0  0  # atno 11005 bound_to 11000
  145.7745  140.9883  143.1132 LP  0  0  0  0  0  0  0  0  0  0  0  0  # atno 17320 bound_to 7965
  144.6866  139.9488  143.7477 LP  0  0  0  0  0  0  0  0  0  0  0  0  # atno 17321 bound_to 7965
  139.5836  144.7521  151.3576 LP  0  0  0  0  0  0  0  0  0  0  0  0  # atno 17342 bound_to 10162
  140.7126  143.7351  150.7595 LP  0  0  0  0  0  0  0  0  0  0  0  0  # atno 17343 bound_to 10162
  156.3552  130.3837  149.7296 LP  0  0  0  0  0  0  0  0  0  0  0  0  # atno 17370 bound_to 10713
  156.4760  130.8019  151.3035 LP  0  0  0  0  0  0  0  0  0  0  0  0  # atno 17371 bound_to 10713
  140.0987  134.5502  155.8374 LP  0  0  0  0  0  0  0  0  0  0  0  0  # atno 17394 bound_to 11000
  141.2098  133.6688  156.6467 LP  0  0  0  0  0  0  0  0  0  0  0  0  # atno 17395 bound_to 11000

$$$$
