AV-unprocessed.smi:2198|AV-procd|sdf|8918|dock6
  -GOLD-   2272012133D 1   1.00000     0.00000
 Structure written by MMmdl.
 43 44  0  0  0  0  0  0  0  0  1 V2000
  154.9233  140.8971  161.9497 C   0  0  0  0  0  0  0  0  0  0  0  0
  153.9663  141.1991  160.8169 C   0  0  0  0  0  0  0  0  0  0  0  0
  153.2318  142.3588  161.0015 N   0  0  0  0  0  0  0  0  0  0  0  0
  152.3164  142.7082  160.0242 C   0  0  0  0  0  0  0  0  0  0  0  0
  151.5419  143.9824  160.3131 C   0  0  0  0  0  0  0  0  0  0  0  0
  152.1505  141.9466  158.9128 C   0  0  0  0  0  0  0  0  0  0  0  0
  151.1471  142.2924  157.8149 C   0  0  0  0  0  0  0  0  0  0  0  0
  149.9585  141.3381  157.6909 C   0  0  0  0  0  0  0  0  0  0  0  0
  149.8808  140.3532  158.4245 O   0  0  0  0  0  0  0  0  0  0  0  0
  149.0429  141.6412  156.7583 N   0  0  0  0  0  0  0  0  0  0  0  0
  147.8292  140.8781  156.4749 C   0  0  1  0  0  0  0  0  0  0  0  0
  146.9435  141.6002  155.4380 C   0  0  0  0  0  0  0  0  0  0  0  0
  147.5760  141.5977  154.0357 C   0  0  0  0  0  0  0  0  0  0  0  0
  147.9142  140.1705  153.5773 C   0  0  0  0  0  0  0  0  0  0  0  0
  148.8285  139.4517  154.5879 C   0  0  2  0  0  0  0  0  0  0  0  0
  149.1569  138.0238  154.1300 C   0  0  0  0  0  0  0  0  0  0  0  0
  148.1937  139.4590  155.9950 C   0  0  0  0  0  0  0  0  0  0  0  0
  152.9795  140.7275  158.7623 C   0  0  0  0  0  0  0  0  0  0  0  0
  152.8921  140.0074  157.7686 O   0  0  0  0  0  0  0  0  0  0  0  0
  153.8822  140.4094  159.7899 N   0  0  0  0  0  0  0  0  0  0  0  0
  153.3233  142.9532  161.8127 H   0  0  0  0  0  0  0  0  0  0  0  0
  155.3549  139.9014  161.8400 H   0  0  0  0  0  0  0  0  0  0  0  0
  154.4064  140.9383  162.9092 H   0  0  0  0  0  0  0  0  0  0  0  0
  155.7372  141.6227  161.9616 H   0  0  0  0  0  0  0  0  0  0  0  0
  150.4730  143.7752  160.3688 H   0  0  0  0  0  0  0  0  0  0  0  0
  151.7114  144.7189  159.5276 H   0  0  0  0  0  0  0  0  0  0  0  0
  151.8444  144.4307  161.2603 H   0  0  0  0  0  0  0  0  0  0  0  0
  151.6762  142.3320  156.8620 H   0  0  0  0  0  0  0  0  0  0  0  0
  150.7591  143.3023  157.9519 H   0  0  0  0  0  0  0  0  0  0  0  0
  149.1939  142.4707  156.2030 H   0  0  0  0  0  0  0  0  0  0  0  0
  147.2649  140.7791  157.4042 H   0  0  0  0  0  0  0  0  0  0  0  0
  145.9740  141.1028  155.3903 H   0  0  0  0  0  0  0  0  0  0  0  0
  146.7405  142.6240  155.7547 H   0  0  0  0  0  0  0  0  0  0  0  0
  146.8953  142.0637  153.3230 H   0  0  0  0  0  0  0  0  0  0  0  0
  148.4810  142.2064  154.0379 H   0  0  0  0  0  0  0  0  0  0  0  0
  146.9917  139.6035  153.4454 H   0  0  0  0  0  0  0  0  0  0  0  0
  148.3955  140.2071  152.5993 H   0  0  0  0  0  0  0  0  0  0  0  0
  149.7703  139.9999  154.6363 H   0  0  0  0  0  0  0  0  0  0  0  0
  148.2563  137.4131  154.0573 H   0  0  0  0  0  0  0  0  0  0  0  0
  149.8358  137.5341  154.8286 H   0  0  0  0  0  0  0  0  0  0  0  0
  149.6372  138.0263  153.1511 H   0  0  0  0  0  0  0  0  0  0  0  0
  148.8656  138.9866  156.7129 H   0  0  0  0  0  0  0  0  0  0  0  0
  147.2897  138.8483  155.9825 H   0  0  0  0  0  0  0  0  0  0  0  0
  1 22  1  0  0  0  0
  1 23  1  0  0  0  0
  1 24  1  0  0  0  0
  1  2  1  0  0  0  0
  2  3  1  0  0  0  0
  2 20  2  0  0  0  0
  3  4  1  0  0  0  0
  3 21  1  0  0  0  0
  4  6  2  0  0  0  0
  4  5  1  0  0  0  0
  5 25  1  0  0  0  0
  5 26  1  0  0  0  0
  5 27  1  0  0  0  0
  6 18  1  0  0  0  0
  6  7  1  0  0  0  0
  7  8  1  0  0  0  0
  7 28  1  0  0  0  0
  7 29  1  0  0  0  0
  8  9  2  0  0  0  0
  8 10  1  0  0  0  0
 10 11  1  0  0  0  0
 10 30  1  0  0  0  0
 11 17  1  0  0  0  0
 11 12  1  0  0  0  0
 11 31  1  0  0  0  0
 12 13  1  0  0  0  0
 12 32  1  0  0  0  0
 12 33  1  0  0  0  0
 13 14  1  0  0  0  0
 13 34  1  0  0  0  0
 13 35  1  0  0  0  0
 14 15  1  0  0  0  0
 14 36  1  0  0  0  0
 14 37  1  0  0  0  0
 15 16  1  0  0  0  0
 15 17  1  0  0  0  0
 15 38  1  0  0  0  0
 16 39  1  0  0  0  0
 16 40  1  0  0  0  0
 16 41  1  0  0  0  0
 17 42  1  0  0  0  0
 17 43  1  0  0  0  0
 18 19  2  0  0  0  0
 18 20  1  0  0  0  0
M  END
> <s_m_source_file>
AV-unprocessed.smi

> <i_m_source_file_index>
2198

> <i_lp_mmshare_version>
43012

> <i_f3d_flags>
0

> <s_epik_input>
W0NIM11jMW5jKFtDSDNdKWMoYyg9TylbbkhdMSlbQ0gyXUMoPU8pW05IXVtDQEBIXTJbQ0gyXVtDSDJdW0NIMl1bQ0BASF0oW0NIM10pW0NIMl0y

> <s_epik_cmdline>
J2VwaWtfcHl0aG9uJywgJy1waCcsICc3LjAnLCAnLXRuJywgJzgnLCAnLW1hJywgJzIwMCcsICctbWV0YWxfYmluZGluZycsICctaW1hZScsICc8aW5maWxlLm1hZT4nLCAnLW9tYWUnLCAnPG91dGZpbGUubWFlPic=

> <r_lp_tautomer_probability>
0.156392

> <r_epik_Ionization_Penalty>
0.0136514

> <r_epik_Ionization_Penalty_Charging>
0.0135207

> <r_epik_Ionization_Penalty_Neutral>
0.000130657

> <r_epik_State_Penalty>
1.15342

> <r_epik_Charging_Adjusted_Penalty>
1.16694

> <i_epik_Tot_Q>
0

> <i_epik_Tot_abs_Q>
0

> <r_epik_Metal_State_Penalty>
1.31404

> <b_epik_Metal_Only>
0

> <s_lp_Force_Field>
OPLS_2005

> <r_lp_Energy>
13.6567

> <b_lp_Chiralities_Consistent>
1

> <s_lp_Variant>
AV-unprocessed.smi:2198-8

> <Gold.Version>
5.8.1

> <Gold.Id.Protein>
6NUR|6NUR_protein|mol2

> <Gold.PLP.Fitness>
39.6244

> <Gold.PLP.PLP>
-33.8015

> <Gold.PLP.part.hbond>
-2.0000

> <Gold.PLP.part.metal>
0.0000

> <Gold.PLP.part.buried>
-1.8374

> <Gold.PLP.part.nonpolar>
-29.4528

> <Gold.PLP.part.repulsive>
0.0506

> <Gold.PLP.ligand.clash>
0.0000

> <Gold.PLP.ligand.torsion>
0.0920

> <Gold.PLP.Chemscore.Hbond>
2.0000

> <Gold.PLP.Chemscore.CHOScore>
0.0000

> <Gold.PLP.Chemscore.Metal>
0.0000

> <Gold.Chemscore.Hbonds>
donor molecule, donor type, donor heavy atom, donor atom, acceptor molecule, acceptor atom, score
      L1  H    10    30       P1  8028  0.24
      P1  H  7997  8008       L1    19  1.00

> <Gold.PLP.Chemscore.Internal.Correction>
0.0068

> <Gold.Rescore>
     Score         DG    S(hbond)    S(metal)    S(lipo)     H(rot)  DE(clash)    DE(int)     intcor
     16.20     -17.40       1.86        0.00      81.22       1.48       0.18       1.02       ----

> <Gold.Chemscore.Fitness>
16.2013

> <Gold.Chemscore.DG>
-17.4021

> <Gold.Chemscore.ZeroCoef>
-5.4800

> <Gold.Chemscore.Hbond>
1.8589

> <Gold.Chemscore.Metal>
0.0000

> <Gold.Chemscore.Lipo>
81.2184

> <Gold.Chemscore.Internal_Hbond>
0.0000

> <Gold.Chemscore.DEClash>
0.1778

> <Gold.Chemscore.DEInternal>
1.0230

> <Gold.Chemscore.Rot>
1.4801

> <Gold.Chemscore.Internal.Correction>
   9.000000E+99

> <Gold.Chemscore.Hbonds>
donor molecule, donor type, donor heavy atom, donor atom, acceptor molecule, acceptor atom, score
      L1  H    10    30       P1  8028  0.24
      P1  H  7997  8008       L1    19  0.69

> <Gold.Chemscore.Hbond.Weighted>
-6.2086

> <Gold.Chemscore.Metal.Weighted>
-0.0000

> <Gold.Chemscore.Lipo.Weighted>
-9.5026

> <Gold.Chemscore.Internal_Hbond.Weighted>
0.0000

> <Gold.Chemscore.DEClash.Weighted>
0.1778

> <Gold.Chemscore.DEInternal.Weighted>
1.0230

> <Gold.Chemscore.Rot.Weighted>
3.7891

> <Gold.Chemscore.Internal.Correction.Weighted>
   9.000000E+99

> <Gold.Protein.RotatedTorsions>
[ 6907 6896 6895 6894 ] final   19.91 input  -60.11 | X-H torsion
[ 7974 7965 7964 7962 ] final -176.09 input  175.53 | X-H torsion
[ 8008 7997 7996 7995 ] final  -71.69 input   59.86 | X-H torsion
[ 10167 10162 10161 10158 ] final -101.07 input  -65.29 | X-H torsion
[ 10718 10713 10712 10709 ] final   38.21 input   66.30 | X-H torsion
[ 10763 10752 10751 10750 ] final  -86.05 input  -60.55 | X-H torsion
[ 11005 11000 10999 10996 ] final   34.22 input  -57.11 | X-H torsion

> <Gold.Protein.ActiveResidues>
 VAL166  LYS551  ARG553  GLY616  TRP617  ASP618  TYR619  PRO620  LYS621  CYS622 
 ASP623  PHE694  ASN695  SER759  ASP760  ASP761  ALA762  ILE779  LEU786  VAL792 
 PHE793  MET794  SER795  GLU796  ALA797  LYS798  CYS799  TRP800  GLU811  SER814 

> <Gold.Protein.RotatedAtoms>
  151.8883  135.0426  160.0495 H   0  0  0  0  0  0  0  0  0  0  0  0  # atno 6907 bound_to 6896
  152.2457  133.5168  159.5304 H   0  0  0  0  0  0  0  0  0  0  0  0  # atno 6908 bound_to 6896
  150.7067  134.0945  159.3986 H   0  0  0  0  0  0  0  0  0  0  0  0  # atno 6909 bound_to 6896
  144.7127  140.1223  143.6404 H   0  0  0  0  0  0  0  0  0  0  0  0  # atno 7974 bound_to 7965
  154.5107  140.0811  156.7985 H   0  0  0  0  0  0  0  0  0  0  0  0  # atno 8008 bound_to 7997
  155.3791  140.3427  155.4228 H   0  0  0  0  0  0  0  0  0  0  0  0  # atno 8009 bound_to 7997
  156.1570  140.1576  156.8663 H   0  0  0  0  0  0  0  0  0  0  0  0  # atno 8010 bound_to 7997
  140.2452  143.3511  152.0765 H   0  0  0  0  0  0  0  0  0  0  0  0  # atno 10167 bound_to 10162
  157.3561  130.7624  149.7014 H   0  0  0  0  0  0  0  0  0  0  0  0  # atno 10718 bound_to 10713
  154.6181  135.5463  153.7545 H   0  0  0  0  0  0  0  0  0  0  0  0  # atno 10763 bound_to 10752
  153.0225  135.6406  154.1481 H   0  0  0  0  0  0  0  0  0  0  0  0  # atno 10764 bound_to 10752
  154.1416  135.2908  155.3139 H   0  0  0  0  0  0  0  0  0  0  0  0  # atno 10765 bound_to 10752
  140.2551  134.3257  155.7876 H   0  0  0  0  0  0  0  0  0  0  0  0  # atno 11005 bound_to 11000
  145.9360  139.2637  143.1297 LP  0  0  0  0  0  0  0  0  0  0  0  0  # atno 17320 bound_to 7965
  145.9473  140.8935  143.0277 LP  0  0  0  0  0  0  0  0  0  0  0  0  # atno 17321 bound_to 7965
  139.5064  144.6813  151.6001 LP  0  0  0  0  0  0  0  0  0  0  0  0  # atno 17342 bound_to 10162
  140.6083  143.9483  150.6435 LP  0  0  0  0  0  0  0  0  0  0  0  0  # atno 17343 bound_to 10162
  155.9729  130.4127  150.4044 LP  0  0  0  0  0  0  0  0  0  0  0  0  # atno 17370 bound_to 10713
  157.2114  131.0461  151.2597 LP  0  0  0  0  0  0  0  0  0  0  0  0  # atno 17371 bound_to 10713
  141.2197  133.7376  156.9099 LP  0  0  0  0  0  0  0  0  0  0  0  0  # atno 17394 bound_to 11000
  140.1519  134.9224  157.2604 LP  0  0  0  0  0  0  0  0  0  0  0  0  # atno 17395 bound_to 11000

$$$$
