AV-unprocessed.smi:1120|AV-procd|sdf|4821|dock5
  -GOLD-   22720 3373D 1   1.00000     0.00000
 Structure written by MMmdl.
 49 50  0  0  0  0  0  0  0  0  2 V2000
  146.6413  132.4470  152.0479 C   0  0  0  0  0  0  0  0  0  0  0  0
  147.3047  132.8484  153.3727 C   0  0  2  0  0  0  0  0  0  0  0  0
  146.8508  134.2470  153.8276 C   0  0  0  0  0  0  0  0  0  0  0  0
  147.4925  134.6502  155.1660 C   0  0  0  0  0  0  0  0  0  0  0  0
  149.0290  134.5313  155.1463 C   0  0  2  0  0  0  0  0  0  0  0  0
  149.6292  135.6355  154.3906 N   0  0  0  0  0  0  0  0  0  0  0  0
  149.8580  137.1928  155.0970 S   0  0  0  0  0  0  0  0  0  0  0  0
  148.8333  138.0932  154.5458 O   0  0  0  0  0  0  0  0  0  0  0  0
  149.9608  137.0007  156.5518 O   0  0  0  0  0  0  0  0  0  0  0  0
  151.5118  137.7048  154.4552 C   0  0  0  0  0  0  0  0  0  0  0  0
  151.8523  139.1057  154.9585 C   0  0  0  0  0  0  0  0  0  0  0  0
  153.0013  139.5331  154.8558 O   0  0  0  0  0  0  0  0  0  0  0  0
  150.8475  139.8127  155.4981 N   0  0  0  0  0  0  0  0  0  0  0  0
  150.9635  141.1656  156.0345 C   0  0  0  0  0  0  0  0  0  0  0  0
  150.6613  141.2601  157.5447 C   0  0  0  0  0  0  0  0  0  0  0  0
  151.1648  142.5370  158.1957 C   0  0  0  0  0  0  0  0  0  0  0  0
  152.1507  142.5236  159.2059 C   0  0  0  0  0  0  0  0  0  0  0  0
  152.5617  143.7429  159.7840 C   0  0  0  0  0  0  0  0  0  0  0  0
  151.9794  144.9487  159.3410 C   0  0  0  0  0  0  0  0  0  0  0  0
  151.0004  144.9045  158.3280 C   0  0  0  0  0  0  0  0  0  0  0  0
  150.6325  143.7165  157.8004 N   0  3  0  0  0  0  0  0  0  0  0  0
  149.5145  133.1751  154.6004 C   0  0  0  0  0  0  0  0  0  0  0  0
  148.8397  132.7963  153.2712 C   0  0  0  0  0  0  0  0  0  0  0  0
  146.9147  133.1307  151.2438 H   0  0  0  0  0  0  0  0  0  0  0  0
  145.5545  132.4534  152.1350 H   0  0  0  0  0  0  0  0  0  0  0  0
  146.9410  131.4425  151.7474 H   0  0  0  0  0  0  0  0  0  0  0  0
  146.9906  132.1276  154.1292 H   0  0  0  0  0  0  0  0  0  0  0  0
  147.1071  134.9835  153.0647 H   0  0  0  0  0  0  0  0  0  0  0  0
  145.7649  134.2727  153.9252 H   0  0  0  0  0  0  0  0  0  0  0  0
  147.1870  135.6608  155.4379 H   0  0  0  0  0  0  0  0  0  0  0  0
  147.1020  133.9979  155.9480 H   0  0  0  0  0  0  0  0  0  0  0  0
  149.3820  134.6109  156.1750 H   0  0  0  0  0  0  0  0  0  0  0  0
  149.4320  135.6429  153.3899 H   0  0  0  0  0  0  0  0  0  0  0  0
  152.2604  136.9816  154.7793 H   0  0  0  0  0  0  0  0  0  0  0  0
  151.4820  137.6993  153.3656 H   0  0  0  0  0  0  0  0  0  0  0  0
  149.9343  139.3827  155.5421 H   0  0  0  0  0  0  0  0  0  0  0  0
  151.9861  141.4971  155.8520 H   0  0  0  0  0  0  0  0  0  0  0  0
  150.3174  141.8450  155.4763 H   0  0  0  0  0  0  0  0  0  0  0  0
  149.5854  141.1824  157.7063 H   0  0  0  0  0  0  0  0  0  0  0  0
  151.1009  140.4063  158.0621 H   0  0  0  0  0  0  0  0  0  0  0  0
  152.5845  141.5912  159.5369 H   0  0  0  0  0  0  0  0  0  0  0  0
  153.3132  143.7531  160.5600 H   0  0  0  0  0  0  0  0  0  0  0  0
  152.2781  145.8929  159.7723 H   0  0  0  0  0  0  0  0  0  0  0  0
  150.4990  145.7749  157.9308 H   0  0  0  0  0  0  0  0  0  0  0  0
  150.5993  133.1766  154.4866 H   0  0  0  0  0  0  0  0  0  0  0  0
  149.2907  132.4012  155.3356 H   0  0  0  0  0  0  0  0  0  0  0  0
  149.1600  131.7967  152.9753 H   0  0  0  0  0  0  0  0  0  0  0  0
  149.1800  133.4720  152.4853 H   0  0  0  0  0  0  0  0  0  0  0  0
  149.9167  143.7087  157.0728 H   0  0  0  0  0  0  0  0  0  0  0  0
  1  2  1  0  0  0  0
  1 24  1  0  0  0  0
  1 25  1  0  0  0  0
  1 26  1  0  0  0  0
  2 23  1  0  0  0  0
  2  3  1  0  0  0  0
  2 27  1  0  0  0  0
  3  4  1  0  0  0  0
  3 28  1  0  0  0  0
  3 29  1  0  0  0  0
  4  5  1  0  0  0  0
  4 30  1  0  0  0  0
  4 31  1  0  0  0  0
  5  6  1  0  0  0  0
  5 22  1  0  0  0  0
  5 32  1  0  0  0  0
  6  7  1  0  0  0  0
  6 33  1  0  0  0  0
  7  8  2  0  0  0  0
  7  9  2  0  0  0  0
  7 10  1  0  0  0  0
 10 11  1  0  0  0  0
 10 34  1  0  0  0  0
 10 35  1  0  0  0  0
 11 12  2  0  0  0  0
 11 13  1  0  0  0  0
 13 14  1  0  0  0  0
 13 36  1  0  0  0  0
 14 15  1  0  0  0  0
 14 37  1  0  0  0  0
 14 38  1  0  0  0  0
 15 16  1  0  0  0  0
 15 39  1  0  0  0  0
 15 40  1  0  0  0  0
 16 21  1  0  0  0  0
 16 17  2  0  0  0  0
 17 18  1  0  0  0  0
 17 41  1  0  0  0  0
 18 19  2  0  0  0  0
 18 42  1  0  0  0  0
 19 20  1  0  0  0  0
 19 43  1  0  0  0  0
 20 21  2  0  0  0  0
 20 44  1  0  0  0  0
 21 49  1  0  0  0  0
 22 23  1  0  0  0  0
 22 45  1  0  0  0  0
 22 46  1  0  0  0  0
 23 47  1  0  0  0  0
 23 48  1  0  0  0  0
M  CHG  1  21   1
M  END
> <s_m_source_file>
AV-unprocessed.smi

> <i_m_source_file_index>
1120

> <i_lp_mmshare_version>
43012

> <i_f3d_flags>
0

> <s_epik_input>
W0NIM11bQ0BASF0xW0NIMl1bQ0gyXVtDQEhdKFtDSDJdW0NIMl0xKVtOSF1TKD1PKSg9TylbQ0gyXUMoPU8pW05IXVtDSDJdW0NIMl1jMltjSF1bY0hdW2NIXVtjSF1uMg==

> <s_epik_cmdline>
J2VwaWtfcHl0aG9uJywgJy1waCcsICc3LjAnLCAnLXRuJywgJzgnLCAnLW1hJywgJzIwMCcsICctbWV0YWxfYmluZGluZycsICctaW1hZScsICc8aW5maWxlLm1hZT4nLCAnLW9tYWUnLCAnPG91dGZpbGUubWFlPic=

> <r_epik_Ionization_Penalty>
1.97387

> <r_epik_Ionization_Penalty_Charging>
1.97382

> <r_epik_Ionization_Penalty_Neutral>
4.57635e-05

> <r_epik_State_Penalty>
2.10057

> <r_epik_Charging_Adjusted_Penalty>
4.07439

> <i_epik_Tot_Q>
1

> <i_epik_Tot_abs_Q>
1

> <r_epik_Metal_State_Penalty>
2.15877

> <b_epik_Metal_Only>
0

> <s_lp_Force_Field>
OPLS_2005

> <r_lp_Energy>
8.31708

> <b_lp_Chiralities_Consistent>
1

> <s_lp_Variant>
AV-unprocessed.smi:1120-4

> <Gold.Version>
5.8.1

> <Gold.Id.Protein>
6NUR|6NUR_protein|mol2

> <Gold.PLP.Fitness>
57.4085

> <Gold.PLP.PLP>
-46.6225

> <Gold.PLP.part.hbond>
-4.4121

> <Gold.PLP.part.metal>
0.0000

> <Gold.PLP.part.buried>
-5.3881

> <Gold.PLP.part.nonpolar>
-38.1585

> <Gold.PLP.part.repulsive>
0.3828

> <Gold.PLP.ligand.clash>
0.0000

> <Gold.PLP.ligand.torsion>
1.1958

> <Gold.PLP.Chemscore.Hbond>
4.0000

> <Gold.PLP.Chemscore.CHOScore>
0.0000

> <Gold.PLP.Chemscore.Metal>
0.0000

> <Gold.Chemscore.Hbonds>
donor molecule, donor type, donor heavy atom, donor atom, acceptor molecule, acceptor atom, score
      L1  H     6    33       P1  7948  0.95
      L1  H    21    49       P1  8028  1.89
      P1  H  7997  8008       L1    12  1.00

> <Gold.PLP.Chemscore.Internal.Correction>
1.1777

> <Gold.Rescore>
     Score         DG    S(hbond)    S(metal)    S(lipo)     H(rot)  DE(clash)    DE(int)     intcor
     21.14     -22.42       2.80        0.00     109.67       2.05       0.09       1.20       ----

> <Gold.Chemscore.Fitness>
21.1354

> <Gold.Chemscore.DG>
-22.4210

> <Gold.Chemscore.ZeroCoef>
-5.4800

> <Gold.Chemscore.Hbond>
2.7989

> <Gold.Chemscore.Metal>
0.0000

> <Gold.Chemscore.Lipo>
109.6679

> <Gold.Chemscore.Internal_Hbond>
0.0000

> <Gold.Chemscore.DEClash>
0.0855

> <Gold.Chemscore.DEInternal>
1.2001

> <Gold.Chemscore.Rot>
2.0463

> <Gold.Chemscore.Internal.Correction>
   9.000000E+99

> <Gold.Chemscore.Hbonds>
donor molecule, donor type, donor heavy atom, donor atom, acceptor molecule, acceptor atom, score
      L1  H     6    33       P1  7948  0.21
      L1  H    21    49       P1  8028  0.83
      P1  H  7997  8008       L1    12  0.99

> <Gold.Chemscore.Hbond.Weighted>
-9.3484

> <Gold.Chemscore.Metal.Weighted>
-0.0000

> <Gold.Chemscore.Lipo.Weighted>
-12.8311

> <Gold.Chemscore.Internal_Hbond.Weighted>
0.0000

> <Gold.Chemscore.DEClash.Weighted>
0.0855

> <Gold.Chemscore.DEInternal.Weighted>
1.2001

> <Gold.Chemscore.Rot.Weighted>
5.2386

> <Gold.Chemscore.Internal.Correction.Weighted>
   9.000000E+99

> <Gold.Protein.RotatedTorsions>
[ 6907 6896 6895 6894 ] final -167.07 input  -60.11 | X-H torsion
[ 7974 7965 7964 7962 ] final  -85.71 input  175.53 | X-H torsion
[ 8008 7997 7996 7995 ] final   -2.68 input   59.86 | X-H torsion
[ 10167 10162 10161 10158 ] final -109.12 input  -65.29 | X-H torsion
[ 10718 10713 10712 10709 ] final  -77.78 input   66.30 | X-H torsion
[ 10763 10752 10751 10750 ] final -144.92 input  -60.55 | X-H torsion
[ 11005 11000 10999 10996 ] final  -87.27 input  -57.11 | X-H torsion

> <Gold.Protein.ActiveResidues>
 VAL166  LYS551  ARG553  GLY616  TRP617  ASP618  TYR619  PRO620  LYS621  CYS622 
 ASP623  PHE694  ASN695  SER759  ASP760  ASP761  ALA762  ILE779  LEU786  VAL792 
 PHE793  MET794  SER795  GLU796  ALA797  LYS798  CYS799  TRP800  GLU811  SER814 

> <Gold.Protein.RotatedAtoms>
  151.4537  133.3610  159.2798 H   0  0  0  0  0  0  0  0  0  0  0  0  # atno 6907 bound_to 6896
  150.9073  134.8490  159.7412 H   0  0  0  0  0  0  0  0  0  0  0  0  # atno 6908 bound_to 6896
  152.4913  134.4464  159.9612 H   0  0  0  0  0  0  0  0  0  0  0  0  # atno 6909 bound_to 6896
  145.4897  140.9553  143.1819 H   0  0  0  0  0  0  0  0  0  0  0  0  # atno 7974 bound_to 7965
  154.6331  140.2528  155.7410 H   0  0  0  0  0  0  0  0  0  0  0  0  # atno 8008 bound_to 7997
  156.2490  140.2903  156.0611 H   0  0  0  0  0  0  0  0  0  0  0  0  # atno 8009 bound_to 7997
  155.1714  140.0386  157.2854 H   0  0  0  0  0  0  0  0  0  0  0  0  # atno 8010 bound_to 7997
  140.1587  143.4138  152.1441 H   0  0  0  0  0  0  0  0  0  0  0  0  # atno 10167 bound_to 10162
  156.0135  130.4500  150.3396 H   0  0  0  0  0  0  0  0  0  0  0  0  # atno 10718 bound_to 10713
  154.8407  135.3427  154.6422 H   0  0  0  0  0  0  0  0  0  0  0  0  # atno 10763 bound_to 10752
  153.7033  135.6968  153.5061 H   0  0  0  0  0  0  0  0  0  0  0  0  # atno 10764 bound_to 10752
  153.2506  135.4354  155.0748 H   0  0  0  0  0  0  0  0  0  0  0  0  # atno 10765 bound_to 10752
  141.1619  133.7502  156.9283 H   0  0  0  0  0  0  0  0  0  0  0  0  # atno 11005 bound_to 11000
  144.7841  139.6463  143.7141 LP  0  0  0  0  0  0  0  0  0  0  0  0  # atno 17320 bound_to 7965
  146.2292  139.5780  142.9567 LP  0  0  0  0  0  0  0  0  0  0  0  0  # atno 17321 bound_to 7965
  139.5391  144.7239  151.4793 LP  0  0  0  0  0  0  0  0  0  0  0  0  # atno 17342 bound_to 10162
  140.6656  143.8404  150.6938 LP  0  0  0  0  0  0  0  0  0  0  0  0  # atno 17343 bound_to 10162
  157.1492  131.0316  151.2893 LP  0  0  0  0  0  0  0  0  0  0  0  0  # atno 17370 bound_to 10713
  157.4406  130.7542  149.7066 LP  0  0  0  0  0  0  0  0  0  0  0  0  # atno 17371 bound_to 10713
  140.1404  134.9297  157.2459 LP  0  0  0  0  0  0  0  0  0  0  0  0  # atno 17394 bound_to 11000
  140.2844  134.3313  155.7333 LP  0  0  0  0  0  0  0  0  0  0  0  0  # atno 17395 bound_to 11000

$$$$
