#       Name:                AV-unprocessed.smi:3188
#       Creating user name   scv26
#       Creation time:       Fri Mar 27 18:02:55 2020


#       File generated by GOLD software.
#

@<TRIPOS>MOLECULE
AV-unprocessed.smi:3188
    42    43     1
SMALL
NO_CHARGES


@<TRIPOS>ATOM
      1 ****         0.7587   2.0931   0.4659 C.3            1 S1                 0.0000
      2 ****        -0.6855   1.6199   0.4631 C.2            1 S1                 0.0000
      3 ****        -1.5119   1.9266   1.4827 C.2            1 S1                 0.0000
      4 ****        -2.9791   1.5421   1.5547 C.3            1 S1                 0.0000
      5 ****        -3.4055   0.5803   0.4338 C.3            1 S1                 0.0000
      6 ****        -2.7093   0.9235  -0.8940 C.3            1 S1                 0.0000
      7 ****        -3.3006   0.1373  -2.0770 C.3            1 S1                 0.0000
      8 ****        -1.1636   0.8185  -0.7560 C.3            1 S1                 0.0000
      9 ****        -0.6534  -0.6461  -0.7258 C.3            1 S1                 0.0000
     10 ****         0.8151  -0.7391  -0.8362 N.4            1 S1                 1.0000
     11 ****         1.3513  -2.1083  -0.6981 C.3            1 S1                 0.0000
     12 ****         2.8850  -2.1277  -0.7957 C.3            1 S1                 0.0000
     13 ****         3.5093  -1.3844   0.2839 N.pl3          1 S1                 0.0000
     14 ****         3.7540  -1.7920   1.5785 C.2            1 S1                 0.0000
     15 ****         4.3309  -0.6954   2.1525 C.2            1 S1                 0.0000
     16 ****         4.4119   0.3174   1.1984 N.2            1 S1                 0.0000
     17 ****         3.9213  -0.1105   0.0783 N.2            1 S1                 0.0000
     18 ****         1.0258   2.5244  -0.4989 H              1 S1                 0.0000
     19 ****         1.4424   1.2757   0.6870 H              1 S1                 0.0000
     20 ****         0.9181   2.8588   1.2258 H              1 S1                 0.0000
     21 ****        -1.1417   2.5110   2.3127 H              1 S1                 0.0000
     22 ****        -3.1935   1.1025   2.5290 H              1 S1                 0.0000
     23 ****        -3.5609   2.4621   1.4896 H              1 S1                 0.0000
     24 ****        -3.1695  -0.4449   0.7195 H              1 S1                 0.0000
     25 ****        -4.4894   0.6190   0.3194 H              1 S1                 0.0000
     26 ****        -2.9307   1.9721  -1.1015 H              1 S1                 0.0000
     27 ****        -3.2726  -0.9391  -1.9089 H              1 S1                 0.0000
     28 ****        -2.7653   0.3515  -3.0024 H              1 S1                 0.0000
     29 ****        -4.3450   0.4079  -2.2343 H              1 S1                 0.0000
     30 ****        -0.7425   1.2993  -1.6404 H              1 S1                 0.0000
     31 ****        -0.9739  -1.1339   0.1954 H              1 S1                 0.0000
     32 ****        -1.0672  -1.2222  -1.5521 H              1 S1                 0.0000
     33 ****         1.0963  -0.3668  -1.7321 H              1 S1                 0.0000
     34 ****         1.0333  -2.5293   0.2568 H              1 S1                 0.0000
     35 ****         0.9267  -2.7365  -1.4817 H              1 S1                 0.0000
     36 ****         3.2468  -3.1556  -0.7518 H              1 S1                 0.0000
     37 ****         3.2151  -1.7217  -1.7534 H              1 S1                 0.0000
     38 ****         3.5078  -2.7723   1.9593 H              1 S1                 0.0000
     39 ****         4.6888  -0.5514   3.1615 H              1 S1                 0.0000
     40 ****         1.2212  -0.1672  -0.1091 H              1 S1                 0.0000
     41 ****         4.7892   1.2304   1.3540 LP             1 S1                 0.0000
     42 ****         3.8586   0.4032  -0.7773 LP             1 S1                 0.0000
@<TRIPOS>BOND
    1    1    2 1     
    2    1   18 1     
    3    1   19 1     
    4    1   20 1     
    5    2    8 1     
    6    2    3 2     
    7    3    4 1     
    8    3   21 1     
    9    4    5 1     
   10    4   22 1     
   11    4   23 1     
   12    5    6 1     
   13    5   24 1     
   14    5   25 1     
   15    6    7 1     
   16    6    8 1     
   17    6   26 1     
   18    7   27 1     
   19    7   28 1     
   20    7   29 1     
   21    8    9 1     
   22    8   30 1     
   23    9   10 1     
   24    9   31 1     
   25    9   32 1     
   26   10   11 1     
   27   10   33 1     
   28   10   40 1     
   29   11   12 1     
   30   11   34 1     
   31   11   35 1     
   32   12   13 1     
   33   12   36 1     
   34   12   37 1     
   35   13   17 1     
   36   13   14 1     
   37   14   15 2     
   38   14   38 1     
   39   15   16 1     
   40   15   39 1     
   41   16   17 2     
   42   16   41 1     
   43   17   42 1     
@<TRIPOS>SUBSTRUCTURE
      1 S1             1
@<TRIPOS>SET
LONE_PAIRS      STATIC     ATOMS    <user>   **** ""
2 41 42
DONOR_HYDROGENS      STATIC     ATOMS    <user>   **** ""
2 33 40
ATOM$BLUE        STATIC     ATOMS    COLORGROUP SYSTEM
2 41 42
ATOM$RED        STATIC     ATOMS    COLORGROUP SYSTEM
2 33 40
