AV-unprocessed.smi:3021|AV-procd|sdf|11499|dock9
  -GOLD-   2272016433D 1   1.00000     0.00000
 Structure written by MMmdl.
 35 37  0  0  0  0  0  0  0  0  1 V2000
  150.1097  140.1449  154.0068 O   0  0  0  0  0  0  0  0  0  0  0  0
  148.9924  140.4984  154.7984 C   0  0  1  0  0  0  0  0  0  0  0  0
  149.4146  141.6212  155.7581 C   0  0  0  0  0  0  0  0  0  0  0  0
  150.0687  141.0467  156.8769 O   0  0  0  0  0  0  0  0  0  0  0  0
  149.7642  141.7116  158.0930 C   0  0  0  0  0  0  0  0  0  0  0  0
  150.9466  142.5459  158.4734 C   0  0  0  0  0  0  0  0  0  0  0  0
  151.5526  143.6206  157.8827 C   0  0  0  0  0  0  0  0  0  0  0  0
  152.6364  143.9886  158.7272 C   0  0  0  0  0  0  0  0  0  0  0  0
  152.6129  143.1111  159.7734 C   0  0  0  0  0  0  0  0  0  0  0  0
  151.5883  142.2265  159.6355 O   0  0  0  0  0  0  0  0  0  0  0  0
  147.8375  140.9337  153.8752 C   0  0  0  0  0  0  0  0  0  0  0  0
  146.8085  141.6750  154.5838 N   0  0  0  0  0  0  0  0  0  0  0  0
  146.2854  141.1694  155.7368 N   0  0  0  0  0  0  0  0  0  0  0  0
  145.3914  141.9986  156.1868 N   0  0  0  0  0  0  0  0  0  0  0  0
  145.3240  143.0714  155.3136 C   0  0  0  0  0  0  0  0  0  0  0  0
  144.5345  144.2430  155.3189 C   0  0  0  0  0  0  0  0  0  0  0  0
  144.6661  145.1974  154.2863 C   0  0  0  0  0  0  0  0  0  0  0  0
  143.6832  146.6180  154.3278 Cl  0  0  0  0  0  0  0  0  0  0  0  0
  145.5910  144.9894  153.2345 C   0  0  0  0  0  0  0  0  0  0  0  0
  145.7652  146.1469  151.9639 Cl  0  0  0  0  0  0  0  0  0  0  0  0
  146.3846  143.8251  153.2163 C   0  0  0  0  0  0  0  0  0  0  0  0
  146.2380  142.8886  154.2535 C   0  0  0  0  0  0  0  0  0  0  0  0
  149.8204  140.0409  153.1129 H   0  0  0  0  0  0  0  0  0  0  0  0
  148.6768  139.6271  155.3739 H   0  0  0  0  0  0  0  0  0  0  0  0
  150.0493  142.3534  155.2554 H   0  0  0  0  0  0  0  0  0  0  0  0
  148.5303  142.1512  156.1157 H   0  0  0  0  0  0  0  0  0  0  0  0
  148.8842  142.3445  157.9704 H   0  0  0  0  0  0  0  0  0  0  0  0
  149.5500  140.9881  158.8808 H   0  0  0  0  0  0  0  0  0  0  0  0
  151.2520  144.0854  156.9554 H   0  0  0  0  0  0  0  0  0  0  0  0
  153.3431  144.7930  158.5871 H   0  0  0  0  0  0  0  0  0  0  0  0
  153.2194  142.9805  160.6573 H   0  0  0  0  0  0  0  0  0  0  0  0
  148.2170  141.5721  153.0765 H   0  0  0  0  0  0  0  0  0  0  0  0
  147.3866  140.0658  153.3909 H   0  0  0  0  0  0  0  0  0  0  0  0
  143.8273  144.4077  156.1185 H   0  0  0  0  0  0  0  0  0  0  0  0
  147.0946  143.6543  152.4206 H   0  0  0  0  0  0  0  0  0  0  0  0
  1  2  1  0  0  0  0
  1 23  1  0  0  0  0
  2  3  1  0  0  0  0
  2 11  1  0  0  0  0
  2 24  1  0  0  0  0
  3  4  1  0  0  0  0
  3 25  1  0  0  0  0
  3 26  1  0  0  0  0
  4  5  1  0  0  0  0
  5  6  1  0  0  0  0
  5 27  1  0  0  0  0
  5 28  1  0  0  0  0
  6 10  1  0  0  0  0
  6  7  2  0  0  0  0
  7  8  1  0  0  0  0
  7 29  1  0  0  0  0
  8  9  2  0  0  0  0
  8 30  1  0  0  0  0
  9 10  1  0  0  0  0
  9 31  1  0  0  0  0
 11 12  1  0  0  0  0
 11 32  1  0  0  0  0
 11 33  1  0  0  0  0
 12 22  1  0  0  0  0
 12 13  1  0  0  0  0
 13 14  2  0  0  0  0
 14 15  1  0  0  0  0
 15 22  2  0  0  0  0
 15 16  1  0  0  0  0
 16 17  2  0  0  0  0
 16 34  1  0  0  0  0
 17 18  1  0  0  0  0
 17 19  1  0  0  0  0
 19 20  1  0  0  0  0
 19 21  2  0  0  0  0
 21 22  1  0  0  0  0
 21 35  1  0  0  0  0
M  END
> <s_m_source_file>
AV-unprocessed.smi

> <i_m_source_file_index>
3021

> <i_lp_mmshare_version>
43012

> <i_f3d_flags>
0

> <s_epik_input>
W2NIXTFjKENsKWMoQ2wpW2NIXWMoYzEyKW4obm4yKVtDSDJdW0NASF0oW09IXSlbQ0gyXU9bQ0gyXWMzW2NIXVtjSF1bY0hdbzM=

> <s_epik_cmdline>
J2VwaWtfcHl0aG9uJywgJy1waCcsICc3LjAnLCAnLXRuJywgJzgnLCAnLW1hJywgJzIwMCcsICctbWV0YWxfYmluZGluZycsICctaW1hZScsICc8aW5maWxlLm1hZT4nLCAnLW9tYWUnLCAnPG91dGZpbGUubWFlPic=

> <r_lp_tautomer_probability>
1

> <r_epik_Ionization_Penalty>
6.1367e-06

> <r_epik_Ionization_Penalty_Charging>
0

> <r_epik_Ionization_Penalty_Neutral>
6.1367e-06

> <r_epik_State_Penalty>
-0

> <r_epik_Charging_Adjusted_Penalty>
0

> <i_epik_Tot_Q>
0

> <i_epik_Tot_abs_Q>
0

> <r_epik_Metal_State_Penalty>
-0

> <b_epik_Metal_Only>
0

> <s_lp_Force_Field>
OPLS_2005

> <r_lp_Energy>
8.01921

> <b_lp_Chiralities_Consistent>
1

> <s_lp_Variant>
AV-unprocessed.smi:3021-2

> <Gold.Version>
5.8.1

> <Gold.Id.Protein>
6NUR|6NUR_protein|mol2

> <Gold.PLP.Fitness>
50.5597

> <Gold.PLP.PLP>
-47.0802

> <Gold.PLP.part.hbond>
-1.8896

> <Gold.PLP.part.metal>
0.0000

> <Gold.PLP.part.buried>
-3.6562

> <Gold.PLP.part.nonpolar>
-43.3710

> <Gold.PLP.part.repulsive>
0.1594

> <Gold.PLP.ligand.clash>
0.0000

> <Gold.PLP.ligand.torsion>
1.0399

> <Gold.PLP.Chemscore.Hbond>
1.8320

> <Gold.PLP.Chemscore.CHOScore>
0.0000

> <Gold.PLP.Chemscore.Metal>
0.0000

> <Gold.Chemscore.Hbonds>
donor molecule, donor type, donor heavy atom, donor atom, acceptor molecule, acceptor atom, score
      L1  H     1    23       P1  7957  1.00
      P1  H  7989  7998       L1     1  0.49

> <Gold.PLP.Chemscore.Internal.Correction>
0.0633

> <Gold.Rescore>
     Score         DG    S(hbond)    S(metal)    S(lipo)     H(rot)  DE(clash)    DE(int)     intcor
     16.87     -18.73       1.47        0.00     125.17       2.46       0.73       1.13       ----

> <Gold.Chemscore.Fitness>
16.8687

> <Gold.Chemscore.DG>
-18.7267

> <Gold.Chemscore.ZeroCoef>
-5.4800

> <Gold.Chemscore.Hbond>
1.4706

> <Gold.Chemscore.Metal>
0.0000

> <Gold.Chemscore.Lipo>
125.1674

> <Gold.Chemscore.Internal_Hbond>
0.0000

> <Gold.Chemscore.DEClash>
0.7312

> <Gold.Chemscore.DEInternal>
1.1268

> <Gold.Chemscore.Rot>
2.4647

> <Gold.Chemscore.Internal.Correction>
   9.000000E+99

> <Gold.Chemscore.Hbonds>
donor molecule, donor type, donor heavy atom, donor atom, acceptor molecule, acceptor atom, score
      L1  H     1    23       P1  7957  0.99
      P1  H  7989  7998       L1     1  0.03

> <Gold.Chemscore.Hbond.Weighted>
-4.9118

> <Gold.Chemscore.Metal.Weighted>
-0.0000

> <Gold.Chemscore.Lipo.Weighted>
-14.6446

> <Gold.Chemscore.Internal_Hbond.Weighted>
0.0000

> <Gold.Chemscore.DEClash.Weighted>
0.7312

> <Gold.Chemscore.DEInternal.Weighted>
1.1268

> <Gold.Chemscore.Rot.Weighted>
6.3097

> <Gold.Chemscore.Internal.Correction.Weighted>
   9.000000E+99

> <Gold.Protein.RotatedTorsions>
[ 6907 6896 6895 6894 ] final -105.20 input  -60.11 | X-H torsion
[ 7974 7965 7964 7962 ] final   64.57 input  175.53 | X-H torsion
[ 8008 7997 7996 7995 ] final   76.85 input   59.86 | X-H torsion
[ 10167 10162 10161 10158 ] final  -63.85 input  -65.29 | X-H torsion
[ 10718 10713 10712 10709 ] final  147.16 input   66.30 | X-H torsion
[ 10763 10752 10751 10750 ] final -147.22 input  -60.55 | X-H torsion
[ 11005 11000 10999 10996 ] final  100.74 input  -57.11 | X-H torsion

> <Gold.Protein.ActiveResidues>
 VAL166  LYS551  ARG553  GLY616  TRP617  ASP618  TYR619  PRO620  LYS621  CYS622 
 ASP623  PHE694  ASN695  SER759  ASP760  ASP761  ALA762  ILE779  LEU786  VAL792 
 PHE793  MET794  SER795  GLU796  ALA797  LYS798  CYS799  TRP800  GLU811  SER814 

> <Gold.Protein.RotatedAtoms>
  150.7325  134.0162  159.3685 H   0  0  0  0  0  0  0  0  0  0  0  0  # atno 6907 bound_to 6896
  151.8125  135.0674  160.0424 H   0  0  0  0  0  0  0  0  0  0  0  0  # atno 6908 bound_to 6896
  152.3062  133.5670  159.5687 H   0  0  0  0  0  0  0  0  0  0  0  0  # atno 6909 bound_to 6896
  145.8487  139.3240  143.0888 H   0  0  0  0  0  0  0  0  0  0  0  0  # atno 7974 bound_to 7965
  155.8332  140.3465  155.5585 H   0  0  0  0  0  0  0  0  0  0  0  0  # atno 8008 bound_to 7997
  155.8219  140.0914  157.1863 H   0  0  0  0  0  0  0  0  0  0  0  0  # atno 8009 bound_to 7997
  154.4004  140.1428  156.3498 H   0  0  0  0  0  0  0  0  0  0  0  0  # atno 8010 bound_to 7997
  140.5842  143.2331  151.6279 H   0  0  0  0  0  0  0  0  0  0  0  0  # atno 10167 bound_to 10162
  157.3244  131.0910  151.1214 H   0  0  0  0  0  0  0  0  0  0  0  0  # atno 10718 bound_to 10713
  154.8296  135.3366  154.6785 H   0  0  0  0  0  0  0  0  0  0  0  0  # atno 10763 bound_to 10752
  153.7406  135.6946  153.4972 H   0  0  0  0  0  0  0  0  0  0  0  0  # atno 10764 bound_to 10752
  153.2246  135.4437  155.0479 H   0  0  0  0  0  0  0  0  0  0  0  0  # atno 10765 bound_to 10752
  139.8771  134.9153  156.4802 H   0  0  0  0  0  0  0  0  0  0  0  0  # atno 11005 bound_to 11000
  145.9382  140.8999  143.0321 LP  0  0  0  0  0  0  0  0  0  0  0  0  # atno 17320 bound_to 7965
  144.6730  140.1512  143.7430 LP  0  0  0  0  0  0  0  0  0  0  0  0  # atno 17321 bound_to 7965
  139.5187  144.3275  152.0856 LP  0  0  0  0  0  0  0  0  0  0  0  0  # atno 17342 bound_to 10162
  140.2429  144.4250  150.6252 LP  0  0  0  0  0  0  0  0  0  0  0  0  # atno 17343 bound_to 10162
  157.2487  130.6603  149.5921 LP  0  0  0  0  0  0  0  0  0  0  0  0  # atno 17370 bound_to 10713
  155.9689  130.4545  150.5853 LP  0  0  0  0  0  0  0  0  0  0  0  0  # atno 17371 bound_to 10713
  140.8733  133.7972  155.9387 LP  0  0  0  0  0  0  0  0  0  0  0  0  # atno 17394 bound_to 11000
  140.8930  134.2471  157.5084 LP  0  0  0  0  0  0  0  0  0  0  0  0  # atno 17395 bound_to 11000

$$$$
