AV-unprocessed.smi:290|AV-procd|sdf|2238|dock4
  -GOLD-   2262022113D 1   1.00000     0.00000
 Structure written by MMmdl.
 59 62  0  0  0  0  0  0  0  0  2 V2000
  151.3885  141.4046  157.3210 C   0  0  0  0  0  0  0  0  0  0  0  0
  151.5284  140.6354  155.9983 C   0  0  1  0  0  0  0  0  0  0  0  0
  152.4106  139.5389  156.2208 O   0  0  0  0  0  0  0  0  0  0  0  0
  152.0732  138.4982  155.3217 C   0  0  0  0  0  0  0  0  0  0  0  0
  150.5526  138.5236  155.3546 C   0  0  0  0  0  0  0  0  0  0  0  0
  150.2316  140.0162  155.4024 C   0  0  2  0  0  0  0  0  0  0  0  0
  150.1136  140.4764  154.0670 O   0  0  0  0  0  0  0  0  0  0  0  0
  148.9067  140.3421  156.1420 C   0  0  0  0  0  0  0  0  0  0  0  0
  147.8582  139.3588  155.9140 N   0  0  0  0  0  0  0  0  0  0  0  0
  147.2114  138.6098  156.8713 C   0  0  0  0  0  0  0  0  0  0  0  0
  146.3044  137.7885  156.4176 N   0  0  0  0  0  0  0  0  0  0  0  0
  146.3220  137.9910  155.0432 C   0  0  0  0  0  0  0  0  0  0  0  0
  145.6053  137.4364  153.9454 C   0  0  0  0  0  0  0  0  0  0  0  0
  144.6483  136.4889  154.0444 N   0  0  0  0  0  0  0  0  0  0  0  0
  143.4353  136.7137  153.2640 C   0  0  0  0  0  0  0  0  0  0  0  0
  143.0309  135.3506  152.6990 C   0  0  0  0  0  0  0  0  0  0  0  0
  144.3714  134.6148  152.5979 C   0  0  2  0  0  0  0  0  0  0  0  0
  144.2885  133.1315  152.4480 N   0  3  1  0  0  0  0  0  0  0  0  0
  143.6879  132.7205  151.1530 C   0  0  0  0  0  0  0  0  0  0  0  0
  145.5980  132.4639  152.6915 C   0  0  0  0  0  0  0  0  0  0  0  0
  146.7303  132.9988  151.7949 C   0  0  0  0  0  0  0  0  0  0  0  0
  147.9627  132.4127  152.1550 O   0  0  0  0  0  0  0  0  0  0  0  0
  145.0986  135.1109  153.8691 C   0  0  2  0  0  0  0  0  0  0  0  0
  144.7801  134.3063  155.1434 C   0  0  0  0  0  0  0  0  0  0  0  0
  145.8869  137.8967  152.7027 N   0  0  0  0  0  0  0  0  0  0  0  0
  146.8200  138.8390  152.5353 C   0  0  0  0  0  0  0  0  0  0  0  0
  147.5714  139.4433  153.4588 N   0  0  0  0  0  0  0  0  0  0  0  0
  147.2868  138.9829  154.7107 C   0  0  0  0  0  0  0  0  0  0  0  0
  144.8916  135.0033  151.7212 H   0  0  0  0  0  0  0  0  0  0  0  0
  146.1779  135.0831  153.7089 H   0  0  0  0  0  0  0  0  0  0  0  0
  150.7243  142.2625  157.2148 H   0  0  0  0  0  0  0  0  0  0  0  0
  152.3575  141.7812  157.6489 H   0  0  0  0  0  0  0  0  0  0  0  0
  151.0017  140.7677  158.1167 H   0  0  0  0  0  0  0  0  0  0  0  0
  152.0049  141.2928  155.2682 H   0  0  0  0  0  0  0  0  0  0  0  0
  152.4520  138.7302  154.3249 H   0  0  0  0  0  0  0  0  0  0  0  0
  152.4875  137.5411  155.6382 H   0  0  0  0  0  0  0  0  0  0  0  0
  150.0958  137.9984  154.5146 H   0  0  0  0  0  0  0  0  0  0  0  0
  150.2172  138.0383  156.2722 H   0  0  0  0  0  0  0  0  0  0  0  0
  149.3222  140.9878  153.9936 H   0  0  0  0  0  0  0  0  0  0  0  0
  149.0747  140.3915  157.2180 H   0  0  0  0  0  0  0  0  0  0  0  0
  148.5303  141.3212  155.8427 H   0  0  0  0  0  0  0  0  0  0  0  0
  147.4387  138.6890  157.9245 H   0  0  0  0  0  0  0  0  0  0  0  0
  142.6469  137.1302  153.8915 H   0  0  0  0  0  0  0  0  0  0  0  0
  143.6150  137.4196  152.4520 H   0  0  0  0  0  0  0  0  0  0  0  0
  142.3654  134.8420  153.3979 H   0  0  0  0  0  0  0  0  0  0  0  0
  142.5151  135.4432  151.7428 H   0  0  0  0  0  0  0  0  0  0  0  0
  144.2744  133.0993  150.3149 H   0  0  0  0  0  0  0  0  0  0  0  0
  142.6682  133.0906  151.0509 H   0  0  0  0  0  0  0  0  0  0  0  0
  143.6256  131.6379  151.0579 H   0  0  0  0  0  0  0  0  0  0  0  0
  145.8685  132.5784  153.7423 H   0  0  0  0  0  0  0  0  0  0  0  0
  145.5180  131.3905  152.5207 H   0  0  0  0  0  0  0  0  0  0  0  0
  146.5405  132.8325  150.7356 H   0  0  0  0  0  0  0  0  0  0  0  0
  146.8192  134.0773  151.9270 H   0  0  0  0  0  0  0  0  0  0  0  0
  148.1520  131.7114  151.5497 H   0  0  0  0  0  0  0  0  0  0  0  0
  145.1495  133.2844  155.0774 H   0  0  0  0  0  0  0  0  0  0  0  0
  143.7088  134.2633  155.3406 H   0  0  0  0  0  0  0  0  0  0  0  0
  145.2555  134.7603  156.0134 H   0  0  0  0  0  0  0  0  0  0  0  0
  146.9904  139.1529  151.5159 H   0  0  0  0  0  0  0  0  0  0  0  0
  143.6641  132.8097  153.1744 H   0  0  0  0  0  0  0  0  0  0  0  0
  1  2  1  0  0  0  0
  1 31  1  0  0  0  0
  1 32  1  0  0  0  0
  1 33  1  0  0  0  0
  2  6  1  0  0  0  0
  2  3  1  0  0  0  0
  2 34  1  0  0  0  0
  3  4  1  0  0  0  0
  4  5  1  0  0  0  0
  4 35  1  0  0  0  0
  4 36  1  0  0  0  0
  5  6  1  0  0  0  0
  5 37  1  0  0  0  0
  5 38  1  0  0  0  0
  6  7  1  0  0  0  0
  6  8  1  0  0  0  0
  7 39  1  0  0  0  0
  8  9  1  0  0  0  0
  8 40  1  0  0  0  0
  8 41  1  0  0  0  0
  9 28  1  0  0  0  0
  9 10  1  0  0  0  0
 10 11  2  0  0  0  0
 10 42  1  0  0  0  0
 11 12  1  0  0  0  0
 12 28  2  0  0  0  0
 12 13  1  0  0  0  0
 13 14  1  0  0  0  0
 13 25  2  0  0  0  0
 14 23  1  0  0  0  0
 14 15  1  0  0  0  0
 15 16  1  0  0  0  0
 15 43  1  0  0  0  0
 15 44  1  0  0  0  0
 16 17  1  0  0  0  0
 16 45  1  0  0  0  0
 16 46  1  0  0  0  0
 17 29  1  0  0  0  0
 17 18  1  0  0  0  0
 17 23  1  0  0  0  0
 18 19  1  0  0  0  0
 18 20  1  0  0  0  0
 18 59  1  0  0  0  0
 19 47  1  0  0  0  0
 19 48  1  0  0  0  0
 19 49  1  0  0  0  0
 20 21  1  0  0  0  0
 20 50  1  0  0  0  0
 20 51  1  0  0  0  0
 21 22  1  0  0  0  0
 21 52  1  0  0  0  0
 21 53  1  0  0  0  0
 22 54  1  0  0  0  0
 23 30  1  0  0  0  0
 23 24  1  0  0  0  0
 24 55  1  0  0  0  0
 24 56  1  0  0  0  0
 24 57  1  0  0  0  0
 25 26  1  0  0  0  0
 26 27  2  0  0  0  0
 26 58  1  0  0  0  0
 27 28  1  0  0  0  0
M  CHG  1  18   1
M  END
> <s_m_source_file>
AV-unprocessed.smi

> <i_m_source_file_index>
290

> <i_lp_mmshare_version>
43012

> <i_f3d_flags>
0

> <s_epik_input>
W0NIMl0xW0NIMl1PW0NAQEhdKFtDSDNdKVtDQEBdMShbT0hdKVtDSDJdbihbY0hdbjIpYyhjMjMpbltjSF1uYzNONFtDSDJdW0NIMl1bQ0BIXShbQ0BIXTRbQ0gzXSlOKFtDSDNdKVtDSDJdW0NIMl1bT0hd

> <s_epik_cmdline>
J2VwaWtfcHl0aG9uJywgJy1waCcsICc3LjAnLCAnLXRuJywgJzgnLCAnLW1hJywgJzIwMCcsICctbWV0YWxfYmluZGluZycsICctaW1hZScsICc8aW5maWxlLm1hZT4nLCAnLW9tYWUnLCAnPG91dGZpbGUubWFlPic=

> <r_lp_tautomer_probability>
1

> <r_epik_Ionization_Penalty>
0.0036983

> <r_epik_Ionization_Penalty_Charging>
0.0032725

> <r_epik_Ionization_Penalty_Neutral>
0.000425798

> <r_epik_State_Penalty>
-0

> <r_epik_Charging_Adjusted_Penalty>
0.0032725

> <i_epik_Tot_Q>
1

> <i_epik_Tot_abs_Q>
1

> <r_epik_Metal_State_Penalty>
-0

> <b_epik_Metal_Only>
0

> <s_lp_Force_Field>
OPLS_2005

> <r_lp_Energy>
65.2736

> <b_lp_Chiralities_Consistent>
1

> <s_lp_Variant>
AV-unprocessed.smi:290-24

> <Gold.Version>
5.8.1

> <Gold.Id.Protein>
6NUR|6NUR_protein|mol2

> <Gold.PLP.Fitness>
47.2504

> <Gold.PLP.PLP>
-34.0970

> <Gold.PLP.part.hbond>
-4.7451

> <Gold.PLP.part.metal>
0.0000

> <Gold.PLP.part.buried>
-7.5775

> <Gold.PLP.part.nonpolar>
-22.7529

> <Gold.PLP.part.repulsive>
0.7627

> <Gold.PLP.ligand.clash>
0.0000

> <Gold.PLP.ligand.torsion>
1.0683

> <Gold.PLP.Chemscore.Hbond>
4.7185

> <Gold.PLP.Chemscore.CHOScore>
0.2360

> <Gold.PLP.Chemscore.Metal>
0.0000

> <Gold.Chemscore.Hbonds>
donor molecule, donor type, donor heavy atom, donor atom, acceptor molecule, acceptor atom, score
      L1  H    18    59       P1 10957  1.40
      L1  H    22    54       P1 10747  1.00
      P1  H  7989  7998       L1     7  0.78
      P1  H  7997  8008       L1     3  0.96
      L1  C    26    58       P1  7957  0.31

> <Gold.PLP.Chemscore.Internal.Correction>
0.4266

> <Gold.Rescore>
     Score         DG    S(hbond)    S(metal)    S(lipo)     H(rot)  DE(clash)    DE(int)     intcor
     12.25     -14.60       3.21        0.00      66.47       3.67       0.02       2.33       ----

> <Gold.Chemscore.Fitness>
12.2493

> <Gold.Chemscore.DG>
-14.5998

> <Gold.Chemscore.ZeroCoef>
-5.4800

> <Gold.Chemscore.Hbond>
3.2117

> <Gold.Chemscore.Metal>
0.0000

> <Gold.Chemscore.Lipo>
66.4718

> <Gold.Chemscore.Internal_Hbond>
0.0000

> <Gold.Chemscore.DEClash>
0.0195

> <Gold.Chemscore.DEInternal>
2.3309

> <Gold.Chemscore.Rot>
3.6658

> <Gold.Chemscore.Internal.Correction>
   9.000000E+99

> <Gold.Chemscore.Hbonds>
donor molecule, donor type, donor heavy atom, donor atom, acceptor molecule, acceptor atom, score
      L1  H    18    59       P1 10957  0.31
      L1  H    22    54       P1 10747  0.99
      P1  H  7989  7998       L1     7  0.58
      P1  H  7997  8008       L1     3  0.60

> <Gold.Chemscore.Hbond.Weighted>
-10.7270

> <Gold.Chemscore.Metal.Weighted>
-0.0000

> <Gold.Chemscore.Lipo.Weighted>
-7.7772

> <Gold.Chemscore.Internal_Hbond.Weighted>
0.0000

> <Gold.Chemscore.DEClash.Weighted>
0.0195

> <Gold.Chemscore.DEInternal.Weighted>
2.3309

> <Gold.Chemscore.Rot.Weighted>
9.3844

> <Gold.Chemscore.Internal.Correction.Weighted>
   9.000000E+99

> <Gold.Protein.RotatedTorsions>
[ 6907 6896 6895 6894 ] final   44.40 input  -60.11 | X-H torsion
[ 7974 7965 7964 7962 ] final  -92.15 input  175.53 | X-H torsion
[ 8008 7997 7996 7995 ] final  -29.78 input   59.86 | X-H torsion
[ 10167 10162 10161 10158 ] final  173.03 input  -65.29 | X-H torsion
[ 10718 10713 10712 10709 ] final   99.44 input   66.30 | X-H torsion
[ 10763 10752 10751 10750 ] final  -16.16 input  -60.55 | X-H torsion
[ 11005 11000 10999 10996 ] final  179.44 input  -57.11 | X-H torsion

> <Gold.Protein.ActiveResidues>
 VAL166  LYS551  ARG553  GLY616  TRP617  ASP618  TYR619  PRO620  LYS621  CYS622 
 ASP623  PHE694  ASN695  SER759  ASP760  ASP761  ALA762  ILE779  LEU786  VAL792 
 PHE793  MET794  SER795  GLU796  ALA797  LYS798  CYS799  TRP800  GLU811  SER814 

> <Gold.Protein.RotatedAtoms>
  152.2321  134.8312  160.0471 H   0  0  0  0  0  0  0  0  0  0  0  0  # atno 6907 bound_to 6896
  151.9057  133.3543  159.3854 H   0  0  0  0  0  0  0  0  0  0  0  0  # atno 6908 bound_to 6896
  150.7028  134.4709  159.5469 H   0  0  0  0  0  0  0  0  0  0  0  0  # atno 6909 bound_to 6896
  145.4036  140.9539  143.2273 H   0  0  0  0  0  0  0  0  0  0  0  0  # atno 7974 bound_to 7965
  154.4276  140.1809  156.1303 H   0  0  0  0  0  0  0  0  0  0  0  0  # atno 8008 bound_to 7997
  156.0073  140.3354  155.6880 H   0  0  0  0  0  0  0  0  0  0  0  0  # atno 8009 bound_to 7997
  155.6160  140.0655  157.2683 H   0  0  0  0  0  0  0  0  0  0  0  0  # atno 8010 bound_to 7997
  139.5095  144.3306  152.0115 H   0  0  0  0  0  0  0  0  0  0  0  0  # atno 10167 bound_to 10162
  157.6876  131.0669  150.4948 H   0  0  0  0  0  0  0  0  0  0  0  0  # atno 10718 bound_to 10713
  153.5543  135.7011  153.5576 H   0  0  0  0  0  0  0  0  0  0  0  0  # atno 10763 bound_to 10752
  153.3487  135.4001  155.1628 H   0  0  0  0  0  0  0  0  0  0  0  0  # atno 10764 bound_to 10752
  154.8657  135.3760  154.5056 H   0  0  0  0  0  0  0  0  0  0  0  0  # atno 10765 bound_to 10752
  140.4062  134.6733  157.4589 H   0  0  0  0  0  0  0  0  0  0  0  0  # atno 11005 bound_to 11000
  144.8357  139.5555  143.6923 LP  0  0  0  0  0  0  0  0  0  0  0  0  # atno 17320 bound_to 7965
  146.2739  139.6705  142.9276 LP  0  0  0  0  0  0  0  0  0  0  0  0  # atno 17321 bound_to 7965
  140.2746  144.3926  150.6139 LP  0  0  0  0  0  0  0  0  0  0  0  0  # atno 17342 bound_to 10162
  140.6063  143.2168  151.6974 LP  0  0  0  0  0  0  0  0  0  0  0  0  # atno 17343 bound_to 10162
  156.5273  130.4176  149.6219 LP  0  0  0  0  0  0  0  0  0  0  0  0  # atno 17370 bound_to 10713
  156.3101  130.7224  151.2115 LP  0  0  0  0  0  0  0  0  0  0  0  0  # atno 17371 bound_to 10713
  140.0301  134.6419  155.9119 LP  0  0  0  0  0  0  0  0  0  0  0  0  # atno 17394 bound_to 11000
  141.1838  133.6551  156.5133 LP  0  0  0  0  0  0  0  0  0  0  0  0  # atno 17395 bound_to 11000

$$$$
