AV-unprocessed.smi:442|AV-procd|sdf|2584|dock2
  -GOLD-   2262022573D 1   1.00000     0.00000
 Structure written by MMmdl.
 37 37  0  0  0  0  0  0  0  0  3 V2000
  152.8498  142.4217  159.8128 C   0  0  0  0  0  0  0  0  0  0  0  0
  151.5362  143.2142  159.8748 C   0  0  0  0  0  0  0  0  0  0  0  0
  151.3481  144.2101  158.7130 C   0  0  1  0  0  0  0  0  0  0  0  0
  152.6959  144.6546  158.1285 C   0  0  0  0  0  0  0  0  0  0  0  0
  150.5460  143.6167  157.6459 N   0  0  0  0  0  0  0  0  0  0  0  0
  150.6622  142.3684  157.1592 C   0  0  0  0  0  0  0  0  0  0  0  0
  151.5033  141.5676  157.5649 O   0  0  0  0  0  0  0  0  0  0  0  0
  149.7005  141.9340  156.0391 C   0  0  0  0  0  0  0  0  0  0  0  0
  149.8386  140.5277  155.6106 N   0  0  0  0  0  0  0  0  0  0  0  0
  151.1208  140.1242  155.1970 C   0  0  0  0  0  0  0  0  0  0  0  0
  151.3784  138.8738  154.7757 C   0  0  0  0  0  0  0  0  0  0  0  0
  152.7045  138.4867  154.3438 N   0  3  0  0  0  0  0  0  0  0  0  0
  152.8363  137.4502  153.7010 O   0  0  0  0  0  0  0  0  0  0  0  0
  153.6577  139.2046  154.6311 O   0  5  0  0  0  0  0  0  0  0  0  0
  150.2831  137.9265  154.7584 C   0  0  0  0  0  0  0  0  0  0  0  0
  149.0353  138.2950  155.1464 C   0  0  0  0  0  0  0  0  0  0  0  0
  147.8863  137.3617  155.1411 C   0  0  0  0  0  0  0  0  0  0  0  0
  147.8391  136.5508  154.0769 N   0  0  0  0  0  0  0  0  0  0  0  0
  147.0045  137.2693  155.9948 O   0  0  0  0  0  0  0  0  0  0  0  0
  148.7590  139.6843  155.6032 C   0  0  0  0  0  0  0  0  0  0  0  0
  147.6531  140.1034  155.9547 O   0  0  0  0  0  0  0  0  0  0  0  0
  152.8997  141.6934  160.6222 H   0  0  0  0  0  0  0  0  0  0  0  0
  153.7178  143.0744  159.9057 H   0  0  0  0  0  0  0  0  0  0  0  0
  152.9371  141.8786  158.8716 H   0  0  0  0  0  0  0  0  0  0  0  0
  150.7075  142.5052  159.8729 H   0  0  0  0  0  0  0  0  0  0  0  0
  151.4791  143.7423  160.8274 H   0  0  0  0  0  0  0  0  0  0  0  0
  150.8540  145.1022  159.1015 H   0  0  0  0  0  0  0  0  0  0  0  0
  153.3185  145.1251  158.8900 H   0  0  0  0  0  0  0  0  0  0  0  0
  152.5553  145.3790  157.3256 H   0  0  0  0  0  0  0  0  0  0  0  0
  153.2510  143.8091  157.7204 H   0  0  0  0  0  0  0  0  0  0  0  0
  149.8280  144.2047  157.2488 H   0  0  0  0  0  0  0  0  0  0  0  0
  148.6822  142.1223  156.3823 H   0  0  0  0  0  0  0  0  0  0  0  0
  149.8313  142.6079  155.1907 H   0  0  0  0  0  0  0  0  0  0  0  0
  151.8692  140.9028  155.2377 H   0  0  0  0  0  0  0  0  0  0  0  0
  150.4901  136.9202  154.4266 H   0  0  0  0  0  0  0  0  0  0  0  0
  147.0920  135.8785  153.9832 H   0  0  0  0  0  0  0  0  0  0  0  0
  148.5559  136.6160  153.3685 H   0  0  0  0  0  0  0  0  0  0  0  0
  1  2  1  0  0  0  0
  1 22  1  0  0  0  0
  1 23  1  0  0  0  0
  1 24  1  0  0  0  0
  2  3  1  0  0  0  0
  2 25  1  0  0  0  0
  2 26  1  0  0  0  0
  3  4  1  0  0  0  0
  3  5  1  0  0  0  0
  3 27  1  0  0  0  0
  4 28  1  0  0  0  0
  4 29  1  0  0  0  0
  4 30  1  0  0  0  0
  5  6  1  0  0  0  0
  5 31  1  0  0  0  0
  6  7  2  0  0  0  0
  6  8  1  0  0  0  0
  8  9  1  0  0  0  0
  8 32  1  0  0  0  0
  8 33  1  0  0  0  0
  9 20  1  0  0  0  0
  9 10  1  0  0  0  0
 10 11  2  0  0  0  0
 10 34  1  0  0  0  0
 11 12  1  0  0  0  0
 11 15  1  0  0  0  0
 12 13  2  0  0  0  0
 12 14  1  0  0  0  0
 15 16  2  0  0  0  0
 15 35  1  0  0  0  0
 16 17  1  0  0  0  0
 16 20  1  0  0  0  0
 17 18  1  0  0  0  0
 17 19  2  0  0  0  0
 18 36  1  0  0  0  0
 18 37  1  0  0  0  0
 20 21  2  0  0  0  0
M  CHG  1  12   1
M  CHG  1  14  -1
M  END
> <s_m_source_file>
AV-unprocessed.smi

> <i_m_source_file_index>
442

> <i_lp_mmshare_version>
43012

> <i_f3d_flags>
0

> <s_epik_input>
W0NIM11bQ0gyXVtDQEhdKFtDSDNdKVtOSF1DKD1PKVtDSDJdbjFbY0hdYyhbTitdKD1PKVtPLV0pW2NIXWMoYzE9TylDKD1PKVtOSDJd

> <s_epik_cmdline>
J2VwaWtfcHl0aG9uJywgJy1waCcsICc3LjAnLCAnLXRuJywgJzgnLCAnLW1hJywgJzIwMCcsICctbWV0YWxfYmluZGluZycsICctaW1hZScsICc8aW5maWxlLm1hZT4nLCAnLW9tYWUnLCAnPG91dGZpbGUubWFlPic=

> <r_lp_tautomer_probability>
1

> <r_epik_Ionization_Penalty>
2.86914e-06

> <r_epik_Ionization_Penalty_Charging>
2.2828e-12

> <r_epik_Ionization_Penalty_Neutral>
2.86914e-06

> <r_epik_State_Penalty>
-0

> <r_epik_Charging_Adjusted_Penalty>
2.2828e-12

> <i_epik_Tot_Q>
0

> <i_epik_Tot_abs_Q>
2

> <r_epik_Metal_State_Penalty>
-0

> <b_epik_Metal_Only>
0

> <s_lp_Force_Field>
OPLS_2005

> <r_lp_Energy>
22.4314

> <b_lp_Chiralities_Consistent>
1

> <s_lp_Variant>
AV-unprocessed.smi:442-2

> <Gold.Version>
5.8.1

> <Gold.Id.Protein>
6NUR|6NUR_protein|mol2

> <Gold.PLP.Fitness>
44.4265

> <Gold.PLP.PLP>
-36.4369

> <Gold.PLP.part.hbond>
-3.6351

> <Gold.PLP.part.metal>
0.0000

> <Gold.PLP.part.buried>
-1.2669

> <Gold.PLP.part.nonpolar>
-31.2192

> <Gold.PLP.part.repulsive>
0.1763

> <Gold.PLP.ligand.clash>
0.0000

> <Gold.PLP.ligand.torsion>
1.5097

> <Gold.PLP.Chemscore.Hbond>
3.6240

> <Gold.PLP.Chemscore.CHOScore>
0.0000

> <Gold.PLP.Chemscore.Metal>
0.0000

> <Gold.Chemscore.Hbonds>
donor molecule, donor type, donor heavy atom, donor atom, acceptor molecule, acceptor atom, score
      L1  H     5    31       P1  8028  0.94
      L1  H    18    37       P1  7948  0.91
      P1  H  7997  8009       L1    14  1.00
      P1  H 10752 10763       L1    13  0.66

> <Gold.PLP.Chemscore.Internal.Correction>
0.1369

> <Gold.Rescore>
     Score         DG    S(hbond)    S(metal)    S(lipo)     H(rot)  DE(clash)    DE(int)     intcor
     12.85     -20.36       3.29        0.00      77.91       2.03       1.02       6.49       ----

> <Gold.Chemscore.Fitness>
12.8513

> <Gold.Chemscore.DG>
-20.3609

> <Gold.Chemscore.ZeroCoef>
-5.4800

> <Gold.Chemscore.Hbond>
3.2852

> <Gold.Chemscore.Metal>
0.0000

> <Gold.Chemscore.Lipo>
77.9087

> <Gold.Chemscore.Internal_Hbond>
0.0000

> <Gold.Chemscore.DEClash>
1.0224

> <Gold.Chemscore.DEInternal>
6.4872

> <Gold.Chemscore.Rot>
2.0340

> <Gold.Chemscore.Internal.Correction>
   9.000000E+99

> <Gold.Chemscore.Hbonds>
donor molecule, donor type, donor heavy atom, donor atom, acceptor molecule, acceptor atom, score
      L1  H     5    31       P1  8028  0.51
      L1  H    18    37       P1  7948  0.88
      P1  H  7997  8009       L1    14  0.99
      P1  H 10752 10763       L1    13  0.66

> <Gold.Chemscore.Hbond.Weighted>
-10.9727

> <Gold.Chemscore.Metal.Weighted>
-0.0000

> <Gold.Chemscore.Lipo.Weighted>
-9.1153

> <Gold.Chemscore.Internal_Hbond.Weighted>
0.0000

> <Gold.Chemscore.DEClash.Weighted>
1.0224

> <Gold.Chemscore.DEInternal.Weighted>
6.4872

> <Gold.Chemscore.Rot.Weighted>
5.2071

> <Gold.Chemscore.Internal.Correction.Weighted>
   9.000000E+99

> <Gold.Protein.RotatedTorsions>
[ 6907 6896 6895 6894 ] final  -53.21 input  -60.11 | X-H torsion
[ 7974 7965 7964 7962 ] final  -74.72 input  175.53 | X-H torsion
[ 8008 7997 7996 7995 ] final -127.94 input   59.86 | X-H torsion
[ 10167 10162 10161 10158 ] final   35.92 input  -65.29 | X-H torsion
[ 10718 10713 10712 10709 ] final  -32.54 input   66.30 | X-H torsion
[ 10763 10752 10751 10750 ] final   11.67 input  -60.55 | X-H torsion
[ 11005 11000 10999 10996 ] final  -17.47 input  -57.11 | X-H torsion

> <Gold.Protein.ActiveResidues>
 VAL166  LYS551  ARG553  GLY616  TRP617  ASP618  TYR619  PRO620  LYS621  CYS622 
 ASP623  PHE694  ASN695  SER759  ASP760  ASP761  ALA762  ILE779  LEU786  VAL792 
 PHE793  MET794  SER795  GLU796  ALA797  LYS798  CYS799  TRP800  GLU811  SER814 

> <Gold.Protein.RotatedAtoms>
  150.8448  134.7753  159.6960 H   0  0  0  0  0  0  0  0  0  0  0  0  # atno 6907 bound_to 6896
  152.4527  134.5355  159.9833 H   0  0  0  0  0  0  0  0  0  0  0  0  # atno 6908 bound_to 6896
  151.5488  133.3383  159.2985 H   0  0  0  0  0  0  0  0  0  0  0  0  # atno 6909 bound_to 6896
  145.6354  140.9326  143.1064 H   0  0  0  0  0  0  0  0  0  0  0  0  # atno 7974 bound_to 7965
  155.2545  140.0433  157.2990 H   0  0  0  0  0  0  0  0  0  0  0  0  # atno 8008 bound_to 7997
  154.5749  140.2384  155.8107 H   0  0  0  0  0  0  0  0  0  0  0  0  # atno 8009 bound_to 7997
  156.2150  140.2987  155.9827 H   0  0  0  0  0  0  0  0  0  0  0  0  # atno 8010 bound_to 7997
  140.4177  144.1504  150.6145 H   0  0  0  0  0  0  0  0  0  0  0  0  # atno 10167 bound_to 10162
  156.3736  130.4344  149.7525 H   0  0  0  0  0  0  0  0  0  0  0  0  # atno 10718 bound_to 10713
  153.1902  135.6841  153.8363 H   0  0  0  0  0  0  0  0  0  0  0  0  # atno 10763 bound_to 10752
  153.7664  135.3202  155.3346 H   0  0  0  0  0  0  0  0  0  0  0  0  # atno 10764 bound_to 10752
  154.8113  135.4716  154.0621 H   0  0  0  0  0  0  0  0  0  0  0  0  # atno 10765 bound_to 10752
  140.8172  133.8096  155.9622 H   0  0  0  0  0  0  0  0  0  0  0  0  # atno 11005 bound_to 11000
  144.7177  139.8137  143.7393 LP  0  0  0  0  0  0  0  0  0  0  0  0  # atno 17320 bound_to 7965
  146.1323  139.4361  143.0161 LP  0  0  0  0  0  0  0  0  0  0  0  0  # atno 17321 bound_to 7965
  140.4568  143.2464  151.9273 LP  0  0  0  0  0  0  0  0  0  0  0  0  # atno 17342 bound_to 10162
  139.4782  144.5507  151.8390 LP  0  0  0  0  0  0  0  0  0  0  0  0  # atno 17343 bound_to 10162
  156.4643  130.7966  151.2986 LP  0  0  0  0  0  0  0  0  0  0  0  0  # atno 17370 bound_to 10713
  157.7486  131.0056  150.3119 LP  0  0  0  0  0  0  0  0  0  0  0  0  # atno 17371 bound_to 10713
  140.9137  134.2229  157.4970 LP  0  0  0  0  0  0  0  0  0  0  0  0  # atno 17394 bound_to 11000
  139.8710  134.9761  156.4910 LP  0  0  0  0  0  0  0  0  0  0  0  0  # atno 17395 bound_to 11000

$$$$
