#       Name:                AV-unprocessed.smi:2095
#       Creating user name   scv26
#       Creation time:       Fri Mar 27 11:28:42 2020


#       File generated by GOLD software.
#

@<TRIPOS>MOLECULE
AV-unprocessed.smi:2095
    47    48     1
SMALL
NO_CHARGES


@<TRIPOS>ATOM
      1 ****        -3.5446  -2.0369   1.9071 C.3            1 S1                 0.0000
      2 ****        -2.0543  -2.4198   1.8760 C.3            1 S1                 0.0000
      3 ****        -1.3638  -2.2355   3.2408 C.3            1 S1                 0.0000
      4 ****        -1.1229  -0.7504   3.5509 C.3            1 S1                 0.0000
      5 ****        -0.3640  -0.0656   2.4038 C.3            1 S1                 0.0000
      6 ****        -1.0927  -0.2331   1.1170 N.4            1 S1                 1.0000
      7 ****        -0.5820   0.5871  -0.0199 C.3            1 S1                 0.0000
      8 ****        -0.9806   2.0649   0.1544 C.3            1 S1                 0.0000
      9 ****         0.9372   0.4069  -0.2680 C.3            1 S1                 0.0000
     10 ****         1.3904   1.1148  -1.4601 N.am           1 S1                 0.0000
     11 ****         1.2473   0.6684  -2.7181 C.2            1 S1                 0.0000
     12 ****         0.7022  -0.3990  -2.9977 O.2            1 S1                 0.0000
     13 ****         1.7897   1.5653  -3.8319 C.3            1 S1                 0.0000
     14 ****         3.2372   1.6543  -3.7806 N.pl3          1 S1                 0.0000
     15 ****         4.1837   0.8504  -4.2696 C.2            1 S1                 0.0000
     16 ****         5.3978   1.2963  -3.9847 N.2            1 S1                 0.0000
     17 ****         5.1482   2.4569  -3.2716 N.2            1 S1                 0.0000
     18 ****         3.8679   2.6749  -3.1475 N.2            1 S1                 0.0000
     19 ****        -1.2814  -1.6684   0.7720 C.3            1 S1                 0.0000
     20 ****        -3.6901  -0.9774   2.1181 H              1 S1                 0.0000
     21 ****        -4.0779  -2.6028   2.6714 H              1 S1                 0.0000
     22 ****        -4.0230  -2.2501   0.9508 H              1 S1                 0.0000
     23 ****        -2.0168  -3.4830   1.6346 H              1 S1                 0.0000
     24 ****        -1.9518  -2.6985   4.0341 H              1 S1                 0.0000
     25 ****        -0.4049  -2.7556   3.2297 H              1 S1                 0.0000
     26 ****        -2.0738  -0.2436   3.7191 H              1 S1                 0.0000
     27 ****        -0.5581  -0.6540   4.4785 H              1 S1                 0.0000
     28 ****        -0.2419   0.9912   2.6391 H              1 S1                 0.0000
     29 ****         0.6366  -0.4929   2.3252 H              1 S1                 0.0000
     30 ****        -1.1106   0.2445  -0.9104 H              1 S1                 0.0000
     31 ****        -0.7772   2.6384  -0.7503 H              1 S1                 0.0000
     32 ****        -0.4357   2.5412   0.9692 H              1 S1                 0.0000
     33 ****        -2.0464   2.1622   0.3627 H              1 S1                 0.0000
     34 ****         1.5105   0.7993   0.5720 H              1 S1                 0.0000
     35 ****         1.2000  -0.6482  -0.3537 H              1 S1                 0.0000
     36 ****         1.8527   2.0022  -1.3199 H              1 S1                 0.0000
     37 ****         1.4987   1.1699  -4.8061 H              1 S1                 0.0000
     38 ****         1.3602   2.5646  -3.7471 H              1 S1                 0.0000
     39 ****         3.9852  -0.0545  -4.8250 H              1 S1                 0.0000
     40 ****        -0.3072  -2.1363   0.6252 H              1 S1                 0.0000
     41 ****        -1.8168  -1.7638  -0.1735 H              1 S1                 0.0000
     42 ****        -2.0258   0.1153   1.2850 H              1 S1                 0.0000
     43 ****         0.3395  -0.9809  -2.2699 LP             1 S1                 0.0000
     44 ****         0.6219  -0.6843  -3.9528 LP             1 S1                 0.0000
     45 ****         6.2804   0.8929  -4.2260 LP             1 S1                 0.0000
     46 ****         5.8595   3.0527  -2.8988 LP             1 S1                 0.0000
     47 ****         3.4357   3.4444  -2.6773 LP             1 S1                 0.0000
@<TRIPOS>BOND
    1    1    2 1     
    2    1   20 1     
    3    1   21 1     
    4    1   22 1     
    5    2   19 1     
    6    2    3 1     
    7    2   23 1     
    8    3    4 1     
    9    3   24 1     
   10    3   25 1     
   11    4    5 1     
   12    4   26 1     
   13    4   27 1     
   14    5    6 1     
   15    5   28 1     
   16    5   29 1     
   17    6    7 1     
   18    6   19 1     
   19    6   42 1     
   20    7    8 1     
   21    7    9 1     
   22    7   30 1     
   23    8   31 1     
   24    8   32 1     
   25    8   33 1     
   26    9   10 1     
   27    9   34 1     
   28    9   35 1     
   29   10   11 am    
   30   10   36 1     
   31   11   12 2     
   32   11   13 1     
   33   13   14 1     
   34   13   37 1     
   35   13   38 1     
   36   14   18 1     
   37   14   15 1     
   38   15   16 2     
   39   15   39 1     
   40   16   17 1     
   41   17   18 2     
   42   19   40 1     
   43   19   41 1     
   44   12   43 1     
   45   12   44 1     
   46   16   45 1     
   47   17   46 1     
   48   18   47 1     
@<TRIPOS>SUBSTRUCTURE
      1 S1             1
@<TRIPOS>SET
LONE_PAIRS      STATIC     ATOMS    <user>   **** ""
5 43 44 45 46 47
DONOR_HYDROGENS      STATIC     ATOMS    <user>   **** ""
2 42 36
ATOM$BLUE        STATIC     ATOMS    COLORGROUP SYSTEM
5 43 44 45 46 47
ATOM$RED        STATIC     ATOMS    COLORGROUP SYSTEM
2 42 36
