AV-unprocessed.smi:3335|AV-procd|sdf|12851|dock9
  -GOLD-   2272019243D 1   1.00000     0.00000
 Structure written by MMmdl.
 46 47  0  0  0  0  0  0  0  0  1 V2000
  152.0873  145.1345  158.6814 C   0  0  0  0  0  0  0  0  0  0  0  0
  152.0226  143.6438  158.5187 C   0  0  0  0  0  0  0  0  0  0  0  0
  152.8427  142.6576  159.1358 C   0  0  0  0  0  0  0  0  0  0  0  0
  152.5505  141.4284  158.7446 N   0  0  0  0  0  0  0  0  0  0  0  0
  151.5165  141.5795  157.8864 N   0  0  0  0  0  0  0  0  0  0  0  0
  150.9474  140.4266  157.1928 C   0  0  2  0  0  0  0  0  0  0  0  0
  150.9122  140.6735  155.6712 C   0  0  0  0  0  0  0  0  0  0  0  0
  149.5602  140.0295  157.7751 C   0  0  1  0  0  0  0  0  0  0  0  0
  148.3857  140.6397  156.9915 C   0  0  0  0  0  0  0  0  0  0  0  0
  149.3932  138.5781  157.7012 N   0  0  0  0  0  0  0  0  0  0  0  0
  148.2131  138.0784  158.4296 C   0  0  1  0  0  0  0  0  0  0  0  0
  147.0648  137.7813  157.4485 C   0  0  0  0  0  0  0  0  0  0  0  0
  148.5683  136.8146  159.2386 C   0  0  0  0  0  0  0  0  0  0  0  0
  149.6775  136.2981  159.0891 O   0  0  0  0  0  0  0  0  0  0  0  0
  147.6639  136.3098  160.1070 N   0  0  0  0  0  0  0  0  0  0  0  0
  147.9367  135.1578  160.9651 C   0  0  0  0  0  0  0  0  0  0  0  0
  146.7707  135.0867  161.9510 C   0  0  0  0  0  0  0  0  0  0  0  0
  145.6208  135.7515  161.2095 C   0  0  0  0  0  0  0  0  0  0  0  0
  146.3027  136.7987  160.3300 C   0  0  0  0  0  0  0  0  0  0  0  0
  151.1795  142.9090  157.7353 C   0  0  0  0  0  0  0  0  0  0  0  0
  153.0037  145.4484  159.1816 H   0  0  0  0  0  0  0  0  0  0  0  0
  151.2517  145.5114  159.2710 H   0  0  0  0  0  0  0  0  0  0  0  0
  152.0596  145.6439  157.7178 H   0  0  0  0  0  0  0  0  0  0  0  0
  153.6524  142.8005  159.8359 H   0  0  0  0  0  0  0  0  0  0  0  0
  151.6342  139.5956  157.3623 H   0  0  0  0  0  0  0  0  0  0  0  0
  150.6833  139.7606  155.1221 H   0  0  0  0  0  0  0  0  0  0  0  0
  151.8787  141.0268  155.3104 H   0  0  0  0  0  0  0  0  0  0  0  0
  150.1635  141.4192  155.4021 H   0  0  0  0  0  0  0  0  0  0  0  0
  149.4832  140.3786  158.8062 H   0  0  0  0  0  0  0  0  0  0  0  0
  148.3744  141.7266  157.0681 H   0  0  0  0  0  0  0  0  0  0  0  0
  147.4297  140.2866  157.3798 H   0  0  0  0  0  0  0  0  0  0  0  0
  148.4310  140.3793  155.9333 H   0  0  0  0  0  0  0  0  0  0  0  0
  150.2411  138.1434  158.0363 H   0  0  0  0  0  0  0  0  0  0  0  0
  147.8913  138.8484  159.1289 H   0  0  0  0  0  0  0  0  0  0  0  0
  146.1883  137.3883  157.9638 H   0  0  0  0  0  0  0  0  0  0  0  0
  147.3626  137.0476  156.6984 H   0  0  0  0  0  0  0  0  0  0  0  0
  146.7508  138.6820  156.9209 H   0  0  0  0  0  0  0  0  0  0  0  0
  147.9741  134.2576  160.3498 H   0  0  0  0  0  0  0  0  0  0  0  0
  148.8899  135.2519  161.4880 H   0  0  0  0  0  0  0  0  0  0  0  0
  146.5414  134.0675  162.2633 H   0  0  0  0  0  0  0  0  0  0  0  0
  147.0099  135.6646  162.8446 H   0  0  0  0  0  0  0  0  0  0  0  0
  145.1184  135.0154  160.5804 H   0  0  0  0  0  0  0  0  0  0  0  0
  144.8771  136.1825  161.8803 H   0  0  0  0  0  0  0  0  0  0  0  0
  146.3451  137.7536  160.8529 H   0  0  0  0  0  0  0  0  0  0  0  0
  145.7545  136.9436  159.3987 H   0  0  0  0  0  0  0  0  0  0  0  0
  150.3877  143.2217  157.0707 H   0  0  0  0  0  0  0  0  0  0  0  0
  1  2  1  0  0  0  0
  1 21  1  0  0  0  0
  1 22  1  0  0  0  0
  1 23  1  0  0  0  0
  2 20  2  0  0  0  0
  2  3  1  0  0  0  0
  3  4  2  0  0  0  0
  3 24  1  0  0  0  0
  4  5  1  0  0  0  0
  5  6  1  0  0  0  0
  5 20  1  0  0  0  0
  6  7  1  0  0  0  0
  6  8  1  0  0  0  0
  6 25  1  0  0  0  0
  7 26  1  0  0  0  0
  7 27  1  0  0  0  0
  7 28  1  0  0  0  0
  8  9  1  0  0  0  0
  8 10  1  0  0  0  0
  8 29  1  0  0  0  0
  9 30  1  0  0  0  0
  9 31  1  0  0  0  0
  9 32  1  0  0  0  0
 10 11  1  0  0  0  0
 10 33  1  0  0  0  0
 11 12  1  0  0  0  0
 11 13  1  0  0  0  0
 11 34  1  0  0  0  0
 12 35  1  0  0  0  0
 12 36  1  0  0  0  0
 12 37  1  0  0  0  0
 13 14  2  0  0  0  0
 13 15  1  0  0  0  0
 15 19  1  0  0  0  0
 15 16  1  0  0  0  0
 16 17  1  0  0  0  0
 16 38  1  0  0  0  0
 16 39  1  0  0  0  0
 17 18  1  0  0  0  0
 17 40  1  0  0  0  0
 17 41  1  0  0  0  0
 18 19  1  0  0  0  0
 18 42  1  0  0  0  0
 18 43  1  0  0  0  0
 19 44  1  0  0  0  0
 19 45  1  0  0  0  0
 20 46  1  0  0  0  0
M  END
> <s_m_source_file>
AV-unprocessed.smi

> <i_m_source_file_index>
3335

> <i_lp_mmshare_version>
43012

> <i_f3d_flags>
0

> <s_epik_input>
W0NIM11jMVtjSF1ubihbY0hdMSlbQ0BIXShbQ0gzXSlbQ0BIXShbQ0gzXSlbTkhdW0NASF0oW0NIM10pQyg9TylOMltDSDJdW0NIMl1bQ0gyXVtDSDJdMg==

> <s_epik_cmdline>
J2VwaWtfcHl0aG9uJywgJy1waCcsICc3LjAnLCAnLXRuJywgJzgnLCAnLW1hJywgJzIwMCcsICctbWV0YWxfYmluZGluZycsICctaW1hZScsICc8aW5maWxlLm1hZT4nLCAnLW9tYWUnLCAnPG91dGZpbGUubWFlPic=

> <r_lp_tautomer_probability>
1

> <r_epik_Ionization_Penalty>
0.918803

> <r_epik_Ionization_Penalty_Charging>
0

> <r_epik_Ionization_Penalty_Neutral>
0.918803

> <r_epik_State_Penalty>
0.958258

> <r_epik_Charging_Adjusted_Penalty>
0.958258

> <i_epik_Tot_Q>
0

> <i_epik_Tot_abs_Q>
0

> <r_epik_Metal_State_Penalty>
0.956786

> <b_epik_Metal_Only>
0

> <s_lp_Force_Field>
OPLS_2005

> <r_lp_Energy>
36.8756

> <b_lp_Chiralities_Consistent>
1

> <s_lp_Variant>
AV-unprocessed.smi:3335-15

> <Gold.Version>
5.8.1

> <Gold.Id.Protein>
6NUR|6NUR_protein|mol2

> <Gold.PLP.Fitness>
37.6240

> <Gold.PLP.PLP>
-35.1706

> <Gold.PLP.part.hbond>
-1.0000

> <Gold.PLP.part.metal>
0.0000

> <Gold.PLP.part.buried>
-4.2179

> <Gold.PLP.part.nonpolar>
-29.7742

> <Gold.PLP.part.repulsive>
0.0000

> <Gold.PLP.ligand.clash>
0.0000

> <Gold.PLP.ligand.torsion>
1.8395

> <Gold.PLP.Chemscore.Hbond>
1.0000

> <Gold.PLP.Chemscore.CHOScore>
0.9989

> <Gold.PLP.Chemscore.Metal>
0.0000

> <Gold.Chemscore.Hbonds>
donor molecule, donor type, donor heavy atom, donor atom, acceptor molecule, acceptor atom, score
      P1  H  6896  6907       L1    14  1.00
      L1  C    20    46       P1  8028  0.98

> <Gold.PLP.Chemscore.Internal.Correction>
0.1357

> <Gold.Rescore>
     Score         DG    S(hbond)    S(metal)    S(lipo)     H(rot)  DE(clash)    DE(int)     intcor
     13.93     -15.85       1.00        0.00      95.65       1.62       0.11       1.82       ----

> <Gold.Chemscore.Fitness>
13.9285

> <Gold.Chemscore.DG>
-15.8535

> <Gold.Chemscore.ZeroCoef>
-5.4800

> <Gold.Chemscore.Hbond>
0.9974

> <Gold.Chemscore.Metal>
0.0000

> <Gold.Chemscore.Lipo>
95.6453

> <Gold.Chemscore.Internal_Hbond>
0.0000

> <Gold.Chemscore.DEClash>
0.1081

> <Gold.Chemscore.DEInternal>
1.8169

> <Gold.Chemscore.Rot>
1.6204

> <Gold.Chemscore.Internal.Correction>
   9.000000E+99

> <Gold.Chemscore.Hbonds>
donor molecule, donor type, donor heavy atom, donor atom, acceptor molecule, acceptor atom, score
      P1  H  6896  6907       L1    14  0.99

> <Gold.Chemscore.Hbond.Weighted>
-3.3312

> <Gold.Chemscore.Metal.Weighted>
-0.0000

> <Gold.Chemscore.Lipo.Weighted>
-11.1905

> <Gold.Chemscore.Internal_Hbond.Weighted>
0.0000

> <Gold.Chemscore.DEClash.Weighted>
0.1081

> <Gold.Chemscore.DEInternal.Weighted>
1.8169

> <Gold.Chemscore.Rot.Weighted>
4.1482

> <Gold.Chemscore.Internal.Correction.Weighted>
   9.000000E+99

> <Gold.Protein.RotatedTorsions>
[ 6907 6896 6895 6894 ] final  -56.85 input  -60.11 | X-H torsion
[ 7974 7965 7964 7962 ] final  -62.07 input  175.53 | X-H torsion
[ 8008 7997 7996 7995 ] final   72.04 input   59.86 | X-H torsion
[ 10167 10162 10161 10158 ] final   80.25 input  -65.29 | X-H torsion
[ 10718 10713 10712 10709 ] final  -71.80 input   66.30 | X-H torsion
[ 10763 10752 10751 10750 ] final   46.19 input  -60.55 | X-H torsion
[ 11005 11000 10999 10996 ] final  123.49 input  -57.11 | X-H torsion

> <Gold.Protein.ActiveResidues>
 VAL166  LYS551  ARG553  GLY616  TRP617  ASP618  TYR619  PRO620  LYS621  CYS622 
 ASP623  PHE694  ASN695  SER759  ASP760  ASP761  ALA762  ILE779  LEU786  VAL792 
 PHE793  MET794  SER795  GLU796  ALA797  LYS798  CYS799  TRP800  GLU811  SER814 

> <Gold.Protein.RotatedAtoms>
  150.8134  134.7302  159.6707 H   0  0  0  0  0  0  0  0  0  0  0  0  # atno 6907 bound_to 6896
  152.4253  134.5876  159.9975 H   0  0  0  0  0  0  0  0  0  0  0  0  # atno 6908 bound_to 6896
  151.6079  133.3313  159.3097 H   0  0  0  0  0  0  0  0  0  0  0  0  # atno 6909 bound_to 6896
  145.7957  140.8684  143.0257 H   0  0  0  0  0  0  0  0  0  0  0  0  # atno 7974 bound_to 7965
  155.7628  140.3486  155.5207 H   0  0  0  0  0  0  0  0  0  0  0  0  # atno 8008 bound_to 7997
  155.8897  140.1016  157.1448 H   0  0  0  0  0  0  0  0  0  0  0  0  # atno 8009 bound_to 7997
  154.4032  140.1306  156.4287 H   0  0  0  0  0  0  0  0  0  0  0  0  # atno 8010 bound_to 7997
  139.9517  144.6021  150.8154 H   0  0  0  0  0  0  0  0  0  0  0  0  # atno 10167 bound_to 10162
  156.0347  130.4359  150.2498 H   0  0  0  0  0  0  0  0  0  0  0  0  # atno 10718 bound_to 10713
  152.9814  135.6016  154.3559 H   0  0  0  0  0  0  0  0  0  0  0  0  # atno 10763 bound_to 10752
  154.3245  135.2769  155.2505 H   0  0  0  0  0  0  0  0  0  0  0  0  # atno 10764 bound_to 10752
  154.4657  135.5954  153.6342 H   0  0  0  0  0  0  0  0  0  0  0  0  # atno 10765 bound_to 10752
  139.9315  134.9641  156.8267 H   0  0  0  0  0  0  0  0  0  0  0  0  # atno 11005 bound_to 11000
  144.6775  140.0187  143.7484 LP  0  0  0  0  0  0  0  0  0  0  0  0  # atno 17320 bound_to 7965
  145.9930  139.3030  143.0973 LP  0  0  0  0  0  0  0  0  0  0  0  0  # atno 17321 bound_to 7965
  140.7580  143.3099  151.2870 LP  0  0  0  0  0  0  0  0  0  0  0  0  # atno 17342 bound_to 10162
  139.6623  144.0167  152.2700 LP  0  0  0  0  0  0  0  0  0  0  0  0  # atno 17343 bound_to 10162
  157.0598  131.0086  151.3226 LP  0  0  0  0  0  0  0  0  0  0  0  0  # atno 17370 bound_to 10713
  157.5079  130.7920  149.7673 LP  0  0  0  0  0  0  0  0  0  0  0  0  # atno 17371 bound_to 10713
  140.6189  134.0012  155.7609 LP  0  0  0  0  0  0  0  0  0  0  0  0  # atno 17394 bound_to 11000
  141.0906  133.9922  157.3243 LP  0  0  0  0  0  0  0  0  0  0  0  0  # atno 17395 bound_to 11000

$$$$
