AV-unprocessed.smi:1751|AV-procd|sdf|7056|dock7
  -GOLD-   22720 8273D 1   1.00000     0.00000
 Structure written by MMmdl.
 35 36  0  0  0  0  0  0  0  0  1 V2000
  151.0306  140.8418  155.8191 C   0  0  0  0  0  0  0  0  0  0  0  0
  149.9614  141.5686  155.2236 O   0  0  0  0  0  0  0  0  0  0  0  0
  148.9832  140.8628  154.5532 C   0  0  0  0  0  0  0  0  0  0  0  0
  147.8852  141.5695  154.0240 C   0  0  0  0  0  0  0  0  0  0  0  0
  146.8835  140.8536  153.3420 C   0  0  0  0  0  0  0  0  0  0  0  0
  147.0015  139.4549  153.2174 C   0  0  0  0  0  0  0  0  0  0  0  0
  145.9834  138.7590  152.5118 N   0  0  0  0  0  0  0  0  0  0  0  0
  145.7128  137.4426  152.5231 C   0  0  0  0  0  0  0  0  0  0  0  0
  146.3191  136.5961  153.1795 O   0  0  0  0  0  0  0  0  0  0  0  0
  144.6655  137.1569  151.7376 N   0  0  0  0  0  0  0  0  0  0  0  0
  144.0854  135.8296  151.5674 C   0  0  0  0  0  0  0  0  0  0  0  0
  144.9936  134.9217  150.7216 C   0  0  2  0  0  0  0  0  0  0  0  0
  144.4014  133.5403  150.4492 C   0  0  0  0  0  0  0  0  0  0  0  0
  145.6466  132.7232  150.1930 C   0  0  0  0  0  0  0  0  0  0  0  0
  146.6173  133.3087  151.2141 C   0  0  0  0  0  0  0  0  0  0  0  0
  146.2215  134.6656  151.4003 O   0  0  0  0  0  0  0  0  0  0  0  0
  148.1496  138.8381  153.7714 C   0  0  0  0  0  0  0  0  0  0  0  0
  149.1150  139.5194  154.4245 N   0  0  0  0  0  0  0  0  0  0  0  0
  151.7125  141.5381  156.3069 H   0  0  0  0  0  0  0  0  0  0  0  0
  151.6019  140.2887  155.0722 H   0  0  0  0  0  0  0  0  0  0  0  0
  150.6674  140.1481  156.5788 H   0  0  0  0  0  0  0  0  0  0  0  0
  147.8129  142.6408  154.1395 H   0  0  0  0  0  0  0  0  0  0  0  0
  146.0334  141.3744  152.9260 H   0  0  0  0  0  0  0  0  0  0  0  0
  145.3434  139.3393  151.9895 H   0  0  0  0  0  0  0  0  0  0  0  0
  144.2207  137.9141  151.2398 H   0  0  0  0  0  0  0  0  0  0  0  0
  143.9315  135.3913  152.5539 H   0  0  0  0  0  0  0  0  0  0  0  0
  143.0990  135.9121  151.1077 H   0  0  0  0  0  0  0  0  0  0  0  0
  145.2299  135.3958  149.7675 H   0  0  0  0  0  0  0  0  0  0  0  0
  143.8816  133.1610  151.3302 H   0  0  0  0  0  0  0  0  0  0  0  0
  143.7049  133.5342  149.6103 H   0  0  0  0  0  0  0  0  0  0  0  0
  145.4921  131.6510  150.3160 H   0  0  0  0  0  0  0  0  0  0  0  0
  146.0104  132.9037  149.1806 H   0  0  0  0  0  0  0  0  0  0  0  0
  146.5252  132.7895  152.1689 H   0  0  0  0  0  0  0  0  0  0  0  0
  147.6552  133.2369  150.8881 H   0  0  0  0  0  0  0  0  0  0  0  0
  148.3280  137.7779  153.6822 H   0  0  0  0  0  0  0  0  0  0  0  0
  1  2  1  0  0  0  0
  1 19  1  0  0  0  0
  1 20  1  0  0  0  0
  1 21  1  0  0  0  0
  2  3  1  0  0  0  0
  3 18  1  0  0  0  0
  3  4  2  0  0  0  0
  4  5  1  0  0  0  0
  4 22  1  0  0  0  0
  5  6  2  0  0  0  0
  5 23  1  0  0  0  0
  6  7  1  0  0  0  0
  6 17  1  0  0  0  0
  7  8  1  0  0  0  0
  7 24  1  0  0  0  0
  8  9  2  0  0  0  0
  8 10  1  0  0  0  0
 10 11  1  0  0  0  0
 10 25  1  0  0  0  0
 11 12  1  0  0  0  0
 11 26  1  0  0  0  0
 11 27  1  0  0  0  0
 12 16  1  0  0  0  0
 12 13  1  0  0  0  0
 12 28  1  0  0  0  0
 13 14  1  0  0  0  0
 13 29  1  0  0  0  0
 13 30  1  0  0  0  0
 14 15  1  0  0  0  0
 14 31  1  0  0  0  0
 14 32  1  0  0  0  0
 15 16  1  0  0  0  0
 15 33  1  0  0  0  0
 15 34  1  0  0  0  0
 17 18  2  0  0  0  0
 17 35  1  0  0  0  0
M  END
> <s_m_source_file>
AV-unprocessed.smi

> <i_m_source_file_index>
1751

> <i_lp_mmshare_version>
43012

> <i_f3d_flags>
0

> <s_epik_input>
W0NIM11PYzFbY0hdW2NIXWMoW2NIXW4xKVtOSF1DKD1PKVtOSF1bQ0gyXVtDQEBIXTJbQ0gyXVtDSDJdW0NIMl1PMg==

> <s_epik_cmdline>
J2VwaWtfcHl0aG9uJywgJy1waCcsICc3LjAnLCAnLXRuJywgJzgnLCAnLW1hJywgJzIwMCcsICctbWV0YWxfYmluZGluZycsICctaW1hZScsICc8aW5maWxlLm1hZT4nLCAnLW9tYWUnLCAnPG91dGZpbGUubWFlPic=

> <r_lp_tautomer_probability>
1

> <r_epik_Ionization_Penalty>
9.01694e-05

> <r_epik_Ionization_Penalty_Charging>
0

> <r_epik_Ionization_Penalty_Neutral>
9.01694e-05

> <r_epik_State_Penalty>
-0

> <r_epik_Charging_Adjusted_Penalty>
0

> <i_epik_Tot_Q>
0

> <i_epik_Tot_abs_Q>
0

> <r_epik_Metal_State_Penalty>
-0

> <b_epik_Metal_Only>
0

> <s_lp_Force_Field>
OPLS_2005

> <r_lp_Energy>
19.4373

> <b_lp_Chiralities_Consistent>
1

> <s_lp_Variant>
AV-unprocessed.smi:1751-1

> <Gold.Version>
5.8.1

> <Gold.Id.Protein>
6NUR|6NUR_protein|mol2

> <Gold.PLP.Fitness>
40.1699

> <Gold.PLP.PLP>
-32.6112

> <Gold.PLP.part.hbond>
-2.4776

> <Gold.PLP.part.metal>
0.0000

> <Gold.PLP.part.buried>
-6.4643

> <Gold.PLP.part.nonpolar>
-26.8145

> <Gold.PLP.part.repulsive>
1.3950

> <Gold.PLP.ligand.clash>
0.0000

> <Gold.PLP.ligand.torsion>
0.1651

> <Gold.PLP.Chemscore.Hbond>
1.6261

> <Gold.PLP.Chemscore.CHOScore>
1.0000

> <Gold.PLP.Chemscore.Metal>
0.0000

> <Gold.Chemscore.Hbonds>
donor molecule, donor type, donor heavy atom, donor atom, acceptor molecule, acceptor atom, score
      L1  H     7    24       P1 10175  0.68
      L1  H    10    25       P1 10171  0.96
      L1  C    17    35       P1  7948  1.00

> <Gold.PLP.Chemscore.Internal.Correction>
0.0105

> <Gold.Rescore>
     Score         DG    S(hbond)    S(metal)    S(lipo)     H(rot)  DE(clash)    DE(int)     intcor
     11.89     -15.05       1.66        0.00      67.32       1.50       0.15       3.01       ----

> <Gold.Chemscore.Fitness>
11.8878

> <Gold.Chemscore.DG>
-15.0526

> <Gold.Chemscore.ZeroCoef>
-5.4800

> <Gold.Chemscore.Hbond>
1.6554

> <Gold.Chemscore.Metal>
0.0000

> <Gold.Chemscore.Lipo>
67.3168

> <Gold.Chemscore.Internal_Hbond>
0.0000

> <Gold.Chemscore.DEClash>
0.1514

> <Gold.Chemscore.DEInternal>
3.0134

> <Gold.Chemscore.Rot>
1.4971

> <Gold.Chemscore.Internal.Correction>
   9.000000E+99

> <Gold.Chemscore.Hbonds>
donor molecule, donor type, donor heavy atom, donor atom, acceptor molecule, acceptor atom, score
      L1  H     7    24       P1 10175  0.63
      L1  H    10    25       P1 10171  0.91

> <Gold.Chemscore.Hbond.Weighted>
-5.5291

> <Gold.Chemscore.Metal.Weighted>
-0.0000

> <Gold.Chemscore.Lipo.Weighted>
-7.8761

> <Gold.Chemscore.Internal_Hbond.Weighted>
0.0000

> <Gold.Chemscore.DEClash.Weighted>
0.1514

> <Gold.Chemscore.DEInternal.Weighted>
3.0134

> <Gold.Chemscore.Rot.Weighted>
3.8326

> <Gold.Chemscore.Internal.Correction.Weighted>
   9.000000E+99

> <Gold.Protein.RotatedTorsions>
[ 6907 6896 6895 6894 ] final -116.91 input  -60.11 | X-H torsion
[ 7974 7965 7964 7962 ] final  106.67 input  175.53 | X-H torsion
[ 8008 7997 7996 7995 ] final -173.44 input   59.86 | X-H torsion
[ 10167 10162 10161 10158 ] final   38.74 input  -65.29 | X-H torsion
[ 10718 10713 10712 10709 ] final    2.61 input   66.30 | X-H torsion
[ 10763 10752 10751 10750 ] final  176.60 input  -60.55 | X-H torsion
[ 11005 11000 10999 10996 ] final  176.28 input  -57.11 | X-H torsion

> <Gold.Protein.ActiveResidues>
 VAL166  LYS551  ARG553  GLY616  TRP617  ASP618  TYR619  PRO620  LYS621  CYS622 
 ASP623  PHE694  ASN695  SER759  ASP760  ASP761  ALA762  ILE779  LEU786  VAL792 
 PHE793  MET794  SER795  GLU796  ALA797  LYS798  CYS799  TRP800  GLU811  SER814 

> <Gold.Protein.RotatedAtoms>
  150.8093  133.8451  159.3189 H   0  0  0  0  0  0  0  0  0  0  0  0  # atno 6907 bound_to 6896
  151.6241  135.1027  160.0117 H   0  0  0  0  0  0  0  0  0  0  0  0  # atno 6908 bound_to 6896
  152.4185  133.7037  159.6495 H   0  0  0  0  0  0  0  0  0  0  0  0  # atno 6909 bound_to 6896
  145.3036  139.2562  143.3801 H   0  0  0  0  0  0  0  0  0  0  0  0  # atno 7974 bound_to 7965
  155.9575  140.1138  157.0924 H   0  0  0  0  0  0  0  0  0  0  0  0  # atno 8008 bound_to 7997
  154.4124  140.1188  156.5201 H   0  0  0  0  0  0  0  0  0  0  0  0  # atno 8009 bound_to 7997
  155.6763  140.3473  155.4840 H   0  0  0  0  0  0  0  0  0  0  0  0  # atno 8010 bound_to 7997
  140.3907  144.1856  150.6131 H   0  0  0  0  0  0  0  0  0  0  0  0  # atno 10167 bound_to 10162
  156.8656  130.5602  149.5660 H   0  0  0  0  0  0  0  0  0  0  0  0  # atno 10718 bound_to 10713
  154.4833  135.2776  155.1554 H   0  0  0  0  0  0  0  0  0  0  0  0  # atno 10763 bound_to 10752
  154.3255  135.6201  153.5531 H   0  0  0  0  0  0  0  0  0  0  0  0  # atno 10764 bound_to 10752
  152.9878  135.5753  154.5238 H   0  0  0  0  0  0  0  0  0  0  0  0  # atno 10765 bound_to 10752
  140.3714  134.7026  157.4395 H   0  0  0  0  0  0  0  0  0  0  0  0  # atno 11005 bound_to 11000
  146.3143  140.3555  142.8660 LP  0  0  0  0  0  0  0  0  0  0  0  0  # atno 17320 bound_to 7965
  144.9073  140.7715  143.5829 LP  0  0  0  0  0  0  0  0  0  0  0  0  # atno 17321 bound_to 7965
  140.4842  143.2369  151.8911 LP  0  0  0  0  0  0  0  0  0  0  0  0  # atno 17342 bound_to 10162
  139.4789  144.5236  151.8766 LP  0  0  0  0  0  0  0  0  0  0  0  0  # atno 17343 bound_to 10162
  156.0753  130.5777  150.9462 LP  0  0  0  0  0  0  0  0  0  0  0  0  # atno 17370 bound_to 10713
  157.6225  131.0928  150.8595 LP  0  0  0  0  0  0  0  0  0  0  0  0  # atno 17371 bound_to 10713
  140.0548  134.6078  155.8818 LP  0  0  0  0  0  0  0  0  0  0  0  0  # atno 17394 bound_to 11000
  141.1953  133.6586  156.5637 LP  0  0  0  0  0  0  0  0  0  0  0  0  # atno 17395 bound_to 11000

$$$$
