AV-unprocessed.smi:224|AV-procd|sdf|1721|dock5
  -GOLD-   2262020203D 1   1.00000     0.00000
 Structure written by MMmdl.
 56 59  0  0  0  0  0  0  0  0  2 V2000
  144.7521  131.3633  151.0102 C   0  0  0  0  0  0  0  0  0  0  0  0
  144.0483  132.6724  151.3912 C   0  0  2  0  0  0  0  0  0  0  0  0
  143.7053  133.3422  150.1943 O   0  0  0  0  0  0  0  0  0  0  0  0
  144.9548  133.5821  152.2457 C   0  0  0  0  0  0  0  0  0  0  0  0
  145.1609  133.0528  153.6246 N   0  3  1  0  0  0  0  0  0  0  0  0
  146.2121  131.9956  153.6406 C   0  0  0  0  0  0  0  0  0  0  0  0
  146.4138  131.3953  155.0414 C   0  0  0  0  0  0  0  0  0  0  0  0
  146.6550  132.4408  156.0289 N   0  0  0  0  0  0  0  0  0  0  0  0
  147.9271  132.8554  156.2742 C   0  0  0  0  0  0  0  0  0  0  0  0
  148.8747  131.9499  156.6365 N   0  0  0  0  0  0  0  0  0  0  0  0
  150.1308  132.3393  156.8720 C   0  0  0  0  0  0  0  0  0  0  0  0
  150.6477  133.5672  156.8105 N   0  0  0  0  0  0  0  0  0  0  0  0
  149.7018  134.4858  156.4637 C   0  0  0  0  0  0  0  0  0  0  0  0
  148.3323  134.2182  156.1779 C   0  0  0  0  0  0  0  0  0  0  0  0
  147.6767  135.4046  155.8698 N   0  0  0  0  0  0  0  0  0  0  0  0
  148.6056  136.3170  155.9570 C   0  0  0  0  0  0  0  0  0  0  0  0
  149.8507  135.8545  156.3191 N   0  0  0  0  0  0  0  0  0  0  0  0
  151.0580  136.6489  156.4929 C   0  0  0  0  0  0  0  0  0  0  0  0
  151.4323  137.4929  155.2503 C   0  0  2  0  0  0  0  0  0  0  0  0
  151.6756  136.6206  154.1613 O   0  0  0  0  0  0  0  0  0  0  0  0
  152.6750  138.3557  155.4824 C   0  0  0  0  0  0  0  0  0  0  0  0
  152.1204  139.7735  155.5524 C   0  0  0  0  0  0  0  0  0  0  0  0
  151.0512  139.7337  154.6248 O   0  0  0  0  0  0  0  0  0  0  0  0
  150.3522  138.5177  154.8481 C   0  0  0  0  0  0  0  0  0  0  0  0
  145.6149  133.4613  156.0585 C   0  0  0  0  0  0  0  0  0  0  0  0
  145.3938  134.1028  154.6689 C   0  0  2  0  0  0  0  0  0  0  0  0
  144.2260  135.1045  154.7890 C   0  0  0  0  0  0  0  0  0  0  0  0
  145.0316  130.7964  151.8985 H   0  0  0  0  0  0  0  0  0  0  0  0
  145.6604  131.5503  150.4358 H   0  0  0  0  0  0  0  0  0  0  0  0
  144.1020  130.7280  150.4075 H   0  0  0  0  0  0  0  0  0  0  0  0
  143.1293  132.4228  151.9203 H   0  0  0  0  0  0  0  0  0  0  0  0
  142.7957  133.5941  150.2311 H   0  0  0  0  0  0  0  0  0  0  0  0
  145.9261  133.7072  151.7644 H   0  0  0  0  0  0  0  0  0  0  0  0
  144.5100  134.5738  152.2471 H   0  0  0  0  0  0  0  0  0  0  0  0
  145.9577  131.1917  152.9515 H   0  0  0  0  0  0  0  0  0  0  0  0
  147.1504  132.4219  153.2832 H   0  0  0  0  0  0  0  0  0  0  0  0
  145.5182  130.8485  155.3383 H   0  0  0  0  0  0  0  0  0  0  0  0
  147.2245  130.6655  155.0366 H   0  0  0  0  0  0  0  0  0  0  0  0
  150.8205  131.5558  157.1497 H   0  0  0  0  0  0  0  0  0  0  0  0
  148.4054  137.3615  155.7655 H   0  0  0  0  0  0  0  0  0  0  0  0
  150.9191  137.2999  157.3570 H   0  0  0  0  0  0  0  0  0  0  0  0
  151.8745  135.9733  156.7504 H   0  0  0  0  0  0  0  0  0  0  0  0
  151.2808  136.9926  153.3873 H   0  0  0  0  0  0  0  0  0  0  0  0
  153.2317  138.0847  156.3800 H   0  0  0  0  0  0  0  0  0  0  0  0
  153.3639  138.2870  154.6388 H   0  0  0  0  0  0  0  0  0  0  0  0
  151.7372  139.9969  156.5495 H   0  0  0  0  0  0  0  0  0  0  0  0
  152.8591  140.5298  155.2863 H   0  0  0  0  0  0  0  0  0  0  0  0
  149.7724  138.2232  153.9723 H   0  0  0  0  0  0  0  0  0  0  0  0
  149.6500  138.6906  155.6637 H   0  0  0  0  0  0  0  0  0  0  0  0
  144.6926  132.9880  156.3980 H   0  0  0  0  0  0  0  0  0  0  0  0
  145.8374  134.2386  156.7879 H   0  0  0  0  0  0  0  0  0  0  0  0
  146.2970  134.6526  154.3981 H   0  0  0  0  0  0  0  0  0  0  0  0
  144.3513  135.7391  155.6669 H   0  0  0  0  0  0  0  0  0  0  0  0
  143.2700  134.5902  154.8928 H   0  0  0  0  0  0  0  0  0  0  0  0
  144.1573  135.7829  153.9403 H   0  0  0  0  0  0  0  0  0  0  0  0
  144.2954  132.6041  153.8873 H   0  0  0  0  0  0  0  0  0  0  0  0
  1  2  1  0  0  0  0
  1 28  1  0  0  0  0
  1 29  1  0  0  0  0
  1 30  1  0  0  0  0
  2  3  1  0  0  0  0
  2  4  1  0  0  0  0
  2 31  1  0  0  0  0
  3 32  1  0  0  0  0
  4  5  1  0  0  0  0
  4 33  1  0  0  0  0
  4 34  1  0  0  0  0
  5 26  1  0  0  0  0
  5  6  1  0  0  0  0
  5 56  1  0  0  0  0
  6  7  1  0  0  0  0
  6 35  1  0  0  0  0
  6 36  1  0  0  0  0
  7  8  1  0  0  0  0
  7 37  1  0  0  0  0
  7 38  1  0  0  0  0
  8  9  1  0  0  0  0
  8 25  1  0  0  0  0
  9 14  1  0  0  0  0
  9 10  2  0  0  0  0
 10 11  1  0  0  0  0
 11 12  2  0  0  0  0
 11 39  1  0  0  0  0
 12 13  1  0  0  0  0
 13 17  1  0  0  0  0
 13 14  2  0  0  0  0
 14 15  1  0  0  0  0
 15 16  2  0  0  0  0
 16 17  1  0  0  0  0
 16 40  1  0  0  0  0
 17 18  1  0  0  0  0
 18 19  1  0  0  0  0
 18 41  1  0  0  0  0
 18 42  1  0  0  0  0
 19 24  1  0  0  0  0
 19 20  1  0  0  0  0
 19 21  1  0  0  0  0
 20 43  1  0  0  0  0
 21 22  1  0  0  0  0
 21 44  1  0  0  0  0
 21 45  1  0  0  0  0
 22 23  1  0  0  0  0
 22 46  1  0  0  0  0
 22 47  1  0  0  0  0
 23 24  1  0  0  0  0
 24 48  1  0  0  0  0
 24 49  1  0  0  0  0
 25 26  1  0  0  0  0
 25 50  1  0  0  0  0
 25 51  1  0  0  0  0
 26 27  1  0  0  0  0
 26 52  1  0  0  0  0
 27 53  1  0  0  0  0
 27 54  1  0  0  0  0
 27 55  1  0  0  0  0
M  CHG  1   5   1
M  END
> <s_m_source_file>
AV-unprocessed.smi

> <i_m_source_file_index>
224

> <i_lp_mmshare_version>
43012

> <i_f3d_flags>
0

> <s_epik_input>
W0NIM11bQ0BIXShbT0hdKVtDSDJdTjFbQ0gyXVtDSDJdTihbQ0gyXVtDQEhdMVtDSDNdKWMobltjSF1uMiljKGMyMyluW2NIXW4zW0NIMl1bQ0BAXTQoW09IXSlbQ0gyXVtDSDJdT1tDSDJdNA==

> <s_epik_cmdline>
J2VwaWtfcHl0aG9uJywgJy1waCcsICc3LjAnLCAnLXRuJywgJzgnLCAnLW1hJywgJzIwMCcsICctbWV0YWxfYmluZGluZycsICctaW1hZScsICc8aW5maWxlLm1hZT4nLCAnLW9tYWUnLCAnPG91dGZpbGUubWFlPic=

> <r_lp_tautomer_probability>
1

> <r_epik_Ionization_Penalty>
0.00516958

> <r_epik_Ionization_Penalty_Charging>
0.00509693

> <r_epik_Ionization_Penalty_Neutral>
7.26542e-05

> <r_epik_State_Penalty>
-0

> <r_epik_Charging_Adjusted_Penalty>
0.00509693

> <i_epik_Tot_Q>
1

> <i_epik_Tot_abs_Q>
1

> <r_epik_Metal_State_Penalty>
-0

> <b_epik_Metal_Only>
0

> <s_lp_Force_Field>
OPLS_2005

> <r_lp_Energy>
50.3432

> <b_lp_Chiralities_Consistent>
1

> <s_lp_Variant>
AV-unprocessed.smi:224-15

> <Gold.Version>
5.8.1

> <Gold.Id.Protein>
6NUR|6NUR_protein|mol2

> <Gold.PLP.Fitness>
47.1978

> <Gold.PLP.PLP>
-31.9232

> <Gold.PLP.part.hbond>
-5.0000

> <Gold.PLP.part.metal>
0.0000

> <Gold.PLP.part.buried>
-6.8971

> <Gold.PLP.part.nonpolar>
-21.6910

> <Gold.PLP.part.repulsive>
0.1905

> <Gold.PLP.ligand.clash>
0.0000

> <Gold.PLP.ligand.torsion>
0.6368

> <Gold.PLP.Chemscore.Hbond>
5.2744

> <Gold.PLP.Chemscore.CHOScore>
0.0000

> <Gold.PLP.Chemscore.Metal>
0.0000

> <Gold.Chemscore.Hbonds>
donor molecule, donor type, donor heavy atom, donor atom, acceptor molecule, acceptor atom, score
      L1  H     3    32       P1 10186  0.86
      L1  H     5    56       P1 10957  2.00
      L1  H    20    43       P1  7949  0.34
      P1  H  7989  7998       L1    23  0.95
      P1  H 10752 10764       L1    20  0.99

> <Gold.PLP.Chemscore.Internal.Correction>
0.7252

> <Gold.Rescore>
     Score         DG    S(hbond)    S(metal)    S(lipo)     H(rot)  DE(clash)    DE(int)     intcor
     12.64     -15.91       3.33        0.00      67.62       3.36       0.03       3.24       ----

> <Gold.Chemscore.Fitness>
12.6372

> <Gold.Chemscore.DG>
-15.9053

> <Gold.Chemscore.ZeroCoef>
-5.4800

> <Gold.Chemscore.Hbond>
3.3290

> <Gold.Chemscore.Metal>
0.0000

> <Gold.Chemscore.Lipo>
67.6155

> <Gold.Chemscore.Internal_Hbond>
0.0000

> <Gold.Chemscore.DEClash>
0.0251

> <Gold.Chemscore.DEInternal>
3.2430

> <Gold.Chemscore.Rot>
3.3611

> <Gold.Chemscore.Internal.Correction>
   9.000000E+99

> <Gold.Chemscore.Hbonds>
donor molecule, donor type, donor heavy atom, donor atom, acceptor molecule, acceptor atom, score
      L1  H     3    32       P1 10186  0.83
      L1  H     5    56       P1 10957  0.61
      L1  H    20    43       P1  7949  0.22
      P1  H  7989  7998       L1    23  0.22
      P1  H 10752 10764       L1    20  0.88

> <Gold.Chemscore.Hbond.Weighted>
-11.1187

> <Gold.Chemscore.Metal.Weighted>
-0.0000

> <Gold.Chemscore.Lipo.Weighted>
-7.9110

> <Gold.Chemscore.Internal_Hbond.Weighted>
0.0000

> <Gold.Chemscore.DEClash.Weighted>
0.0251

> <Gold.Chemscore.DEInternal.Weighted>
3.2430

> <Gold.Chemscore.Rot.Weighted>
8.6045

> <Gold.Chemscore.Internal.Correction.Weighted>
   9.000000E+99

> <Gold.Protein.RotatedTorsions>
[ 6907 6896 6895 6894 ] final -104.52 input  -60.11 | X-H torsion
[ 7974 7965 7964 7962 ] final  171.58 input  175.53 | X-H torsion
[ 8008 7997 7996 7995 ] final  119.57 input   59.86 | X-H torsion
[ 10167 10162 10161 10158 ] final -132.61 input  -65.29 | X-H torsion
[ 10718 10713 10712 10709 ] final  118.26 input   66.30 | X-H torsion
[ 10763 10752 10751 10750 ] final  -99.76 input  -60.55 | X-H torsion
[ 11005 11000 10999 10996 ] final  152.51 input  -57.11 | X-H torsion

> <Gold.Protein.ActiveResidues>
 VAL166  LYS551  ARG553  GLY616  TRP617  ASP618  TYR619  PRO620  LYS621  CYS622 
 ASP623  PHE694  ASN695  SER759  ASP760  ASP761  ALA762  ILE779  LEU786  VAL792 
 PHE793  MET794  SER795  GLU796  ALA797  LYS798  CYS799  TRP800  GLU811  SER814 

> <Gold.Protein.RotatedAtoms>
  150.7291  134.0265  159.3718 H   0  0  0  0  0  0  0  0  0  0  0  0  # atno 6907 bound_to 6896
  151.8232  135.0643  160.0437 H   0  0  0  0  0  0  0  0  0  0  0  0  # atno 6908 bound_to 6896
  152.2988  133.5598  159.5641 H   0  0  0  0  0  0  0  0  0  0  0  0  # atno 6909 bound_to 6896
  144.7291  139.9371  143.6427 H   0  0  0  0  0  0  0  0  0  0  0  0  # atno 7974 bound_to 7965
  156.2602  140.2850  156.1013 H   0  0  0  0  0  0  0  0  0  0  0  0  # atno 8008 bound_to 7997
  155.1356  140.0394  157.2803 H   0  0  0  0  0  0  0  0  0  0  0  0  # atno 8009 bound_to 7997
  154.6567  140.2557  155.7160 H   0  0  0  0  0  0  0  0  0  0  0  0  # atno 8010 bound_to 7997
  139.9068  143.6542  152.2584 H   0  0  0  0  0  0  0  0  0  0  0  0  # atno 10167 bound_to 10162
  157.6042  131.1046  150.7732 H   0  0  0  0  0  0  0  0  0  0  0  0  # atno 10718 bound_to 10713
  154.7524  135.4960  153.9313 H   0  0  0  0  0  0  0  0  0  0  0  0  # atno 10763 bound_to 10752
  153.1158  135.6720  153.9428 H   0  0  0  0  0  0  0  0  0  0  0  0  # atno 10764 bound_to 10752
  153.9174  135.3092  155.3427 H   0  0  0  0  0  0  0  0  0  0  0  0  # atno 10765 bound_to 10752
  140.1315  134.8799  157.2209 H   0  0  0  0  0  0  0  0  0  0  0  0  # atno 11005 bound_to 11000
  146.0813  139.3801  143.0463 LP  0  0  0  0  0  0  0  0  0  0  0  0  # atno 17320 bound_to 7965
  145.7837  140.9845  143.1085 LP  0  0  0  0  0  0  0  0  0  0  0  0  # atno 17321 bound_to 7965
  139.6977  144.7639  151.1327 LP  0  0  0  0  0  0  0  0  0  0  0  0  # atno 17342 bound_to 10162
  140.7694  143.5501  150.9215 LP  0  0  0  0  0  0  0  0  0  0  0  0  # atno 17343 bound_to 10162
  156.8124  130.4956  149.5354 LP  0  0  0  0  0  0  0  0  0  0  0  0  # atno 17370 bound_to 10713
  156.1123  130.6049  151.0067 LP  0  0  0  0  0  0  0  0  0  0  0  0  # atno 17371 bound_to 10713
  140.2837  134.3321  155.7335 LP  0  0  0  0  0  0  0  0  0  0  0  0  # atno 17394 bound_to 11000
  141.2171  133.7493  156.9401 LP  0  0  0  0  0  0  0  0  0  0  0  0  # atno 17395 bound_to 11000

$$$$
