AV-unprocessed.smi:1205|AV-procd|sdf|5039|dock3
  -GOLD-   22720 4 63D 1   1.00000     0.00000
 Structure written by MMmdl.
 49 50  0  0  0  0  0  0  0  0  2 V2000
  151.0232  142.5301  156.8186 C   0  0  0  0  0  0  0  0  0  0  0  0
  150.7523  141.3538  155.9275 C   0  0  0  0  0  0  0  0  0  0  0  0
  149.7207  141.2092  154.9548 C   0  0  0  0  0  0  0  0  0  0  0  0
  149.9516  139.9567  154.4549 C   0  0  0  0  0  0  0  0  0  0  0  0
  149.2688  139.2807  153.4928 N   0  0  0  0  0  0  0  0  0  0  0  0
  147.9394  139.1419  153.3470 C   0  0  0  0  0  0  0  0  0  0  0  0
  147.0832  139.6232  154.0895 O   0  0  0  0  0  0  0  0  0  0  0  0
  147.6436  138.3953  152.2732 N   0  0  0  0  0  0  0  0  0  0  0  0
  146.2912  138.0551  151.8411 C   0  0  0  0  0  0  0  0  0  0  0  0
  145.6509  136.9414  152.7032 C   0  0  2  0  0  0  0  0  0  0  0  0
  145.8438  137.1717  154.2182 C   0  0  0  0  0  0  0  0  0  0  0  0
  146.1129  135.5952  152.2539 N   0  3  1  0  0  0  0  0  0  0  0  0
  146.4200  134.6290  153.3440 C   0  0  0  0  0  0  0  0  0  0  0  0
  147.1092  133.3762  152.7810 C   0  0  0  0  0  0  0  0  0  0  0  0
  146.2477  132.7193  151.6941 C   0  0  0  0  0  0  0  0  0  0  0  0
  145.9030  133.7383  150.5938 C   0  0  1  0  0  0  0  0  0  0  0  0
  145.0175  133.1135  149.5067 C   0  0  0  0  0  0  0  0  0  0  0  0
  145.2434  134.9886  151.2102 C   0  0  0  0  0  0  0  0  0  0  0  0
  151.0431  139.4155  155.0971 N   0  0  0  0  0  0  0  0  0  0  0  0
  151.6681  138.1192  154.9197 C   0  0  0  0  0  0  0  0  0  0  0  0
  151.5346  140.2834  156.0078 N   0  0  0  0  0  0  0  0  0  0  0  0
  150.3014  143.3287  156.6467 H   0  0  0  0  0  0  0  0  0  0  0  0
  152.0180  142.9384  156.6384 H   0  0  0  0  0  0  0  0  0  0  0  0
  150.9620  142.2488  157.8701 H   0  0  0  0  0  0  0  0  0  0  0  0
  148.9517  141.9179  154.6872 H   0  0  0  0  0  0  0  0  0  0  0  0
  149.8436  138.8286  152.7971 H   0  0  0  0  0  0  0  0  0  0  0  0
  148.4055  138.0413  151.7130 H   0  0  0  0  0  0  0  0  0  0  0  0
  145.6689  138.9519  151.8554 H   0  0  0  0  0  0  0  0  0  0  0  0
  146.3575  137.7457  150.7986 H   0  0  0  0  0  0  0  0  0  0  0  0
  144.5782  136.9823  152.5089 H   0  0  0  0  0  0  0  0  0  0  0  0
  145.3650  138.0971  154.5389 H   0  0  0  0  0  0  0  0  0  0  0  0
  146.8978  137.2448  154.4869 H   0  0  0  0  0  0  0  0  0  0  0  0
  145.4020  136.3682  154.8072 H   0  0  0  0  0  0  0  0  0  0  0  0
  147.0697  135.0859  154.0894 H   0  0  0  0  0  0  0  0  0  0  0  0
  145.5021  134.3385  153.8567 H   0  0  0  0  0  0  0  0  0  0  0  0
  148.0818  133.6463  152.3673 H   0  0  0  0  0  0  0  0  0  0  0  0
  147.3013  132.6636  153.5837 H   0  0  0  0  0  0  0  0  0  0  0  0
  146.7755  131.8651  151.2684 H   0  0  0  0  0  0  0  0  0  0  0  0
  145.3315  132.3287  152.1398 H   0  0  0  0  0  0  0  0  0  0  0  0
  146.8346  134.0492  150.1184 H   0  0  0  0  0  0  0  0  0  0  0  0
  144.0661  132.7731  149.9163 H   0  0  0  0  0  0  0  0  0  0  0  0
  145.5075  132.2552  149.0465 H   0  0  0  0  0  0  0  0  0  0  0  0
  144.8013  133.8318  148.7155 H   0  0  0  0  0  0  0  0  0  0  0  0
  144.2749  134.7302  151.6405 H   0  0  0  0  0  0  0  0  0  0  0  0
  145.0549  135.7166  150.4201 H   0  0  0  0  0  0  0  0  0  0  0  0
  151.8535  137.9418  153.8600 H   0  0  0  0  0  0  0  0  0  0  0  0
  151.0084  137.3404  155.3025 H   0  0  0  0  0  0  0  0  0  0  0  0
  152.6179  138.0748  155.4543 H   0  0  0  0  0  0  0  0  0  0  0  0
  146.9914  135.7685  151.7866 H   0  0  0  0  0  0  0  0  0  0  0  0
  1  2  1  0  0  0  0
  1 22  1  0  0  0  0
  1 23  1  0  0  0  0
  1 24  1  0  0  0  0
  2 21  2  0  0  0  0
  2  3  1  0  0  0  0
  3  4  2  0  0  0  0
  3 25  1  0  0  0  0
  4  5  1  0  0  0  0
  4 19  1  0  0  0  0
  5  6  1  0  0  0  0
  5 26  1  0  0  0  0
  6  7  2  0  0  0  0
  6  8  1  0  0  0  0
  8  9  1  0  0  0  0
  8 27  1  0  0  0  0
  9 10  1  0  0  0  0
  9 28  1  0  0  0  0
  9 29  1  0  0  0  0
 10 11  1  0  0  0  0
 10 12  1  0  0  0  0
 10 30  1  0  0  0  0
 11 31  1  0  0  0  0
 11 32  1  0  0  0  0
 11 33  1  0  0  0  0
 12 18  1  0  0  0  0
 12 13  1  0  0  0  0
 12 49  1  0  0  0  0
 13 14  1  0  0  0  0
 13 34  1  0  0  0  0
 13 35  1  0  0  0  0
 14 15  1  0  0  0  0
 14 36  1  0  0  0  0
 14 37  1  0  0  0  0
 15 16  1  0  0  0  0
 15 38  1  0  0  0  0
 15 39  1  0  0  0  0
 16 17  1  0  0  0  0
 16 18  1  0  0  0  0
 16 40  1  0  0  0  0
 17 41  1  0  0  0  0
 17 42  1  0  0  0  0
 17 43  1  0  0  0  0
 18 44  1  0  0  0  0
 18 45  1  0  0  0  0
 19 20  1  0  0  0  0
 19 21  1  0  0  0  0
 20 46  1  0  0  0  0
 20 47  1  0  0  0  0
 20 48  1  0  0  0  0
M  CHG  1  12   1
M  END
> <s_m_source_file>
AV-unprocessed.smi

> <i_m_source_file_index>
1205

> <i_lp_mmshare_version>
43012

> <i_f3d_flags>
0

> <s_epik_input>
W0NIM11jMVtjSF1jKG4objEpW0NIM10pW05IXUMoPU8pW05IXVtDSDJdW0NASF0oW0NIM10pTjJbQ0gyXVtDSDJdW0NIMl1bQ0BASF0oW0NIM10pW0NIMl0y

> <s_epik_cmdline>
J2VwaWtfcHl0aG9uJywgJy1waCcsICc3LjAnLCAnLXRuJywgJzgnLCAnLW1hJywgJzIwMCcsICctbWV0YWxfYmluZGluZycsICctaW1hZScsICc8aW5maWxlLm1hZT4nLCAnLW9tYWUnLCAnPG91dGZpbGUubWFlPic=

> <r_lp_tautomer_probability>
1

> <r_epik_Ionization_Penalty>
0.0020309

> <r_epik_Ionization_Penalty_Charging>
0.00195276

> <r_epik_Ionization_Penalty_Neutral>
7.81448e-05

> <r_epik_State_Penalty>
0.00133177

> <r_epik_Charging_Adjusted_Penalty>
0.00328452

> <i_epik_Tot_Q>
1

> <i_epik_Tot_abs_Q>
1

> <r_epik_Metal_State_Penalty>
-0

> <b_epik_Metal_Only>
0

> <s_lp_Force_Field>
OPLS_2005

> <r_lp_Energy>
21.646

> <b_lp_Chiralities_Consistent>
1

> <s_lp_Variant>
AV-unprocessed.smi:1205-1

> <Gold.Version>
5.8.1

> <Gold.Id.Protein>
6NUR|6NUR_protein|mol2

> <Gold.PLP.Fitness>
43.7499

> <Gold.PLP.PLP>
-38.9517

> <Gold.PLP.part.hbond>
-4.2560

> <Gold.PLP.part.metal>
0.0000

> <Gold.PLP.part.buried>
-1.4329

> <Gold.PLP.part.nonpolar>
-33.8235

> <Gold.PLP.part.repulsive>
0.3034

> <Gold.PLP.ligand.clash>
0.0068

> <Gold.PLP.ligand.torsion>
1.7363

> <Gold.PLP.Chemscore.Hbond>
2.7200

> <Gold.PLP.Chemscore.CHOScore>
0.0000

> <Gold.PLP.Chemscore.Metal>
0.0000

> <Gold.Chemscore.Hbonds>
donor molecule, donor type, donor heavy atom, donor atom, acceptor molecule, acceptor atom, score
      L1  H     5    26       P1  7957  0.08
      L1  H     8    27       P1  7948  0.45
      L1  H    12    49       P1  7948  2.00

> <Gold.PLP.Chemscore.Internal.Correction>
0.1177

> <Gold.Rescore>
     Score         DG    S(hbond)    S(metal)    S(lipo)     H(rot)  DE(clash)    DE(int)     intcor
     13.69     -16.65       1.83        0.00      75.44       1.47       0.30       2.66       ----

> <Gold.Chemscore.Fitness>
13.6922

> <Gold.Chemscore.DG>
-16.6519

> <Gold.Chemscore.ZeroCoef>
-5.4800

> <Gold.Chemscore.Hbond>
1.8259

> <Gold.Chemscore.Metal>
0.0000

> <Gold.Chemscore.Lipo>
75.4355

> <Gold.Chemscore.Internal_Hbond>
0.0000

> <Gold.Chemscore.DEClash>
0.3039

> <Gold.Chemscore.DEInternal>
2.6559

> <Gold.Chemscore.Rot>
1.4658

> <Gold.Chemscore.Internal.Correction>
   9.000000E+99

> <Gold.Chemscore.Hbonds>
donor molecule, donor type, donor heavy atom, donor atom, acceptor molecule, acceptor atom, score
      L1  H     5    26       P1  7957  0.08
      L1  H     8    27       P1  7948  0.46
      L1  H    12    49       P1  7948  0.94

> <Gold.Chemscore.Hbond.Weighted>
-6.0985

> <Gold.Chemscore.Metal.Weighted>
-0.0000

> <Gold.Chemscore.Lipo.Weighted>
-8.8260

> <Gold.Chemscore.Internal_Hbond.Weighted>
0.0000

> <Gold.Chemscore.DEClash.Weighted>
0.3039

> <Gold.Chemscore.DEInternal.Weighted>
2.6559

> <Gold.Chemscore.Rot.Weighted>
3.7526

> <Gold.Chemscore.Internal.Correction.Weighted>
   9.000000E+99

> <Gold.Protein.RotatedTorsions>
[ 6907 6896 6895 6894 ] final  157.13 input  -60.11 | X-H torsion
[ 7974 7965 7964 7962 ] final  177.91 input  175.53 | X-H torsion
[ 8008 7997 7996 7995 ] final   16.90 input   59.86 | X-H torsion
[ 10167 10162 10161 10158 ] final -117.58 input  -65.29 | X-H torsion
[ 10718 10713 10712 10709 ] final  155.26 input   66.30 | X-H torsion
[ 10763 10752 10751 10750 ] final    0.83 input  -60.55 | X-H torsion
[ 11005 11000 10999 10996 ] final -107.50 input  -57.11 | X-H torsion

> <Gold.Protein.ActiveResidues>
 VAL166  LYS551  ARG553  GLY616  TRP617  ASP618  TYR619  PRO620  LYS621  CYS622 
 ASP623  PHE694  ASN695  SER759  ASP760  ASP761  ALA762  ILE779  LEU786  VAL792 
 PHE793  MET794  SER795  GLU796  ALA797  LYS798  CYS799  TRP800  GLU811  SER814 

> <Gold.Protein.RotatedAtoms>
  152.0196  133.3893  159.4252 H   0  0  0  0  0  0  0  0  0  0  0  0  # atno 6907 bound_to 6896
  150.6891  134.3641  159.4972 H   0  0  0  0  0  0  0  0  0  0  0  0  # atno 6908 bound_to 6896
  152.1413  134.9060  160.0604 H   0  0  0  0  0  0  0  0  0  0  0  0  # atno 6909 bound_to 6896
  144.7163  140.0317  143.6439 H   0  0  0  0  0  0  0  0  0  0  0  0  # atno 7974 bound_to 7965
  154.8836  140.2976  155.5411 H   0  0  0  0  0  0  0  0  0  0  0  0  # atno 8008 bound_to 7997
  156.3022  140.2437  156.3776 H   0  0  0  0  0  0  0  0  0  0  0  0  # atno 8009 bound_to 7997
  154.8691  140.0402  157.1702 H   0  0  0  0  0  0  0  0  0  0  0  0  # atno 8010 bound_to 7997
  140.0668  143.4915  152.2002 H   0  0  0  0  0  0  0  0  0  0  0  0  # atno 10167 bound_to 10162
  157.2206  131.0718  151.1914 H   0  0  0  0  0  0  0  0  0  0  0  0  # atno 10718 bound_to 10713
  153.3157  135.6966  153.7075 H   0  0  0  0  0  0  0  0  0  0  0  0  # atno 10763 bound_to 10752
  153.5935  135.3475  155.2920 H   0  0  0  0  0  0  0  0  0  0  0  0  # atno 10764 bound_to 10752
  154.8586  135.4323  154.2308 H   0  0  0  0  0  0  0  0  0  0  0  0  # atno 10765 bound_to 10752
  141.0951  133.8986  157.1983 H   0  0  0  0  0  0  0  0  0  0  0  0  # atno 11005 bound_to 11000
  146.0096  139.3159  143.0878 LP  0  0  0  0  0  0  0  0  0  0  0  0  # atno 17320 bound_to 7965
  145.8697  140.9427  143.0657 LP  0  0  0  0  0  0  0  0  0  0  0  0  # atno 17321 bound_to 7965
  139.5860  144.7531  151.3519 LP  0  0  0  0  0  0  0  0  0  0  0  0  # atno 17342 bound_to 10162
  140.7145  143.7303  150.7629 LP  0  0  0  0  0  0  0  0  0  0  0  0  # atno 17343 bound_to 10162
  157.3579  130.7116  149.6483 LP  0  0  0  0  0  0  0  0  0  0  0  0  # atno 17370 bound_to 10713
  155.9682  130.4234  150.4559 LP  0  0  0  0  0  0  0  0  0  0  0  0  # atno 17371 bound_to 10713
  139.9785  135.0106  156.9691 LP  0  0  0  0  0  0  0  0  0  0  0  0  # atno 17394 bound_to 11000
  140.5160  134.0954  155.7281 LP  0  0  0  0  0  0  0  0  0  0  0  0  # atno 17395 bound_to 11000

$$$$
