#       Name:                AV-unprocessed.smi:199
#       Creating user name   scv26
#       Creation time:       Thu Mar 26 19:45:03 2020


#       File generated by GOLD software.
#

@<TRIPOS>MOLECULE
AV-unprocessed.smi:199
    61    65     1
SMALL
NO_CHARGES


@<TRIPOS>ATOM
      1 ****        -6.1678  -1.2540  -0.4682 C.3            1 S1                 0.0000
      2 ****        -5.5514   0.1409  -0.6566 C.3            1 S1                 0.0000
      3 ****        -5.8682   0.9110   0.5004 O.3            1 S1                 0.0000
      4 ****        -4.8277   1.8446   0.7298 C.3            1 S1                 0.0000
      5 ****        -3.5828   1.0290   0.4177 C.3            1 S1                 0.0000
      6 ****        -4.0042   0.2111  -0.8001 C.3            1 S1                 0.0000
      7 ****        -3.7157   0.9795  -1.9566 O.3            1 S1                 0.0000
      8 ****        -3.2575  -1.1431  -0.9308 C.3            1 S1                 0.0000
      9 ****        -1.8090  -1.0021  -0.9494 N.pl3          1 S1                 0.0000
     10 ****        -1.0221  -0.7123  -2.0397 C.2            1 S1                 0.0000
     11 ****         0.2565  -0.6315  -1.7951 N.2            1 S1                 0.0000
     12 ****         0.3665  -0.8849  -0.4323 C.ar           1 S1                 0.0000
     13 ****         1.4522  -0.9476   0.4911 C.ar           1 S1                 0.0000
     14 ****         2.7559  -0.7269   0.1627 N.3            1 S1                 0.0000
     15 ****         3.1200   0.3057  -0.7976 C.3            1 S1                 0.0000
     16 ****         2.9092   1.6222  -0.0249 C.3            1 S1                 0.0000
     17 ****         3.3190   1.2025   1.3949 C.3            1 S1                 0.0000
     18 ****         3.7039  -0.2797   1.1757 C.3            1 S1                 0.0000
     19 ****         5.0429  -0.4114   0.4183 C.3            1 S1                 0.0000
     20 ****         6.2545   0.3073   1.0406 C.3            1 S1                 0.0000
     21 ****         7.4373  -0.0757   0.3723 O.3            1 S1                 0.0000
     22 ****         4.6312   0.0768  -0.9831 C.3            1 S1                 0.0000
     23 ****         1.1528  -1.2723   1.7773 N.ar           1 S1                 0.0000
     24 ****        -0.1109  -1.4913   2.1483 C.ar           1 S1                 0.0000
     25 ****        -1.2165  -1.4456   1.4051 N.ar           1 S1                 0.0000
     26 ****        -0.9275  -1.1384   0.1087 C.ar           1 S1                 0.0000
     27 ****        -5.9678  -1.8975  -1.3251 H              1 S1                 0.0000
     28 ****        -7.2502  -1.1834  -0.3597 H              1 S1                 0.0000
     29 ****        -5.7833  -1.7440   0.4265 H              1 S1                 0.0000
     30 ****        -6.0349   0.6172  -1.5118 H              1 S1                 0.0000
     31 ****        -4.9295   2.6892   0.0463 H              1 S1                 0.0000
     32 ****        -4.8418   2.2208   1.7528 H              1 S1                 0.0000
     33 ****        -2.6953   1.6419   0.2537 H              1 S1                 0.0000
     34 ****        -3.3797   0.3690   1.2618 H              1 S1                 0.0000
     35 ****        -4.0731   0.5337  -2.7091 H              1 S1                 0.0000
     36 ****        -3.5124  -1.8026  -0.1011 H              1 S1                 0.0000
     37 ****        -3.5612  -1.6619  -1.8410 H              1 S1                 0.0000
     38 ****        -1.4294  -0.5556  -3.0280 H              1 S1                 0.0000
     39 ****         2.5923   0.2769  -1.7487 H              1 S1                 0.0000
     40 ****         3.5113   2.4426  -0.4164 H              1 S1                 0.0000
     41 ****         1.8626   1.9284  -0.0495 H              1 S1                 0.0000
     42 ****         4.1210   1.8113   1.8096 H              1 S1                 0.0000
     43 ****         2.4684   1.2859   2.0723 H              1 S1                 0.0000
     44 ****         3.6963  -0.8658   2.0954 H              1 S1                 0.0000
     45 ****         5.2749  -1.4768   0.3598 H              1 S1                 0.0000
     46 ****         6.1578   1.3910   0.9804 H              1 S1                 0.0000
     47 ****         6.3512   0.0438   2.0940 H              1 S1                 0.0000
     48 ****         7.3639   0.1752  -0.5359 H              1 S1                 0.0000
     49 ****         4.8226  -0.6968  -1.7277 H              1 S1                 0.0000
     50 ****         5.1512   0.9819  -1.2990 H              1 S1                 0.0000
     51 ****        -0.2566  -1.7377   3.1896 H              1 S1                 0.0000
     52 ****        -5.9571   0.3064   1.2920 LP             1 S1                 0.0000
     53 ****        -6.7295   1.3976   0.3542 LP             1 S1                 0.0000
     54 ****        -2.7256   1.0752  -2.0598 LP             1 S1                 0.0000
     55 ****        -4.1311   1.8852  -1.8722 LP             1 S1                 0.0000
     56 ****         0.9924  -0.4321  -2.4422 LP             1 S1                 0.0000
     57 ****         2.8188  -1.6764  -0.1448 LP             1 S1                 0.0000
     58 ****         7.5571  -1.0662   0.4399 LP             1 S1                 0.0000
     59 ****         8.2227   0.3841   0.7868 LP             1 S1                 0.0000
     60 ****         1.8868  -1.3478   2.4523 LP             1 S1                 0.0000
     61 ****        -2.1385  -1.6148   1.7534 LP             1 S1                 0.0000
@<TRIPOS>BOND
    1    1    2 1     
    2    1   27 1     
    3    1   28 1     
    4    1   29 1     
    5    2    6 1     
    6    2    3 1     
    7    2   30 1     
    8    3    4 1     
    9    4    5 1     
   10    4   31 1     
   11    4   32 1     
   12    5    6 1     
   13    5   33 1     
   14    5   34 1     
   15    6    7 1     
   16    6    8 1     
   17    7   35 1     
   18    8    9 1     
   19    8   36 1     
   20    8   37 1     
   21    9   26 1     
   22    9   10 1     
   23   10   11 2     
   24   10   38 1     
   25   11   12 1     
   26   12   26 ar    
   27   12   13 ar    
   28   13   14 1     
   29   13   23 ar    
   30   14   18 1     
   31   14   15 1     
   32   15   22 1     
   33   15   16 1     
   34   15   39 1     
   35   16   17 1     
   36   16   40 1     
   37   16   41 1     
   38   17   18 1     
   39   17   42 1     
   40   17   43 1     
   41   18   19 1     
   42   18   44 1     
   43   19   20 1     
   44   19   22 1     
   45   19   45 1     
   46   20   21 1     
   47   20   46 1     
   48   20   47 1     
   49   21   48 1     
   50   22   49 1     
   51   22   50 1     
   52   23   24 ar    
   53   24   25 ar    
   54   24   51 1     
   55   25   26 ar    
   56    3   52 1     
   57    3   53 1     
   58    7   54 1     
   59    7   55 1     
   60   11   56 1     
   61   14   57 1     
   62   21   58 1     
   63   21   59 1     
   64   23   60 1     
   65   25   61 1     
@<TRIPOS>SUBSTRUCTURE
      1 S1             1
@<TRIPOS>SET
LONE_PAIRS      STATIC     ATOMS    <user>   **** ""
10 52 53 54 55 56 57 58 59 60 61
DONOR_HYDROGENS      STATIC     ATOMS    <user>   **** ""
2 35 48
ATOM$BLUE        STATIC     ATOMS    COLORGROUP SYSTEM
10 52 53 54 55 56 57 58 59 60 61
ATOM$RED        STATIC     ATOMS    COLORGROUP SYSTEM
2 35 48
