#       Name:                AV-unprocessed.smi:1047
#       Creating user name   scv26
#       Creation time:       Fri Mar 27 03:09:32 2020


#       File generated by GOLD software.
#

@<TRIPOS>MOLECULE
AV-unprocessed.smi:1047
    62    64     1
SMALL
NO_CHARGES


@<TRIPOS>ATOM
      1 ****        -5.8035   5.6222   0.4991 C.3            1 S1                 0.0000
      2 ****        -4.8697   4.4051   0.4452 C.3            1 S1                 0.0000
      3 ****        -5.1405   3.5363  -0.7308 N.4            1 S1                 1.0000
      4 ****        -4.6754   4.0870  -2.0294 C.3            1 S1                 0.0000
      5 ****        -3.1563   3.9041  -2.2081 C.3            1 S1                 0.0000
      6 ****        -2.8171   2.5322  -2.0487 O.3            1 S1                 0.0000
      7 ****        -3.1370   2.0381  -0.7516 C.3            1 S1                 0.0000
      8 ****        -2.6508   0.5843  -0.6643 C.3            1 S1                 0.0000
      9 ****        -1.1955   0.5226  -0.5797 N.3            1 S1                 0.0000
     10 ****        -0.6743  -0.8395  -0.5222 C.3            1 S1                 0.0000
     11 ****         0.8639  -0.8516  -0.5219 C.3            1 S1                 0.0000
     12 ****         1.3174  -0.5683   0.7872 O.3            1 S1                 0.0000
     13 ****         1.4193  -2.2180  -0.9679 C.3            1 S1                 0.0000
     14 ****         2.8882  -2.2470  -1.0224 N.pl3          1 S1                 0.0000
     15 ****         3.7252  -1.8230  -2.0079 C.2            1 S1                 0.0000
     16 ****         5.0003  -2.0680  -1.5986 N.pl3          1 S1                 1.0000
     17 ****         4.9781  -2.6553  -0.3321 C.ar           1 S1                 0.0000
     18 ****         6.0143  -3.0831   0.4892 C.ar           1 S1                 0.0000
     19 ****         5.6592  -3.6426   1.7372 C.ar           1 S1                 0.0000
     20 ****         6.7682  -4.1222   2.6583 C.3            1 S1                 0.0000
     21 ****         4.2992  -3.7552   2.1260 C.ar           1 S1                 0.0000
     22 ****         3.9290  -4.3514   3.4734 C.3            1 S1                 0.0000
     23 ****         3.2596  -3.3164   1.2749 C.ar           1 S1                 0.0000
     24 ****         3.6261  -2.7704   0.0466 C.ar           1 S1                 0.0000
     25 ****        -4.6651   2.1409  -0.5603 C.3            1 S1                 0.0000
     26 ****        -5.6436   6.1866   1.4182 H              1 S1                 0.0000
     27 ****        -6.8500   5.3166   0.4784 H              1 S1                 0.0000
     28 ****        -5.6354   6.3060  -0.3323 H              1 S1                 0.0000
     29 ****        -3.8276   4.7239   0.4634 H              1 S1                 0.0000
     30 ****        -5.0287   3.8288   1.3575 H              1 S1                 0.0000
     31 ****        -5.1936   3.5533  -2.8271 H              1 S1                 0.0000
     32 ****        -4.9520   5.1349  -2.1380 H              1 S1                 0.0000
     33 ****        -2.8583   4.2233  -3.2068 H              1 S1                 0.0000
     34 ****        -2.5930   4.5164  -1.5031 H              1 S1                 0.0000
     35 ****        -2.6283   2.6316   0.0106 H              1 S1                 0.0000
     36 ****        -3.0818   0.1100   0.2182 H              1 S1                 0.0000
     37 ****        -3.0089   0.0217  -1.5276 H              1 S1                 0.0000
     38 ****        -0.7853   1.0130  -1.3683 H              1 S1                 0.0000
     39 ****        -1.0648  -1.3703   0.3473 H              1 S1                 0.0000
     40 ****        -1.0285  -1.3848  -1.3980 H              1 S1                 0.0000
     41 ****         1.2441  -0.0834  -1.1971 H              1 S1                 0.0000
     42 ****         0.9429  -1.2024   1.3791 H              1 S1                 0.0000
     43 ****         1.0612  -3.0230  -0.3261 H              1 S1                 0.0000
     44 ****         1.0623  -2.4497  -1.9722 H              1 S1                 0.0000
     45 ****         3.4307  -1.3748  -2.9459 H              1 S1                 0.0000
     46 ****         7.0475  -2.9919   0.1874 H              1 S1                 0.0000
     47 ****         6.6513  -5.1835   2.8795 H              1 S1                 0.0000
     48 ****         6.7525  -3.5683   3.5974 H              1 S1                 0.0000
     49 ****         7.7506  -3.9830   2.2057 H              1 S1                 0.0000
     50 ****         2.8488  -4.3598   3.6230 H              1 S1                 0.0000
     51 ****         4.3723  -3.7711   4.2829 H              1 S1                 0.0000
     52 ****         4.2840  -5.3795   3.5485 H              1 S1                 0.0000
     53 ****         2.2259  -3.4006   1.5747 H              1 S1                 0.0000
     54 ****        -4.9633   1.7542   0.4150 H              1 S1                 0.0000
     55 ****        -5.1670   1.5167  -1.3012 H              1 S1                 0.0000
     56 ****        -6.1474   3.4781  -0.7866 H              1 S1                 0.0000
     57 ****         5.8233  -1.8486  -2.1452 H              1 S1                 0.0000
     58 ****        -1.8343   2.4253  -2.1992 LP             1 S1                 0.0000
     59 ****        -3.3185   1.9968  -2.7285 LP             1 S1                 0.0000
     60 ****        -0.9400   0.9638   0.2805 LP             1 S1                 0.0000
     61 ****         1.0287   0.3517   1.0521 LP             1 S1                 0.0000
     62 ****         2.3152  -0.6265   0.8182 LP             1 S1                 0.0000
@<TRIPOS>BOND
    1    1    2 1     
    2    1   26 1     
    3    1   27 1     
    4    1   28 1     
    5    2    3 1     
    6    2   29 1     
    7    2   30 1     
    8    3   25 1     
    9    3    4 1     
   10    3   56 1     
   11    4    5 1     
   12    4   31 1     
   13    4   32 1     
   14    5    6 1     
   15    5   33 1     
   16    5   34 1     
   17    6    7 1     
   18    7    8 1     
   19    7   25 1     
   20    7   35 1     
   21    8    9 1     
   22    8   36 1     
   23    8   37 1     
   24    9   10 1     
   25    9   38 1     
   26   10   11 1     
   27   10   39 1     
   28   10   40 1     
   29   11   12 1     
   30   11   13 1     
   31   11   41 1     
   32   12   42 1     
   33   13   14 1     
   34   13   43 1     
   35   13   44 1     
   36   14   24 1     
   37   14   15 1     
   38   15   16 2     
   39   15   45 1     
   40   16   17 1     
   41   16   57 1     
   42   17   24 ar    
   43   17   18 ar    
   44   18   19 ar    
   45   18   46 1     
   46   19   20 1     
   47   19   21 ar    
   48   20   47 1     
   49   20   48 1     
   50   20   49 1     
   51   21   22 1     
   52   21   23 ar    
   53   22   50 1     
   54   22   51 1     
   55   22   52 1     
   56   23   24 ar    
   57   23   53 1     
   58   25   54 1     
   59   25   55 1     
   60    6   58 1     
   61    6   59 1     
   62    9   60 1     
   63   12   61 1     
   64   12   62 1     
@<TRIPOS>SUBSTRUCTURE
      1 S1             1
@<TRIPOS>SET
LONE_PAIRS      STATIC     ATOMS    <user>   **** ""
5 58 59 60 61 62
DONOR_HYDROGENS      STATIC     ATOMS    <user>   **** ""
4 56 38 42 57
ATOM$BLUE        STATIC     ATOMS    COLORGROUP SYSTEM
5 58 59 60 61 62
ATOM$RED        STATIC     ATOMS    COLORGROUP SYSTEM
4 56 38 42 57
