AV-unprocessed.smi:1047|AV-procd|sdf|4561|dock10
  -GOLD-   22720 3 03D 1   1.00000     0.00000
 Structure written by MMmdl.
 57 59  0  0  0  0  0  0  0  0  3 V2000
  144.4997  131.5210  151.0425 C   0  0  0  0  0  0  0  0  0  0  0  0
  145.2340  132.1536  152.2334 C   0  0  0  0  0  0  0  0  0  0  0  0
  144.4593  133.2608  152.8550 N   0  3  2  0  0  0  0  0  0  0  0  0
  143.8683  134.1974  151.8684 C   0  0  0  0  0  0  0  0  0  0  0  0
  144.9255  135.1770  151.3289 C   0  0  0  0  0  0  0  0  0  0  0  0
  145.5201  135.8767  152.4157 O   0  0  0  0  0  0  0  0  0  0  0  0
  146.2015  135.0098  153.3174 C   0  0  1  0  0  0  0  0  0  0  0  0
  146.8557  135.8750  154.4060 C   0  0  0  0  0  0  0  0  0  0  0  0
  147.6216  136.9922  153.8171 N   0  3  0  0  0  0  0  0  0  0  0  0
  148.1336  137.9621  154.8061 C   0  0  0  0  0  0  0  0  0  0  0  0
  148.6534  139.2364  154.1206 C   0  0  2  0  0  0  0  0  0  0  0  0
  147.9950  139.3815  152.8766 O   0  0  0  0  0  0  0  0  0  0  0  0
  150.1759  139.1858  153.8891 C   0  0  0  0  0  0  0  0  0  0  0  0
  150.9110  138.8784  155.1030 N   0  0  0  0  0  0  0  0  0  0  0  0
  151.3936  137.6790  155.4819 C   0  0  0  0  0  0  0  0  0  0  0  0
  152.0467  137.6237  156.6387 N   0  0  0  0  0  0  0  0  0  0  0  0
  151.9725  138.9388  157.0647 C   0  0  0  0  0  0  0  0  0  0  0  0
  152.4716  139.5536  158.2337 C   0  0  0  0  0  0  0  0  0  0  0  0
  152.2730  140.9329  158.4683 C   0  0  0  0  0  0  0  0  0  0  0  0
  152.8247  141.5521  159.7405 C   0  0  0  0  0  0  0  0  0  0  0  0
  151.5667  141.7202  157.5236 C   0  0  0  0  0  0  0  0  0  0  0  0
  151.3392  143.2032  157.7571 C   0  0  0  0  0  0  0  0  0  0  0  0
  151.0645  141.1226  156.3483 C   0  0  0  0  0  0  0  0  0  0  0  0
  151.2670  139.7488  156.1272 C   0  0  0  0  0  0  0  0  0  0  0  0
  145.1820  134.0126  153.9139 C   0  0  0  0  0  0  0  0  0  0  0  0
  145.1334  130.7826  150.5506 H   0  0  0  0  0  0  0  0  0  0  0  0
  144.2331  132.2729  150.2988 H   0  0  0  0  0  0  0  0  0  0  0  0
  143.5870  131.0093  151.3466 H   0  0  0  0  0  0  0  0  0  0  0  0
  145.4901  131.3924  152.9703 H   0  0  0  0  0  0  0  0  0  0  0  0
  146.1808  132.5485  151.8633 H   0  0  0  0  0  0  0  0  0  0  0  0
  143.3915  133.6520  151.0533 H   0  0  0  0  0  0  0  0  0  0  0  0
  143.0755  134.7608  152.3628 H   0  0  0  0  0  0  0  0  0  0  0  0
  145.6897  134.6575  150.7488 H   0  0  0  0  0  0  0  0  0  0  0  0
  144.4584  135.9001  150.6600 H   0  0  0  0  0  0  0  0  0  0  0  0
  146.9848  134.4687  152.7841 H   0  0  0  0  0  0  0  0  0  0  0  0
  146.0989  136.2663  155.0877 H   0  0  0  0  0  0  0  0  0  0  0  0
  147.5372  135.2638  154.9992 H   0  0  0  0  0  0  0  0  0  0  0  0
  148.4127  136.6154  153.3137 H   0  0  0  0  0  0  0  0  0  0  0  0
  147.3240  138.2166  155.4914 H   0  0  0  0  0  0  0  0  0  0  0  0
  148.9234  137.5010  155.4015 H   0  0  0  0  0  0  0  0  0  0  0  0
  148.4150  140.1036  154.7383 H   0  0  0  0  0  0  0  0  0  0  0  0
  148.6472  139.5230  152.2063 H   0  0  0  0  0  0  0  0  0  0  0  0
  150.4196  138.4271  153.1442 H   0  0  0  0  0  0  0  0  0  0  0  0
  150.5360  140.1369  153.4936 H   0  0  0  0  0  0  0  0  0  0  0  0
  151.2632  136.7976  154.8708 H   0  0  0  0  0  0  0  0  0  0  0  0
  153.0096  138.9539  158.9533 H   0  0  0  0  0  0  0  0  0  0  0  0
  152.0242  142.0086  160.3229 H   0  0  0  0  0  0  0  0  0  0  0  0
  153.5615  142.3194  159.5025 H   0  0  0  0  0  0  0  0  0  0  0  0
  153.3101  140.8052  160.3693 H   0  0  0  0  0  0  0  0  0  0  0  0
  150.8032  143.6603  156.9249 H   0  0  0  0  0  0  0  0  0  0  0  0
  152.2908  143.7235  157.8678 H   0  0  0  0  0  0  0  0  0  0  0  0
  150.7506  143.3612  158.6612 H   0  0  0  0  0  0  0  0  0  0  0  0
  150.5248  141.7108  155.6210 H   0  0  0  0  0  0  0  0  0  0  0  0
  144.4414  134.5617  154.4973 H   0  0  0  0  0  0  0  0  0  0  0  0
  145.6694  133.3330  154.6122 H   0  0  0  0  0  0  0  0  0  0  0  0
  147.0284  137.4834  153.1634 H   0  0  0  0  0  0  0  0  0  0  0  0
  143.6761  132.8083  153.3056 H   0  0  0  0  0  0  0  0  0  0  0  0
  1  2  1  0  0  0  0
  1 26  1  0  0  0  0
  1 27  1  0  0  0  0
  1 28  1  0  0  0  0
  2  3  1  0  0  0  0
  2 29  1  0  0  0  0
  2 30  1  0  0  0  0
  3 25  1  0  0  0  0
  3  4  1  0  0  0  0
  3 57  1  0  0  0  0
  4  5  1  0  0  0  0
  4 31  1  0  0  0  0
  4 32  1  0  0  0  0
  5  6  1  0  0  0  0
  5 33  1  0  0  0  0
  5 34  1  0  0  0  0
  6  7  1  0  0  0  0
  7  8  1  0  0  0  0
  7 25  1  0  0  0  0
  7 35  1  0  0  0  0
  8  9  1  0  0  0  0
  8 36  1  0  0  0  0
  8 37  1  0  0  0  0
  9 10  1  0  0  0  0
  9 38  1  0  0  0  0
  9 56  1  0  0  0  0
 10 11  1  0  0  0  0
 10 39  1  0  0  0  0
 10 40  1  0  0  0  0
 11 12  1  0  0  0  0
 11 13  1  0  0  0  0
 11 41  1  0  0  0  0
 12 42  1  0  0  0  0
 13 14  1  0  0  0  0
 13 43  1  0  0  0  0
 13 44  1  0  0  0  0
 14 24  1  0  0  0  0
 14 15  1  0  0  0  0
 15 16  2  0  0  0  0
 15 45  1  0  0  0  0
 16 17  1  0  0  0  0
 17 24  2  0  0  0  0
 17 18  1  0  0  0  0
 18 19  2  0  0  0  0
 18 46  1  0  0  0  0
 19 20  1  0  0  0  0
 19 21  1  0  0  0  0
 20 47  1  0  0  0  0
 20 48  1  0  0  0  0
 20 49  1  0  0  0  0
 21 22  1  0  0  0  0
 21 23  2  0  0  0  0
 22 50  1  0  0  0  0
 22 51  1  0  0  0  0
 22 52  1  0  0  0  0
 23 24  1  0  0  0  0
 23 53  1  0  0  0  0
 25 54  1  0  0  0  0
 25 55  1  0  0  0  0
M  CHG  1   3   1
M  CHG  1   9   1
M  END
> <s_m_source_file>
AV-unprocessed.smi

> <i_m_source_file_index>
1047

> <i_lp_mmshare_version>
43012

> <i_f3d_flags>
0

> <s_epik_input>
W0NIM11bQ0gyXU4xW0NIMl1bQ0gyXU9bQ0BIXShbQ0gyXTEpW0NIMl1bTkhdW0NIMl1bQ0BIXShbT0hdKVtDSDJdbihbY0hdbjIpYyhjMjMpW2NIXWMoW0NIM10pYyhbY0hdMylbQ0gzXQ==

> <s_epik_cmdline>
J2VwaWtfcHl0aG9uJywgJy1waCcsICc3LjAnLCAnLXRuJywgJzgnLCAnLW1hJywgJzIwMCcsICctbWV0YWxfYmluZGluZycsICctaW1hZScsICc8aW5maWxlLm1hZT4nLCAnLW9tYWUnLCAnPG91dGZpbGUubWFlPic=

> <r_epik_Ionization_Penalty>
0.528991

> <r_epik_Ionization_Penalty_Charging>
0.438567

> <r_epik_Ionization_Penalty_Neutral>
0.0904237

> <r_epik_State_Penalty>
0.533036

> <r_epik_Charging_Adjusted_Penalty>
0.971603

> <i_epik_Tot_Q>
2

> <i_epik_Tot_abs_Q>
2

> <r_epik_Metal_State_Penalty>
0.448985

> <b_epik_Metal_Only>
0

> <s_lp_Force_Field>
OPLS_2005

> <r_lp_Energy>
30.8403

> <b_lp_Chiralities_Consistent>
1

> <s_lp_Variant>
AV-unprocessed.smi:1047-2

> <Gold.Version>
5.8.1

> <Gold.Id.Protein>
6NUR|6NUR_protein|mol2

> <Gold.PLP.Fitness>
52.0989

> <Gold.PLP.PLP>
-38.9708

> <Gold.PLP.part.hbond>
-3.0000

> <Gold.PLP.part.metal>
0.0000

> <Gold.PLP.part.buried>
-1.3317

> <Gold.PLP.part.nonpolar>
-34.7442

> <Gold.PLP.part.repulsive>
0.1248

> <Gold.PLP.ligand.clash>
0.0000

> <Gold.PLP.ligand.torsion>
0.9799

> <Gold.PLP.Chemscore.Hbond>
5.0000

> <Gold.PLP.Chemscore.CHOScore>
0.0000

> <Gold.PLP.Chemscore.Metal>
0.0000

> <Gold.Chemscore.Hbonds>
donor molecule, donor type, donor heavy atom, donor atom, acceptor molecule, acceptor atom, score
      L1  H     3    57       P1 10957  1.85
      L1  H     9    38       P1  7948  1.79
      L1  H    12    42       P1  7957  0.93

> <Gold.PLP.Chemscore.Internal.Correction>
0.0879

> <Gold.Rescore>
     Score         DG    S(hbond)    S(metal)    S(lipo)     H(rot)  DE(clash)    DE(int)     intcor
     18.18     -20.29       2.91        0.00     102.51       2.70       1.11       0.99       ----

> <Gold.Chemscore.Fitness>
18.1821

> <Gold.Chemscore.DG>
-20.2899

> <Gold.Chemscore.ZeroCoef>
-5.4800

> <Gold.Chemscore.Hbond>
2.9115

> <Gold.Chemscore.Metal>
0.0000

> <Gold.Chemscore.Lipo>
102.5111

> <Gold.Chemscore.Internal_Hbond>
0.0000

> <Gold.Chemscore.DEClash>
1.1140

> <Gold.Chemscore.DEInternal>
0.9938

> <Gold.Chemscore.Rot>
2.6985

> <Gold.Chemscore.Internal.Correction>
   9.000000E+99

> <Gold.Chemscore.Hbonds>
donor molecule, donor type, donor heavy atom, donor atom, acceptor molecule, acceptor atom, score
      L1  H     3    57       P1 10957  0.48
      L1  H     9    38       P1  7948  0.87
      L1  H    12    42       P1  7957  0.89

> <Gold.Chemscore.Hbond.Weighted>
-9.7243

> <Gold.Chemscore.Metal.Weighted>
-0.0000

> <Gold.Chemscore.Lipo.Weighted>
-11.9938

> <Gold.Chemscore.Internal_Hbond.Weighted>
0.0000

> <Gold.Chemscore.DEClash.Weighted>
1.1140

> <Gold.Chemscore.DEInternal.Weighted>
0.9938

> <Gold.Chemscore.Rot.Weighted>
6.9081

> <Gold.Chemscore.Internal.Correction.Weighted>
   9.000000E+99

> <Gold.Protein.RotatedTorsions>
[ 6907 6896 6895 6894 ] final -152.20 input  -60.11 | X-H torsion
[ 7974 7965 7964 7962 ] final  -95.03 input  175.53 | X-H torsion
[ 8008 7997 7996 7995 ] final   -3.49 input   59.86 | X-H torsion
[ 10167 10162 10161 10158 ] final  100.80 input  -65.29 | X-H torsion
[ 10718 10713 10712 10709 ] final   48.93 input   66.30 | X-H torsion
[ 10763 10752 10751 10750 ] final  179.44 input  -60.55 | X-H torsion
[ 11005 11000 10999 10996 ] final  -15.67 input  -57.11 | X-H torsion

> <Gold.Protein.ActiveResidues>
 VAL166  LYS551  ARG553  GLY616  TRP617  ASP618  TYR619  PRO620  LYS621  CYS622 
 ASP623  PHE694  ASN695  SER759  ASP760  ASP761  ALA762  ILE779  LEU786  VAL792 
 PHE793  MET794  SER795  GLU796  ALA797  LYS798  CYS799  TRP800  GLU811  SER814 

> <Gold.Protein.RotatedAtoms>
  151.2243  133.4485  159.2601 H   0  0  0  0  0  0  0  0  0  0  0  0  # atno 6907 bound_to 6896
  151.0855  134.9884  159.8387 H   0  0  0  0  0  0  0  0  0  0  0  0  # atno 6908 bound_to 6896
  152.5429  134.2180  159.8829 H   0  0  0  0  0  0  0  0  0  0  0  0  # atno 6909 bound_to 6896
  145.3654  140.9498  143.2477 H   0  0  0  0  0  0  0  0  0  0  0  0  # atno 7974 bound_to 7965
  154.6244  140.2508  155.7510 H   0  0  0  0  0  0  0  0  0  0  0  0  # atno 8008 bound_to 7997
  156.2445  140.2920  156.0486 H   0  0  0  0  0  0  0  0  0  0  0  0  # atno 8009 bound_to 7997
  155.1845  140.0390  157.2879 H   0  0  0  0  0  0  0  0  0  0  0  0  # atno 8010 bound_to 7997
  139.7495  144.6988  151.0454 H   0  0  0  0  0  0  0  0  0  0  0  0  # atno 10167 bound_to 10162
  157.4736  130.8271  149.8015 H   0  0  0  0  0  0  0  0  0  0  0  0  # atno 10718 bound_to 10713
  154.5207  135.2794  155.1264 H   0  0  0  0  0  0  0  0  0  0  0  0  # atno 10763 bound_to 10752
  154.2823  135.6283  153.5355 H   0  0  0  0  0  0  0  0  0  0  0  0  # atno 10764 bound_to 10752
  152.9936  135.5654  154.5696 H   0  0  0  0  0  0  0  0  0  0  0  0  # atno 10765 bound_to 10752
  140.7989  133.8229  155.9451 H   0  0  0  0  0  0  0  0  0  0  0  0  # atno 11005 bound_to 11000
  144.8615  139.5170  143.6810 LP  0  0  0  0  0  0  0  0  0  0  0  0  # atno 17320 bound_to 7965
  146.2909  139.7136  142.9162 LP  0  0  0  0  0  0  0  0  0  0  0  0  # atno 17321 bound_to 7965
  140.7796  143.4826  150.9998 LP  0  0  0  0  0  0  0  0  0  0  0  0  # atno 17342 bound_to 10162
  139.8514  143.7433  152.3178 LP  0  0  0  0  0  0  0  0  0  0  0  0  # atno 17343 bound_to 10162
  156.0085  130.3844  150.2345 LP  0  0  0  0  0  0  0  0  0  0  0  0  # atno 17370 bound_to 10713
  157.0528  131.0067  151.3248 LP  0  0  0  0  0  0  0  0  0  0  0  0  # atno 17371 bound_to 10713
  140.9314  134.2017  157.4861 LP  0  0  0  0  0  0  0  0  0  0  0  0  # atno 17394 bound_to 11000
  139.8723  134.9834  156.5197 LP  0  0  0  0  0  0  0  0  0  0  0  0  # atno 17395 bound_to 11000

$$$$
