AV-unprocessed.smi:3330|AV-procd|sdf|12801|dock8
  -GOLD-   2272019163D 1   1.00000     0.00000
 Structure written by MMmdl.
 39 40  0  0  0  0  0  0  0  0  2 V2000
  144.4451  137.2562  152.7650 C   0  0  0  0  0  0  0  0  0  0  0  0
  145.7930  136.6993  152.2716 C   0  0  2  0  0  0  0  0  0  0  0  0
  146.7638  137.8046  152.1051 N   0  3  0  0  0  0  0  0  0  0  0  0
  146.8111  138.7904  153.2052 C   0  0  0  0  0  0  0  0  0  0  0  0
  147.5479  140.0732  152.7787 C   0  0  0  0  0  0  0  0  0  0  0  0
  148.1717  140.7661  153.9147 N   0  0  0  0  0  0  0  0  0  0  0  0
  149.3972  140.4883  154.3791 C   0  0  0  0  0  0  0  0  0  0  0  0
  150.1867  139.6492  153.9477 O   0  0  0  0  0  0  0  0  0  0  0  0
  149.6865  141.4011  155.5506 C   0  0  0  0  0  0  0  0  0  0  0  0
  148.4519  142.1552  155.5698 N   0  0  0  0  0  0  0  0  0  0  0  0
  147.6016  141.7674  154.6108 C   0  0  0  0  0  0  0  0  0  0  0  0
  146.4967  142.2648  154.3999 O   0  0  0  0  0  0  0  0  0  0  0  0
  145.6668  135.9138  150.9380 C   0  0  2  0  0  0  0  0  0  0  0  0
  145.1892  136.7875  149.7632 C   0  0  0  0  0  0  0  0  0  0  0  0
  144.7871  134.7561  151.0741 N   0  0  0  0  0  0  0  0  0  0  0  0
  144.5769  133.7347  150.1703 C   0  0  0  0  0  0  0  0  0  0  0  0
  143.6611  132.8839  150.7196 C   0  0  0  0  0  0  0  0  0  0  0  0
  143.3553  133.4800  151.9742 C   0  0  0  0  0  0  0  0  0  0  0  0
  144.0306  134.5977  152.1844 N   0  0  0  0  0  0  0  0  0  0  0  0
  143.7338  136.4587  152.9776 H   0  0  0  0  0  0  0  0  0  0  0  0
  143.9938  137.9172  152.0243 H   0  0  0  0  0  0  0  0  0  0  0  0
  144.5615  137.8241  153.6881 H   0  0  0  0  0  0  0  0  0  0  0  0
  146.1793  136.0153  153.0289 H   0  0  0  0  0  0  0  0  0  0  0  0
  147.6786  137.3779  152.0646 H   0  0  0  0  0  0  0  0  0  0  0  0
  145.7965  139.0300  153.5236 H   0  0  0  0  0  0  0  0  0  0  0  0
  147.3199  138.3548  154.0662 H   0  0  0  0  0  0  0  0  0  0  0  0
  148.3004  139.8328  152.0255 H   0  0  0  0  0  0  0  0  0  0  0  0
  146.8470  140.7469  152.2826 H   0  0  0  0  0  0  0  0  0  0  0  0
  149.8299  140.8391  156.4740 H   0  0  0  0  0  0  0  0  0  0  0  0
  150.5483  142.0414  155.3608 H   0  0  0  0  0  0  0  0  0  0  0  0
  148.2699  142.8952  156.2324 H   0  0  0  0  0  0  0  0  0  0  0  0
  146.6543  135.5276  150.6800 H   0  0  0  0  0  0  0  0  0  0  0  0
  145.9051  137.5735  149.5250 H   0  0  0  0  0  0  0  0  0  0  0  0
  144.2319  137.2618  149.9820 H   0  0  0  0  0  0  0  0  0  0  0  0
  145.0624  136.1899  148.8598 H   0  0  0  0  0  0  0  0  0  0  0  0
  145.0915  133.6966  149.2213 H   0  0  0  0  0  0  0  0  0  0  0  0
  143.2656  131.9760  150.2888 H   0  0  0  0  0  0  0  0  0  0  0  0
  142.6705  133.1343  152.7346 H   0  0  0  0  0  0  0  0  0  0  0  0
  146.5958  138.2769  151.2281 H   0  0  0  0  0  0  0  0  0  0  0  0
  1  2  1  0  0  0  0
  1 20  1  0  0  0  0
  1 21  1  0  0  0  0
  1 22  1  0  0  0  0
  2  3  1  0  0  0  0
  2 13  1  0  0  0  0
  2 23  1  0  0  0  0
  3  4  1  0  0  0  0
  3 24  1  0  0  0  0
  3 39  1  0  0  0  0
  4  5  1  0  0  0  0
  4 25  1  0  0  0  0
  4 26  1  0  0  0  0
  5  6  1  0  0  0  0
  5 27  1  0  0  0  0
  5 28  1  0  0  0  0
  6 11  1  0  0  0  0
  6  7  1  0  0  0  0
  7  8  2  0  0  0  0
  7  9  1  0  0  0  0
  9 10  1  0  0  0  0
  9 29  1  0  0  0  0
  9 30  1  0  0  0  0
 10 11  1  0  0  0  0
 10 31  1  0  0  0  0
 11 12  2  0  0  0  0
 13 14  1  0  0  0  0
 13 15  1  0  0  0  0
 13 32  1  0  0  0  0
 14 33  1  0  0  0  0
 14 34  1  0  0  0  0
 14 35  1  0  0  0  0
 15 19  1  0  0  0  0
 15 16  1  0  0  0  0
 16 17  2  0  0  0  0
 16 36  1  0  0  0  0
 17 18  1  0  0  0  0
 17 37  1  0  0  0  0
 18 19  2  0  0  0  0
 18 38  1  0  0  0  0
M  CHG  1   3   1
M  END
> <s_m_source_file>
AV-unprocessed.smi

> <i_m_source_file_index>
3330

> <i_lp_mmshare_version>
43012

> <i_f3d_flags>
0

> <s_epik_input>
bjFbY0hdW2NIXVtjSF1uMVtDQEBIXShbQ0gzXSlbQ0BIXShbQ0gzXSlbTkhdW0NIMl1bQ0gyXU4yQyg9TylbQ0gyXVtOSF1DMj1P

> <s_epik_cmdline>
J2VwaWtfcHl0aG9uJywgJy1waCcsICc3LjAnLCAnLXRuJywgJzgnLCAnLW1hJywgJzIwMCcsICctbWV0YWxfYmluZGluZycsICctaW1hZScsICc8aW5maWxlLm1hZT4nLCAnLW9tYWUnLCAnPG91dGZpbGUubWFlPic=

> <r_lp_tautomer_probability>
1

> <r_epik_Ionization_Penalty>
0.0124905

> <r_epik_Ionization_Penalty_Charging>
0.0123685

> <r_epik_Ionization_Penalty_Neutral>
0.000122059

> <r_epik_State_Penalty>
0.00957041

> <r_epik_Charging_Adjusted_Penalty>
0.0219389

> <i_epik_Tot_Q>
1

> <i_epik_Tot_abs_Q>
1

> <r_epik_Metal_State_Penalty>
0.0858301

> <b_epik_Metal_Only>
0

> <s_lp_Force_Field>
OPLS_2005

> <r_lp_Energy>
30.1395

> <b_lp_Chiralities_Consistent>
1

> <s_lp_Variant>
AV-unprocessed.smi:3330-1

> <Gold.Version>
5.8.1

> <Gold.Id.Protein>
6NUR|6NUR_protein|mol2

> <Gold.PLP.Fitness>
44.6301

> <Gold.PLP.PLP>
-30.1921

> <Gold.PLP.part.hbond>
-3.0000

> <Gold.PLP.part.metal>
0.0000

> <Gold.PLP.part.buried>
6.5673

> <Gold.PLP.part.nonpolar>
-35.9668

> <Gold.PLP.part.repulsive>
1.8789

> <Gold.PLP.ligand.clash>
0.0000

> <Gold.PLP.ligand.torsion>
0.7775

> <Gold.PLP.Chemscore.Hbond>
3.3040

> <Gold.PLP.Chemscore.CHOScore>
2.0000

> <Gold.PLP.Chemscore.Metal>
0.0000

> <Gold.Chemscore.Hbonds>
donor molecule, donor type, donor heavy atom, donor atom, acceptor molecule, acceptor atom, score
      L1  H     3    24       P1  7948  2.00
      L1  H    10    31       P1  8028  0.30
      P1  H  7989  7998       L1     8  0.90
      L1  C    16    36       P1  7921  1.00
      L1  C    18    38       P1 10957  1.00

> <Gold.PLP.Chemscore.Internal.Correction>
0.0809

> <Gold.Rescore>
     Score         DG    S(hbond)    S(metal)    S(lipo)     H(rot)  DE(clash)    DE(int)     intcor
      8.15     -12.91       1.92        0.00      66.98       2.67       2.93       1.83       ----

> <Gold.Chemscore.Fitness>
8.1547

> <Gold.Chemscore.DG>
-12.9103

> <Gold.Chemscore.ZeroCoef>
-5.4800

> <Gold.Chemscore.Hbond>
1.9223

> <Gold.Chemscore.Metal>
0.0000

> <Gold.Chemscore.Lipo>
66.9760

> <Gold.Chemscore.Internal_Hbond>
0.0000

> <Gold.Chemscore.DEClash>
2.9295

> <Gold.Chemscore.DEInternal>
1.8260

> <Gold.Chemscore.Rot>
2.6666

> <Gold.Chemscore.Internal.Correction>
   9.000000E+99

> <Gold.Chemscore.Hbonds>
donor molecule, donor type, donor heavy atom, donor atom, acceptor molecule, acceptor atom, score
      L1  H     3    24       P1  7948  1.00
      L1  H    10    31       P1  8028  0.25
      P1  H  7989  7998       L1     8  0.17

> <Gold.Chemscore.Hbond.Weighted>
-6.4206

> <Gold.Chemscore.Metal.Weighted>
-0.0000

> <Gold.Chemscore.Lipo.Weighted>
-7.8362

> <Gold.Chemscore.Internal_Hbond.Weighted>
0.0000

> <Gold.Chemscore.DEClash.Weighted>
2.9295

> <Gold.Chemscore.DEInternal.Weighted>
1.8260

> <Gold.Chemscore.Rot.Weighted>
6.8265

> <Gold.Chemscore.Internal.Correction.Weighted>
   9.000000E+99

> <Gold.Protein.RotatedTorsions>
[ 6907 6896 6895 6894 ] final  116.98 input  -60.11 | X-H torsion
[ 7974 7965 7964 7962 ] final   33.62 input  175.53 | X-H torsion
[ 8008 7997 7996 7995 ] final   60.90 input   59.86 | X-H torsion
[ 10167 10162 10161 10158 ] final  -61.09 input  -65.29 | X-H torsion
[ 10718 10713 10712 10709 ] final  155.93 input   66.30 | X-H torsion
[ 10763 10752 10751 10750 ] final  108.22 input  -60.55 | X-H torsion
[ 11005 11000 10999 10996 ] final   90.91 input  -57.11 | X-H torsion

> <Gold.Protein.ActiveResidues>
 VAL166  LYS551  ARG553  GLY616  TRP617  ASP618  TYR619  PRO620  LYS621  CYS622 
 ASP623  PHE694  ASN695  SER759  ASP760  ASP761  ALA762  ILE779  LEU786  VAL792 
 PHE793  MET794  SER795  GLU796  ALA797  LYS798  CYS799  TRP800  GLU811  SER814 

> <Gold.Protein.RotatedAtoms>
  152.4642  133.7887  159.6889 H   0  0  0  0  0  0  0  0  0  0  0  0  # atno 6907 bound_to 6896
  150.8599  133.7649  159.3002 H   0  0  0  0  0  0  0  0  0  0  0  0  # atno 6908 bound_to 6896
  151.5218  135.1070  159.9932 H   0  0  0  0  0  0  0  0  0  0  0  0  # atno 6909 bound_to 6896
  146.1408  139.6374  142.9164 H   0  0  0  0  0  0  0  0  0  0  0  0  # atno 7974 bound_to 7965
  155.5897  140.3492  155.4563 H   0  0  0  0  0  0  0  0  0  0  0  0  # atno 8008 bound_to 7997
  156.0310  140.1274  157.0282 H   0  0  0  0  0  0  0  0  0  0  0  0  # atno 8009 bound_to 7997
  154.4352  140.1043  156.6086 H   0  0  0  0  0  0  0  0  0  0  0  0  # atno 8010 bound_to 7997
  140.6028  143.2366  151.5889 H   0  0  0  0  0  0  0  0  0  0  0  0  # atno 10167 bound_to 10162
  157.2118  131.0699  151.1965 H   0  0  0  0  0  0  0  0  0  0  0  0  # atno 10718 bound_to 10713
  153.4176  135.3819  155.2091 H   0  0  0  0  0  0  0  0  0  0  0  0  # atno 10763 bound_to 10752
  154.8742  135.3809  154.4423 H   0  0  0  0  0  0  0  0  0  0  0  0  # atno 10764 bound_to 10752
  153.4939  135.7088  153.5931 H   0  0  0  0  0  0  0  0  0  0  0  0  # atno 10765 bound_to 10752
  139.8848  134.8642  156.3353 H   0  0  0  0  0  0  0  0  0  0  0  0  # atno 11005 bound_to 11000
  145.5050  141.0437  143.2519 LP  0  0  0  0  0  0  0  0  0  0  0  0  # atno 17320 bound_to 7965
  144.7791  139.6566  143.7162 LP  0  0  0  0  0  0  0  0  0  0  0  0  # atno 17321 bound_to 7965
  139.5303  144.2935  152.1133 LP  0  0  0  0  0  0  0  0  0  0  0  0  # atno 17342 bound_to 10162
  140.2119  144.4554  150.6382 LP  0  0  0  0  0  0  0  0  0  0  0  0  # atno 17343 bound_to 10162
  157.3664  130.7158  149.6536 LP  0  0  0  0  0  0  0  0  0  0  0  0  # atno 17370 bound_to 10713
  155.9690  130.4211  150.4453 LP  0  0  0  0  0  0  0  0  0  0  0  0  # atno 17371 bound_to 10713
  140.9696  133.7336  156.0515 LP  0  0  0  0  0  0  0  0  0  0  0  0  # atno 17394 bound_to 11000
  140.7888  134.3641  157.5470 LP  0  0  0  0  0  0  0  0  0  0  0  0  # atno 17395 bound_to 11000

$$$$
