AV-unprocessed.smi:755|AV-procd|sdf|3611|dock4
  -GOLD-   22720 1 03D 1   1.00000     0.00000
 Structure written by MMmdl.
 33 34  0  0  0  0  0  0  0  0  1 V2000
  151.2455  140.3567  155.0389 O   0  0  0  0  0  0  0  0  0  0  0  0
  150.2134  140.9901  155.2582 C   0  0  0  0  0  0  0  0  0  0  0  0
  148.8690  140.4568  154.7585 C   0  0  0  0  0  0  0  0  0  0  0  0
  147.7847  141.3749  155.0614 N   0  0  0  0  0  0  0  0  0  0  0  0
  146.9632  142.0470  154.1764 C   0  0  0  0  0  0  0  0  0  0  0  0
  146.1162  142.7784  154.9516 C   0  0  0  0  0  0  0  0  0  0  0  0
  144.8601  143.8259  154.4043 Cl  0  0  0  0  0  0  0  0  0  0  0  0
  146.4709  142.5091  156.2977 C   0  0  0  0  0  0  0  0  0  0  0  0
  147.4843  141.6571  156.3559 N   0  0  0  0  0  0  0  0  0  0  0  0
  150.1867  142.1488  155.9361 N   0  0  0  0  0  0  0  0  0  0  0  0
  151.3492  142.8129  156.5215 C   0  0  0  0  0  0  0  0  0  0  0  0
  151.6567  142.3431  157.9549 C   0  0  0  0  0  0  0  0  0  0  0  0
  151.7486  141.1389  158.2013 O   0  0  0  0  0  0  0  0  0  0  0  0
  151.8034  143.2812  158.9133 N   0  0  0  0  0  0  0  0  0  0  0  0
  152.0926  143.0243  160.3239 C   0  0  0  0  0  0  0  0  0  0  0  0
  152.3993  144.3902  160.9390 C   0  0  0  0  0  0  0  0  0  0  0  0
  151.6663  145.3773  160.0412 C   0  0  0  0  0  0  0  0  0  0  0  0
  151.6919  144.7169  158.6627 C   0  0  0  0  0  0  0  0  0  0  0  0
  148.9050  140.3053  153.6787 H   0  0  0  0  0  0  0  0  0  0  0  0
  148.6663  139.4855  155.2125 H   0  0  0  0  0  0  0  0  0  0  0  0
  147.0533  141.9484  153.1045 H   0  0  0  0  0  0  0  0  0  0  0  0
  146.0398  142.8923  157.2108 H   0  0  0  0  0  0  0  0  0  0  0  0
  149.2910  142.5951  156.0720 H   0  0  0  0  0  0  0  0  0  0  0  0
  152.2218  142.6669  155.8827 H   0  0  0  0  0  0  0  0  0  0  0  0
  151.1483  143.8841  156.5404 H   0  0  0  0  0  0  0  0  0  0  0  0
  151.2112  142.5860  160.7941 H   0  0  0  0  0  0  0  0  0  0  0  0
  152.9293  142.3375  160.4587 H   0  0  0  0  0  0  0  0  0  0  0  0
  152.0954  144.4614  161.9838 H   0  0  0  0  0  0  0  0  0  0  0  0
  153.4722  144.5813  160.8894 H   0  0  0  0  0  0  0  0  0  0  0  0
  150.6339  145.4792  160.3789 H   0  0  0  0  0  0  0  0  0  0  0  0
  152.1183  146.3696  160.0439 H   0  0  0  0  0  0  0  0  0  0  0  0
  152.5652  145.0456  158.0971 H   0  0  0  0  0  0  0  0  0  0  0  0
  150.8001  144.9672  158.0858 H   0  0  0  0  0  0  0  0  0  0  0  0
  1  2  2  0  0  0  0
  2  3  1  0  0  0  0
  2 10  1  0  0  0  0
  3  4  1  0  0  0  0
  3 19  1  0  0  0  0
  3 20  1  0  0  0  0
  4  9  1  0  0  0  0
  4  5  1  0  0  0  0
  5  6  2  0  0  0  0
  5 21  1  0  0  0  0
  6  7  1  0  0  0  0
  6  8  1  0  0  0  0
  8  9  2  0  0  0  0
  8 22  1  0  0  0  0
 10 11  1  0  0  0  0
 10 23  1  0  0  0  0
 11 12  1  0  0  0  0
 11 24  1  0  0  0  0
 11 25  1  0  0  0  0
 12 13  2  0  0  0  0
 12 14  1  0  0  0  0
 14 18  1  0  0  0  0
 14 15  1  0  0  0  0
 15 16  1  0  0  0  0
 15 26  1  0  0  0  0
 15 27  1  0  0  0  0
 16 17  1  0  0  0  0
 16 28  1  0  0  0  0
 16 29  1  0  0  0  0
 17 18  1  0  0  0  0
 17 30  1  0  0  0  0
 17 31  1  0  0  0  0
 18 32  1  0  0  0  0
 18 33  1  0  0  0  0
M  END
> <s_m_source_file>
AV-unprocessed.smi

> <i_m_source_file_index>
755

> <i_lp_mmshare_version>
43012

> <i_f3d_flags>
0

> <s_epik_input>
bjFbY0hdYyhDbClbY0hdbjFbQ0gyXUMoPU8pW05IXVtDSDJdQyg9TylOMltDSDJdW0NIMl1bQ0gyXVtDSDJdMg==

> <s_epik_cmdline>
J2VwaWtfcHl0aG9uJywgJy1waCcsICc3LjAnLCAnLXRuJywgJzgnLCAnLW1hJywgJzIwMCcsICctbWV0YWxfYmluZGluZycsICctaW1hZScsICc8aW5maWxlLm1hZT4nLCAnLW9tYWUnLCAnPG91dGZpbGUubWFlPic=

> <r_lp_tautomer_probability>
1

> <r_epik_Ionization_Penalty>
4.35059e-07

> <r_epik_Ionization_Penalty_Charging>
0

> <r_epik_Ionization_Penalty_Neutral>
4.35059e-07

> <r_epik_State_Penalty>
-0

> <r_epik_Charging_Adjusted_Penalty>
0

> <i_epik_Tot_Q>
0

> <i_epik_Tot_abs_Q>
0

> <r_epik_Metal_State_Penalty>
-0

> <b_epik_Metal_Only>
0

> <s_lp_Force_Field>
OPLS_2005

> <r_lp_Energy>
27.1331

> <b_lp_Chiralities_Consistent>
1

> <s_lp_Variant>
AV-unprocessed.smi:755-1

> <Gold.Version>
5.8.1

> <Gold.Id.Protein>
6NUR|6NUR_protein|mol2

> <Gold.PLP.Fitness>
44.2983

> <Gold.PLP.PLP>
-41.0170

> <Gold.PLP.part.hbond>
-2.0000

> <Gold.PLP.part.metal>
0.0000

> <Gold.PLP.part.buried>
-5.3059

> <Gold.PLP.part.nonpolar>
-33.3661

> <Gold.PLP.part.repulsive>
0.2919

> <Gold.PLP.ligand.clash>
0.0000

> <Gold.PLP.ligand.torsion>
0.2744

> <Gold.PLP.Chemscore.Hbond>
1.2731

> <Gold.PLP.Chemscore.CHOScore>
0.0000

> <Gold.PLP.Chemscore.Metal>
0.0000

> <Gold.Chemscore.Hbonds>
donor molecule, donor type, donor heavy atom, donor atom, acceptor molecule, acceptor atom, score
      L1  H    10    23       P1  8028  0.28
      P1  H  7989  7998       L1     1  1.00

> <Gold.PLP.Chemscore.Internal.Correction>
0.0109

> <Gold.Rescore>
     Score         DG    S(hbond)    S(metal)    S(lipo)     H(rot)  DE(clash)    DE(int)     intcor
     14.01     -14.84       1.29        0.00      82.58       1.80       0.58       0.26       ----

> <Gold.Chemscore.Fitness>
14.0061

> <Gold.Chemscore.DG>
-14.8399

> <Gold.Chemscore.ZeroCoef>
-5.4800

> <Gold.Chemscore.Hbond>
1.2882

> <Gold.Chemscore.Metal>
0.0000

> <Gold.Chemscore.Lipo>
82.5831

> <Gold.Chemscore.Internal_Hbond>
0.0000

> <Gold.Chemscore.DEClash>
0.5753

> <Gold.Chemscore.DEInternal>
0.2585

> <Gold.Chemscore.Rot>
1.7988

> <Gold.Chemscore.Internal.Correction>
   9.000000E+99

> <Gold.Chemscore.Hbonds>
donor molecule, donor type, donor heavy atom, donor atom, acceptor molecule, acceptor atom, score
      L1  H    10    23       P1  8028  0.28
      P1  H  7989  7998       L1     1  0.33

> <Gold.Chemscore.Hbond.Weighted>
-4.3025

> <Gold.Chemscore.Metal.Weighted>
-0.0000

> <Gold.Chemscore.Lipo.Weighted>
-9.6622

> <Gold.Chemscore.Internal_Hbond.Weighted>
0.0000

> <Gold.Chemscore.DEClash.Weighted>
0.5753

> <Gold.Chemscore.DEInternal.Weighted>
0.2585

> <Gold.Chemscore.Rot.Weighted>
4.6048

> <Gold.Chemscore.Internal.Correction.Weighted>
   9.000000E+99

> <Gold.Protein.RotatedTorsions>
[ 6907 6896 6895 6894 ] final -128.47 input  -60.11 | X-H torsion
[ 7974 7965 7964 7962 ] final   -8.69 input  175.53 | X-H torsion
[ 8008 7997 7996 7995 ] final   29.28 input   59.86 | X-H torsion
[ 10167 10162 10161 10158 ] final   60.03 input  -65.29 | X-H torsion
[ 10718 10713 10712 10709 ] final   78.41 input   66.30 | X-H torsion
[ 10763 10752 10751 10750 ] final -103.40 input  -60.55 | X-H torsion
[ 11005 11000 10999 10996 ] final  -70.91 input  -57.11 | X-H torsion

> <Gold.Protein.ActiveResidues>
 VAL166  LYS551  ARG553  GLY616  TRP617  ASP618  TYR619  PRO620  LYS621  CYS622 
 ASP623  PHE694  ASN695  SER759  ASP760  ASP761  ALA762  ILE779  LEU786  VAL792 
 PHE793  MET794  SER795  GLU796  ALA797  LYS798  CYS799  TRP800  GLU811  SER814 

> <Gold.Protein.RotatedAtoms>
  150.9182  133.6913  159.2838 H   0  0  0  0  0  0  0  0  0  0  0  0  # atno 6907 bound_to 6896
  151.4376  135.1015  159.9670 H   0  0  0  0  0  0  0  0  0  0  0  0  # atno 6908 bound_to 6896
  152.4966  133.8598  159.7299 H   0  0  0  0  0  0  0  0  0  0  0  0  # atno 6909 bound_to 6896
  146.2273  140.2505  142.8347 H   0  0  0  0  0  0  0  0  0  0  0  0  # atno 7974 bound_to 7965
  155.0720  140.3201  155.4628 H   0  0  0  0  0  0  0  0  0  0  0  0  # atno 8008 bound_to 7997
  156.2788  140.2110  156.5792 H   0  0  0  0  0  0  0  0  0  0  0  0  # atno 8009 bound_to 7997
  154.7047  140.0503  157.0480 H   0  0  0  0  0  0  0  0  0  0  0  0  # atno 8010 bound_to 7997
  140.1700  144.4286  150.6666 H   0  0  0  0  0  0  0  0  0  0  0  0  # atno 10167 bound_to 10162
  157.6744  130.9867  150.1783 H   0  0  0  0  0  0  0  0  0  0  0  0  # atno 10718 bound_to 10713
  154.7805  135.4824  153.9834 H   0  0  0  0  0  0  0  0  0  0  0  0  # atno 10763 bound_to 10752
  153.1487  135.6787  153.8923 H   0  0  0  0  0  0  0  0  0  0  0  0  # atno 10764 bound_to 10752
  153.8574  135.3159  155.3414 H   0  0  0  0  0  0  0  0  0  0  0  0  # atno 10765 bound_to 10752
  141.1583  133.6803  156.6825 H   0  0  0  0  0  0  0  0  0  0  0  0  # atno 11005 bound_to 11000
  144.9415  140.8083  143.5627 LP  0  0  0  0  0  0  0  0  0  0  0  0  # atno 17320 bound_to 7965
  145.2457  139.2053  143.4969 LP  0  0  0  0  0  0  0  0  0  0  0  0  # atno 17321 bound_to 7965
  140.6588  143.2245  151.5905 LP  0  0  0  0  0  0  0  0  0  0  0  0  # atno 17342 bound_to 10162
  139.5342  144.2828  152.1215 LP  0  0  0  0  0  0  0  0  0  0  0  0  # atno 17343 bound_to 10162
  156.2521  130.3701  149.8221 LP  0  0  0  0  0  0  0  0  0  0  0  0  # atno 17370 bound_to 10713
  156.5991  130.8539  151.3427 LP  0  0  0  0  0  0  0  0  0  0  0  0  # atno 17371 bound_to 10713
  140.3092  134.8100  157.4162 LP  0  0  0  0  0  0  0  0  0  0  0  0  # atno 17394 bound_to 11000
  140.1194  134.5240  155.8197 LP  0  0  0  0  0  0  0  0  0  0  0  0  # atno 17395 bound_to 11000

$$$$
