#       Name:                AV-unprocessed.smi:2106
#       Creating user name   scv26
#       Creation time:       Fri Mar 27 11:32:46 2020


#       File generated by GOLD software.
#

@<TRIPOS>MOLECULE
AV-unprocessed.smi:2106
    53    54     1
SMALL
NO_CHARGES


@<TRIPOS>ATOM
      1 ****        -4.8216  -2.0295  -1.5689 C.3            1 S1                 0.0000
      2 ****        -4.5368  -0.6071  -1.1866 C.2            1 S1                 0.0000
      3 ****        -4.6396   0.5595  -1.9944 C.2            1 S1                 0.0000
      4 ****        -4.2656   1.5791  -1.1652 C.2            1 S1                 0.0000
      5 ****        -4.1660   3.0458  -1.4284 C.3            1 S1                 0.0000
      6 ****        -3.9652   1.0101   0.0601 N.pl3          1 S1                 0.0000
      7 ****        -3.5084   1.6510   1.2833 C.3            1 S1                 0.0000
      8 ****        -1.9823   1.7441   1.3201 C.2            1 S1                 0.0000
      9 ****        -1.4181   2.7706   0.9424 O.2            1 S1                 0.0000
     10 ****        -1.3293   0.6632   1.7735 N.am           1 S1                 0.0000
     11 ****         0.1189   0.5365   1.8721 C.3            1 S1                 0.0000
     12 ****         0.7346   0.1313   0.5202 C.3            1 S1                 0.0000
     13 ****         2.1935   0.0354   0.5091 N.3            1 S1                 0.0000
     14 ****         2.6897  -1.0638   1.3340 C.3            1 S1                 0.0000
     15 ****         4.2261  -1.1743   1.2883 C.3            1 S1                 0.0000
     16 ****         4.7432  -2.3793   2.0810 C.3            1 S1                 0.0000
     17 ****         4.6451  -1.3164  -0.0659 O.3            1 S1                 0.0000
     18 ****         4.2283  -0.2381  -0.8986 C.3            1 S1                 0.0000
     19 ****         4.7491  -0.4976  -2.3161 C.3            1 S1                 0.0000
     20 ****         2.6919  -0.1336  -0.8516 C.3            1 S1                 0.0000
     21 ****        -4.1337  -0.3308   0.0427 N.2            1 S1                 0.0000
     22 ****        -5.1722  -2.0971  -2.5989 H              1 S1                 0.0000
     23 ****        -5.5901  -2.4627  -0.9283 H              1 S1                 0.0000
     24 ****        -3.9266  -2.6460  -1.4823 H              1 S1                 0.0000
     25 ****        -4.9414   0.6358  -3.0285 H              1 S1                 0.0000
     26 ****        -4.4417   3.2761  -2.4578 H              1 S1                 0.0000
     27 ****        -3.1488   3.4029  -1.2671 H              1 S1                 0.0000
     28 ****        -4.8314   3.6051  -0.7708 H              1 S1                 0.0000
     29 ****        -3.9443   2.6480   1.3521 H              1 S1                 0.0000
     30 ****        -3.8723   1.0889   2.1450 H              1 S1                 0.0000
     31 ****        -1.8778  -0.1363   2.0556 H              1 S1                 0.0000
     32 ****         0.5573   1.4701   2.2287 H              1 S1                 0.0000
     33 ****         0.3234  -0.2163   2.6324 H              1 S1                 0.0000
     34 ****         0.3016  -0.8146   0.1913 H              1 S1                 0.0000
     35 ****         0.4295   0.8719  -0.2204 H              1 S1                 0.0000
     36 ****         2.3843  -0.9253   2.3705 H              1 S1                 0.0000
     37 ****         2.2469  -2.0035   0.9997 H              1 S1                 0.0000
     38 ****         4.6696  -0.2668   1.7018 H              1 S1                 0.0000
     39 ****         4.4588  -2.3090   3.1312 H              1 S1                 0.0000
     40 ****         5.8309  -2.4387   2.0345 H              1 S1                 0.0000
     41 ****         4.3416  -3.3130   1.6865 H              1 S1                 0.0000
     42 ****         4.6703   0.6879  -0.5267 H              1 S1                 0.0000
     43 ****         4.4681   0.3110  -2.9912 H              1 S1                 0.0000
     44 ****         4.3472  -1.4272  -2.7202 H              1 S1                 0.0000
     45 ****         5.8366  -0.5739  -2.3236 H              1 S1                 0.0000
     46 ****         2.2544  -1.0296  -1.2950 H              1 S1                 0.0000
     47 ****         2.3701   0.7068  -1.4677 H              1 S1                 0.0000
     48 ****        -1.9575   3.5447   0.6110 LP             1 S1                 0.0000
     49 ****        -0.4202   2.8306   0.9668 LP             1 S1                 0.0000
     50 ****         2.5321   0.8937   0.8946 LP             1 S1                 0.0000
     51 ****         4.2619  -2.1654  -0.4298 LP             1 S1                 0.0000
     52 ****         5.6437  -1.3659  -0.0861 LP             1 S1                 0.0000
     53 ****        -3.9859  -0.9734   0.7945 LP             1 S1                 0.0000
@<TRIPOS>BOND
    1    1    2 1     
    2    1   22 1     
    3    1   23 1     
    4    1   24 1     
    5    2   21 2     
    6    2    3 1     
    7    3    4 2     
    8    3   25 1     
    9    4    5 1     
   10    4    6 1     
   11    5   26 1     
   12    5   27 1     
   13    5   28 1     
   14    6    7 1     
   15    6   21 1     
   16    7    8 1     
   17    7   29 1     
   18    7   30 1     
   19    8    9 2     
   20    8   10 am    
   21   10   11 1     
   22   10   31 1     
   23   11   12 1     
   24   11   32 1     
   25   11   33 1     
   26   12   13 1     
   27   12   34 1     
   28   12   35 1     
   29   13   20 1     
   30   13   14 1     
   31   14   15 1     
   32   14   36 1     
   33   14   37 1     
   34   15   16 1     
   35   15   17 1     
   36   15   38 1     
   37   16   39 1     
   38   16   40 1     
   39   16   41 1     
   40   17   18 1     
   41   18   19 1     
   42   18   20 1     
   43   18   42 1     
   44   19   43 1     
   45   19   44 1     
   46   19   45 1     
   47   20   46 1     
   48   20   47 1     
   49    9   48 1     
   50    9   49 1     
   51   13   50 1     
   52   17   51 1     
   53   17   52 1     
   54   21   53 1     
@<TRIPOS>SUBSTRUCTURE
      1 S1             1
@<TRIPOS>SET
LONE_PAIRS      STATIC     ATOMS    <user>   **** ""
6 48 49 50 51 52 53
DONOR_HYDROGENS      STATIC     ATOMS    <user>   **** ""
1 31
ATOM$BLUE        STATIC     ATOMS    COLORGROUP SYSTEM
6 48 49 50 51 52 53
ATOM$RED        STATIC     ATOMS    COLORGROUP SYSTEM
1 31
