AV-unprocessed.smi:2528|AV-procd|sdf|9952|dock3
  -GOLD-   2272013593D 1   1.00000     0.00000
 Structure written by MMmdl.
 44 46  0  0  0  0  0  0  0  0  2 V2000
  144.5889  136.2967  152.8975 O   0  0  0  0  0  0  0  0  0  0  0  0
  145.7539  136.3045  152.4992 C   0  0  0  0  0  0  0  0  0  0  0  0
  146.6074  137.3115  152.7355 N   0  0  0  0  0  0  0  0  0  0  0  0
  146.2898  138.5205  153.4879 C   0  0  0  0  0  0  0  0  0  0  0  0
  147.4449  139.5370  153.4523 C   0  0  2  0  0  0  0  0  0  0  0  0
  148.7210  138.9696  154.1005 C   0  0  0  0  0  0  0  0  0  0  0  0
  149.7983  139.9900  154.1173 N   0  3  2  0  0  0  0  0  0  0  0  0
  151.0838  139.4979  154.6779 C   0  0  0  0  0  0  0  0  0  0  0  0
  151.0421  139.3773  156.2135 C   0  0  0  0  0  0  0  0  0  0  0  0
  150.6124  140.7013  156.8596 C   0  0  0  0  0  0  0  0  0  0  0  0
  149.2789  141.1785  156.2669 C   0  0  0  0  0  0  0  0  0  0  0  0
  149.3575  141.2749  154.7274 C   0  0  2  0  0  0  0  0  0  0  0  0
  148.0318  141.7373  154.0925 C   0  0  0  0  0  0  0  0  0  0  0  0
  147.0606  140.7022  154.1748 O   0  0  0  0  0  0  0  0  0  0  0  0
  146.3378  135.3303  151.7797 N   0  0  0  0  0  0  0  0  0  0  0  0
  145.7705  134.1050  151.3391 C   0  0  0  0  0  0  0  0  0  0  0  0
  144.3612  134.1024  151.2313 C   0  0  0  0  0  0  0  0  0  0  0  0
  143.7014  132.9356  150.7995 C   0  0  0  0  0  0  0  0  0  0  0  0
  144.4689  131.7993  150.4873 C   0  0  0  0  0  0  0  0  0  0  0  0
  145.8668  131.8855  150.6223 C   0  0  0  0  0  0  0  0  0  0  0  0
  146.5012  133.0029  151.0358 N   0  0  0  0  0  0  0  0  0  0  0  0
  147.5466  137.2342  152.3735 H   0  0  0  0  0  0  0  0  0  0  0  0
  145.3649  138.9729  153.1259 H   0  0  0  0  0  0  0  0  0  0  0  0
  146.0997  138.2185  154.5181 H   0  0  0  0  0  0  0  0  0  0  0  0
  147.6504  139.8019  152.4131 H   0  0  0  0  0  0  0  0  0  0  0  0
  148.5016  138.6313  155.1133 H   0  0  0  0  0  0  0  0  0  0  0  0
  149.0622  138.0964  153.5431 H   0  0  0  0  0  0  0  0  0  0  0  0
  151.3462  138.5405  154.2258 H   0  0  0  0  0  0  0  0  0  0  0  0
  151.8701  140.1975  154.3920 H   0  0  0  0  0  0  0  0  0  0  0  0
  150.3566  138.5832  156.5103 H   0  0  0  0  0  0  0  0  0  0  0  0
  152.0236  139.0856  156.5882 H   0  0  0  0  0  0  0  0  0  0  0  0
  150.5232  140.5817  157.9398 H   0  0  0  0  0  0  0  0  0  0  0  0
  151.3801  141.4579  156.6925 H   0  0  0  0  0  0  0  0  0  0  0  0
  148.4798  140.4996  156.5666 H   0  0  0  0  0  0  0  0  0  0  0  0
  149.0221  142.1515  156.6870 H   0  0  0  0  0  0  0  0  0  0  0  0
  150.1149  142.0220  154.4852 H   0  0  0  0  0  0  0  0  0  0  0  0
  147.6528  142.6235  154.6023 H   0  0  0  0  0  0  0  0  0  0  0  0
  148.1815  142.0185  153.0488 H   0  0  0  0  0  0  0  0  0  0  0  0
  147.3023  135.4781  151.5226 H   0  0  0  0  0  0  0  0  0  0  0  0
  143.7864  134.9841  151.4755 H   0  0  0  0  0  0  0  0  0  0  0  0
  142.6252  132.9136  150.7101 H   0  0  0  0  0  0  0  0  0  0  0  0
  143.9994  130.8862  150.1525 H   0  0  0  0  0  0  0  0  0  0  0  0
  146.4927  131.0359  150.3923 H   0  0  0  0  0  0  0  0  0  0  0  0
  149.9810  140.1948  153.1451 H   0  0  0  0  0  0  0  0  0  0  0  0
  1  2  2  0  0  0  0
  2  3  1  0  0  0  0
  2 15  1  0  0  0  0
  3  4  1  0  0  0  0
  3 22  1  0  0  0  0
  4  5  1  0  0  0  0
  4 23  1  0  0  0  0
  4 24  1  0  0  0  0
  5 14  1  0  0  0  0
  5  6  1  0  0  0  0
  5 25  1  0  0  0  0
  6  7  1  0  0  0  0
  6 26  1  0  0  0  0
  6 27  1  0  0  0  0
  7 12  1  0  0  0  0
  7  8  1  0  0  0  0
  7 44  1  0  0  0  0
  8  9  1  0  0  0  0
  8 28  1  0  0  0  0
  8 29  1  0  0  0  0
  9 10  1  0  0  0  0
  9 30  1  0  0  0  0
  9 31  1  0  0  0  0
 10 11  1  0  0  0  0
 10 32  1  0  0  0  0
 10 33  1  0  0  0  0
 11 12  1  0  0  0  0
 11 34  1  0  0  0  0
 11 35  1  0  0  0  0
 12 13  1  0  0  0  0
 12 36  1  0  0  0  0
 13 14  1  0  0  0  0
 13 37  1  0  0  0  0
 13 38  1  0  0  0  0
 15 16  1  0  0  0  0
 15 39  1  0  0  0  0
 16 21  1  0  0  0  0
 16 17  2  0  0  0  0
 17 18  1  0  0  0  0
 17 40  1  0  0  0  0
 18 19  2  0  0  0  0
 18 41  1  0  0  0  0
 19 20  1  0  0  0  0
 19 42  1  0  0  0  0
 20 21  2  0  0  0  0
 20 43  1  0  0  0  0
M  CHG  1   7   1
M  END
> <s_m_source_file>
AV-unprocessed.smi

> <i_m_source_file_index>
2528

> <i_lp_mmshare_version>
43012

> <i_f3d_flags>
0

> <s_epik_input>
bjFbY0hdW2NIXVtjSF1bY0hdYzFbTkhdQyg9TylbTkhdW0NIMl1bQ0BIXShbQ0gyXTIpT1tDSDJdW0NAQEhdKE4yMylbQ0gyXVtDSDJdW0NIMl1bQ0gyXTM=

> <s_epik_cmdline>
J2VwaWtfcHl0aG9uJywgJy1waCcsICc3LjAnLCAnLXRuJywgJzgnLCAnLW1hJywgJzIwMCcsICctbWV0YWxfYmluZGluZycsICctaW1hZScsICc8aW5maWxlLm1hZT4nLCAnLW9tYWUnLCAnPG91dGZpbGUubWFlPic=

> <r_epik_Ionization_Penalty>
0.0932337

> <r_epik_Ionization_Penalty_Charging>
0.0931942

> <r_epik_Ionization_Penalty_Neutral>
3.9565e-05

> <r_epik_State_Penalty>
0.0834605

> <r_epik_Charging_Adjusted_Penalty>
0.176655

> <i_epik_Tot_Q>
1

> <i_epik_Tot_abs_Q>
1

> <r_epik_Metal_State_Penalty>
0.0834607

> <b_epik_Metal_Only>
0

> <s_lp_Force_Field>
OPLS_2005

> <r_lp_Energy>
26.7446

> <b_lp_Chiralities_Consistent>
1

> <s_lp_Variant>
AV-unprocessed.smi:2528-5

> <Gold.Version>
5.8.1

> <Gold.Id.Protein>
6NUR|6NUR_protein|mol2

> <Gold.PLP.Fitness>
48.2449

> <Gold.PLP.PLP>
-36.5195

> <Gold.PLP.part.hbond>
-3.0000

> <Gold.PLP.part.metal>
0.0000

> <Gold.PLP.part.buried>
-3.3187

> <Gold.PLP.part.nonpolar>
-31.1762

> <Gold.PLP.part.repulsive>
1.5103

> <Gold.PLP.ligand.clash>
0.0000

> <Gold.PLP.ligand.torsion>
0.1385

> <Gold.PLP.Chemscore.Hbond>
3.0000

> <Gold.PLP.Chemscore.CHOScore>
1.0000

> <Gold.PLP.Chemscore.Metal>
0.0000

> <Gold.Chemscore.Hbonds>
donor molecule, donor type, donor heavy atom, donor atom, acceptor molecule, acceptor atom, score
      L1  H     3    22       P1  7948  1.00
      L1  H     7    44       P1  7957  1.00
      L1  H    15    39       P1  7948  1.00
      L1  C    20    43       P1 10747  1.00

> <Gold.PLP.Chemscore.Internal.Correction>
0.0025

> <Gold.Rescore>
     Score         DG    S(hbond)    S(metal)    S(lipo)     H(rot)  DE(clash)    DE(int)     intcor
     20.68     -22.51       2.91        0.00      90.61       1.29       0.25       1.58       ----

> <Gold.Chemscore.Fitness>
20.6793

> <Gold.Chemscore.DG>
-22.5121

> <Gold.Chemscore.ZeroCoef>
-5.4800

> <Gold.Chemscore.Hbond>
2.9119

> <Gold.Chemscore.Metal>
0.0000

> <Gold.Chemscore.Lipo>
90.6094

> <Gold.Chemscore.Internal_Hbond>
0.0000

> <Gold.Chemscore.DEClash>
0.2538

> <Gold.Chemscore.DEInternal>
1.5791

> <Gold.Chemscore.Rot>
1.2870

> <Gold.Chemscore.Internal.Correction>
   9.000000E+99

> <Gold.Chemscore.Hbonds>
donor molecule, donor type, donor heavy atom, donor atom, acceptor molecule, acceptor atom, score
      L1  H     3    22       P1  7948  0.95
      L1  H     7    44       P1  7957  0.92
      L1  H    15    39       P1  7948  0.93

> <Gold.Chemscore.Hbond.Weighted>
-9.7257

> <Gold.Chemscore.Metal.Weighted>
-0.0000

> <Gold.Chemscore.Lipo.Weighted>
-10.6013

> <Gold.Chemscore.Internal_Hbond.Weighted>
0.0000

> <Gold.Chemscore.DEClash.Weighted>
0.2538

> <Gold.Chemscore.DEInternal.Weighted>
1.5791

> <Gold.Chemscore.Rot.Weighted>
3.2948

> <Gold.Chemscore.Internal.Correction.Weighted>
   9.000000E+99

> <Gold.Protein.RotatedTorsions>
[ 6907 6896 6895 6894 ] final   78.20 input  -60.11 | X-H torsion
[ 7974 7965 7964 7962 ] final  170.12 input  175.53 | X-H torsion
[ 8008 7997 7996 7995 ] final  132.14 input   59.86 | X-H torsion
[ 10167 10162 10161 10158 ] final -150.79 input  -65.29 | X-H torsion
[ 10718 10713 10712 10709 ] final   45.06 input   66.30 | X-H torsion
[ 10763 10752 10751 10750 ] final   85.46 input  -60.55 | X-H torsion
[ 11005 11000 10999 10996 ] final -120.56 input  -57.11 | X-H torsion

> <Gold.Protein.ActiveResidues>
 VAL166  LYS551  ARG553  GLY616  TRP617  ASP618  TYR619  PRO620  LYS621  CYS622 
 ASP623  PHE694  ASN695  SER759  ASP760  ASP761  ALA762  ILE779  LEU786  VAL792 
 PHE793  MET794  SER795  GLU796  ALA797  LYS798  CYS799  TRP800  GLU811  SER814 

> <Gold.Protein.RotatedAtoms>
  152.5150  134.3700  159.9314 H   0  0  0  0  0  0  0  0  0  0  0  0  # atno 6907 bound_to 6896
  151.3654  133.3868  159.2702 H   0  0  0  0  0  0  0  0  0  0  0  0  # atno 6908 bound_to 6896
  150.9619  134.9025  159.7794 H   0  0  0  0  0  0  0  0  0  0  0  0  # atno 6909 bound_to 6896
  144.7333  139.9155  143.6417 H   0  0  0  0  0  0  0  0  0  0  0  0  # atno 7974 bound_to 7965
  156.2979  140.2554  156.3041 H   0  0  0  0  0  0  0  0  0  0  0  0  # atno 8008 bound_to 7997
  154.9389  140.0396  157.2105 H   0  0  0  0  0  0  0  0  0  0  0  0  # atno 8009 bound_to 7997
  154.8145  140.2850  155.5834 H   0  0  0  0  0  0  0  0  0  0  0  0  # atno 8010 bound_to 7997
  139.7324  143.8788  152.2538 H   0  0  0  0  0  0  0  0  0  0  0  0  # atno 10167 bound_to 10162
  157.4335  130.8039  149.7625 H   0  0  0  0  0  0  0  0  0  0  0  0  # atno 10718 bound_to 10713
  153.1477  135.4616  154.9591 H   0  0  0  0  0  0  0  0  0  0  0  0  # atno 10763 bound_to 10752
  154.7800  135.3185  154.8013 H   0  0  0  0  0  0  0  0  0  0  0  0  # atno 10764 bound_to 10752
  153.8524  135.6920  153.4845 H   0  0  0  0  0  0  0  0  0  0  0  0  # atno 10765 bound_to 10752
  141.0134  134.0231  157.3382 H   0  0  0  0  0  0  0  0  0  0  0  0  # atno 11005 bound_to 11000
  146.0969  139.3962  143.0371 LP  0  0  0  0  0  0  0  0  0  0  0  0  # atno 17320 bound_to 7965
  145.7633  140.9926  143.1188 LP  0  0  0  0  0  0  0  0  0  0  0  0  # atno 17321 bound_to 7965
  139.8715  144.7065  150.8982 LP  0  0  0  0  0  0  0  0  0  0  0  0  # atno 17342 bound_to 10162
  140.7773  143.3734  151.1607 LP  0  0  0  0  0  0  0  0  0  0  0  0  # atno 17343 bound_to 10162
  155.9922  130.3932  150.2953 LP  0  0  0  0  0  0  0  0  0  0  0  0  # atno 17370 bound_to 10713
  157.1112  131.0222  151.3047 LP  0  0  0  0  0  0  0  0  0  0  0  0  # atno 17371 bound_to 10713
  139.9103  135.0188  156.7663 LP  0  0  0  0  0  0  0  0  0  0  0  0  # atno 17394 bound_to 11000
  140.6695  133.9572  155.7848 LP  0  0  0  0  0  0  0  0  0  0  0  0  # atno 17395 bound_to 11000

$$$$
