AV-unprocessed.smi:2940|AV-procd|sdf|11262|dock4
  -GOLD-   2272016153D 1   1.00000     0.00000
 Structure written by MMmdl.
 26 27  0  0  0  0  0  0  0  0  1 V2000
  148.5638  140.3801  153.4855 N   0  0  0  0  0  0  0  0  0  0  0  0
  149.1841  140.7582  154.6734 C   0  0  0  0  0  0  0  0  0  0  0  0
  148.4267  141.3308  155.7149 C   0  0  0  0  0  0  0  0  0  0  0  0
  149.0891  141.7005  156.9012 C   0  0  0  0  0  0  0  0  0  0  0  0
  150.4824  141.4849  157.0030 C   0  0  0  0  0  0  0  0  0  0  0  0
  151.2124  141.8279  158.1498 N   0  0  0  0  0  0  0  0  0  0  0  0
  152.2198  140.8385  158.5108 C   0  0  0  0  0  0  0  0  0  0  0  0
  152.8899  141.2297  159.8399 C   0  0  0  0  0  0  0  0  0  0  0  0
  153.4326  142.5428  159.7334 O   0  0  0  0  0  0  0  0  0  0  0  0
  152.4289  143.5149  159.4542 C   0  0  0  0  0  0  0  0  0  0  0  0
  151.7477  143.1832  158.1147 C   0  0  0  0  0  0  0  0  0  0  0  0
  151.1426  140.9046  155.8992 C   0  0  0  0  0  0  0  0  0  0  0  0
  150.5145  140.5471  154.7581 N   0  0  0  0  0  0  0  0  0  0  0  0
  149.0836  139.9681  152.7244 H   0  0  0  0  0  0  0  0  0  0  0  0
  147.5718  140.5092  153.3483 H   0  0  0  0  0  0  0  0  0  0  0  0
  147.3625  141.4848  155.6105 H   0  0  0  0  0  0  0  0  0  0  0  0
  148.5333  142.1423  157.7152 H   0  0  0  0  0  0  0  0  0  0  0  0
  151.7572  139.8549  158.6015 H   0  0  0  0  0  0  0  0  0  0  0  0
  152.9725  140.7718  157.7240 H   0  0  0  0  0  0  0  0  0  0  0  0
  152.1755  141.1860  160.6637 H   0  0  0  0  0  0  0  0  0  0  0  0
  153.6925  140.5314  160.0764 H   0  0  0  0  0  0  0  0  0  0  0  0
  151.6996  143.5432  160.2655 H   0  0  0  0  0  0  0  0  0  0  0  0
  152.8920  144.5004  159.4071 H   0  0  0  0  0  0  0  0  0  0  0  0
  152.4691  143.2768  157.3018 H   0  0  0  0  0  0  0  0  0  0  0  0
  150.9439  143.8939  157.9186 H   0  0  0  0  0  0  0  0  0  0  0  0
  152.2067  140.7210  155.9308 H   0  0  0  0  0  0  0  0  0  0  0  0
  1  2  1  0  0  0  0
  1 14  1  0  0  0  0
  1 15  1  0  0  0  0
  2 13  1  0  0  0  0
  2  3  2  0  0  0  0
  3  4  1  0  0  0  0
  3 16  1  0  0  0  0
  4  5  2  0  0  0  0
  4 17  1  0  0  0  0
  5  6  1  0  0  0  0
  5 12  1  0  0  0  0
  6 11  1  0  0  0  0
  6  7  1  0  0  0  0
  7  8  1  0  0  0  0
  7 18  1  0  0  0  0
  7 19  1  0  0  0  0
  8  9  1  0  0  0  0
  8 20  1  0  0  0  0
  8 21  1  0  0  0  0
  9 10  1  0  0  0  0
 10 11  1  0  0  0  0
 10 22  1  0  0  0  0
 10 23  1  0  0  0  0
 11 24  1  0  0  0  0
 11 25  1  0  0  0  0
 12 13  2  0  0  0  0
 12 26  1  0  0  0  0
M  END
> <s_m_source_file>
AV-unprocessed.smi

> <i_m_source_file_index>
2940

> <i_lp_mmshare_version>
43012

> <i_f3d_flags>
0

> <s_epik_input>
W05IMl1jMVtjSF1bY0hdYyhbY0hdbjEpTjJbQ0gyXVtDSDJdT1tDSDJdW0NIMl0y

> <s_epik_cmdline>
J2VwaWtfcHl0aG9uJywgJy1waCcsICc3LjAnLCAnLXRuJywgJzgnLCAnLW1hJywgJzIwMCcsICctbWV0YWxfYmluZGluZycsICctaW1hZScsICc8aW5maWxlLm1hZT4nLCAnLW9tYWUnLCAnPG91dGZpbGUubWFlPic=

> <r_lp_tautomer_probability>
1

> <r_epik_Ionization_Penalty>
0.109499

> <r_epik_Ionization_Penalty_Charging>
0

> <r_epik_Ionization_Penalty_Neutral>
0.109499

> <r_epik_State_Penalty>
0.0992404

> <r_epik_Charging_Adjusted_Penalty>
0.0992404

> <i_epik_Tot_Q>
0

> <i_epik_Tot_abs_Q>
0

> <r_epik_Metal_State_Penalty>
0.000108026

> <b_epik_Metal_Only>
0

> <s_lp_Force_Field>
OPLS_2005

> <r_lp_Energy>
21.5337

> <b_lp_Chiralities_Consistent>
1

> <s_lp_Variant>
AV-unprocessed.smi:2940-1

> <Gold.Version>
5.8.1

> <Gold.Id.Protein>
6NUR|6NUR_protein|mol2

> <Gold.PLP.Fitness>
30.7482

> <Gold.PLP.PLP>
-25.9920

> <Gold.PLP.part.hbond>
-2.0000

> <Gold.PLP.part.metal>
0.0000

> <Gold.PLP.part.buried>
-4.2543

> <Gold.PLP.part.nonpolar>
-19.7773

> <Gold.PLP.part.repulsive>
0.2616

> <Gold.PLP.ligand.clash>
0.0000

> <Gold.PLP.ligand.torsion>
0.6495

> <Gold.PLP.Chemscore.Hbond>
1.9840

> <Gold.PLP.Chemscore.CHOScore>
0.0000

> <Gold.PLP.Chemscore.Metal>
0.0000

> <Gold.Chemscore.Hbonds>
donor molecule, donor type, donor heavy atom, donor atom, acceptor molecule, acceptor atom, score
      L1  H     1    14       P1  7957  0.99
      P1  H  7989  7998       L1    13  0.99

> <Gold.PLP.Chemscore.Internal.Correction>
0.1032

> <Gold.Rescore>
     Score         DG    S(hbond)    S(metal)    S(lipo)     H(rot)  DE(clash)    DE(int)     intcor
     15.05     -15.81       1.57        0.00      65.28       1.00       0.11       0.66       ----

> <Gold.Chemscore.Fitness>
15.0508

> <Gold.Chemscore.DG>
-15.8126

> <Gold.Chemscore.ZeroCoef>
-5.4800

> <Gold.Chemscore.Hbond>
1.5733

> <Gold.Chemscore.Metal>
0.0000

> <Gold.Chemscore.Lipo>
65.2794

> <Gold.Chemscore.Internal_Hbond>
0.0000

> <Gold.Chemscore.DEClash>
0.1053

> <Gold.Chemscore.DEInternal>
0.6565

> <Gold.Chemscore.Rot>
1.0000

> <Gold.Chemscore.Internal.Correction>
   9.000000E+99

> <Gold.Chemscore.Hbonds>
donor molecule, donor type, donor heavy atom, donor atom, acceptor molecule, acceptor atom, score
      L1  H     1    14       P1  7957  0.93
      P1  H  7989  7998       L1    13  0.51

> <Gold.Chemscore.Hbond.Weighted>
-5.2549

> <Gold.Chemscore.Metal.Weighted>
-0.0000

> <Gold.Chemscore.Lipo.Weighted>
-7.6377

> <Gold.Chemscore.Internal_Hbond.Weighted>
0.0000

> <Gold.Chemscore.DEClash.Weighted>
0.1053

> <Gold.Chemscore.DEInternal.Weighted>
0.6565

> <Gold.Chemscore.Rot.Weighted>
2.5600

> <Gold.Chemscore.Internal.Correction.Weighted>
   9.000000E+99

> <Gold.Protein.RotatedTorsions>
[ 6907 6896 6895 6894 ] final  161.02 input  -60.11 | X-H torsion
[ 7974 7965 7964 7962 ] final   19.73 input  175.53 | X-H torsion
[ 8008 7997 7996 7995 ] final  131.56 input   59.86 | X-H torsion
[ 10167 10162 10161 10158 ] final  -85.99 input  -65.29 | X-H torsion
[ 10718 10713 10712 10709 ] final -114.58 input   66.30 | X-H torsion
[ 10763 10752 10751 10750 ] final -150.34 input  -60.55 | X-H torsion
[ 11005 11000 10999 10996 ] final    7.44 input  -57.11 | X-H torsion

> <Gold.Protein.ActiveResidues>
 VAL166  LYS551  ARG553  GLY616  TRP617  ASP618  TYR619  PRO620  LYS621  CYS622 
 ASP623  PHE694  ASN695  SER759  ASP760  ASP761  ALA762  ILE779  LEU786  VAL792 
 PHE793  MET794  SER795  GLU796  ALA797  LYS798  CYS799  TRP800  GLU811  SER814 

> <Gold.Protein.RotatedAtoms>
  151.9618  133.3698  159.4037 H   0  0  0  0  0  0  0  0  0  0  0  0  # atno 6907 bound_to 6896
  150.6963  134.4232  159.5224 H   0  0  0  0  0  0  0  0  0  0  0  0  # atno 6908 bound_to 6896
  152.1922  134.8662  160.0567 H   0  0  0  0  0  0  0  0  0  0  0  0  # atno 6909 bound_to 6896
  146.2138  139.8271  142.8668 H   0  0  0  0  0  0  0  0  0  0  0  0  # atno 7974 bound_to 7965
  156.2971  140.2568  156.2945 H   0  0  0  0  0  0  0  0  0  0  0  0  # atno 8008 bound_to 7997
  154.9477  140.0395  157.2147 H   0  0  0  0  0  0  0  0  0  0  0  0  # atno 8009 bound_to 7997
  154.8065  140.2837  155.5888 H   0  0  0  0  0  0  0  0  0  0  0  0  # atno 8010 bound_to 7997
  140.3985  143.2673  151.9174 H   0  0  0  0  0  0  0  0  0  0  0  0  # atno 10167 bound_to 10162
  156.0839  130.6034  150.8794 H   0  0  0  0  0  0  0  0  0  0  0  0  # atno 10718 bound_to 10713
  154.8124  135.3286  154.7268 H   0  0  0  0  0  0  0  0  0  0  0  0  # atno 10763 bound_to 10752
  153.7915  135.6910  153.4875 H   0  0  0  0  0  0  0  0  0  0  0  0  # atno 10764 bound_to 10752
  153.1913  135.4550  155.0100 H   0  0  0  0  0  0  0  0  0  0  0  0  # atno 10765 bound_to 10752
  140.5483  134.0308  155.7928 H   0  0  0  0  0  0  0  0  0  0  0  0  # atno 11005 bound_to 11000
  145.3036  141.0201  143.3595 LP  0  0  0  0  0  0  0  0  0  0  0  0  # atno 17320 bound_to 7965
  144.8988  139.4677  143.6642 LP  0  0  0  0  0  0  0  0  0  0  0  0  # atno 17321 bound_to 7965
  139.4785  144.5658  151.8168 LP  0  0  0  0  0  0  0  0  0  0  0  0  # atno 17342 bound_to 10162
  140.4765  144.1511  150.5926 LP  0  0  0  0  0  0  0  0  0  0  0  0  # atno 17343 bound_to 10162
  157.5967  131.0943  150.9030 LP  0  0  0  0  0  0  0  0  0  0  0  0  # atno 17370 bound_to 10713
  156.9195  130.5310  149.5279 LP  0  0  0  0  0  0  0  0  0  0  0  0  # atno 17371 bound_to 10713
  141.1187  133.9497  157.2772 LP  0  0  0  0  0  0  0  0  0  0  0  0  # atno 17394 bound_to 11000
  139.9468  135.0182  156.8877 LP  0  0  0  0  0  0  0  0  0  0  0  0  # atno 17395 bound_to 11000

$$$$
