AV-unprocessed.smi:2332|AV-procd|sdf|9319|dock6
  -GOLD-   2272012543D 1   1.00000     0.00000
 Structure written by MMmdl.
 32 33  0  0  0  0  0  0  0  0  1 V2000
  151.4556  133.0023  156.2161 C   0  0  0  0  0  0  0  0  0  0  0  0
  151.0835  134.3607  155.8523 N   0  0  0  0  0  0  0  0  0  0  0  0
  151.5661  135.4634  156.4449 C   0  0  0  0  0  0  0  0  0  0  0  0
  152.3747  135.4208  157.3730 O   0  0  0  0  0  0  0  0  0  0  0  0
  151.0481  136.8153  155.9302 C   0  0  1  0  0  0  0  0  0  0  0  0
  151.5592  137.9973  156.7856 C   0  0  0  0  0  0  0  0  0  0  0  0
  151.1488  139.2739  156.2051 N   0  0  0  0  0  0  0  0  0  0  0  0
  151.3315  140.4042  157.0314 C   0  0  0  0  0  0  0  0  0  0  0  0
  152.0260  140.2835  158.2593 C   0  0  0  0  0  0  0  0  0  0  0  0
  152.2004  141.4246  159.0665 C   0  0  0  0  0  0  0  0  0  0  0  0
  151.6752  142.6541  158.6263 C   0  0  0  0  0  0  0  0  0  0  0  0
  151.8292  143.8595  159.4226 C   0  0  0  0  0  0  0  0  0  0  0  0
  151.9520  144.8192  160.0569 N   0  0  0  0  0  0  0  0  0  0  0  0
  150.9930  142.6838  157.3945 C   0  0  0  0  0  0  0  0  0  0  0  0
  150.8222  141.5921  156.6184 N   0  0  0  0  0  0  0  0  0  0  0  0
  151.4813  139.4029  154.7882 C   0  0  0  0  0  0  0  0  0  0  0  0
  150.9549  138.1908  154.0050 C   0  0  0  0  0  0  0  0  0  0  0  0
  151.4716  136.9955  154.5781 O   0  0  0  0  0  0  0  0  0  0  0  0
  150.9587  132.2914  155.5561 H   0  0  0  0  0  0  0  0  0  0  0  0
  151.1587  132.7809  157.2420 H   0  0  0  0  0  0  0  0  0  0  0  0
  152.5328  132.8562  156.1256 H   0  0  0  0  0  0  0  0  0  0  0  0
  150.4225  134.4750  155.0971 H   0  0  0  0  0  0  0  0  0  0  0  0
  149.9576  136.7805  155.9618 H   0  0  0  0  0  0  0  0  0  0  0  0
  151.1849  137.8903  157.8030 H   0  0  0  0  0  0  0  0  0  0  0  0
  152.6485  137.9765  156.8461 H   0  0  0  0  0  0  0  0  0  0  0  0
  152.4113  139.3328  158.5968 H   0  0  0  0  0  0  0  0  0  0  0  0
  152.7262  141.3491  160.0074 H   0  0  0  0  0  0  0  0  0  0  0  0
  150.5705  143.6035  157.0166 H   0  0  0  0  0  0  0  0  0  0  0  0
  151.0441  140.3146  154.3791 H   0  0  0  0  0  0  0  0  0  0  0  0
  152.5637  139.4788  154.6754 H   0  0  0  0  0  0  0  0  0  0  0  0
  149.8639  138.1680  154.0067 H   0  0  0  0  0  0  0  0  0  0  0  0
  151.2709  138.2506  152.9636 H   0  0  0  0  0  0  0  0  0  0  0  0
  1  2  1  0  0  0  0
  1 19  1  0  0  0  0
  1 20  1  0  0  0  0
  1 21  1  0  0  0  0
  2  3  1  0  0  0  0
  2 22  1  0  0  0  0
  3  4  2  0  0  0  0
  3  5  1  0  0  0  0
  5 18  1  0  0  0  0
  5  6  1  0  0  0  0
  5 23  1  0  0  0  0
  6  7  1  0  0  0  0
  6 24  1  0  0  0  0
  6 25  1  0  0  0  0
  7  8  1  0  0  0  0
  7 16  1  0  0  0  0
  8 15  1  0  0  0  0
  8  9  2  0  0  0  0
  9 10  1  0  0  0  0
  9 26  1  0  0  0  0
 10 11  2  0  0  0  0
 10 27  1  0  0  0  0
 11 12  1  0  0  0  0
 11 14  1  0  0  0  0
 12 13  3  0  0  0  0
 14 15  2  0  0  0  0
 14 28  1  0  0  0  0
 16 17  1  0  0  0  0
 16 29  1  0  0  0  0
 16 30  1  0  0  0  0
 17 18  1  0  0  0  0
 17 31  1  0  0  0  0
 17 32  1  0  0  0  0
M  END
> <s_m_source_file>
AV-unprocessed.smi

> <i_m_source_file_index>
2332

> <i_lp_mmshare_version>
43012

> <i_f3d_flags>
0

> <s_epik_input>
W0NIM11bTkhdQyg9TylbQ0BASF0xW0NIMl1OKFtDSDJdW0NIMl1PMSljMltjSF1bY0hdYyhDI04pW2NIXW4y

> <s_epik_cmdline>
J2VwaWtfcHl0aG9uJywgJy1waCcsICc3LjAnLCAnLXRuJywgJzgnLCAnLW1hJywgJzIwMCcsICctbWV0YWxfYmluZGluZycsICctaW1hZScsICc8aW5maWxlLm1hZT4nLCAnLW9tYWUnLCAnPG91dGZpbGUubWFlPic=

> <r_lp_tautomer_probability>
1

> <r_epik_Ionization_Penalty>
6.95229e-08

> <r_epik_Ionization_Penalty_Charging>
0

> <r_epik_Ionization_Penalty_Neutral>
6.95229e-08

> <r_epik_State_Penalty>
-0

> <r_epik_Charging_Adjusted_Penalty>
0

> <i_epik_Tot_Q>
0

> <i_epik_Tot_abs_Q>
0

> <r_epik_Metal_State_Penalty>
-0

> <b_epik_Metal_Only>
0

> <s_lp_Force_Field>
OPLS_2005

> <r_lp_Energy>
17.7289

> <b_lp_Chiralities_Consistent>
1

> <s_lp_Variant>
AV-unprocessed.smi:2332-2

> <Gold.Version>
5.8.1

> <Gold.Id.Protein>
6NUR|6NUR_protein|mol2

> <Gold.PLP.Fitness>
33.7642

> <Gold.PLP.PLP>
-27.8709

> <Gold.PLP.part.hbond>
-2.0000

> <Gold.PLP.part.metal>
0.0000

> <Gold.PLP.part.buried>
-4.9891

> <Gold.PLP.part.nonpolar>
-21.7704

> <Gold.PLP.part.repulsive>
0.4242

> <Gold.PLP.ligand.clash>
0.0000

> <Gold.PLP.ligand.torsion>
0.2208

> <Gold.PLP.Chemscore.Hbond>
1.0000

> <Gold.PLP.Chemscore.CHOScore>
1.0000

> <Gold.PLP.Chemscore.Metal>
0.0000

> <Gold.Chemscore.Hbonds>
donor molecule, donor type, donor heavy atom, donor atom, acceptor molecule, acceptor atom, score
      P1  H 10752 10765       L1    18  0.85
      L1  C    14    28       P1  8028  1.00

> <Gold.PLP.Chemscore.Internal.Correction>
0.3350

> <Gold.Rescore>
     Score         DG    S(hbond)    S(metal)    S(lipo)     H(rot)  DE(clash)    DE(int)     intcor
     12.77     -12.99       1.02        0.00      64.63       1.35       0.05       0.17       ----

> <Gold.Chemscore.Fitness>
12.7694

> <Gold.Chemscore.DG>
-12.9939

> <Gold.Chemscore.ZeroCoef>
-5.4800

> <Gold.Chemscore.Hbond>
1.0203

> <Gold.Chemscore.Metal>
0.0000

> <Gold.Chemscore.Lipo>
64.6294

> <Gold.Chemscore.Internal_Hbond>
0.0000

> <Gold.Chemscore.DEClash>
0.0496

> <Gold.Chemscore.DEInternal>
0.1748

> <Gold.Chemscore.Rot>
1.3498

> <Gold.Chemscore.Internal.Correction>
   9.000000E+99

> <Gold.Chemscore.Hbonds>
donor molecule, donor type, donor heavy atom, donor atom, acceptor molecule, acceptor atom, score
      P1  H 10752 10765       L1    18  0.13

> <Gold.Chemscore.Hbond.Weighted>
-3.4078

> <Gold.Chemscore.Metal.Weighted>
-0.0000

> <Gold.Chemscore.Lipo.Weighted>
-7.5616

> <Gold.Chemscore.Internal_Hbond.Weighted>
0.0000

> <Gold.Chemscore.DEClash.Weighted>
0.0496

> <Gold.Chemscore.DEInternal.Weighted>
0.1748

> <Gold.Chemscore.Rot.Weighted>
3.4556

> <Gold.Chemscore.Internal.Correction.Weighted>
   9.000000E+99

> <Gold.Protein.RotatedTorsions>
[ 6907 6896 6895 6894 ] final  -85.44 input  -60.11 | X-H torsion
[ 7974 7965 7964 7962 ] final   52.80 input  175.53 | X-H torsion
[ 8008 7997 7996 7995 ] final  107.30 input   59.86 | X-H torsion
[ 10167 10162 10161 10158 ] final  112.77 input  -65.29 | X-H torsion
[ 10718 10713 10712 10709 ] final  104.72 input   66.30 | X-H torsion
[ 10763 10752 10751 10750 ] final -178.94 input  -60.55 | X-H torsion
[ 11005 11000 10999 10996 ] final  166.25 input  -57.11 | X-H torsion

> <Gold.Protein.ActiveResidues>
 VAL166  LYS551  ARG553  GLY616  TRP617  ASP618  TYR619  PRO620  LYS621  CYS622 
 ASP623  PHE694  ASN695  SER759  ASP760  ASP761  ALA762  ILE779  LEU786  VAL792 
 PHE793  MET794  SER795  GLU796  ALA797  LYS798  CYS799  TRP800  GLU811  SER814 

> <Gold.Protein.RotatedAtoms>
  150.6870  134.3205  159.4784 H   0  0  0  0  0  0  0  0  0  0  0  0  # atno 6907 bound_to 6896
  152.1081  134.9291  160.0577 H   0  0  0  0  0  0  0  0  0  0  0  0  # atno 6908 bound_to 6896
  152.0545  133.3999  159.4428 H   0  0  0  0  0  0  0  0  0  0  0  0  # atno 6909 bound_to 6896
  145.9776  139.4210  143.0152 H   0  0  0  0  0  0  0  0  0  0  0  0  # atno 7974 bound_to 7965
  156.1813  140.3097  155.9154 H   0  0  0  0  0  0  0  0  0  0  0  0  # atno 8008 bound_to 7997
  155.3378  140.0464  157.3061 H   0  0  0  0  0  0  0  0  0  0  0  0  # atno 8009 bound_to 7997
  154.5346  140.2241  155.8755 H   0  0  0  0  0  0  0  0  0  0  0  0  # atno 8010 bound_to 7997
  139.6511  144.7128  151.2047 H   0  0  0  0  0  0  0  0  0  0  0  0  # atno 10167 bound_to 10162
  157.6730  131.0810  150.5748 H   0  0  0  0  0  0  0  0  0  0  0  0  # atno 10718 bound_to 10713
  154.5413  135.2806  155.1093 H   0  0  0  0  0  0  0  0  0  0  0  0  # atno 10763 bound_to 10752
  154.2574  135.6328  153.5266 H   0  0  0  0  0  0  0  0  0  0  0  0  # atno 10764 bound_to 10752
  152.9979  135.5597  154.5953 H   0  0  0  0  0  0  0  0  0  0  0  0  # atno 10765 bound_to 10752
  140.2645  134.7876  157.3620 H   0  0  0  0  0  0  0  0  0  0  0  0  # atno 11005 bound_to 11000
  145.7816  140.9854  143.1096 LP  0  0  0  0  0  0  0  0  0  0  0  0  # atno 17320 bound_to 7965
  144.6853  139.9571  143.7479 LP  0  0  0  0  0  0  0  0  0  0  0  0  # atno 17321 bound_to 7965
  140.7538  143.6149  150.8569 LP  0  0  0  0  0  0  0  0  0  0  0  0  # atno 17342 bound_to 10162
  139.9797  143.5965  152.2947 LP  0  0  0  0  0  0  0  0  0  0  0  0  # atno 17343 bound_to 10162
  156.6049  130.4364  149.5882 LP  0  0  0  0  0  0  0  0  0  0  0  0  # atno 17370 bound_to 10713
  156.2476  130.6888  151.1615 LP  0  0  0  0  0  0  0  0  0  0  0  0  # atno 17371 bound_to 10713
  140.1432  134.4944  155.8015 LP  0  0  0  0  0  0  0  0  0  0  0  0  # atno 17394 bound_to 11000
  141.2186  133.6833  156.7248 LP  0  0  0  0  0  0  0  0  0  0  0  0  # atno 17395 bound_to 11000

$$$$
