#       Name:                AV-unprocessed.smi:2775
#       Creating user name   scv26
#       Creation time:       Fri Mar 27 15:13:37 2020


#       File generated by GOLD software.
#

@<TRIPOS>MOLECULE
AV-unprocessed.smi:2775
    47    50     1
SMALL
NO_CHARGES


@<TRIPOS>ATOM
      1 ****        -5.2579   1.9817   0.0926 C.3            1 S1                 0.0000
      2 ****        -4.4897   0.7956   0.6446 C.ar           1 S1                 0.0000
      3 ****        -5.2398  -0.1810   1.1996 N.ar           1 S1                 0.0000
      4 ****        -4.6057  -1.2612   1.6996 C.ar           1 S1                 0.0000
      5 ****        -3.2068  -1.4190   1.6771 C.ar           1 S1                 0.0000
      6 ****        -2.4168  -0.3911   1.1087 C.ar           1 S1                 0.0000
      7 ****        -0.9989  -0.4388   1.0141 N.am           1 S1                 0.0000
      8 ****        -0.1143  -1.2257   1.6566 C.2            1 S1                 0.0000
      9 ****        -0.4038  -2.0831   2.4878 O.2            1 S1                 0.0000
     10 ****         1.1650  -0.9878   1.3177 N.am           1 S1                 0.0000
     11 ****         2.3581  -1.6644   1.8296 C.3            1 S1                 0.0000
     12 ****         3.6263  -1.3025   1.0341 C.3            1 S1                 0.0000
     13 ****         4.3559  -2.3704   0.2650 C.3            1 S1                 0.0000
     14 ****         5.4753  -2.7805   1.2263 C.3            1 S1                 0.0000
     15 ****         5.0073  -2.3875   2.5143 O.3            1 S1                 0.0000
     16 ****         4.3468  -1.1343   2.3672 C.3            1 S1                 0.0000
     17 ****         2.9926  -1.0112   3.0762 C.3            1 S1                 0.0000
     18 ****         2.5362   0.3512   3.6325 C.3            1 S1                 0.0000
     19 ****         1.8842  -0.3898   4.8031 C.3            1 S1                 0.0000
     20 ****         2.7765  -1.5921   4.4808 C.3            1 S1                 0.0000
     21 ****        -3.0785   0.7376   0.5703 C.ar           1 S1                 0.0000
     22 ****        -2.1785   2.0250  -0.1614 Cl             1 S1                 0.0000
     23 ****        -4.9485   2.8994   0.5930 H              1 S1                 0.0000
     24 ****        -6.3332   1.8662   0.2350 H              1 S1                 0.0000
     25 ****        -5.0691   2.0902  -0.9756 H              1 S1                 0.0000
     26 ****        -5.2340  -2.0286   2.1272 H              1 S1                 0.0000
     27 ****        -2.7795  -2.3220   2.0831 H              1 S1                 0.0000
     28 ****        -0.5936   0.2557   0.4035 H              1 S1                 0.0000
     29 ****         1.3264  -0.2633   0.6329 H              1 S1                 0.0000
     30 ****         2.2558  -2.7463   1.9402 H              1 S1                 0.0000
     31 ****         3.5345  -0.3482   0.5119 H              1 S1                 0.0000
     32 ****         3.6995  -3.2147   0.0517 H              1 S1                 0.0000
     33 ****         4.7537  -2.0078  -0.6831 H              1 S1                 0.0000
     34 ****         5.6944  -3.8476   1.1873 H              1 S1                 0.0000
     35 ****         6.3925  -2.2344   1.0007 H              1 S1                 0.0000
     36 ****         5.0067  -0.2670   2.4163 H              1 S1                 0.0000
     37 ****         3.3732   0.9728   3.9540 H              1 S1                 0.0000
     38 ****         1.8433   0.9172   3.0103 H              1 S1                 0.0000
     39 ****         2.0621   0.0591   5.7807 H              1 S1                 0.0000
     40 ****         0.8251  -0.5911   4.6400 H              1 S1                 0.0000
     41 ****         2.2654  -2.5549   4.5046 H              1 S1                 0.0000
     42 ****         3.6922  -1.6075   5.0739 H              1 S1                 0.0000
     43 ****        -6.2362  -0.1053   1.2386 LP             1 S1                 0.0000
     44 ****        -1.3607  -2.2387   2.7332 LP             1 S1                 0.0000
     45 ****         0.3174  -2.6254   2.9188 LP             1 S1                 0.0000
     46 ****         5.7786  -2.2949   3.1440 LP             1 S1                 0.0000
     47 ****         4.3683  -3.0705   2.8682 LP             1 S1                 0.0000
@<TRIPOS>BOND
    1    1    2 1     
    2    1   23 1     
    3    1   24 1     
    4    1   25 1     
    5    2   21 ar    
    6    2    3 ar    
    7    3    4 ar    
    8    4    5 ar    
    9    4   26 1     
   10    5    6 ar    
   11    5   27 1     
   12    6    7 1     
   13    6   21 ar    
   14    7    8 am    
   15    7   28 1     
   16    8    9 2     
   17    8   10 am    
   18   10   11 1     
   19   10   29 1     
   20   11   17 1     
   21   11   12 1     
   22   11   30 1     
   23   12   16 1     
   24   12   13 1     
   25   12   31 1     
   26   13   14 1     
   27   13   32 1     
   28   13   33 1     
   29   14   15 1     
   30   14   34 1     
   31   14   35 1     
   32   15   16 1     
   33   16   17 1     
   34   16   36 1     
   35   17   20 1     
   36   17   18 1     
   37   18   19 1     
   38   18   37 1     
   39   18   38 1     
   40   19   20 1     
   41   19   39 1     
   42   19   40 1     
   43   20   41 1     
   44   20   42 1     
   45   21   22 1     
   46    3   43 1     
   47    9   44 1     
   48    9   45 1     
   49   15   46 1     
   50   15   47 1     
@<TRIPOS>SUBSTRUCTURE
      1 S1             1
@<TRIPOS>SET
LONE_PAIRS      STATIC     ATOMS    <user>   **** ""
5 43 44 45 46 47
DONOR_HYDROGENS      STATIC     ATOMS    <user>   **** ""
2 28 29
ATOM$BLUE        STATIC     ATOMS    COLORGROUP SYSTEM
5 43 44 45 46 47
ATOM$RED        STATIC     ATOMS    COLORGROUP SYSTEM
2 28 29
