AV-unprocessed.smi:13|AV-procd|sdf|71|dock10
  -GOLD-   2262015193D 1   1.00000     0.00000
 Structure written by MMmdl.
 54 58  0  0  0  0  0  0  0  0  1 V2000
  151.8056  143.6346  156.5878 C   0  0  0  0  0  0  0  0  0  0  0  0
  151.0596  142.4732  157.2441 C   0  0  0  0  0  0  0  0  0  0  0  0
  150.2602  143.0680  158.4120 C   0  0  0  0  0  0  0  0  0  0  0  0
  150.2457  141.5808  156.2946 C   0  0  0  0  0  0  0  0  0  0  0  0
  150.7424  140.4455  157.0517 N   0  0  0  0  0  0  0  0  0  0  0  0
  150.9625  139.2785  156.2640 C   0  0  0  0  0  0  0  0  0  0  0  0
  151.5758  139.3596  155.0530 N   0  0  0  0  0  0  0  0  0  0  0  0
  151.7945  138.2683  154.3144 C   0  0  0  0  0  0  0  0  0  0  0  0
  151.4869  137.0006  154.5902 N   0  0  0  0  0  0  0  0  0  0  0  0
  150.8776  136.8998  155.8049 C   0  0  0  0  0  0  0  0  0  0  0  0
  150.5868  137.9739  156.6937 C   0  0  0  0  0  0  0  0  0  0  0  0
  149.9723  137.4836  157.8397 N   0  0  0  0  0  0  0  0  0  0  0  0
  149.8971  136.1967  157.6369 C   0  0  0  0  0  0  0  0  0  0  0  0
  150.4090  135.7607  156.4360 N   0  0  0  0  0  0  0  0  0  0  0  0
  150.4459  134.3884  155.9542 C   0  0  0  0  0  0  0  0  0  0  0  0
  149.2235  134.0132  155.0848 C   0  0  1  0  0  0  0  0  0  0  0  0
  148.9341  135.0890  154.2084 O   0  0  0  0  0  0  0  0  0  0  0  0
  149.4139  132.7482  154.2528 C   0  0  0  0  0  0  0  0  0  0  0  0
  148.0066  132.1732  154.1821 C   0  0  0  0  0  0  0  0  0  0  0  0
  147.5081  132.4186  155.4859 O   0  0  0  0  0  0  0  0  0  0  0  0
  147.9575  133.7023  155.9083 C   0  0  0  0  0  0  0  0  0  0  0  0
  151.9007  141.2024  157.5144 C   0  0  2  0  0  0  0  0  0  0  0  0
  152.3361  140.8117  158.9310 C   0  0  2  0  0  0  0  0  0  0  0  0
  153.0182  141.9428  159.7021 C   0  0  0  0  0  0  0  0  0  0  0  0
  153.9290  141.2211  160.6844 C   0  0  0  0  0  0  0  0  0  0  0  0
  153.9408  139.7738  160.1887 C   0  0  0  0  0  0  0  0  0  0  0  0
  153.3594  139.8298  158.8954 O   0  0  0  0  0  0  0  0  0  0  0  0
  151.1179  144.3983  156.2232 H   0  0  0  0  0  0  0  0  0  0  0  0
  152.3953  143.2986  155.7343 H   0  0  0  0  0  0  0  0  0  0  0  0
  152.4934  144.1133  157.2857 H   0  0  0  0  0  0  0  0  0  0  0  0
  149.7296  142.2981  158.9729 H   0  0  0  0  0  0  0  0  0  0  0  0
  149.5100  143.7756  158.0577 H   0  0  0  0  0  0  0  0  0  0  0  0
  150.9001  143.5999  159.1154 H   0  0  0  0  0  0  0  0  0  0  0  0
  149.1652  141.7136  156.3564 H   0  0  0  0  0  0  0  0  0  0  0  0
  150.6070  141.5968  155.2643 H   0  0  0  0  0  0  0  0  0  0  0  0
  152.2869  138.4361  153.3679 H   0  0  0  0  0  0  0  0  0  0  0  0
  149.4566  135.5255  158.3599 H   0  0  0  0  0  0  0  0  0  0  0  0
  151.3669  134.2504  155.3861 H   0  0  0  0  0  0  0  0  0  0  0  0
  150.5169  133.7234  156.8159 H   0  0  0  0  0  0  0  0  0  0  0  0
  148.9284  135.8902  154.7099 H   0  0  0  0  0  0  0  0  0  0  0  0
  149.8589  132.9260  153.2729 H   0  0  0  0  0  0  0  0  0  0  0  0
  150.0509  132.0400  154.7833 H   0  0  0  0  0  0  0  0  0  0  0  0
  147.4002  132.7050  153.4473 H   0  0  0  0  0  0  0  0  0  0  0  0
  147.9949  131.1105  153.9391 H   0  0  0  0  0  0  0  0  0  0  0  0
  148.1560  133.6740  156.9801 H   0  0  0  0  0  0  0  0  0  0  0  0
  147.1683  134.4377  155.7433 H   0  0  0  0  0  0  0  0  0  0  0  0
  152.7201  141.1483  156.7946 H   0  0  0  0  0  0  0  0  0  0  0  0
  151.4974  140.4246  159.5128 H   0  0  0  0  0  0  0  0  0  0  0  0
  153.6212  142.5488  159.0244 H   0  0  0  0  0  0  0  0  0  0  0  0
  152.3095  142.6039  160.1996 H   0  0  0  0  0  0  0  0  0  0  0  0
  154.9290  141.6557  160.6730 H   0  0  0  0  0  0  0  0  0  0  0  0
  153.5491  141.2773  161.7050 H   0  0  0  0  0  0  0  0  0  0  0  0
  154.9445  139.3495  160.1528 H   0  0  0  0  0  0  0  0  0  0  0  0
  153.3258  139.1421  160.8311 H   0  0  0  0  0  0  0  0  0  0  0  0
  1  2  1  0  0  0  0
  1 28  1  0  0  0  0
  1 29  1  0  0  0  0
  1 30  1  0  0  0  0
  2 22  1  0  0  0  0
  2  3  1  0  0  0  0
  2  4  1  0  0  0  0
  3 31  1  0  0  0  0
  3 32  1  0  0  0  0
  3 33  1  0  0  0  0
  4  5  1  0  0  0  0
  4 34  1  0  0  0  0
  4 35  1  0  0  0  0
  5  6  1  0  0  0  0
  5 22  1  0  0  0  0
  6 11  1  0  0  0  0
  6  7  2  0  0  0  0
  7  8  1  0  0  0  0
  8  9  2  0  0  0  0
  8 36  1  0  0  0  0
  9 10  1  0  0  0  0
 10 14  1  0  0  0  0
 10 11  2  0  0  0  0
 11 12  1  0  0  0  0
 12 13  2  0  0  0  0
 13 14  1  0  0  0  0
 13 37  1  0  0  0  0
 14 15  1  0  0  0  0
 15 16  1  0  0  0  0
 15 38  1  0  0  0  0
 15 39  1  0  0  0  0
 16 21  1  0  0  0  0
 16 17  1  0  0  0  0
 16 18  1  0  0  0  0
 17 40  1  0  0  0  0
 18 19  1  0  0  0  0
 18 41  1  0  0  0  0
 18 42  1  0  0  0  0
 19 20  1  0  0  0  0
 19 43  1  0  0  0  0
 19 44  1  0  0  0  0
 20 21  1  0  0  0  0
 21 45  1  0  0  0  0
 21 46  1  0  0  0  0
 22 23  1  0  0  0  0
 22 47  1  0  0  0  0
 23 27  1  0  0  0  0
 23 24  1  0  0  0  0
 23 48  1  0  0  0  0
 24 25  1  0  0  0  0
 24 49  1  0  0  0  0
 24 50  1  0  0  0  0
 25 26  1  0  0  0  0
 25 51  1  0  0  0  0
 25 52  1  0  0  0  0
 26 27  1  0  0  0  0
 26 53  1  0  0  0  0
 26 54  1  0  0  0  0
M  END
> <s_m_source_file>
AV-unprocessed.smi

> <i_m_source_file_index>
13

> <i_lp_mmshare_version>
43012

> <i_f3d_flags>
0

> <s_epik_input>
TzFbQ0gyXVtDSDJdW0NIMl1bQ0BIXTFbQ0BASF0yTihbQ0gyXUMyKFtDSDNdKVtDSDNdKWMobltjSF1uMyljKGMzNCluW2NIXW40W0NIMl1bQ0BAXTUoW09IXSlbQ0gyXVtDSDJdT1tDSDJdNQ==

> <s_epik_cmdline>
J2VwaWtfcHl0aG9uJywgJy1waCcsICc3LjAnLCAnLXRuJywgJzgnLCAnLW1hJywgJzIwMCcsICctbWV0YWxfYmluZGluZycsICctaW1hZScsICc8aW5maWxlLm1hZT4nLCAnLW9tYWUnLCAnPG91dGZpbGUubWFlPic=

> <r_lp_tautomer_probability>
1

> <r_epik_Ionization_Penalty>
0.00202764

> <r_epik_Ionization_Penalty_Charging>
0

> <r_epik_Ionization_Penalty_Neutral>
0.00202764

> <r_epik_State_Penalty>
0.00134017

> <r_epik_Charging_Adjusted_Penalty>
0.00134017

> <i_epik_Tot_Q>
0

> <i_epik_Tot_abs_Q>
0

> <r_epik_Metal_State_Penalty>
-0

> <b_epik_Metal_Only>
0

> <s_lp_Force_Field>
OPLS_2005

> <r_lp_Energy>
61.7559

> <b_lp_Chiralities_Consistent>
1

> <s_lp_Variant>
AV-unprocessed.smi:13-3

> <Gold.Version>
5.8.1

> <Gold.Id.Protein>
6NUR|6NUR_protein|mol2

> <Gold.PLP.Fitness>
44.9442

> <Gold.PLP.PLP>
-38.2813

> <Gold.PLP.part.hbond>
-3.9727

> <Gold.PLP.part.metal>
0.0000

> <Gold.PLP.part.buried>
-5.7470

> <Gold.PLP.part.nonpolar>
-28.3204

> <Gold.PLP.part.repulsive>
0.2175

> <Gold.PLP.ligand.clash>
0.0000

> <Gold.PLP.ligand.torsion>
1.2955

> <Gold.PLP.Chemscore.Hbond>
2.9500

> <Gold.PLP.Chemscore.CHOScore>
0.0000

> <Gold.PLP.Chemscore.Metal>
0.0000

> <Gold.Chemscore.Hbonds>
donor molecule, donor type, donor heavy atom, donor atom, acceptor molecule, acceptor atom, score
      P1  H  7989  7998       L1     7  0.65
      P1  H  7997  8010       L1    27  0.50
      P1  H 10752 10763       L1     9  1.00

> <Gold.PLP.Chemscore.Internal.Correction>
0.4040

> <Gold.Rescore>
     Score         DG    S(hbond)    S(metal)    S(lipo)     H(rot)  DE(clash)    DE(int)     intcor
     15.54     -18.72       2.08        0.00     104.07       2.30       1.87       1.31       ----

> <Gold.Chemscore.Fitness>
15.5403

> <Gold.Chemscore.DG>
-18.7216

> <Gold.Chemscore.ZeroCoef>
-5.4800

> <Gold.Chemscore.Hbond>
2.0816

> <Gold.Chemscore.Metal>
0.0000

> <Gold.Chemscore.Lipo>
104.0675

> <Gold.Chemscore.Internal_Hbond>
0.0000

> <Gold.Chemscore.DEClash>
1.8721

> <Gold.Chemscore.DEInternal>
1.3093

> <Gold.Chemscore.Rot>
2.2996

> <Gold.Chemscore.Internal.Correction>
   9.000000E+99

> <Gold.Chemscore.Hbonds>
donor molecule, donor type, donor heavy atom, donor atom, acceptor molecule, acceptor atom, score
      P1  H  7989  7998       L1     7  0.14
      P1  H  7997  8010       L1    27  0.40
      P1  H 10752 10763       L1     9  0.78

> <Gold.Chemscore.Hbond.Weighted>
-6.9527

> <Gold.Chemscore.Metal.Weighted>
-0.0000

> <Gold.Chemscore.Lipo.Weighted>
-12.1759

> <Gold.Chemscore.Internal_Hbond.Weighted>
0.0000

> <Gold.Chemscore.DEClash.Weighted>
1.8721

> <Gold.Chemscore.DEInternal.Weighted>
1.3093

> <Gold.Chemscore.Rot.Weighted>
5.8869

> <Gold.Chemscore.Internal.Correction.Weighted>
   9.000000E+99

> <Gold.Protein.RotatedTorsions>
[ 6907 6896 6895 6894 ] final  174.86 input  -60.11 | X-H torsion
[ 7974 7965 7964 7962 ] final    0.23 input  175.53 | X-H torsion
[ 8008 7997 7996 7995 ] final   31.43 input   59.86 | X-H torsion
[ 10167 10162 10161 10158 ] final  -90.90 input  -65.29 | X-H torsion
[ 10718 10713 10712 10709 ] final   95.56 input   66.30 | X-H torsion
[ 10763 10752 10751 10750 ] final   39.51 input  -60.55 | X-H torsion
[ 11005 11000 10999 10996 ] final -159.51 input  -57.11 | X-H torsion

> <Gold.Protein.ActiveResidues>
 VAL166  LYS551  ARG553  GLY616  TRP617  ASP618  TYR619  PRO620  LYS621  CYS622 
 ASP623  PHE694  ASN695  SER759  ASP760  ASP761  ALA762  ILE779  LEU786  VAL792 
 PHE793  MET794  SER795  GLU796  ALA797  LYS798  CYS799  TRP800  GLU811  SER814 

> <Gold.Protein.RotatedAtoms>
  151.7454  133.3324  159.3376 H   0  0  0  0  0  0  0  0  0  0  0  0  # atno 6907 bound_to 6896
  150.7556  134.6240  159.6160 H   0  0  0  0  0  0  0  0  0  0  0  0  # atno 6908 bound_to 6896
  152.3503  134.7017  160.0290 H   0  0  0  0  0  0  0  0  0  0  0  0  # atno 6909 bound_to 6896
  146.2433  140.1169  142.8342 H   0  0  0  0  0  0  0  0  0  0  0  0  # atno 7974 bound_to 7965
  155.1062  140.3234  155.4534 H   0  0  0  0  0  0  0  0  0  0  0  0  # atno 8008 bound_to 7997
  156.2703  140.2052  156.6135 H   0  0  0  0  0  0  0  0  0  0  0  0  # atno 8009 bound_to 7997
  154.6791  140.0528  157.0234 H   0  0  0  0  0  0  0  0  0  0  0  0  # atno 8010 bound_to 7997
  140.3503  143.2895  151.9734 H   0  0  0  0  0  0  0  0  0  0  0  0  # atno 10167 bound_to 10162
  157.6937  131.0549  150.4357 H   0  0  0  0  0  0  0  0  0  0  0  0  # atno 10718 bound_to 10713
  152.9965  135.6218  154.2477 H   0  0  0  0  0  0  0  0  0  0  0  0  # atno 10763 bound_to 10752
  154.2216  135.2795  155.2924 H   0  0  0  0  0  0  0  0  0  0  0  0  # atno 10764 bound_to 10752
  154.5524  135.5729  153.6992 H   0  0  0  0  0  0  0  0  0  0  0  0  # atno 10765 bound_to 10752
  140.6418  134.4543  157.5233 H   0  0  0  0  0  0  0  0  0  0  0  0  # atno 11005 bound_to 11000
  145.0439  140.8967  143.5036 LP  0  0  0  0  0  0  0  0  0  0  0  0  # atno 17320 bound_to 7965
  145.1255  139.2666  143.5566 LP  0  0  0  0  0  0  0  0  0  0  0  0  # atno 17321 bound_to 7965
  139.4827  144.6082  151.7483 LP  0  0  0  0  0  0  0  0  0  0  0  0  # atno 17342 bound_to 10162
  140.5225  144.0856  150.6027 LP  0  0  0  0  0  0  0  0  0  0  0  0  # atno 17343 bound_to 10162
  156.4720  130.4055  149.6512 LP  0  0  0  0  0  0  0  0  0  0  0  0  # atno 17370 bound_to 10713
  156.3589  130.7471  151.2441 LP  0  0  0  0  0  0  0  0  0  0  0  0  # atno 17371 bound_to 10713
  139.9077  134.8412  156.1642 LP  0  0  0  0  0  0  0  0  0  0  0  0  # atno 17394 bound_to 11000
  141.0601  133.6846  156.1936 LP  0  0  0  0  0  0  0  0  0  0  0  0  # atno 17395 bound_to 11000

$$$$
