#       Name:                AV-unprocessed.smi:993
#       Creating user name   scv26
#       Creation time:       Fri Mar 27 02:23:48 2020


#       File generated by GOLD software.
#

@<TRIPOS>MOLECULE
AV-unprocessed.smi:993
    39    40     1
SMALL
NO_CHARGES


@<TRIPOS>ATOM
      1 ****         2.4323   1.7213   1.2247 C.3            1 S1                 0.0000
      2 ****         1.6224   0.6143   0.5747 C.ar           1 S1                 0.0000
      3 ****         0.2807   0.7675   0.6139 N.ar           1 S1                 0.0000
      4 ****        -0.4671  -0.1862   0.0499 C.ar           1 S1                 0.0000
      5 ****        -1.8481  -0.0191   0.0927 N.pl3          1 S1                 0.0000
      6 ****        -2.8127  -0.9297  -0.5087 C.3            1 S1                 0.0000
      7 ****        -4.1559  -0.1994  -0.4556 C.3            1 S1                 0.0000
      8 ****        -4.0102   0.7199   0.7545 C.3            1 S1                 0.0000
      9 ****        -2.5280   1.0980   0.7341 C.3            1 S1                 0.0000
     10 ****        -0.0032  -1.2879  -0.5490 N.ar           1 S1                 0.0000
     11 ****         1.3348  -1.4619  -0.5989 C.ar           1 S1                 0.0000
     12 ****         1.8065  -2.5882  -1.2085 O.3            1 S1                 0.0000
     13 ****         2.2239  -0.5145  -0.0353 C.ar           1 S1                 0.0000
     14 ****         3.7385  -0.6992  -0.0928 C.3            1 S1                 0.0000
     15 ****         4.2761   0.0250  -1.3307 C.2            1 S1                 0.0000
     16 ****         5.0960   0.9487  -1.1353 O.co2          1 S1                 0.0000
     17 ****         3.8669  -0.3570  -2.4494 O.co2          1 S1                -1.0000
     18 ****         1.1173  -3.1095  -1.5891 H              1 S1                 0.0000
     19 ****         3.0100   1.3295   2.0617 H              1 S1                 0.0000
     20 ****         1.7887   2.5158   1.6042 H              1 S1                 0.0000
     21 ****         3.1204   2.1650   0.5055 H              1 S1                 0.0000
     22 ****        -2.8466  -1.8467   0.0806 H              1 S1                 0.0000
     23 ****        -2.5419  -1.1902  -1.5325 H              1 S1                 0.0000
     24 ****        -4.2842   0.4007  -1.3575 H              1 S1                 0.0000
     25 ****        -5.0054  -0.8782  -0.3780 H              1 S1                 0.0000
     26 ****        -4.6697   1.5870   0.7157 H              1 S1                 0.0000
     27 ****        -4.2362   0.1643   1.6656 H              1 S1                 0.0000
     28 ****        -2.3661   1.9979   0.1397 H              1 S1                 0.0000
     29 ****        -2.1500   1.2795   1.7407 H              1 S1                 0.0000
     30 ****         4.0025  -1.7554  -0.1472 H              1 S1                 0.0000
     31 ****         4.2092  -0.3126   0.8113 H              1 S1                 0.0000
     32 ****        -0.1376   1.5650   1.0488 LP             1 S1                 0.0000
     33 ****        -0.6267  -1.9609  -0.9469 LP             1 S1                 0.0000
     34 ****         2.2896  -3.1415  -0.5300 LP             1 S1                 0.0000
     35 ****         2.4417  -2.3188  -1.9324 LP             1 S1                 0.0000
     36 ****         5.4802   1.4487  -1.9115 LP             1 S1                 0.0000
     37 ****         5.3674   1.1874  -0.2029 LP             1 S1                 0.0000
     38 ****         4.1987   0.0873  -3.2816 LP             1 S1                 0.0000
     39 ****         3.2080  -1.1066  -2.5115 LP             1 S1                 0.0000
@<TRIPOS>BOND
    1    1   19 1     
    2    1   20 1     
    3    1   21 1     
    4    1    2 1     
    5    2   13 ar    
    6    2    3 ar    
    7    3    4 ar    
    8    4    5 1     
    9    4   10 ar    
   10    5    9 1     
   11    5    6 1     
   12    6    7 1     
   13    6   22 1     
   14    6   23 1     
   15    7    8 1     
   16    7   24 1     
   17    7   25 1     
   18    8    9 1     
   19    8   26 1     
   20    8   27 1     
   21    9   28 1     
   22    9   29 1     
   23   10   11 ar    
   24   11   12 1     
   25   11   13 ar    
   26   12   18 1     
   27   13   14 1     
   28   14   15 1     
   29   14   30 1     
   30   14   31 1     
   31   15   16 ar    
   32   15   17 ar    
   33    3   32 1     
   34   10   33 1     
   35   12   34 1     
   36   12   35 1     
   37   16   36 1     
   38   16   37 1     
   39   17   38 1     
   40   17   39 1     
@<TRIPOS>SUBSTRUCTURE
      1 S1             1
@<TRIPOS>SET
LONE_PAIRS      STATIC     ATOMS    <user>   **** ""
8 32 33 34 35 36 37 38 39
DONOR_HYDROGENS      STATIC     ATOMS    <user>   **** ""
1 18
ATOM$BLUE        STATIC     ATOMS    COLORGROUP SYSTEM
8 32 33 34 35 36 37 38 39
ATOM$RED        STATIC     ATOMS    COLORGROUP SYSTEM
1 18
