AV-unprocessed.smi:2636|AV-procd|sdf|10260|dock3
  -GOLD-   2272014273D 1   1.00000     0.00000
 Structure written by MMmdl.
 35 36  0  0  0  0  0  0  0  0  2 V2000
  149.1945  136.9150  159.5158 C   0  0  0  0  0  0  0  0  0  0  0  0
  149.8275  136.8491  158.1383 C   0  0  0  0  0  0  0  0  0  0  0  0
  150.3977  137.9181  157.5454 C   0  0  0  0  0  0  0  0  0  0  0  0
  150.9712  137.8470  156.2645 N   0  0  0  0  0  0  0  0  0  0  0  0
  151.6024  139.0383  155.7084 C   0  0  0  0  0  0  0  0  0  0  0  0
  152.3796  139.7075  156.6620 O   0  0  0  0  0  0  0  0  0  0  0  0
  151.7035  140.6188  157.5238 C   0  0  0  0  0  0  0  0  0  0  0  0
  151.2367  141.8621  156.7839 C   0  0  0  0  0  0  0  0  0  0  0  0
  151.1396  143.1230  157.2501 C   0  0  0  0  0  0  0  0  0  0  0  0
  151.5278  143.6563  158.5674 C   0  0  0  0  0  0  0  0  0  0  0  0
  152.1342  142.8600  159.5655 C   0  0  0  0  0  0  0  0  0  0  0  0
  152.4661  143.4112  160.8183 C   0  0  0  0  0  0  0  0  0  0  0  0
  152.2020  144.7676  161.0842 C   0  0  0  0  0  0  0  0  0  0  0  0
  151.6071  145.5713  160.0942 C   0  0  0  0  0  0  0  0  0  0  0  0
  151.2703  145.0162  158.8445 C   0  0  0  0  0  0  0  0  0  0  0  0
  150.9794  136.6660  155.5781 C   0  0  0  0  0  0  0  0  0  0  0  0
  151.4961  136.6231  154.4609 O   0  0  0  0  0  0  0  0  0  0  0  0
  150.4085  135.5682  156.1615 N   0  5  0  0  0  0  0  0  0  0  0  0
  149.8326  135.5844  157.3992 C   0  0  0  0  0  0  0  0  0  0  0  0
  149.3262  134.5822  157.9029 O   0  0  0  0  0  0  0  0  0  0  0  0
  149.2580  137.9217  159.9293 H   0  0  0  0  0  0  0  0  0  0  0  0
  149.6988  136.2325  160.2004 H   0  0  0  0  0  0  0  0  0  0  0  0
  148.1416  136.6368  159.4646 H   0  0  0  0  0  0  0  0  0  0  0  0
  150.4486  138.8891  158.0154 H   0  0  0  0  0  0  0  0  0  0  0  0
  152.2456  138.7324  154.8816 H   0  0  0  0  0  0  0  0  0  0  0  0
  150.8435  139.7054  155.2979 H   0  0  0  0  0  0  0  0  0  0  0  0
  150.8944  140.1090  158.0408 H   0  0  0  0  0  0  0  0  0  0  0  0
  152.4098  140.9341  158.2915 H   0  0  0  0  0  0  0  0  0  0  0  0
  150.9343  141.6835  155.7625 H   0  0  0  0  0  0  0  0  0  0  0  0
  150.7508  143.8619  156.5644 H   0  0  0  0  0  0  0  0  0  0  0  0
  152.3686  141.8236  159.3751 H   0  0  0  0  0  0  0  0  0  0  0  0
  152.9280  142.7930  161.5739 H   0  0  0  0  0  0  0  0  0  0  0  0
  152.4557  145.1902  162.0450 H   0  0  0  0  0  0  0  0  0  0  0  0
  151.4012  146.6121  160.2954 H   0  0  0  0  0  0  0  0  0  0  0  0
  150.8045  145.6413  158.0966 H   0  0  0  0  0  0  0  0  0  0  0  0
  1  2  1  0  0  0  0
  1 21  1  0  0  0  0
  1 22  1  0  0  0  0
  1 23  1  0  0  0  0
  2 19  1  0  0  0  0
  2  3  2  0  0  0  0
  3  4  1  0  0  0  0
  3 24  1  0  0  0  0
  4  5  1  0  0  0  0
  4 16  1  0  0  0  0
  5  6  1  0  0  0  0
  5 25  1  0  0  0  0
  5 26  1  0  0  0  0
  6  7  1  0  0  0  0
  7  8  1  0  0  0  0
  7 27  1  0  0  0  0
  7 28  1  0  0  0  0
  8  9  2  0  0  0  0
  8 29  1  0  0  0  0
  9 10  1  0  0  0  0
  9 30  1  0  0  0  0
 10 15  1  0  0  0  0
 10 11  2  0  0  0  0
 11 12  1  0  0  0  0
 11 31  1  0  0  0  0
 12 13  2  0  0  0  0
 12 32  1  0  0  0  0
 13 14  1  0  0  0  0
 13 33  1  0  0  0  0
 14 15  2  0  0  0  0
 14 34  1  0  0  0  0
 15 35  1  0  0  0  0
 16 17  2  0  0  0  0
 16 18  1  0  0  0  0
 18 19  1  0  0  0  0
 19 20  2  0  0  0  0
M  CHG  1  18  -1
M  END
> <s_m_source_file>
AV-unprocessed.smi

> <i_m_source_file_index>
2636

> <i_lp_mmshare_version>
43012

> <i_f3d_flags>
0

> <s_epik_input>
Tz1jMVtuSF1jKD1PKW4oW2NIXWMxW0NIM10pW0NIMl1PW0NIMl0vW0NIXT1bQ0hdL2MyW2NIXVtjSF1bY0hdW2NIXVtjSF0y

> <s_epik_cmdline>
J2VwaWtfcHl0aG9uJywgJy1waCcsICc3LjAnLCAnLXRuJywgJzgnLCAnLW1hJywgJzIwMCcsICctbWV0YWxfYmluZGluZycsICctaW1hZScsICc8aW5maWxlLm1hZT4nLCAnLW9tYWUnLCAnPG91dGZpbGUubWFlPic=

> <r_lp_tautomer_probability>
0.999537

> <r_epik_Ionization_Penalty>
3.43625

> <r_epik_Ionization_Penalty_Charging>
7.29021e-08

> <r_epik_Ionization_Penalty_Neutral>
3.43625

> <r_epik_State_Penalty>
3.43567

> <r_epik_Charging_Adjusted_Penalty>
3.43567

> <i_epik_Tot_Q>
-1

> <i_epik_Tot_abs_Q>
1

> <r_epik_Metal_State_Penalty>
0.168611

> <b_epik_Metal_Only>
1

> <s_epik_Chemistry_Notes>
This compound contains an acetal/aminal-like group ( X-CH(R)-Y where X, Y are N, S, or O) that may be acid/base labile, releasing an aldehyde.

> <s_lp_Force_Field>
OPLS_2005

> <r_lp_Energy>
10.6813

> <b_lp_Chiralities_Consistent>
1

> <s_lp_Variant>
AV-unprocessed.smi:2636-4

> <Gold.Version>
5.8.1

> <Gold.Id.Protein>
6NUR|6NUR_protein|mol2

> <Gold.PLP.Fitness>
46.5918

> <Gold.PLP.PLP>
-38.6568

> <Gold.PLP.part.hbond>
-3.0000

> <Gold.PLP.part.metal>
0.0000

> <Gold.PLP.part.buried>
-5.6748

> <Gold.PLP.part.nonpolar>
-31.4930

> <Gold.PLP.part.repulsive>
0.6021

> <Gold.PLP.ligand.clash>
0.0026

> <Gold.PLP.ligand.torsion>
0.5490

> <Gold.PLP.Chemscore.Hbond>
3.0000

> <Gold.PLP.Chemscore.CHOScore>
0.0000

> <Gold.PLP.Chemscore.Metal>
0.0000

> <Gold.Chemscore.Hbonds>
donor molecule, donor type, donor heavy atom, donor atom, acceptor molecule, acceptor atom, score
      P1  H  6896  6909       L1    20  0.98
      P1  H  7997  8010       L1     6  0.88
      P1  H 10752 10764       L1    17  1.00

> <Gold.PLP.Chemscore.Internal.Correction>
0.0356

> <Gold.Rescore>
     Score         DG    S(hbond)    S(metal)    S(lipo)     H(rot)  DE(clash)    DE(int)     intcor
     17.98     -20.39       2.29        0.00     103.08       1.88       0.08       2.33       ----

> <Gold.Chemscore.Fitness>
17.9776

> <Gold.Chemscore.DG>
-20.3918

> <Gold.Chemscore.ZeroCoef>
-5.4800

> <Gold.Chemscore.Hbond>
2.2947

> <Gold.Chemscore.Metal>
0.0000

> <Gold.Chemscore.Lipo>
103.0802

> <Gold.Chemscore.Internal_Hbond>
0.0000

> <Gold.Chemscore.DEClash>
0.0822

> <Gold.Chemscore.DEInternal>
2.3320

> <Gold.Chemscore.Rot>
1.8800

> <Gold.Chemscore.Internal.Correction>
   9.000000E+99

> <Gold.Chemscore.Hbonds>
donor molecule, donor type, donor heavy atom, donor atom, acceptor molecule, acceptor atom, score
      P1  H  6896  6909       L1    20  0.36
      P1  H  7997  8010       L1     6  0.74
      P1  H 10752 10764       L1    17  0.94

> <Gold.Chemscore.Hbond.Weighted>
-7.6643

> <Gold.Chemscore.Metal.Weighted>
-0.0000

> <Gold.Chemscore.Lipo.Weighted>
-12.0604

> <Gold.Chemscore.Internal_Hbond.Weighted>
0.0000

> <Gold.Chemscore.DEClash.Weighted>
0.0822

> <Gold.Chemscore.DEInternal.Weighted>
2.3320

> <Gold.Chemscore.Rot.Weighted>
4.8129

> <Gold.Chemscore.Internal.Correction.Weighted>
   9.000000E+99

> <Gold.Protein.RotatedTorsions>
[ 6907 6896 6895 6894 ] final   14.89 input  -60.11 | X-H torsion
[ 7974 7965 7964 7962 ] final -151.61 input  175.53 | X-H torsion
[ 8008 7997 7996 7995 ] final   87.54 input   59.86 | X-H torsion
[ 10167 10162 10161 10158 ] final  108.36 input  -65.29 | X-H torsion
[ 10718 10713 10712 10709 ] final   76.17 input   66.30 | X-H torsion
[ 10763 10752 10751 10750 ] final  -77.49 input  -60.55 | X-H torsion
[ 11005 11000 10999 10996 ] final  -69.27 input  -57.11 | X-H torsion

> <Gold.Protein.ActiveResidues>
 VAL166  LYS551  ARG553  GLY616  TRP617  ASP618  TYR619  PRO620  LYS621  CYS622 
 ASP623  PHE694  ASN695  SER759  ASP760  ASP761  ALA762  ILE779  LEU786  VAL792 
 PHE793  MET794  SER795  GLU796  ALA797  LYS798  CYS799  TRP800  GLU811  SER814 

> <Gold.Protein.RotatedAtoms>
  151.8095  135.0685  160.0410 H   0  0  0  0  0  0  0  0  0  0  0  0  # atno 6907 bound_to 6896
  152.3031  133.5671  159.5640 H   0  0  0  0  0  0  0  0  0  0  0  0  # atno 6908 bound_to 6896
  150.7283  134.0178  159.3733 H   0  0  0  0  0  0  0  0  0  0  0  0  # atno 6909 bound_to 6896
  144.7840  140.4775  143.5819 H   0  0  0  0  0  0  0  0  0  0  0  0  # atno 7974 bound_to 7965
  155.9767  140.3381  155.6625 H   0  0  0  0  0  0  0  0  0  0  0  0  # atno 8008 bound_to 7997
  155.6603  140.0715  157.2574 H   0  0  0  0  0  0  0  0  0  0  0  0  # atno 8009 bound_to 7997
  154.4180  140.1710  156.1757 H   0  0  0  0  0  0  0  0  0  0  0  0  # atno 8010 bound_to 7997
  139.6852  144.7114  151.1444 H   0  0  0  0  0  0  0  0  0  0  0  0  # atno 10167 bound_to 10162
  157.6663  130.9761  150.1459 H   0  0  0  0  0  0  0  0  0  0  0  0  # atno 10718 bound_to 10713
  154.5137  135.5762  153.6625 H   0  0  0  0  0  0  0  0  0  0  0  0  # atno 10763 bound_to 10752
  152.9902  135.6165  154.2846 H   0  0  0  0  0  0  0  0  0  0  0  0  # atno 10764 bound_to 10752
  154.2762  135.2852  155.2696 H   0  0  0  0  0  0  0  0  0  0  0  0  # atno 10765 bound_to 10752
  141.1550  133.6760  156.6574 H   0  0  0  0  0  0  0  0  0  0  0  0  # atno 11005 bound_to 11000
  145.5972  139.1500  143.3149 LP  0  0  0  0  0  0  0  0  0  0  0  0  # atno 17320 bound_to 7965
  146.2063  140.6095  142.9079 LP  0  0  0  0  0  0  0  0  0  0  0  0  # atno 17321 bound_to 7965
  140.7665  143.5639  150.9068 LP  0  0  0  0  0  0  0  0  0  0  0  0  # atno 17342 bound_to 10162
  139.9314  143.6489  152.3075 LP  0  0  0  0  0  0  0  0  0  0  0  0  # atno 17343 bound_to 10162
  156.2270  130.3679  149.8489 LP  0  0  0  0  0  0  0  0  0  0  0  0  # atno 17370 bound_to 10713
  156.6326  130.8672  151.3498 LP  0  0  0  0  0  0  0  0  0  0  0  0  # atno 17371 bound_to 10713
  140.3274  134.7957  157.4299 LP  0  0  0  0  0  0  0  0  0  0  0  0  # atno 17394 bound_to 11000
  140.1046  134.5427  155.8321 LP  0  0  0  0  0  0  0  0  0  0  0  0  # atno 17395 bound_to 11000

$$$$
