#       Name:                AV-unprocessed.smi:171
#       Creating user name   scv26
#       Creation time:       Thu Mar 26 19:18:16 2020


#       File generated by GOLD software.
#

@<TRIPOS>MOLECULE
AV-unprocessed.smi:171
    65    68     1
SMALL
NO_CHARGES


@<TRIPOS>ATOM
      1 ****        -2.6889  -3.7901  -0.1149 C.3            1 S1                 0.0000
      2 ****        -3.7065  -2.6560  -0.3243 C.3            1 S1                 0.0000
      3 ****        -5.0909  -3.0743   0.1937 C.3            1 S1                 0.0000
      4 ****        -3.7945  -2.1988  -1.7996 C.3            1 S1                 0.0000
      5 ****        -2.4785  -1.6540  -2.4071 C.3            1 S1                 0.0000
      6 ****        -2.7060  -1.2155  -3.8716 C.2            1 S1                 0.0000
      7 ****        -2.9240  -2.0663  -4.7317 O.2            1 S1                 0.0000
      8 ****        -2.6580   0.0931  -4.1805 N.am           1 S1                 0.0000
      9 ****        -2.3872   1.1849  -3.2452 C.3            1 S1                 0.0000
     10 ****        -2.5406   0.7608  -1.7746 C.3            1 S1                 0.0000
     11 ****        -1.9575  -0.5615  -1.5716 N.pl3          1 S1                 0.0000
     12 ****        -0.6415  -0.5592  -1.2434 C.ar           1 S1                 0.0000
     13 ****         0.2866  -1.0063  -2.1303 N.ar           1 S1                 0.0000
     14 ****         1.5833  -0.9961  -1.8082 C.ar           1 S1                 0.0000
     15 ****         2.1589  -0.5870  -0.6757 N.ar           1 S1                 0.0000
     16 ****         1.2312  -0.1343   0.2160 C.ar           1 S1                 0.0000
     17 ****        -0.1763  -0.0856   0.0134 C.ar           1 S1                 0.0000
     18 ****        -0.8025   0.4238   1.1436 N.2            1 S1                 0.0000
     19 ****         0.1801   0.6645   1.9681 C.2            1 S1                 0.0000
     20 ****         1.4371   0.3678   1.4895 N.pl3          1 S1                 0.0000
     21 ****         2.7005   0.5275   2.1950 C.3            1 S1                 0.0000
     22 ****         3.2295   1.9830   2.2240 C.3            1 S1                 0.0000
     23 ****         2.2906   2.7901   2.9157 O.3            1 S1                 0.0000
     24 ****         3.4643   2.5986   0.8368 C.3            1 S1                 0.0000
     25 ****         4.9619   2.8921   0.7989 C.3            1 S1                 0.0000
     26 ****         5.3037   3.0781   2.1609 O.3            1 S1                 0.0000
     27 ****         4.6196   2.0759   2.8964 C.3            1 S1                 0.0000
     28 ****         4.6493   2.3780   4.4035 C.3            1 S1                 0.0000
     29 ****        -2.9221  -4.6530  -0.7392 H              1 S1                 0.0000
     30 ****        -2.6824  -4.1232   0.9233 H              1 S1                 0.0000
     31 ****        -1.6747  -3.4685  -0.3514 H              1 S1                 0.0000
     32 ****        -3.3876  -1.8089   0.2842 H              1 S1                 0.0000
     33 ****        -5.4803  -3.9283  -0.3615 H              1 S1                 0.0000
     34 ****        -5.8097  -2.2600   0.0994 H              1 S1                 0.0000
     35 ****        -5.0494  -3.3529   1.2471 H              1 S1                 0.0000
     36 ****        -4.1465  -3.0371  -2.4030 H              1 S1                 0.0000
     37 ****        -4.5700  -1.4355  -1.8819 H              1 S1                 0.0000
     38 ****        -1.7686  -2.4813  -2.4397 H              1 S1                 0.0000
     39 ****        -2.8096   0.3502  -5.1450 H              1 S1                 0.0000
     40 ****        -1.3652   1.5218  -3.4228 H              1 S1                 0.0000
     41 ****        -3.0399   2.0291  -3.4683 H              1 S1                 0.0000
     42 ****        -2.1011   1.5127  -1.1180 H              1 S1                 0.0000
     43 ****        -3.5976   0.7144  -1.5117 H              1 S1                 0.0000
     44 ****         2.2557  -1.3689  -2.5667 H              1 S1                 0.0000
     45 ****         0.0140   1.0703   2.9554 H              1 S1                 0.0000
     46 ****         2.5695   0.1557   3.2120 H              1 S1                 0.0000
     47 ****         3.4362  -0.1270   1.7262 H              1 S1                 0.0000
     48 ****         2.6341   3.6695   2.9641 H              1 S1                 0.0000
     49 ****         3.1780   1.9467   0.0126 H              1 S1                 0.0000
     50 ****         2.9065   3.5287   0.7164 H              1 S1                 0.0000
     51 ****         5.5138   2.0402   0.3984 H              1 S1                 0.0000
     52 ****         5.2044   3.7697   0.1992 H              1 S1                 0.0000
     53 ****         5.1619   1.1440   2.7255 H              1 S1                 0.0000
     54 ****         4.0902   1.6281   4.9637 H              1 S1                 0.0000
     55 ****         4.2242   3.3562   4.6293 H              1 S1                 0.0000
     56 ****         5.6733   2.3744   4.7771 H              1 S1                 0.0000
     57 ****        -2.9532  -3.0341  -4.4816 LP             1 S1                 0.0000
     58 ****        -3.0722  -1.7906  -5.6815 LP             1 S1                 0.0000
     59 ****        -0.0020  -1.3438  -3.0263 LP             1 S1                 0.0000
     60 ****         3.1436  -0.6095  -0.5031 LP             1 S1                 0.0000
     61 ****        -1.7804   0.5719   1.2914 LP             1 S1                 0.0000
     62 ****         2.1503   2.4306   3.8382 LP             1 S1                 0.0000
     63 ****         1.4201   2.7936   2.4234 LP             1 S1                 0.0000
     64 ****         5.0167   3.9858   2.4669 LP             1 S1                 0.0000
     65 ****         6.2914   2.9816   2.2841 LP             1 S1                 0.0000
@<TRIPOS>BOND
    1    1    2 1     
    2    1   29 1     
    3    1   30 1     
    4    1   31 1     
    5    2    3 1     
    6    2    4 1     
    7    2   32 1     
    8    3   33 1     
    9    3   34 1     
   10    3   35 1     
   11    4    5 1     
   12    4   36 1     
   13    4   37 1     
   14    5   11 1     
   15    5    6 1     
   16    5   38 1     
   17    6    7 2     
   18    6    8 am    
   19    8    9 1     
   20    8   39 1     
   21    9   10 1     
   22    9   40 1     
   23    9   41 1     
   24   10   11 1     
   25   10   42 1     
   26   10   43 1     
   27   11   12 1     
   28   12   17 ar    
   29   12   13 ar    
   30   13   14 ar    
   31   14   15 ar    
   32   14   44 1     
   33   15   16 ar    
   34   16   20 1     
   35   16   17 ar    
   36   17   18 1     
   37   18   19 2     
   38   19   20 1     
   39   19   45 1     
   40   20   21 1     
   41   21   22 1     
   42   21   46 1     
   43   21   47 1     
   44   22   27 1     
   45   22   23 1     
   46   22   24 1     
   47   23   48 1     
   48   24   25 1     
   49   24   49 1     
   50   24   50 1     
   51   25   26 1     
   52   25   51 1     
   53   25   52 1     
   54   26   27 1     
   55   27   28 1     
   56   27   53 1     
   57   28   54 1     
   58   28   55 1     
   59   28   56 1     
   60    7   57 1     
   61    7   58 1     
   62   13   59 1     
   63   15   60 1     
   64   18   61 1     
   65   23   62 1     
   66   23   63 1     
   67   26   64 1     
   68   26   65 1     
@<TRIPOS>SUBSTRUCTURE
      1 S1             1
@<TRIPOS>SET
LONE_PAIRS      STATIC     ATOMS    <user>   **** ""
9 57 58 59 60 61 62 63 64 65
DONOR_HYDROGENS      STATIC     ATOMS    <user>   **** ""
2 39 48
ATOM$BLUE        STATIC     ATOMS    COLORGROUP SYSTEM
9 57 58 59 60 61 62 63 64 65
ATOM$RED        STATIC     ATOMS    COLORGROUP SYSTEM
2 39 48
