AV-unprocessed.smi:2278|AV-procd|sdf|9181|dock8
  -GOLD-   2272012393D 1   1.00000     0.00000
 Structure written by MMmdl.
 46 47  0  0  0  0  0  0  0  0  2 V2000
  137.6591  139.4319  154.3709 C   0  0  0  0  0  0  0  0  0  0  0  0
  138.8647  138.5223  154.5263 C   0  0  0  0  0  0  0  0  0  0  0  0
  140.1016  139.1029  154.2318 N   0  0  0  0  0  0  0  0  0  0  0  0
  141.1839  138.4046  154.3408 C   0  0  0  0  0  0  0  0  0  0  0  0
  141.1591  137.0619  154.7545 N   0  0  0  0  0  0  0  0  0  0  0  0
  142.4667  136.3876  154.8450 C   0  0  0  0  0  0  0  0  0  0  0  0
  142.5732  135.1601  153.9116 C   0  0  2  0  0  0  0  0  0  0  0  0
  142.0237  134.0525  154.5967 O   0  0  0  0  0  0  0  0  0  0  0  0
  144.0231  134.8132  153.5067 C   0  0  0  0  0  0  0  0  0  0  0  0
  144.1141  133.5553  152.7222 N   0  3  2  0  0  0  0  0  0  0  0  0
  145.5203  133.1732  152.4346 C   0  0  0  0  0  0  0  0  0  0  0  0
  145.5954  131.7986  151.7455 C   0  0  0  0  0  0  0  0  0  0  0  0
  144.7456  131.7409  150.4628 C   0  0  2  0  0  0  0  0  0  0  0  0
  145.3793  132.5123  149.2916 C   0  0  0  0  0  0  0  0  0  0  0  0
  143.3132  132.2087  150.7779 C   0  0  0  0  0  0  0  0  0  0  0  0
  143.2892  133.5754  151.4848 C   0  0  0  0  0  0  0  0  0  0  0  0
  139.9939  136.4166  155.0520 C   0  0  0  0  0  0  0  0  0  0  0  0
  139.9807  135.2386  155.4137 O   0  0  0  0  0  0  0  0  0  0  0  0
  138.7705  137.2249  154.9263 C   0  0  0  0  0  0  0  0  0  0  0  0
  137.4523  136.5405  155.2662 C   0  0  0  0  0  0  0  0  0  0  0  0
  136.9597  139.0185  153.6438 H   0  0  0  0  0  0  0  0  0  0  0  0
  137.9513  140.4244  154.0247 H   0  0  0  0  0  0  0  0  0  0  0  0
  137.1432  139.5488  155.3243 H   0  0  0  0  0  0  0  0  0  0  0  0
  142.1740  138.8102  154.1249 H   0  0  0  0  0  0  0  0  0  0  0  0
  143.2858  137.0800  154.6416 H   0  0  0  0  0  0  0  0  0  0  0  0
  142.6325  136.0741  155.8781 H   0  0  0  0  0  0  0  0  0  0  0  0
  141.9578  135.3353  153.0299 H   0  0  0  0  0  0  0  0  0  0  0  0
  142.5737  133.2986  154.4442 H   0  0  0  0  0  0  0  0  0  0  0  0
  144.4718  135.6154  152.9208 H   0  0  0  0  0  0  0  0  0  0  0  0
  144.6221  134.7298  154.4150 H   0  0  0  0  0  0  0  0  0  0  0  0
  145.9908  133.9396  151.8170 H   0  0  0  0  0  0  0  0  0  0  0  0
  146.0860  133.1314  153.3662 H   0  0  0  0  0  0  0  0  0  0  0  0
  146.6329  131.5463  151.5239 H   0  0  0  0  0  0  0  0  0  0  0  0
  145.2419  131.0365  152.4416 H   0  0  0  0  0  0  0  0  0  0  0  0
  144.6907  130.6972  150.1505 H   0  0  0  0  0  0  0  0  0  0  0  0
  145.4856  133.5752  149.5070 H   0  0  0  0  0  0  0  0  0  0  0  0
  144.7731  132.4189  148.3900 H   0  0  0  0  0  0  0  0  0  0  0  0
  146.3705  132.1229  149.0588 H   0  0  0  0  0  0  0  0  0  0  0  0
  142.7189  132.2493  149.8643 H   0  0  0  0  0  0  0  0  0  0  0  0
  142.8294  131.4708  151.4195 H   0  0  0  0  0  0  0  0  0  0  0  0
  142.2563  133.8269  151.7211 H   0  0  0  0  0  0  0  0  0  0  0  0
  143.6515  134.3564  150.8149 H   0  0  0  0  0  0  0  0  0  0  0  0
  137.4676  136.1884  156.2980 H   0  0  0  0  0  0  0  0  0  0  0  0
  137.2981  135.6781  154.6168 H   0  0  0  0  0  0  0  0  0  0  0  0
  136.5877  137.1929  155.1559 H   0  0  0  0  0  0  0  0  0  0  0  0
  143.7426  132.8277  153.3166 H   0  0  0  0  0  0  0  0  0  0  0  0
  1  2  1  0  0  0  0
  1 21  1  0  0  0  0
  1 22  1  0  0  0  0
  1 23  1  0  0  0  0
  2 19  2  0  0  0  0
  2  3  1  0  0  0  0
  3  4  2  0  0  0  0
  4  5  1  0  0  0  0
  4 24  1  0  0  0  0
  5  6  1  0  0  0  0
  5 17  1  0  0  0  0
  6  7  1  0  0  0  0
  6 25  1  0  0  0  0
  6 26  1  0  0  0  0
  7  8  1  0  0  0  0
  7  9  1  0  0  0  0
  7 27  1  0  0  0  0
  8 28  1  0  0  0  0
  9 10  1  0  0  0  0
  9 29  1  0  0  0  0
  9 30  1  0  0  0  0
 10 16  1  0  0  0  0
 10 11  1  0  0  0  0
 10 46  1  0  0  0  0
 11 12  1  0  0  0  0
 11 31  1  0  0  0  0
 11 32  1  0  0  0  0
 12 13  1  0  0  0  0
 12 33  1  0  0  0  0
 12 34  1  0  0  0  0
 13 14  1  0  0  0  0
 13 15  1  0  0  0  0
 13 35  1  0  0  0  0
 14 36  1  0  0  0  0
 14 37  1  0  0  0  0
 14 38  1  0  0  0  0
 15 16  1  0  0  0  0
 15 39  1  0  0  0  0
 15 40  1  0  0  0  0
 16 41  1  0  0  0  0
 16 42  1  0  0  0  0
 17 18  2  0  0  0  0
 17 19  1  0  0  0  0
 19 20  1  0  0  0  0
 20 43  1  0  0  0  0
 20 44  1  0  0  0  0
 20 45  1  0  0  0  0
M  CHG  1  10   1
M  END
> <s_m_source_file>
AV-unprocessed.smi

> <i_m_source_file_index>
2278

> <i_lp_mmshare_version>
43012

> <i_f3d_flags>
0

> <s_epik_input>
W0NIM11jMW5bY0hdbihjKD1PKWMxW0NIM10pW0NIMl1bQ0BIXShbT0hdKVtDSDJdTjJbQ0gyXVtDSDJdW0NIXShbQ0gzXSlbQ0gyXVtDSDJdMg==

> <s_epik_cmdline>
J2VwaWtfcHl0aG9uJywgJy1waCcsICc3LjAnLCAnLXRuJywgJzgnLCAnLW1hJywgJzIwMCcsICctbWV0YWxfYmluZGluZycsICctaW1hZScsICc8aW5maWxlLm1hZT4nLCAnLW9tYWUnLCAnPG91dGZpbGUubWFlPic=

> <r_lp_tautomer_probability>
1

> <r_epik_Ionization_Penalty>
0.00139489

> <r_epik_Ionization_Penalty_Charging>
0.00136819

> <r_epik_Ionization_Penalty_Neutral>
2.66975e-05

> <r_epik_State_Penalty>
0.000910892

> <r_epik_Charging_Adjusted_Penalty>
0.00227908

> <i_epik_Tot_Q>
1

> <i_epik_Tot_abs_Q>
1

> <r_epik_Metal_State_Penalty>
-0

> <b_epik_Metal_Only>
0

> <s_lp_Force_Field>
OPLS_2005

> <r_lp_Energy>
30.3115

> <b_lp_Chiralities_Consistent>
1

> <s_lp_Variant>
AV-unprocessed.smi:2278-3

> <Gold.Version>
5.8.1

> <Gold.Id.Protein>
6NUR|6NUR_protein|mol2

> <Gold.PLP.Fitness>
52.3096

> <Gold.PLP.PLP>
-37.9049

> <Gold.PLP.part.hbond>
-4.8916

> <Gold.PLP.part.metal>
0.0000

> <Gold.PLP.part.buried>
-5.3468

> <Gold.PLP.part.nonpolar>
-30.8415

> <Gold.PLP.part.repulsive>
2.4804

> <Gold.PLP.ligand.clash>
0.0145

> <Gold.PLP.ligand.torsion>
0.3041

> <Gold.PLP.Chemscore.Hbond>
4.0000

> <Gold.PLP.Chemscore.CHOScore>
1.0000

> <Gold.PLP.Chemscore.Metal>
0.0000

> <Gold.Chemscore.Hbonds>
donor molecule, donor type, donor heavy atom, donor atom, acceptor molecule, acceptor atom, score
      L1  H     8    28       P1 10957  0.80
      L1  H    10    46       P1 10957  1.66
      P1  H 11000 11005       L1     8  0.93
      L1  C     4    24       P1 10175  0.52

> <Gold.PLP.Chemscore.Internal.Correction>
0.0274

> <Gold.Rescore>
     Score         DG    S(hbond)    S(metal)    S(lipo)     H(rot)  DE(clash)    DE(int)     intcor
     14.98     -18.22       2.42        0.00      87.90       2.20       1.22       2.02       ----

> <Gold.Chemscore.Fitness>
14.9782

> <Gold.Chemscore.DG>
-18.2191

> <Gold.Chemscore.ZeroCoef>
-5.4800

> <Gold.Chemscore.Hbond>
2.4201

> <Gold.Chemscore.Metal>
0.0000

> <Gold.Chemscore.Lipo>
87.9001

> <Gold.Chemscore.Internal_Hbond>
0.0000

> <Gold.Chemscore.DEClash>
1.2169

> <Gold.Chemscore.DEInternal>
2.0240

> <Gold.Chemscore.Rot>
2.1986

> <Gold.Chemscore.Internal.Correction>
   9.000000E+99

> <Gold.Chemscore.Hbonds>
donor molecule, donor type, donor heavy atom, donor atom, acceptor molecule, acceptor atom, score
      L1  H     8    28       P1 10957  0.77
      L1  H    10    46       P1 10957  0.45
      P1  H 11000 11005       L1     8  0.89

> <Gold.Chemscore.Hbond.Weighted>
-8.0833

> <Gold.Chemscore.Metal.Weighted>
-0.0000

> <Gold.Chemscore.Lipo.Weighted>
-10.2843

> <Gold.Chemscore.Internal_Hbond.Weighted>
0.0000

> <Gold.Chemscore.DEClash.Weighted>
1.2169

> <Gold.Chemscore.DEInternal.Weighted>
2.0240

> <Gold.Chemscore.Rot.Weighted>
5.6285

> <Gold.Chemscore.Internal.Correction.Weighted>
   9.000000E+99

> <Gold.Protein.RotatedTorsions>
[ 6907 6896 6895 6894 ] final -114.33 input  -60.11 | X-H torsion
[ 7974 7965 7964 7962 ] final  153.30 input  175.53 | X-H torsion
[ 8008 7997 7996 7995 ] final  172.10 input   59.86 | X-H torsion
[ 10167 10162 10161 10158 ] final   87.52 input  -65.29 | X-H torsion
[ 10718 10713 10712 10709 ] final  105.69 input   66.30 | X-H torsion
[ 10763 10752 10751 10750 ] final  135.20 input  -60.55 | X-H torsion
[ 11005 11000 10999 10996 ] final    3.89 input  -57.11 | X-H torsion

> <Gold.Protein.ActiveResidues>
 VAL166  LYS551  ARG553  GLY616  TRP617  ASP618  TYR619  PRO620  LYS621  CYS622 
 ASP623  PHE694  ASN695  SER759  ASP760  ASP761  ALA762  ILE779  LEU786  VAL792 
 PHE793  MET794  SER795  GLU796  ALA797  LYS798  CYS799  TRP800  GLU811  SER814 

> <Gold.Protein.RotatedAtoms>
  150.7894  133.8816  159.3287 H   0  0  0  0  0  0  0  0  0  0  0  0  # atno 6907 bound_to 6896
  151.6658  135.0981  160.0198 H   0  0  0  0  0  0  0  0  0  0  0  0  # atno 6908 bound_to 6896
  152.3965  133.6716  159.6316 H   0  0  0  0  0  0  0  0  0  0  0  0  # atno 6909 bound_to 6896
  144.8164  139.6783  143.6119 H   0  0  0  0  0  0  0  0  0  0  0  0  # atno 7974 bound_to 7965
  156.1207  140.1494  156.9208 H   0  0  0  0  0  0  0  0  0  0  0  0  # atno 8008 bound_to 7997
  154.4834  140.0872  156.7471 H   0  0  0  0  0  0  0  0  0  0  0  0  # atno 8009 bound_to 7997
  155.4433  140.3432  155.4294 H   0  0  0  0  0  0  0  0  0  0  0  0  # atno 8010 bound_to 7997
  139.8765  144.6464  150.8890 H   0  0  0  0  0  0  0  0  0  0  0  0  # atno 10167 bound_to 10162
  157.6696  131.0833  150.5894 H   0  0  0  0  0  0  0  0  0  0  0  0  # atno 10718 bound_to 10713
  153.8360  135.3097  155.3422 H   0  0  0  0  0  0  0  0  0  0  0  0  # atno 10763 bound_to 10752
  154.7953  135.4759  154.0149 H   0  0  0  0  0  0  0  0  0  0  0  0  # atno 10764 bound_to 10752
  153.1605  135.6860  153.8841 H   0  0  0  0  0  0  0  0  0  0  0  0  # atno 10765 bound_to 10752
  140.5881  133.9950  155.8076 H   0  0  0  0  0  0  0  0  0  0  0  0  # atno 11005 bound_to 11000
  146.2467  139.6112  142.9455 LP  0  0  0  0  0  0  0  0  0  0  0  0  # atno 17320 bound_to 7965
  145.5206  141.0432  143.2437 LP  0  0  0  0  0  0  0  0  0  0  0  0  # atno 17321 bound_to 7965
  140.7752  143.3620  151.1809 LP  0  0  0  0  0  0  0  0  0  0  0  0  # atno 17342 bound_to 10162
  139.7235  143.9185  152.2994 LP  0  0  0  0  0  0  0  0  0  0  0  0  # atno 17343 bound_to 10162
  156.6194  130.4402  149.5828 LP  0  0  0  0  0  0  0  0  0  0  0  0  # atno 17370 bound_to 10713
  156.2367  130.6827  151.1516 LP  0  0  0  0  0  0  0  0  0  0  0  0  # atno 17371 bound_to 10713
  141.0953  133.9853  157.3170 LP  0  0  0  0  0  0  0  0  0  0  0  0  # atno 17394 bound_to 11000
  139.9287  135.0201  156.8324 LP  0  0  0  0  0  0  0  0  0  0  0  0  # atno 17395 bound_to 11000

$$$$
