AV-unprocessed.smi:1244|AV-procd|sdf|5231|dock6
  -GOLD-   22720 4333D 1   1.00000     0.00000
 Structure written by MMmdl.
 56 58  0  0  0  0  0  0  0  0  3 V2000
  147.5127  132.8924  162.6478 C   0  0  0  0  0  0  0  0  0  0  0  0
  146.4273  133.8874  162.1988 C   0  0  2  0  0  0  0  0  0  0  0  0
  146.4262  134.1556  160.6807 C   0  0  0  0  0  0  0  0  0  0  0  0
  147.5707  135.0104  160.2848 N   0  3  1  0  0  0  0  0  0  0  0  0
  147.6331  135.2300  158.8182 C   0  0  0  0  0  0  0  0  0  0  0  0
  149.0431  135.6322  158.3450 C   0  0  0  0  0  0  0  0  0  0  0  0
  149.0420  136.9343  157.6882 N   0  0  0  0  0  0  0  0  0  0  0  0
  149.7952  137.9799  158.0579 C   0  0  0  0  0  0  0  0  0  0  0  0
  150.6066  137.9383  158.9825 O   0  0  0  0  0  0  0  0  0  0  0  0
  149.5314  139.0630  157.3077 N   0  0  0  0  0  0  0  0  0  0  0  0
  150.0675  140.3748  157.4482 C   0  0  0  0  0  0  0  0  0  0  0  0
  151.2300  140.6140  158.2253 C   0  0  0  0  0  0  0  0  0  0  0  0
  151.7252  141.9240  158.3657 C   0  0  0  0  0  0  0  0  0  0  0  0
  151.0527  142.9772  157.7232 C   0  0  0  0  0  0  0  0  0  0  0  0
  149.9614  142.7156  156.9748 N   0  3  0  0  0  0  0  0  0  0  0  0
  149.4452  141.4749  156.7885 C   0  0  0  0  0  0  0  0  0  0  0  0
  148.3022  141.3538  155.9657 N   0  0  0  0  0  0  0  0  0  0  0  0
  147.0649  142.0432  156.3132 C   0  0  0  0  0  0  0  0  0  0  0  0
  146.2036  141.9678  155.0555 C   0  0  0  0  0  0  0  0  0  0  0  0
  147.2412  142.0736  153.9419 C   0  0  0  0  0  0  0  0  0  0  0  0
  148.4664  141.3535  154.5155 C   0  0  0  0  0  0  0  0  0  0  0  0
  147.5697  136.2648  161.0752 C   0  0  0  0  0  0  0  0  0  0  0  0
  147.6012  135.9501  162.5815 C   0  0  1  0  0  0  0  0  0  0  0  0
  147.5154  137.2197  163.4360 C   0  0  0  0  0  0  0  0  0  0  0  0
  146.4927  135.1196  162.9170 O   0  0  0  0  0  0  0  0  0  0  0  0
  147.3587  131.9173  162.1846 H   0  0  0  0  0  0  0  0  0  0  0  0
  147.4860  132.7498  163.7283 H   0  0  0  0  0  0  0  0  0  0  0  0
  148.5154  133.2228  162.3784 H   0  0  0  0  0  0  0  0  0  0  0  0
  145.4667  133.4402  162.4564 H   0  0  0  0  0  0  0  0  0  0  0  0
  146.4549  133.2098  160.1377 H   0  0  0  0  0  0  0  0  0  0  0  0
  145.4975  134.6537  160.3970 H   0  0  0  0  0  0  0  0  0  0  0  0
  147.3519  134.3044  158.3138 H   0  0  0  0  0  0  0  0  0  0  0  0
  146.8958  135.9784  158.5228 H   0  0  0  0  0  0  0  0  0  0  0  0
  149.7308  135.6998  159.1870 H   0  0  0  0  0  0  0  0  0  0  0  0
  149.4503  134.8753  157.6722 H   0  0  0  0  0  0  0  0  0  0  0  0
  148.4021  137.0541  156.9160 H   0  0  0  0  0  0  0  0  0  0  0  0
  148.7736  138.9711  156.6472 H   0  0  0  0  0  0  0  0  0  0  0  0
  151.7551  139.8079  158.7149 H   0  0  0  0  0  0  0  0  0  0  0  0
  152.6066  142.1172  158.9595 H   0  0  0  0  0  0  0  0  0  0  0  0
  151.3555  144.0130  157.7774 H   0  0  0  0  0  0  0  0  0  0  0  0
  146.5751  141.5770  157.1684 H   0  0  0  0  0  0  0  0  0  0  0  0
  147.2652  143.0874  156.5567 H   0  0  0  0  0  0  0  0  0  0  0  0
  145.6994  141.0019  155.0042 H   0  0  0  0  0  0  0  0  0  0  0  0
  145.4455  142.7500  155.0110 H   0  0  0  0  0  0  0  0  0  0  0  0
  146.9006  141.6444  152.9994 H   0  0  0  0  0  0  0  0  0  0  0  0
  147.4820  143.1227  153.7652 H   0  0  0  0  0  0  0  0  0  0  0  0
  149.3926  141.8394  154.2055 H   0  0  0  0  0  0  0  0  0  0  0  0
  148.4885  140.3213  154.1649 H   0  0  0  0  0  0  0  0  0  0  0  0
  148.4351  136.8760  160.8215 H   0  0  0  0  0  0  0  0  0  0  0  0
  146.6824  136.8502  160.8288 H   0  0  0  0  0  0  0  0  0  0  0  0
  148.5327  135.4407  162.8291 H   0  0  0  0  0  0  0  0  0  0  0  0
  148.3475  137.8922  163.2262 H   0  0  0  0  0  0  0  0  0  0  0  0
  147.5455  136.9767  164.4984 H   0  0  0  0  0  0  0  0  0  0  0  0
  146.5896  137.7633  163.2453 H   0  0  0  0  0  0  0  0  0  0  0  0
  148.4052  134.4999  160.5367 H   0  0  0  0  0  0  0  0  0  0  0  0
  149.5010  143.5005  156.5138 H   0  0  0  0  0  0  0  0  0  0  0  0
  1  2  1  0  0  0  0
  1 26  1  0  0  0  0
  1 27  1  0  0  0  0
  1 28  1  0  0  0  0
  2 25  1  0  0  0  0
  2  3  1  0  0  0  0
  2 29  1  0  0  0  0
  3  4  1  0  0  0  0
  3 30  1  0  0  0  0
  3 31  1  0  0  0  0
  4  5  1  0  0  0  0
  4 22  1  0  0  0  0
  4 55  1  0  0  0  0
  5  6  1  0  0  0  0
  5 32  1  0  0  0  0
  5 33  1  0  0  0  0
  6  7  1  0  0  0  0
  6 34  1  0  0  0  0
  6 35  1  0  0  0  0
  7  8  1  0  0  0  0
  7 36  1  0  0  0  0
  8  9  2  0  0  0  0
  8 10  1  0  0  0  0
 10 11  1  0  0  0  0
 10 37  1  0  0  0  0
 11 16  1  0  0  0  0
 11 12  2  0  0  0  0
 12 13  1  0  0  0  0
 12 38  1  0  0  0  0
 13 14  2  0  0  0  0
 13 39  1  0  0  0  0
 14 15  1  0  0  0  0
 14 40  1  0  0  0  0
 15 16  2  0  0  0  0
 15 56  1  0  0  0  0
 16 17  1  0  0  0  0
 17 21  1  0  0  0  0
 17 18  1  0  0  0  0
 18 19  1  0  0  0  0
 18 41  1  0  0  0  0
 18 42  1  0  0  0  0
 19 20  1  0  0  0  0
 19 43  1  0  0  0  0
 19 44  1  0  0  0  0
 20 21  1  0  0  0  0
 20 45  1  0  0  0  0
 20 46  1  0  0  0  0
 21 47  1  0  0  0  0
 21 48  1  0  0  0  0
 22 23  1  0  0  0  0
 22 49  1  0  0  0  0
 22 50  1  0  0  0  0
 23 24  1  0  0  0  0
 23 25  1  0  0  0  0
 23 51  1  0  0  0  0
 24 52  1  0  0  0  0
 24 53  1  0  0  0  0
 24 54  1  0  0  0  0
M  CHG  1   4   1
M  CHG  1  15   1
M  END
> <s_m_source_file>
AV-unprocessed.smi

> <i_m_source_file_index>
1244

> <i_lp_mmshare_version>
43012

> <i_f3d_flags>
0

> <s_epik_input>
W0NIM11bQ0BASF0xW0NIMl1OKFtDSDJdW0NASF0oTzEpW0NIM10pW0NIMl1bQ0gyXVtOSF1DKD1PKVtOSF1jMltjSF1bY0hdW2NIXW5jMk4zW0NIMl1bQ0gyXVtDSDJdW0NIMl0z

> <s_epik_cmdline>
J2VwaWtfcHl0aG9uJywgJy1waCcsICc3LjAnLCAnLXRuJywgJzgnLCAnLW1hJywgJzIwMCcsICctbWV0YWxfYmluZGluZycsICctaW1hZScsICc8aW5maWxlLm1hZT4nLCAnLW9tYWUnLCAnPG91dGZpbGUubWFlPic=

> <r_lp_tautomer_probability>
0.999994

> <r_epik_Ionization_Penalty>
1.81601

> <r_epik_Ionization_Penalty_Charging>
1.81599

> <r_epik_Ionization_Penalty_Neutral>
2.01972e-05

> <r_epik_State_Penalty>
1.85672

> <r_epik_Charging_Adjusted_Penalty>
3.6727

> <i_epik_Tot_Q>
2

> <i_epik_Tot_abs_Q>
2

> <r_epik_Metal_State_Penalty>
1.93796

> <b_epik_Metal_Only>
0

> <s_lp_Force_Field>
OPLS_2005

> <r_lp_Energy>
54.4997

> <b_lp_Chiralities_Consistent>
1

> <s_lp_Variant>
AV-unprocessed.smi:1244-11

> <Gold.Version>
5.8.1

> <Gold.Id.Protein>
6NUR|6NUR_protein|mol2

> <Gold.PLP.Fitness>
42.5102

> <Gold.PLP.PLP>
-37.8534

> <Gold.PLP.part.hbond>
-1.0000

> <Gold.PLP.part.metal>
0.0000

> <Gold.PLP.part.buried>
-6.1802

> <Gold.PLP.part.nonpolar>
-32.0730

> <Gold.PLP.part.repulsive>
0.2442

> <Gold.PLP.ligand.clash>
0.0000

> <Gold.PLP.ligand.torsion>
0.8800

> <Gold.PLP.Chemscore.Hbond>
2.0000

> <Gold.PLP.Chemscore.CHOScore>
0.0000

> <Gold.PLP.Chemscore.Metal>
0.0000

> <Gold.Chemscore.Hbonds>
donor molecule, donor type, donor heavy atom, donor atom, acceptor molecule, acceptor atom, score
      L1  H    15    56       P1  8028  2.00

> <Gold.PLP.Chemscore.Internal.Correction>
0.4169

> <Gold.Rescore>
     Score         DG    S(hbond)    S(metal)    S(lipo)     H(rot)  DE(clash)    DE(int)     intcor
     13.21     -16.62       0.99        0.00     102.56       1.63       1.23       2.18       ----

> <Gold.Chemscore.Fitness>
13.2138

> <Gold.Chemscore.DG>
-16.6249

> <Gold.Chemscore.ZeroCoef>
-5.4800

> <Gold.Chemscore.Hbond>
0.9930

> <Gold.Chemscore.Metal>
0.0000

> <Gold.Chemscore.Lipo>
102.5575

> <Gold.Chemscore.Internal_Hbond>
0.0000

> <Gold.Chemscore.DEClash>
1.2342

> <Gold.Chemscore.DEInternal>
2.1769

> <Gold.Chemscore.Rot>
1.6293

> <Gold.Chemscore.Internal.Correction>
   9.000000E+99

> <Gold.Chemscore.Hbonds>
donor molecule, donor type, donor heavy atom, donor atom, acceptor molecule, acceptor atom, score
      L1  H    15    56       P1  8028  0.99

> <Gold.Chemscore.Hbond.Weighted>
-3.3165

> <Gold.Chemscore.Metal.Weighted>
-0.0000

> <Gold.Chemscore.Lipo.Weighted>
-11.9992

> <Gold.Chemscore.Internal_Hbond.Weighted>
0.0000

> <Gold.Chemscore.DEClash.Weighted>
1.2342

> <Gold.Chemscore.DEInternal.Weighted>
2.1769

> <Gold.Chemscore.Rot.Weighted>
4.1709

> <Gold.Chemscore.Internal.Correction.Weighted>
   9.000000E+99

> <Gold.Protein.RotatedTorsions>
[ 6907 6896 6895 6894 ] final  -17.70 input  -60.11 | X-H torsion
[ 7974 7965 7964 7962 ] final   -4.93 input  175.53 | X-H torsion
[ 8008 7997 7996 7995 ] final -170.79 input   59.86 | X-H torsion
[ 10167 10162 10161 10158 ] final   42.29 input  -65.29 | X-H torsion
[ 10718 10713 10712 10709 ] final  -69.15 input   66.30 | X-H torsion
[ 10763 10752 10751 10750 ] final    2.69 input  -60.55 | X-H torsion
[ 11005 11000 10999 10996 ] final -147.43 input  -57.11 | X-H torsion

> <Gold.Protein.ActiveResidues>
 VAL166  LYS551  ARG553  GLY616  TRP617  ASP618  TYR619  PRO620  LYS621  CYS622 
 ASP623  PHE694  ASN695  SER759  ASP760  ASP761  ALA762  ILE779  LEU786  VAL792 
 PHE793  MET794  SER795  GLU796  ALA797  LYS798  CYS799  TRP800  GLU811  SER814 

> <Gold.Protein.RotatedAtoms>
  151.2894  135.0737  159.9198 H   0  0  0  0  0  0  0  0  0  0  0  0  # atno 6907 bound_to 6896
  152.5319  133.9948  159.7878 H   0  0  0  0  0  0  0  0  0  0  0  0  # atno 6908 bound_to 6896
  151.0215  133.5821  159.2701 H   0  0  0  0  0  0  0  0  0  0  0  0  # atno 6909 bound_to 6896
  146.2363  140.1944  142.8333 H   0  0  0  0  0  0  0  0  0  0  0  0  # atno 7974 bound_to 7965
  155.9229  140.1077  157.1192 H   0  0  0  0  0  0  0  0  0  0  0  0  # atno 8008 bound_to 7997
  154.4057  140.1252  156.4769 H   0  0  0  0  0  0  0  0  0  0  0  0  # atno 8009 bound_to 7997
  155.7173  140.3470  155.5002 H   0  0  0  0  0  0  0  0  0  0  0  0  # atno 8010 bound_to 7997
  140.3559  144.2291  150.6142 H   0  0  0  0  0  0  0  0  0  0  0  0  # atno 10167 bound_to 10162
  156.0470  130.4307  150.2105 H   0  0  0  0  0  0  0  0  0  0  0  0  # atno 10718 bound_to 10713
  153.2925  135.6949  153.7279 H   0  0  0  0  0  0  0  0  0  0  0  0  # atno 10763 bound_to 10752
  153.6224  135.3425  155.3016 H   0  0  0  0  0  0  0  0  0  0  0  0  # atno 10764 bound_to 10752
  154.8528  135.4389  154.2012 H   0  0  0  0  0  0  0  0  0  0  0  0  # atno 10765 bound_to 10752
  140.7718  134.3181  157.5072 H   0  0  0  0  0  0  0  0  0  0  0  0  # atno 11005 bound_to 11000
  144.9832  140.8478  143.5385 LP  0  0  0  0  0  0  0  0  0  0  0  0  # atno 17320 bound_to 7965
  145.1940  139.2286  143.5227 LP  0  0  0  0  0  0  0  0  0  0  0  0  # atno 17321 bound_to 7965
  140.5174  143.2274  151.8442 LP  0  0  0  0  0  0  0  0  0  0  0  0  # atno 17342 bound_to 10162
  139.4820  144.4878  151.9225 LP  0  0  0  0  0  0  0  0  0  0  0  0  # atno 17343 bound_to 10162
  157.0193  130.9974  151.3344 LP  0  0  0  0  0  0  0  0  0  0  0  0  # atno 17370 bound_to 10713
  157.5355  130.8086  149.7967 LP  0  0  0  0  0  0  0  0  0  0  0  0  # atno 17371 bound_to 10713
  139.8755  134.9265  156.3402 LP  0  0  0  0  0  0  0  0  0  0  0  0  # atno 17394 bound_to 11000
  140.9567  133.7415  156.0345 LP  0  0  0  0  0  0  0  0  0  0  0  0  # atno 17395 bound_to 11000

$$$$
