#       Name:                AV-unprocessed.smi:3012
#       Creating user name   scv26
#       Creation time:       Fri Mar 27 16:39:54 2020


#       File generated by GOLD software.
#

@<TRIPOS>MOLECULE
AV-unprocessed.smi:3012
    25    25     1
SMALL
NO_CHARGES


@<TRIPOS>ATOM
      1 ****        -2.7165   0.6183  -1.9598 O.co2          1 S1                 0.0000
      2 ****        -1.9241  -0.3474  -1.9049 C.2            1 S1                 0.0000
      3 ****        -2.2447  -1.5561  -1.9168 O.co2          1 S1                -1.0000
      4 ****        -0.4332  -0.0207  -1.8136 C.3            1 S1                 0.0000
      5 ****         0.0862  -0.0270  -0.3852 C.2            1 S1                 0.0000
      6 ****         0.2459  -1.1582   0.3487 C.2            1 S1                 0.0000
      7 ****         0.7695  -1.0953   1.7131 C.2            1 S1                 0.0000
      8 ****         0.9433  -2.0637   2.4502 O.2            1 S1                 0.0000
      9 ****         1.0827   0.1941   2.1611 N.am           1 S1                 0.0000
     10 ****         0.9304   1.3621   1.4125 C.2            1 S1                 0.0000
     11 ****         1.2276   2.4638   1.8679 O.2            1 S1                 0.0000
     12 ****         0.4237   1.2149   0.1194 N.am           1 S1                 0.0000
     13 ****         1.4473   0.2853   3.0981 H              1 S1                 0.0000
     14 ****         0.3001   2.0462  -0.4405 H              1 S1                 0.0000
     15 ****         0.1306  -0.7484  -2.3985 H              1 S1                 0.0000
     16 ****        -0.2522   0.9502  -2.2779 H              1 S1                 0.0000
     17 ****        -0.0159  -2.1180  -0.0735 H              1 S1                 0.0000
     18 ****        -3.7012   0.4543  -2.0192 LP             1 S1                 0.0000
     19 ****        -2.3656   1.5546  -1.9443 LP             1 S1                 0.0000
     20 ****        -3.2083  -1.8173  -1.9743 LP             1 S1                 0.0000
     21 ****        -1.5375  -2.2615  -1.8688 LP             1 S1                 0.0000
     22 ****         0.7210  -2.9838   2.1277 LP             1 S1                 0.0000
     23 ****         1.3069  -1.9313   3.3723 LP             1 S1                 0.0000
     24 ****         1.5889   2.5398   2.7972 LP             1 S1                 0.0000
     25 ****         1.1081   3.2845   1.3092 LP             1 S1                 0.0000
@<TRIPOS>BOND
    1    1    2 ar    
    2    2    3 ar    
    3    2    4 1     
    4    4    5 1     
    5    4   15 1     
    6    4   16 1     
    7    5   12 1     
    8    5    6 2     
    9    6    7 1     
   10    6   17 1     
   11    7    8 2     
   12    7    9 1     
   13    9   13 1     
   14    9   10 1     
   15   10   11 2     
   16   10   12 1     
   17   12   14 1     
   18    1   18 1     
   19    1   19 1     
   20    3   20 1     
   21    3   21 1     
   22    8   22 1     
   23    8   23 1     
   24   11   24 1     
   25   11   25 1     
@<TRIPOS>SUBSTRUCTURE
      1 S1             1
@<TRIPOS>SET
LONE_PAIRS      STATIC     ATOMS    <user>   **** ""
8 18 19 20 21 22 23 24 25
DONOR_HYDROGENS      STATIC     ATOMS    <user>   **** ""
2 13 14
ATOM$BLUE        STATIC     ATOMS    COLORGROUP SYSTEM
8 18 19 20 21 22 23 24 25
ATOM$RED        STATIC     ATOMS    COLORGROUP SYSTEM
2 13 14
