AV-unprocessed.smi:2819|AV-procd|sdf|10852|dock7
  -GOLD-   2272015293D 1   1.00000     0.00000
 Structure written by MMmdl.
 49 50  0  0  0  0  0  0  0  0  1 V2000
  146.0310  133.4810  150.7594 C   0  0  0  0  0  0  0  0  0  0  0  0
  144.6112  133.2933  151.0378 N   0  0  0  0  0  0  0  0  0  0  0  0
  143.9452  132.0572  150.6472 C   0  0  0  0  0  0  0  0  0  0  0  0
  143.9023  134.2799  151.7588 C   0  0  0  0  0  0  0  0  0  0  0  0
  142.6438  134.0150  152.3514 C   0  0  0  0  0  0  0  0  0  0  0  0
  142.0327  135.0753  153.0478 C   0  0  0  0  0  0  0  0  0  0  0  0
  142.6128  136.2881  153.1493 N   0  0  0  0  0  0  0  0  0  0  0  0
  143.8032  136.4499  152.5579 C   0  0  0  0  0  0  0  0  0  0  0  0
  144.4514  137.6644  152.6214 N   0  0  0  0  0  0  0  0  0  0  0  0
  145.7397  137.9635  152.8753 C   0  0  0  0  0  0  0  0  0  0  0  0
  146.6299  137.1461  153.1128 O   0  0  0  0  0  0  0  0  0  0  0  0
  145.9464  139.2876  152.8264 N   0  0  0  0  0  0  0  0  0  0  0  0
  147.2327  139.9600  153.0126 C   0  0  0  0  0  0  0  0  0  0  0  0
  147.3471  140.6767  154.3910 C   0  0  0  0  0  0  0  0  0  0  0  0
  147.3750  139.5739  155.4769 C   0  0  0  0  0  0  0  0  0  0  0  0
  148.7321  141.3730  154.4152 C   0  0  0  0  0  0  0  0  0  0  0  0
  146.2471  141.6625  154.5901 N   0  0  0  0  0  0  0  0  0  0  0  0
  146.3474  142.8760  153.7713 C   0  0  0  0  0  0  0  0  0  0  0  0
  145.1205  143.7889  153.9371 C   0  0  0  0  0  0  0  0  0  0  0  0
  144.9538  144.1247  155.3091 O   0  0  0  0  0  0  0  0  0  0  0  0
  144.7928  142.9765  156.1328 C   0  0  0  0  0  0  0  0  0  0  0  0
  146.0174  142.0576  155.9852 C   0  0  0  0  0  0  0  0  0  0  0  0
  144.4626  135.5098  151.8745 N   0  0  0  0  0  0  0  0  0  0  0  0
  146.1903  134.3891  150.1771 H   0  0  0  0  0  0  0  0  0  0  0  0
  146.4397  132.6454  150.1910 H   0  0  0  0  0  0  0  0  0  0  0  0
  146.5956  133.5609  151.6890 H   0  0  0  0  0  0  0  0  0  0  0  0
  143.5700  131.5294  151.5246 H   0  0  0  0  0  0  0  0  0  0  0  0
  144.6267  131.3873  150.1228 H   0  0  0  0  0  0  0  0  0  0  0  0
  143.1074  132.2669  149.9815 H   0  0  0  0  0  0  0  0  0  0  0  0
  142.1537  133.0554  152.2882 H   0  0  0  0  0  0  0  0  0  0  0  0
  141.0724  134.9485  153.5254 H   0  0  0  0  0  0  0  0  0  0  0  0
  143.8578  138.4590  152.4353 H   0  0  0  0  0  0  0  0  0  0  0  0
  145.1576  139.8819  152.6171 H   0  0  0  0  0  0  0  0  0  0  0  0
  148.0170  139.2126  152.8953 H   0  0  0  0  0  0  0  0  0  0  0  0
  147.4149  140.6688  152.2028 H   0  0  0  0  0  0  0  0  0  0  0  0
  148.2028  138.8835  155.3111 H   0  0  0  0  0  0  0  0  0  0  0  0
  146.4644  138.9751  155.4783 H   0  0  0  0  0  0  0  0  0  0  0  0
  147.5052  139.9836  156.4781 H   0  0  0  0  0  0  0  0  0  0  0  0
  149.5248  140.6978  154.0906 H   0  0  0  0  0  0  0  0  0  0  0  0
  149.0092  141.7074  155.4148 H   0  0  0  0  0  0  0  0  0  0  0  0
  148.7584  142.2434  153.7588 H   0  0  0  0  0  0  0  0  0  0  0  0
  147.2424  143.4383  154.0372 H   0  0  0  0  0  0  0  0  0  0  0  0
  146.4320  142.6269  152.7151 H   0  0  0  0  0  0  0  0  0  0  0  0
  145.2497  144.7048  153.3603 H   0  0  0  0  0  0  0  0  0  0  0  0
  144.2206  143.2983  153.5627 H   0  0  0  0  0  0  0  0  0  0  0  0
  144.6816  143.2952  157.1693 H   0  0  0  0  0  0  0  0  0  0  0  0
  143.8778  142.4480  155.8600 H   0  0  0  0  0  0  0  0  0  0  0  0
  145.8549  141.1862  156.6166 H   0  0  0  0  0  0  0  0  0  0  0  0
  146.8920  142.5753  156.3787 H   0  0  0  0  0  0  0  0  0  0  0  0
  1  2  1  0  0  0  0
  1 24  1  0  0  0  0
  1 25  1  0  0  0  0
  1 26  1  0  0  0  0
  2  3  1  0  0  0  0
  2  4  1  0  0  0  0
  3 27  1  0  0  0  0
  3 28  1  0  0  0  0
  3 29  1  0  0  0  0
  4 23  1  0  0  0  0
  4  5  2  0  0  0  0
  5  6  1  0  0  0  0
  5 30  1  0  0  0  0
  6  7  2  0  0  0  0
  6 31  1  0  0  0  0
  7  8  1  0  0  0  0
  8  9  1  0  0  0  0
  8 23  2  0  0  0  0
  9 10  1  0  0  0  0
  9 32  1  0  0  0  0
 10 11  2  0  0  0  0
 10 12  1  0  0  0  0
 12 13  1  0  0  0  0
 12 33  1  0  0  0  0
 13 14  1  0  0  0  0
 13 34  1  0  0  0  0
 13 35  1  0  0  0  0
 14 15  1  0  0  0  0
 14 16  1  0  0  0  0
 14 17  1  0  0  0  0
 15 36  1  0  0  0  0
 15 37  1  0  0  0  0
 15 38  1  0  0  0  0
 16 39  1  0  0  0  0
 16 40  1  0  0  0  0
 16 41  1  0  0  0  0
 17 22  1  0  0  0  0
 17 18  1  0  0  0  0
 18 19  1  0  0  0  0
 18 42  1  0  0  0  0
 18 43  1  0  0  0  0
 19 20  1  0  0  0  0
 19 44  1  0  0  0  0
 19 45  1  0  0  0  0
 20 21  1  0  0  0  0
 21 22  1  0  0  0  0
 21 46  1  0  0  0  0
 21 47  1  0  0  0  0
 22 48  1  0  0  0  0
 22 49  1  0  0  0  0
M  END
> <s_m_source_file>
AV-unprocessed.smi

> <i_m_source_file_index>
2819

> <i_lp_mmshare_version>
43012

> <i_f3d_flags>
0

> <s_epik_input>
W0NIM11OKFtDSDNdKWMxW2NIXVtjSF1uYyhuMSlbTkhdQyg9TylbTkhdW0NIMl1DKFtDSDNdKShbQ0gzXSlOMltDSDJdW0NIMl1PW0NIMl1bQ0gyXTI=

> <s_epik_cmdline>
J2VwaWtfcHl0aG9uJywgJy1waCcsICc3LjAnLCAnLXRuJywgJzgnLCAnLW1hJywgJzIwMCcsICctbWV0YWxfYmluZGluZycsICctaW1hZScsICc8aW5maWxlLm1hZT4nLCAnLW9tYWUnLCAnPG91dGZpbGUubWFlPic=

> <r_lp_tautomer_probability>
1

> <r_epik_Ionization_Penalty>
1.38931

> <r_epik_Ionization_Penalty_Charging>
0

> <r_epik_Ionization_Penalty_Neutral>
1.38931

> <r_epik_State_Penalty>
1.41304

> <r_epik_Charging_Adjusted_Penalty>
1.41304

> <i_epik_Tot_Q>
0

> <i_epik_Tot_abs_Q>
0

> <r_epik_Metal_State_Penalty>
0.631353

> <b_epik_Metal_Only>
0

> <s_lp_Force_Field>
OPLS_2005

> <r_lp_Energy>
40.3447

> <b_lp_Chiralities_Consistent>
1

> <s_lp_Variant>
AV-unprocessed.smi:2819-3

> <Gold.Version>
5.8.1

> <Gold.Id.Protein>
6NUR|6NUR_protein|mol2

> <Gold.PLP.Fitness>
40.0451

> <Gold.PLP.PLP>
-35.9749

> <Gold.PLP.part.hbond>
-3.0000

> <Gold.PLP.part.metal>
0.0000

> <Gold.PLP.part.buried>
-4.7940

> <Gold.PLP.part.nonpolar>
-30.2035

> <Gold.PLP.part.repulsive>
3.0026

> <Gold.PLP.ligand.clash>
0.0000

> <Gold.PLP.ligand.torsion>
0.9563

> <Gold.PLP.Chemscore.Hbond>
1.9600

> <Gold.PLP.Chemscore.CHOScore>
0.0000

> <Gold.PLP.Chemscore.Metal>
0.0000

> <Gold.Chemscore.Hbonds>
donor molecule, donor type, donor heavy atom, donor atom, acceptor molecule, acceptor atom, score
      L1  H     9    32       P1 10175  0.96
      L1  H    12    33       P1 10175  1.00

> <Gold.PLP.Chemscore.Internal.Correction>
0.1028

> <Gold.Rescore>
     Score         DG    S(hbond)    S(metal)    S(lipo)     H(rot)  DE(clash)    DE(int)     intcor
     12.63     -16.37       1.92        0.00      71.19       1.51       1.96       1.78       ----

> <Gold.Chemscore.Fitness>
12.6282

> <Gold.Chemscore.DG>
-16.3698

> <Gold.Chemscore.ZeroCoef>
-5.4800

> <Gold.Chemscore.Hbond>
1.9220

> <Gold.Chemscore.Metal>
0.0000

> <Gold.Chemscore.Lipo>
71.1908

> <Gold.Chemscore.Internal_Hbond>
0.0000

> <Gold.Chemscore.DEClash>
1.9646

> <Gold.Chemscore.DEInternal>
1.7770

> <Gold.Chemscore.Rot>
1.5075

> <Gold.Chemscore.Internal.Correction>
   9.000000E+99

> <Gold.Chemscore.Hbonds>
donor molecule, donor type, donor heavy atom, donor atom, acceptor molecule, acceptor atom, score
      L1  H     9    32       P1 10175  0.90
      L1  H    12    33       P1 10175  0.98

> <Gold.Chemscore.Hbond.Weighted>
-6.4195

> <Gold.Chemscore.Metal.Weighted>
-0.0000

> <Gold.Chemscore.Lipo.Weighted>
-8.3293

> <Gold.Chemscore.Internal_Hbond.Weighted>
0.0000

> <Gold.Chemscore.DEClash.Weighted>
1.9646

> <Gold.Chemscore.DEInternal.Weighted>
1.7770

> <Gold.Chemscore.Rot.Weighted>
3.8591

> <Gold.Chemscore.Internal.Correction.Weighted>
   9.000000E+99

> <Gold.Protein.RotatedTorsions>
[ 6907 6896 6895 6894 ] final -174.10 input  -60.11 | X-H torsion
[ 7974 7965 7964 7962 ] final -172.83 input  175.53 | X-H torsion
[ 8008 7997 7996 7995 ] final   47.57 input   59.86 | X-H torsion
[ 10167 10162 10161 10158 ] final  137.28 input  -65.29 | X-H torsion
[ 10718 10713 10712 10709 ] final  115.22 input   66.30 | X-H torsion
[ 10763 10752 10751 10750 ] final  -13.68 input  -60.55 | X-H torsion
[ 11005 11000 10999 10996 ] final   55.73 input  -57.11 | X-H torsion

> <Gold.Protein.ActiveResidues>
 VAL166  LYS551  ARG553  GLY616  TRP617  ASP618  TYR619  PRO620  LYS621  CYS622 
 ASP623  PHE694  ASN695  SER759  ASP760  ASP761  ALA762  ILE779  LEU786  VAL792 
 PHE793  MET794  SER795  GLU796  ALA797  LYS798  CYS799  TRP800  GLU811  SER814 

> <Gold.Protein.RotatedAtoms>
  151.5669  133.3395  159.2981 H   0  0  0  0  0  0  0  0  0  0  0  0  # atno 6907 bound_to 6896
  150.8390  134.7677  159.6928 H   0  0  0  0  0  0  0  0  0  0  0  0  # atno 6908 bound_to 6896
  152.4461  134.5498  159.9915 H   0  0  0  0  0  0  0  0  0  0  0  0  # atno 6909 bound_to 6896
  144.7143  140.1714  143.6367 H   0  0  0  0  0  0  0  0  0  0  0  0  # atno 7974 bound_to 7965
  155.3712  140.3424  155.4243 H   0  0  0  0  0  0  0  0  0  0  0  0  # atno 8008 bound_to 7997
  156.1661  140.1616  156.8562 H   0  0  0  0  0  0  0  0  0  0  0  0  # atno 8009 bound_to 7997
  154.5187  140.0772  156.8112 H   0  0  0  0  0  0  0  0  0  0  0  0  # atno 8010 bound_to 7997
  139.5150  144.6418  151.5547 H   0  0  0  0  0  0  0  0  0  0  0  0  # atno 10167 bound_to 10162
  157.6235  131.1009  150.7299 H   0  0  0  0  0  0  0  0  0  0  0  0  # atno 10718 bound_to 10713
  153.5169  135.7016  153.5751 H   0  0  0  0  0  0  0  0  0  0  0  0  # atno 10763 bound_to 10752
  153.3817  135.3918  155.1862 H   0  0  0  0  0  0  0  0  0  0  0  0  # atno 10764 bound_to 10752
  154.8698  135.3837  154.4654 H   0  0  0  0  0  0  0  0  0  0  0  0  # atno 10765 bound_to 10752
  140.0584  134.5637  155.9180 H   0  0  0  0  0  0  0  0  0  0  0  0  # atno 11005 bound_to 11000
  145.8940  139.2392  143.1532 LP  0  0  0  0  0  0  0  0  0  0  0  0  # atno 17320 bound_to 7965
  145.9875  140.8631  143.0083 LP  0  0  0  0  0  0  0  0  0  0  0  0  # atno 17321 bound_to 7965
  140.6188  143.9298  150.6510 LP  0  0  0  0  0  0  0  0  0  0  0  0  # atno 17342 bound_to 10162
  140.2564  143.3555  152.1361 LP  0  0  0  0  0  0  0  0  0  0  0  0  # atno 17343 bound_to 10162
  156.7652  130.4811  149.5429 LP  0  0  0  0  0  0  0  0  0  0  0  0  # atno 17370 bound_to 10713
  156.1393  130.6233  151.0445 LP  0  0  0  0  0  0  0  0  0  0  0  0  # atno 17371 bound_to 10713
  141.1962  133.6590  156.5682 LP  0  0  0  0  0  0  0  0  0  0  0  0  # atno 17394 bound_to 11000
  140.3808  134.7525  157.4659 LP  0  0  0  0  0  0  0  0  0  0  0  0  # atno 17395 bound_to 11000

$$$$
