AV-unprocessed.smi:2881|AV-procd|sdf|11058|dock10
  -GOLD-   2272015533D 1   1.00000     0.00000
 Structure written by MMmdl.
 40 42  0  0  0  0  0  0  0  0  1 V2000
  152.0062  130.7930  157.1095 C   0  0  0  0  0  0  0  0  0  0  0  0
  150.8703  131.4267  156.3802 C   0  0  0  0  0  0  0  0  0  0  0  0
  150.7637  132.6383  155.7579 C   0  0  0  0  0  0  0  0  0  0  0  0
  149.4346  132.6545  155.2395 C   0  0  0  0  0  0  0  0  0  0  0  0
  148.7695  133.7379  154.4305 C   0  0  0  0  0  0  0  0  0  0  0  0
  147.9989  133.1220  153.2610 C   0  0  0  0  0  0  0  0  0  0  0  0
  147.9849  131.9015  153.1044 O   0  0  0  0  0  0  0  0  0  0  0  0
  147.3817  133.9830  152.4363 N   0  0  0  0  0  0  0  0  0  0  0  0
  146.6963  133.6343  151.1932 C   0  0  1  0  0  0  0  0  0  0  0  0
  145.8836  132.3356  151.3839 C   0  0  2  0  0  0  0  0  0  0  0  0
  145.4740  131.7896  150.0041 C   0  0  0  0  0  0  0  0  0  0  0  0
  144.3948  132.7931  149.5548 C   0  0  0  0  0  0  0  0  0  0  0  0
  144.3320  133.7820  150.7358 C   0  0  1  0  0  0  0  0  0  0  0  0
  144.5537  132.8509  151.9210 C   0  0  0  0  0  0  0  0  0  0  0  0
  145.6092  134.6581  150.7417 C   0  0  1  0  0  0  0  0  0  0  0  0
  145.4713  135.9343  151.6055 C   0  0  0  0  0  0  0  0  0  0  0  0
  146.2290  136.9903  151.0537 O   0  0  0  0  0  0  0  0  0  0  0  0
  148.7684  131.5446  155.5272 N   0  0  0  0  0  0  0  0  0  0  0  0
  149.6537  130.8046  156.2195 N   0  0  0  0  0  0  0  0  0  0  0  0
  149.4162  129.8887  156.5734 H   0  0  0  0  0  0  0  0  0  0  0  0
  152.8506  130.6315  156.4394 H   0  0  0  0  0  0  0  0  0  0  0  0
  151.7195  129.8280  157.5286 H   0  0  0  0  0  0  0  0  0  0  0  0
  152.3418  131.4294  157.9285 H   0  0  0  0  0  0  0  0  0  0  0  0
  151.5259  133.3990  155.6749 H   0  0  0  0  0  0  0  0  0  0  0  0
  148.0893  134.3225  155.0516 H   0  0  0  0  0  0  0  0  0  0  0  0
  149.5120  134.4343  154.0399 H   0  0  0  0  0  0  0  0  0  0  0  0
  147.4437  134.9669  152.6550 H   0  0  0  0  0  0  0  0  0  0  0  0
  147.4379  133.4915  150.4047 H   0  0  0  0  0  0  0  0  0  0  0  0
  146.3764  131.5907  152.0102 H   0  0  0  0  0  0  0  0  0  0  0  0
  146.3129  131.7386  149.3093 H   0  0  0  0  0  0  0  0  0  0  0  0
  145.0521  130.7878  150.0925 H   0  0  0  0  0  0  0  0  0  0  0  0
  144.6459  133.2831  148.6135 H   0  0  0  0  0  0  0  0  0  0  0  0
  143.4370  132.2886  149.4213 H   0  0  0  0  0  0  0  0  0  0  0  0
  143.4009  134.3482  150.7681 H   0  0  0  0  0  0  0  0  0  0  0  0
  143.7927  132.0735  152.0088 H   0  0  0  0  0  0  0  0  0  0  0  0
  144.6411  133.3708  152.8760 H   0  0  0  0  0  0  0  0  0  0  0  0
  145.8336  134.9811  149.7237 H   0  0  0  0  0  0  0  0  0  0  0  0
  144.4319  136.2509  151.6946 H   0  0  0  0  0  0  0  0  0  0  0  0
  145.8443  135.7567  152.6144 H   0  0  0  0  0  0  0  0  0  0  0  0
  147.1461  136.7945  151.1715 H   0  0  0  0  0  0  0  0  0  0  0  0
  1  2  1  0  0  0  0
  1 21  1  0  0  0  0
  1 22  1  0  0  0  0
  1 23  1  0  0  0  0
  2 19  1  0  0  0  0
  2  3  2  0  0  0  0
  3  4  1  0  0  0  0
  3 24  1  0  0  0  0
  4  5  1  0  0  0  0
  4 18  2  0  0  0  0
  5  6  1  0  0  0  0
  5 25  1  0  0  0  0
  5 26  1  0  0  0  0
  6  7  2  0  0  0  0
  6  8  1  0  0  0  0
  8  9  1  0  0  0  0
  8 27  1  0  0  0  0
  9 15  1  0  0  0  0
  9 10  1  0  0  0  0
  9 28  1  0  0  0  0
 10 14  1  0  0  0  0
 10 11  1  0  0  0  0
 10 29  1  0  0  0  0
 11 12  1  0  0  0  0
 11 30  1  0  0  0  0
 11 31  1  0  0  0  0
 12 13  1  0  0  0  0
 12 32  1  0  0  0  0
 12 33  1  0  0  0  0
 13 14  1  0  0  0  0
 13 15  1  0  0  0  0
 13 34  1  0  0  0  0
 14 35  1  0  0  0  0
 14 36  1  0  0  0  0
 15 16  1  0  0  0  0
 15 37  1  0  0  0  0
 16 17  1  0  0  0  0
 16 38  1  0  0  0  0
 16 39  1  0  0  0  0
 17 40  1  0  0  0  0
 18 19  1  0  0  0  0
 19 20  1  0  0  0  0
M  END
> <s_m_source_file>
AV-unprocessed.smi

> <i_m_source_file_index>
2881

> <i_lp_mmshare_version>
43012

> <i_f3d_flags>
0

> <s_epik_input>
W0NIM11jMVtjSF1jKG5bbkhdMSlbQ0gyXUMoPU8pW05IXVtDQEhdKFtDQEBIXTIzKVtDQEhdKFtDSDJdW09IXSlbQ0BASF0oW0NIMl0zKVtDSDJdW0NIMl0y

> <s_epik_cmdline>
J2VwaWtfcHl0aG9uJywgJy1waCcsICc3LjAnLCAnLXRuJywgJzgnLCAnLW1hJywgJzIwMCcsICctbWV0YWxfYmluZGluZycsICctaW1hZScsICc8aW5maWxlLm1hZT4nLCAnLW9tYWUnLCAnPG91dGZpbGUubWFlPic=

> <r_lp_tautomer_probability>
0.5

> <r_epik_Ionization_Penalty>
9.4349e-05

> <r_epik_Ionization_Penalty_Charging>
0

> <r_epik_Ionization_Penalty_Neutral>
9.4349e-05

> <r_epik_State_Penalty>
0.41068

> <r_epik_Charging_Adjusted_Penalty>
0.41068

> <i_epik_Tot_Q>
0

> <i_epik_Tot_abs_Q>
0

> <r_epik_Metal_State_Penalty>
0.4107

> <b_epik_Metal_Only>
0

> <s_lp_Force_Field>
OPLS_2005

> <r_lp_Energy>
47.5678

> <b_lp_Chiralities_Consistent>
1

> <s_lp_Variant>
AV-unprocessed.smi:2881-4

> <Gold.Version>
5.8.1

> <Gold.Id.Protein>
6NUR|6NUR_protein|mol2

> <Gold.PLP.Fitness>
38.6158

> <Gold.PLP.PLP>
-36.1844

> <Gold.PLP.part.hbond>
-2.8878

> <Gold.PLP.part.metal>
0.0000

> <Gold.PLP.part.buried>
-5.7064

> <Gold.PLP.part.nonpolar>
-27.7186

> <Gold.PLP.part.repulsive>
0.4956

> <Gold.PLP.ligand.clash>
0.0000

> <Gold.PLP.ligand.torsion>
0.9605

> <Gold.PLP.Chemscore.Hbond>
1.4441

> <Gold.PLP.Chemscore.CHOScore>
0.0000

> <Gold.PLP.Chemscore.Metal>
0.0000

> <Gold.Chemscore.Hbonds>
donor molecule, donor type, donor heavy atom, donor atom, acceptor molecule, acceptor atom, score
      L1  H     8    27       P1  7948  0.37
      L1  H    17    40       P1  7948  1.00

> <Gold.PLP.Chemscore.Internal.Correction>
0.0202

> <Gold.Rescore>
     Score         DG    S(hbond)    S(metal)    S(lipo)     H(rot)  DE(clash)    DE(int)     intcor
     11.33     -14.95       1.69        0.00      82.38       2.28       0.01       3.62       ----

> <Gold.Chemscore.Fitness>
11.3250

> <Gold.Chemscore.DG>
-14.9545

> <Gold.Chemscore.ZeroCoef>
-5.4800

> <Gold.Chemscore.Hbond>
1.6949

> <Gold.Chemscore.Metal>
0.0000

> <Gold.Chemscore.Lipo>
82.3827

> <Gold.Chemscore.Internal_Hbond>
0.0000

> <Gold.Chemscore.DEClash>
0.0121

> <Gold.Chemscore.DEInternal>
3.6173

> <Gold.Chemscore.Rot>
2.2755

> <Gold.Chemscore.Internal.Correction>
   9.000000E+99

> <Gold.Chemscore.Hbonds>
donor molecule, donor type, donor heavy atom, donor atom, acceptor molecule, acceptor atom, score
      L1  H     8    27       P1  7948  0.34
      L1  H    17    40       P1  7948  0.98

> <Gold.Chemscore.Hbond.Weighted>
-5.6609

> <Gold.Chemscore.Metal.Weighted>
-0.0000

> <Gold.Chemscore.Lipo.Weighted>
-9.6388

> <Gold.Chemscore.Internal_Hbond.Weighted>
0.0000

> <Gold.Chemscore.DEClash.Weighted>
0.0121

> <Gold.Chemscore.DEInternal.Weighted>
3.6173

> <Gold.Chemscore.Rot.Weighted>
5.8252

> <Gold.Chemscore.Internal.Correction.Weighted>
   9.000000E+99

> <Gold.Protein.RotatedTorsions>
[ 6907 6896 6895 6894 ] final  -95.83 input  -60.11 | X-H torsion
[ 7974 7965 7964 7962 ] final   57.46 input  175.53 | X-H torsion
[ 8008 7997 7996 7995 ] final  -81.92 input   59.86 | X-H torsion
[ 10167 10162 10161 10158 ] final -174.47 input  -65.29 | X-H torsion
[ 10718 10713 10712 10709 ] final  -43.52 input   66.30 | X-H torsion
[ 10763 10752 10751 10750 ] final   26.39 input  -60.55 | X-H torsion
[ 11005 11000 10999 10996 ] final  141.09 input  -57.11 | X-H torsion

> <Gold.Protein.ActiveResidues>
 VAL166  LYS551  ARG553  GLY616  TRP617  ASP618  TYR619  PRO620  LYS621  CYS622 
 ASP623  PHE694  ASN695  SER759  ASP760  ASP761  ALA762  ILE779  LEU786  VAL792 
 PHE793  MET794  SER795  GLU796  ALA797  LYS798  CYS799  TRP800  GLU811  SER814 

> <Gold.Protein.RotatedAtoms>
  150.6973  134.1597  159.4171 H   0  0  0  0  0  0  0  0  0  0  0  0  # atno 6907 bound_to 6896
  151.9578  135.0136  160.0555 H   0  0  0  0  0  0  0  0  0  0  0  0  # atno 6908 bound_to 6896
  152.1954  133.4767  159.5067 H   0  0  0  0  0  0  0  0  0  0  0  0  # atno 6909 bound_to 6896
  145.9288  139.3790  143.0434 H   0  0  0  0  0  0  0  0  0  0  0  0  # atno 7974 bound_to 7965
  154.6033  140.0640  156.9398 H   0  0  0  0  0  0  0  0  0  0  0  0  # atno 8008 bound_to 7997
  155.2095  140.3321  155.4312 H   0  0  0  0  0  0  0  0  0  0  0  0  # atno 8009 bound_to 7997
  156.2332  140.1850  156.7172 H   0  0  0  0  0  0  0  0  0  0  0  0  # atno 8010 bound_to 7997
  139.5632  144.1819  152.1272 H   0  0  0  0  0  0  0  0  0  0  0  0  # atno 10167 bound_to 10162
  156.2482  130.4185  149.8681 H   0  0  0  0  0  0  0  0  0  0  0  0  # atno 10718 bound_to 10713
  153.0626  135.6561  154.0428 H   0  0  0  0  0  0  0  0  0  0  0  0  # atno 10763 bound_to 10752
  154.0093  135.2930  155.3395 H   0  0  0  0  0  0  0  0  0  0  0  0  # atno 10764 bound_to 10752
  154.6970  135.5260  153.8541 H   0  0  0  0  0  0  0  0  0  0  0  0  # atno 10765 bound_to 10752
  140.0375  134.9321  157.0781 H   0  0  0  0  0  0  0  0  0  0  0  0  # atno 11005 bound_to 11000
  145.8453  140.9558  143.0777 LP  0  0  0  0  0  0  0  0  0  0  0  0  # atno 17320 bound_to 7965
  144.6762  140.0338  143.7482 LP  0  0  0  0  0  0  0  0  0  0  0  0  # atno 17321 bound_to 7965
  140.1337  144.5265  150.6787 LP  0  0  0  0  0  0  0  0  0  0  0  0  # atno 17342 bound_to 10162
  140.6914  143.2378  151.5122 LP  0  0  0  0  0  0  0  0  0  0  0  0  # atno 17343 bound_to 10162
  156.6239  130.8638  151.3481 LP  0  0  0  0  0  0  0  0  0  0  0  0  # atno 17370 bound_to 10713
  157.7203  130.9550  150.1414 LP  0  0  0  0  0  0  0  0  0  0  0  0  # atno 17371 bound_to 10713
  140.4123  134.1968  155.7163 LP  0  0  0  0  0  0  0  0  0  0  0  0  # atno 17394 bound_to 11000
  141.1865  133.8300  157.1065 LP  0  0  0  0  0  0  0  0  0  0  0  0  # atno 17395 bound_to 11000

$$$$
