#       Name:                AV-unprocessed.smi:157
#       Creating user name   scv26
#       Creation time:       Thu Mar 26 18:58:49 2020


#       File generated by GOLD software.
#

@<TRIPOS>MOLECULE
AV-unprocessed.smi:157
    45    47     1
SMALL
NO_CHARGES


@<TRIPOS>ATOM
      1 ****        -4.4694   3.0883  -1.3169 O.3            1 S1                 0.0000
      2 ****        -4.0046   1.8266  -0.8857 C.3            1 S1                 0.0000
      3 ****        -2.4706   1.8155  -0.7950 C.3            1 S1                 0.0000
      4 ****        -2.0246   0.4857  -0.5348 O.3            1 S1                 0.0000
      5 ****        -0.9462   0.4984   0.3536 C.3            1 S1                 0.0000
      6 ****         0.1925  -0.2519  -0.2645 N.pl3          1 S1                 0.0000
      7 ****         0.4911  -0.3020  -1.5696 C.2            1 S1                 0.0000
      8 ****         1.5563  -1.0285  -1.8621 N.2            1 S1                 0.0000
      9 ****         1.9935  -1.4974  -0.6245 C.2            1 S1                 0.0000
     10 ****         1.1619  -1.0254   0.3812 C.2            1 S1                 0.0000
     11 ****         1.1052  -1.1346   1.7575 N.2            1 S1                 0.0000
     12 ****         1.7508  -2.1090   2.3169 C.2            1 S1                 0.0000
     13 ****         2.6032  -3.0530   1.7624 N.pl3          1 S1                 0.0000
     14 ****         3.6927  -2.7109   0.8639 C.3            1 S1                 0.0000
     15 ****         3.2289  -2.3482  -0.5523 C.3            1 S1                 0.0000
     16 ****         2.9564  -3.5341  -1.2705 O.3            1 S1                 0.0000
     17 ****        -0.5599   1.9587   0.5769 C.3            1 S1                 0.0000
     18 ****        -1.8889   2.6460   0.3550 C.3            1 S1                 0.0000
     19 ****        -1.6972   4.0005   0.0025 O.3            1 S1                 0.0000
     20 ****        -2.0273   2.1213  -1.7446 H              1 S1                 0.0000
     21 ****        -1.2136  -0.0347   1.2662 H              1 S1                 0.0000
     22 ****         4.0512  -1.8502  -1.0669 H              1 S1                 0.0000
     23 ****        -2.5096   2.5677   1.2489 H              1 S1                 0.0000
     24 ****        -5.4112   3.0532  -1.3864 H              1 S1                 0.0000
     25 ****        -4.4554   1.5774   0.0754 H              1 S1                 0.0000
     26 ****        -4.3405   1.0767  -1.6024 H              1 S1                 0.0000
     27 ****        -0.0852   0.2120  -2.3249 H              1 S1                 0.0000
     28 ****         1.6469  -2.2484   3.3938 H              1 S1                 0.0000
     29 ****         2.8202  -3.8796   2.3005 H              1 S1                 0.0000
     30 ****         4.2088  -1.8519   1.2951 H              1 S1                 0.0000
     31 ****         4.4216  -3.5215   0.8378 H              1 S1                 0.0000
     32 ****         2.7279  -3.2961  -2.1563 H              1 S1                 0.0000
     33 ****        -0.1384   2.1117   1.5708 H              1 S1                 0.0000
     34 ****         0.1692   2.2676  -0.1750 H              1 S1                 0.0000
     35 ****        -2.5367   4.3711  -0.2249 H              1 S1                 0.0000
     36 ****        -4.0732   3.3069  -2.2087 LP             1 S1                 0.0000
     37 ****        -4.2059   3.7893  -0.6543 LP             1 S1                 0.0000
     38 ****        -1.7391   0.0600  -1.3935 LP             1 S1                 0.0000
     39 ****        -2.7747  -0.0411  -0.1349 LP             1 S1                 0.0000
     40 ****         1.9557  -1.2015  -2.7625 LP             1 S1                 0.0000
     41 ****         0.5820  -0.4817   2.3051 LP             1 S1                 0.0000
     42 ****         2.1947  -4.0213  -0.8435 LP             1 S1                 0.0000
     43 ****         3.7663  -4.1207  -1.2756 LP             1 S1                 0.0000
     44 ****        -1.0778   4.0614  -0.7803 LP             1 S1                 0.0000
     45 ****        -1.3064   4.4989   0.7763 LP             1 S1                 0.0000
@<TRIPOS>BOND
    1    1    2 1     
    2    1   24 1     
    3    2    3 1     
    4    2   25 1     
    5    2   26 1     
    6    3   20 1     
    7    3   18 1     
    8    3    4 1     
    9    4    5 1     
   10    5   21 1     
   11    5    6 1     
   12    5   17 1     
   13    6   10 1     
   14    6    7 1     
   15    7    8 2     
   16    7   27 1     
   17    8    9 1     
   18    9   15 1     
   19    9   10 2     
   20   10   11 1     
   21   11   12 2     
   22   12   13 1     
   23   12   28 1     
   24   13   14 1     
   25   13   29 1     
   26   14   15 1     
   27   14   30 1     
   28   14   31 1     
   29   15   22 1     
   30   15   16 1     
   31   16   32 1     
   32   17   18 1     
   33   17   33 1     
   34   17   34 1     
   35   18   23 1     
   36   18   19 1     
   37   19   35 1     
   38    1   36 1     
   39    1   37 1     
   40    4   38 1     
   41    4   39 1     
   42    8   40 1     
   43   11   41 1     
   44   16   42 1     
   45   16   43 1     
   46   19   44 1     
   47   19   45 1     
@<TRIPOS>SUBSTRUCTURE
      1 S1             1
@<TRIPOS>SET
LONE_PAIRS      STATIC     ATOMS    <user>   **** ""
10 36 37 38 39 40 41 42 43 44 45
DONOR_HYDROGENS      STATIC     ATOMS    <user>   **** ""
4 24 29 32 35
ATOM$BLUE        STATIC     ATOMS    COLORGROUP SYSTEM
10 36 37 38 39 40 41 42 43 44 45
ATOM$RED        STATIC     ATOMS    COLORGROUP SYSTEM
4 24 29 32 35
