AV-unprocessed.smi:95|AV-procd|sdf|857|dock10
  -GOLD-   2262017303D 1   1.00000     0.00000
 Structure written by MMmdl.
 42 45  0  0  0  0  0  0  0  0  2 V2000
  147.5544  134.8695  156.1584 O   0  0  0  0  0  0  0  0  0  0  0  0
  148.2470  135.8350  155.8323 C   0  0  0  0  0  0  0  0  0  0  0  0
  147.8411  137.2206  156.0416 C   0  0  0  0  0  0  0  0  0  0  0  0
  146.6472  137.4865  156.5975 F   0  0  0  0  0  0  0  0  0  0  0  0
  148.6498  138.2440  155.6917 C   0  0  0  0  0  0  0  0  0  0  0  0
  149.8975  138.0602  155.1212 N   0  0  0  0  0  0  0  0  0  0  0  0
  150.7608  139.2473  154.7652 C   0  0  2  0  0  0  0  0  0  0  0  0
  152.0595  139.2310  155.5818 C   0  0  0  0  0  0  0  0  0  0  0  0
  151.7877  140.2774  156.6429 C   0  0  0  0  0  0  0  0  0  0  0  0
  150.8827  141.2488  155.8956 C   0  0  0  0  0  0  0  0  0  0  0  0
  150.0632  140.4159  155.0843 O   0  0  0  0  0  0  0  0  0  0  0  0
  150.3795  136.7530  154.8934 C   0  0  0  0  0  0  0  0  0  0  0  0
  151.5069  136.5591  154.4325 O   0  0  0  0  0  0  0  0  0  0  0  0
  149.5240  135.6801  155.2378 N   0  0  0  0  0  0  0  0  0  0  0  0
  150.0127  134.3302  155.0063 C   0  0  0  0  0  0  0  0  0  0  0  0
  149.0184  133.3547  154.3875 C   0  0  0  0  0  0  0  0  0  0  0  0
  148.7190  132.0819  154.9276 C   0  0  0  0  0  0  0  0  0  0  0  0
  147.7807  131.2565  154.2751 C   0  0  0  0  0  0  0  0  0  0  0  0
  147.1579  131.7178  153.0962 C   0  0  0  0  0  0  0  0  0  0  0  0
  146.2143  130.9230  152.4134 C   0  0  0  0  0  0  0  0  0  0  0  0
  145.6056  131.4084  151.2386 C   0  0  0  0  0  0  0  0  0  0  0  0
  145.9367  132.6858  150.7434 C   0  0  0  0  0  0  0  0  0  0  0  0
  146.8792  133.4847  151.4208 C   0  0  0  0  0  0  0  0  0  0  0  0
  147.4894  133.0013  152.5950 C   0  0  0  0  0  0  0  0  0  0  0  0
  148.3954  133.7551  153.2560 N   0  3  0  0  0  0  0  0  0  0  0  0
  148.3000  139.2492  155.8739 H   0  0  0  0  0  0  0  0  0  0  0  0
  150.9252  139.2152  153.6875 H   0  0  0  0  0  0  0  0  0  0  0  0
  152.2866  138.2423  155.9827 H   0  0  0  0  0  0  0  0  0  0  0  0
  152.8794  139.5465  154.9354 H   0  0  0  0  0  0  0  0  0  0  0  0
  151.2543  139.8340  157.4844 H   0  0  0  0  0  0  0  0  0  0  0  0
  152.6952  140.7471  157.0233 H   0  0  0  0  0  0  0  0  0  0  0  0
  150.2863  141.8705  156.5634 H   0  0  0  0  0  0  0  0  0  0  0  0
  151.4724  141.9035  155.2524 H   0  0  0  0  0  0  0  0  0  0  0  0
  150.9090  134.3925  154.3879 H   0  0  0  0  0  0  0  0  0  0  0  0
  150.3719  133.9508  155.9650 H   0  0  0  0  0  0  0  0  0  0  0  0
  149.1962  131.7316  155.8309 H   0  0  0  0  0  0  0  0  0  0  0  0
  147.5444  130.2828  154.6791 H   0  0  0  0  0  0  0  0  0  0  0  0
  145.9534  129.9426  152.7849 H   0  0  0  0  0  0  0  0  0  0  0  0
  144.8822  130.7998  150.7156 H   0  0  0  0  0  0  0  0  0  0  0  0
  145.4663  133.0530  149.8431 H   0  0  0  0  0  0  0  0  0  0  0  0
  147.1274  134.4633  151.0356 H   0  0  0  0  0  0  0  0  0  0  0  0
  148.6218  134.6762  152.8813 H   0  0  0  0  0  0  0  0  0  0  0  0
  1  2  2  0  0  0  0
  2 14  1  0  0  0  0
  2  3  1  0  0  0  0
  3  4  1  0  0  0  0
  3  5  2  0  0  0  0
  5  6  1  0  0  0  0
  5 26  1  0  0  0  0
  6  7  1  0  0  0  0
  6 12  1  0  0  0  0
  7 11  1  0  0  0  0
  7  8  1  0  0  0  0
  7 27  1  0  0  0  0
  8  9  1  0  0  0  0
  8 28  1  0  0  0  0
  8 29  1  0  0  0  0
  9 10  1  0  0  0  0
  9 30  1  0  0  0  0
  9 31  1  0  0  0  0
 10 11  1  0  0  0  0
 10 32  1  0  0  0  0
 10 33  1  0  0  0  0
 12 13  2  0  0  0  0
 12 14  1  0  0  0  0
 14 15  1  0  0  0  0
 15 16  1  0  0  0  0
 15 34  1  0  0  0  0
 15 35  1  0  0  0  0
 16 25  1  0  0  0  0
 16 17  2  0  0  0  0
 17 18  1  0  0  0  0
 17 36  1  0  0  0  0
 18 19  2  0  0  0  0
 18 37  1  0  0  0  0
 19 24  1  0  0  0  0
 19 20  1  0  0  0  0
 20 21  2  0  0  0  0
 20 38  1  0  0  0  0
 21 22  1  0  0  0  0
 21 39  1  0  0  0  0
 22 23  2  0  0  0  0
 22 40  1  0  0  0  0
 23 24  1  0  0  0  0
 23 41  1  0  0  0  0
 24 25  2  0  0  0  0
 25 42  1  0  0  0  0
M  CHG  1  25   1
M  END
> <s_m_source_file>
AV-unprocessed.smi

> <i_m_source_file_index>
95

> <i_lp_mmshare_version>
43012

> <i_f3d_flags>
0

> <s_epik_input>
TzFbQ0gyXVtDSDJdW0NIMl1bQ0BIXTFuKFtjSF1jKEYpYzI9TyljKD1PKW4yW0NIMl1jKFtjSF1bY0hdMyluYyhjMzQpW2NIXVtjSF1bY0hdW2NIXTQ=

> <s_epik_cmdline>
J2VwaWtfcHl0aG9uJywgJy1waCcsICc3LjAnLCAnLXRuJywgJzgnLCAnLW1hJywgJzIwMCcsICctbWV0YWxfYmluZGluZycsICctaW1hZScsICc8aW5maWxlLm1hZT4nLCAnLW9tYWUnLCAnPG91dGZpbGUubWFlPic=

> <r_lp_tautomer_probability>
1

> <r_epik_Ionization_Penalty>
1.83445

> <r_epik_Ionization_Penalty_Charging>
1.83445

> <r_epik_Ionization_Penalty_Neutral>
6.33322e-12

> <r_epik_State_Penalty>
1.95069

> <r_epik_Charging_Adjusted_Penalty>
3.78513

> <i_epik_Tot_Q>
1

> <i_epik_Tot_abs_Q>
1

> <r_epik_Metal_State_Penalty>
6.02102

> <b_epik_Metal_Only>
0

> <s_epik_Chemistry_Notes>
This compound contains an acetal/aminal-like group ( X-CH(R)-Y where X, Y are N, S, or O) that may be acid/base labile, releasing an aldehyde.

> <s_lp_Force_Field>
OPLS_2005

> <r_lp_Energy>
36.4977

> <b_lp_Chiralities_Consistent>
1

> <s_lp_Variant>
AV-unprocessed.smi:95-3

> <Gold.Version>
5.8.1

> <Gold.Id.Protein>
6NUR|6NUR_protein|mol2

> <Gold.PLP.Fitness>
48.0382

> <Gold.PLP.PLP>
-39.5641

> <Gold.PLP.part.hbond>
-2.4736

> <Gold.PLP.part.metal>
0.0000

> <Gold.PLP.part.buried>
-4.6966

> <Gold.PLP.part.nonpolar>
-34.0737

> <Gold.PLP.part.repulsive>
1.8954

> <Gold.PLP.ligand.clash>
0.0000

> <Gold.PLP.ligand.torsion>
0.2670

> <Gold.PLP.Chemscore.Hbond>
3.0000

> <Gold.PLP.Chemscore.CHOScore>
0.0000

> <Gold.PLP.Chemscore.Metal>
0.0000

> <Gold.Chemscore.Hbonds>
donor molecule, donor type, donor heavy atom, donor atom, acceptor molecule, acceptor atom, score
      L1  H    25    42       P1  7948  1.90
      P1  H 10752 10764       L1    13  1.00

> <Gold.PLP.Chemscore.Internal.Correction>
0.0080

> <Gold.Rescore>
     Score         DG    S(hbond)    S(metal)    S(lipo)     H(rot)  DE(clash)    DE(int)     intcor
     12.97     -16.78       1.80        0.00      78.88       1.54       0.83       2.97       ----

> <Gold.Chemscore.Fitness>
12.9747

> <Gold.Chemscore.DG>
-16.7758

> <Gold.Chemscore.ZeroCoef>
-5.4800

> <Gold.Chemscore.Hbond>
1.7997

> <Gold.Chemscore.Metal>
0.0000

> <Gold.Chemscore.Lipo>
78.8814

> <Gold.Chemscore.Internal_Hbond>
0.0000

> <Gold.Chemscore.DEClash>
0.8285

> <Gold.Chemscore.DEInternal>
2.9725

> <Gold.Chemscore.Rot>
1.5407

> <Gold.Chemscore.Internal.Correction>
   9.000000E+99

> <Gold.Chemscore.Hbonds>
donor molecule, donor type, donor heavy atom, donor atom, acceptor molecule, acceptor atom, score
      L1  H    25    42       P1  7948  0.22
      P1  H 10752 10764       L1    13  0.96

> <Gold.Chemscore.Hbond.Weighted>
-6.0109

> <Gold.Chemscore.Metal.Weighted>
-0.0000

> <Gold.Chemscore.Lipo.Weighted>
-9.2291

> <Gold.Chemscore.Internal_Hbond.Weighted>
0.0000

> <Gold.Chemscore.DEClash.Weighted>
0.8285

> <Gold.Chemscore.DEInternal.Weighted>
2.9725

> <Gold.Chemscore.Rot.Weighted>
3.9443

> <Gold.Chemscore.Internal.Correction.Weighted>
   9.000000E+99

> <Gold.Protein.RotatedTorsions>
[ 6907 6896 6895 6894 ] final   -2.90 input  -60.11 | X-H torsion
[ 7974 7965 7964 7962 ] final   63.60 input  175.53 | X-H torsion
[ 8008 7997 7996 7995 ] final  138.36 input   59.86 | X-H torsion
[ 10167 10162 10161 10158 ] final  162.28 input  -65.29 | X-H torsion
[ 10718 10713 10712 10709 ] final   35.42 input   66.30 | X-H torsion
[ 10763 10752 10751 10750 ] final  -91.81 input  -60.55 | X-H torsion
[ 11005 11000 10999 10996 ] final  156.63 input  -57.11 | X-H torsion

> <Gold.Protein.ActiveResidues>
 VAL166  LYS551  ARG553  GLY616  TRP617  ASP618  TYR619  PRO620  LYS621  CYS622 
 ASP623  PHE694  ASN695  SER759  ASP760  ASP761  ALA762  ILE779  LEU786  VAL792 
 PHE793  MET794  SER795  GLU796  ALA797  LYS798  CYS799  TRP800  GLU811  SER814 

> <Gold.Protein.RotatedAtoms>
  151.5225  135.1067  159.9881 H   0  0  0  0  0  0  0  0  0  0  0  0  # atno 6907 bound_to 6896
  152.4614  133.7827  159.6870 H   0  0  0  0  0  0  0  0  0  0  0  0  # atno 6908 bound_to 6896
  150.8578  133.7624  159.3028 H   0  0  0  0  0  0  0  0  0  0  0  0  # atno 6909 bound_to 6896
  145.8599  139.3308  143.0825 H   0  0  0  0  0  0  0  0  0  0  0  0  # atno 7974 bound_to 7965
  156.2998  140.2395  156.4061 H   0  0  0  0  0  0  0  0  0  0  0  0  # atno 8008 bound_to 7997
  154.8483  140.0425  157.1607 H   0  0  0  0  0  0  0  0  0  0  0  0  # atno 8009 bound_to 7997
  154.9027  140.2979  155.5312 H   0  0  0  0  0  0  0  0  0  0  0  0  # atno 8010 bound_to 7997
  139.4859  144.4453  151.8899 H   0  0  0  0  0  0  0  0  0  0  0  0  # atno 10167 bound_to 10162
  157.3224  130.7455  149.6794 H   0  0  0  0  0  0  0  0  0  0  0  0  # atno 10718 bound_to 10713
  154.6798  135.5254  153.8248 H   0  0  0  0  0  0  0  0  0  0  0  0  # atno 10763 bound_to 10752
  153.0557  135.6549  154.0593 H   0  0  0  0  0  0  0  0  0  0  0  0  # atno 10764 bound_to 10752
  154.0481  135.2971  155.3324 H   0  0  0  0  0  0  0  0  0  0  0  0  # atno 10765 bound_to 10752
  140.1693  134.8554  157.2671 H   0  0  0  0  0  0  0  0  0  0  0  0  # atno 11005 bound_to 11000
  145.9260  140.9082  143.0380 LP  0  0  0  0  0  0  0  0  0  0  0  0  # atno 17320 bound_to 7965
  144.6727  140.1353  143.7441 LP  0  0  0  0  0  0  0  0  0  0  0  0  # atno 17321 bound_to 7965
  140.3907  144.2619  150.5900 LP  0  0  0  0  0  0  0  0  0  0  0  0  # atno 17342 bound_to 10162
  140.5148  143.2281  151.8479 LP  0  0  0  0  0  0  0  0  0  0  0  0  # atno 17343 bound_to 10162
  155.9687  130.4219  150.4491 LP  0  0  0  0  0  0  0  0  0  0  0  0  # atno 17370 bound_to 10713
  157.2509  131.0546  151.2380 LP  0  0  0  0  0  0  0  0  0  0  0  0  # atno 17371 bound_to 10713
  140.2396  134.3812  155.7486 LP  0  0  0  0  0  0  0  0  0  0  0  0  # atno 17394 bound_to 11000
  141.2216  133.7258  156.8768 LP  0  0  0  0  0  0  0  0  0  0  0  0  # atno 17395 bound_to 11000

$$$$
