AV-unprocessed.smi:1878|AV-procd|sdf|7627|dock3
  -GOLD-   22720 9353D 1   1.00000     0.00000
 Structure written by MMmdl.
 36 37  0  0  0  0  0  0  0  0  2 V2000
  146.9934  140.1645  153.8769 O   0  0  0  0  0  0  0  0  0  0  0  0
  147.8133  139.3765  153.4063 C   0  0  0  0  0  0  0  0  0  0  0  0
  147.5181  138.4844  152.4511 N   0  0  0  0  0  0  0  0  0  0  0  0
  146.1989  138.2988  151.8548 C   0  0  0  0  0  0  0  0  0  0  0  0
  145.5455  136.9806  152.3036 C   0  0  0  0  0  0  0  0  0  0  0  0
  146.1882  136.5161  153.3742 F   0  0  0  0  0  0  0  0  0  0  0  0
  144.2692  137.1876  152.6287 F   0  0  0  0  0  0  0  0  0  0  0  0
  145.6085  136.0637  151.3381 F   0  0  0  0  0  0  0  0  0  0  0  0
  149.0990  139.2759  153.7851 N   0  0  0  0  0  0  0  0  0  0  0  0
  149.7952  140.0385  154.7614 C   0  0  0  0  0  0  0  0  0  0  0  0
  150.9724  139.6006  155.4184 C   0  0  0  0  0  0  0  0  0  0  0  0
  151.5763  140.4294  156.3861 C   0  0  0  0  0  0  0  0  0  0  0  0
  150.9941  141.6815  156.6924 C   0  0  0  0  0  0  0  0  0  0  0  0
  151.5200  142.5778  157.6334 N   0  0  0  0  0  0  0  0  0  0  0  0
  150.6537  142.8330  158.7722 C   0  0  0  0  0  0  0  0  0  0  0  0
  151.1908  144.1107  159.4224 C   0  0  0  0  0  0  0  0  0  0  0  0
  152.0127  144.7974  158.3250 C   0  0  0  0  0  0  0  0  0  0  0  0
  151.8824  143.8824  157.1048 C   0  0  0  0  0  0  0  0  0  0  0  0
  149.8652  142.0549  156.0515 N   0  3  0  0  0  0  0  0  0  0  0  0
  149.2546  141.2912  155.1199 C   0  0  0  0  0  0  0  0  0  0  0  0
  148.2516  137.8724  152.1249 H   0  0  0  0  0  0  0  0  0  0  0  0
  145.5491  139.1447  152.0865 H   0  0  0  0  0  0  0  0  0  0  0  0
  146.3212  138.2963  150.7714 H   0  0  0  0  0  0  0  0  0  0  0  0
  149.6255  138.5226  153.3671 H   0  0  0  0  0  0  0  0  0  0  0  0
  151.4186  138.6406  155.2104 H   0  0  0  0  0  0  0  0  0  0  0  0
  152.4754  140.0993  156.8855 H   0  0  0  0  0  0  0  0  0  0  0  0
  149.6237  142.9827  158.4454 H   0  0  0  0  0  0  0  0  0  0  0  0
  150.6660  141.9941  159.4690 H   0  0  0  0  0  0  0  0  0  0  0  0
  150.3817  144.7419  159.7910 H   0  0  0  0  0  0  0  0  0  0  0  0
  151.8328  143.8657  160.2694 H   0  0  0  0  0  0  0  0  0  0  0  0
  151.6596  145.8065  158.1103 H   0  0  0  0  0  0  0  0  0  0  0  0
  153.0563  144.8698  158.6343 H   0  0  0  0  0  0  0  0  0  0  0  0
  152.8150  143.8315  156.5420 H   0  0  0  0  0  0  0  0  0  0  0  0
  151.1071  144.2585  156.4364 H   0  0  0  0  0  0  0  0  0  0  0  0
  148.3575  141.7094  154.6862 H   0  0  0  0  0  0  0  0  0  0  0  0
  149.4530  142.9590  156.2839 H   0  0  0  0  0  0  0  0  0  0  0  0
  1  2  2  0  0  0  0
  2  3  1  0  0  0  0
  2  9  1  0  0  0  0
  3  4  1  0  0  0  0
  3 21  1  0  0  0  0
  4  5  1  0  0  0  0
  4 22  1  0  0  0  0
  4 23  1  0  0  0  0
  5  6  1  0  0  0  0
  5  7  1  0  0  0  0
  5  8  1  0  0  0  0
  9 10  1  0  0  0  0
  9 24  1  0  0  0  0
 10 20  1  0  0  0  0
 10 11  2  0  0  0  0
 11 12  1  0  0  0  0
 11 25  1  0  0  0  0
 12 13  2  0  0  0  0
 12 26  1  0  0  0  0
 13 14  1  0  0  0  0
 13 19  1  0  0  0  0
 14 18  1  0  0  0  0
 14 15  1  0  0  0  0
 15 16  1  0  0  0  0
 15 27  1  0  0  0  0
 15 28  1  0  0  0  0
 16 17  1  0  0  0  0
 16 29  1  0  0  0  0
 16 30  1  0  0  0  0
 17 18  1  0  0  0  0
 17 31  1  0  0  0  0
 17 32  1  0  0  0  0
 18 33  1  0  0  0  0
 18 34  1  0  0  0  0
 19 20  2  0  0  0  0
 19 36  1  0  0  0  0
 20 35  1  0  0  0  0
M  CHG  1  19   1
M  END
> <s_m_source_file>
AV-unprocessed.smi

> <i_m_source_file_index>
1878

> <i_lp_mmshare_version>
43012

> <i_f3d_flags>
0

> <s_epik_input>
RkMoRikoRilbQ0gyXVtOSF1DKD1PKVtOSF1jMVtjSF1bY0hdYyhuW2NIXTEpTjJbQ0gyXVtDSDJdW0NIMl1bQ0gyXTI=

> <s_epik_cmdline>
J2VwaWtfcHl0aG9uJywgJy1waCcsICc3LjAnLCAnLXRuJywgJzgnLCAnLW1hJywgJzIwMCcsICctbWV0YWxfYmluZGluZycsICctaW1hZScsICc8aW5maWxlLm1hZT4nLCAnLW9tYWUnLCAnPG91dGZpbGUubWFlPic=

> <r_lp_tautomer_probability>
0.999994

> <r_epik_Ionization_Penalty>
1.23546

> <r_epik_Ionization_Penalty_Charging>
1.23541

> <r_epik_Ionization_Penalty_Neutral>
4.98032e-05

> <r_epik_State_Penalty>
1.30389

> <r_epik_Charging_Adjusted_Penalty>
2.5393

> <i_epik_Tot_Q>
1

> <i_epik_Tot_abs_Q>
1

> <r_epik_Metal_State_Penalty>
1.39467

> <b_epik_Metal_Only>
0

> <s_lp_Force_Field>
OPLS_2005

> <r_lp_Energy>
38.4411

> <b_lp_Chiralities_Consistent>
1

> <s_lp_Variant>
AV-unprocessed.smi:1878-2

> <Gold.Version>
5.8.1

> <Gold.Id.Protein>
6NUR|6NUR_protein|mol2

> <Gold.PLP.Fitness>
46.6275

> <Gold.PLP.PLP>
-39.8787

> <Gold.PLP.part.hbond>
-4.0000

> <Gold.PLP.part.metal>
0.0000

> <Gold.PLP.part.buried>
-1.3285

> <Gold.PLP.part.nonpolar>
-34.9018

> <Gold.PLP.part.repulsive>
0.4805

> <Gold.PLP.ligand.clash>
0.0000

> <Gold.PLP.ligand.torsion>
1.1170

> <Gold.PLP.Chemscore.Hbond>
2.9840

> <Gold.PLP.Chemscore.CHOScore>
0.0000

> <Gold.PLP.Chemscore.Metal>
0.0000

> <Gold.Chemscore.Hbonds>
donor molecule, donor type, donor heavy atom, donor atom, acceptor molecule, acceptor atom, score
      L1  H     3    21       P1  7948  1.00
      L1  H    19    36       P1  8028  1.92

> <Gold.PLP.Chemscore.Internal.Correction>
0.0309

> <Gold.Rescore>
     Score         DG    S(hbond)    S(metal)    S(lipo)     H(rot)  DE(clash)    DE(int)     intcor
     15.59     -18.42       1.92        0.00      85.10       1.34       0.59       2.25       ----

> <Gold.Chemscore.Fitness>
15.5882

> <Gold.Chemscore.DG>
-18.4246

> <Gold.Chemscore.ZeroCoef>
-5.4800

> <Gold.Chemscore.Hbond>
1.9241

> <Gold.Chemscore.Metal>
0.0000

> <Gold.Chemscore.Lipo>
85.0965

> <Gold.Chemscore.Internal_Hbond>
0.0000

> <Gold.Chemscore.DEClash>
0.5913

> <Gold.Chemscore.DEInternal>
2.2451

> <Gold.Chemscore.Rot>
1.3430

> <Gold.Chemscore.Internal.Correction>
   9.000000E+99

> <Gold.Chemscore.Hbonds>
donor molecule, donor type, donor heavy atom, donor atom, acceptor molecule, acceptor atom, score
      L1  H     3    21       P1  7948  0.97
      L1  H    19    36       P1  8028  0.91

> <Gold.Chemscore.Hbond.Weighted>
-6.4265

> <Gold.Chemscore.Metal.Weighted>
-0.0000

> <Gold.Chemscore.Lipo.Weighted>
-9.9563

> <Gold.Chemscore.Internal_Hbond.Weighted>
0.0000

> <Gold.Chemscore.DEClash.Weighted>
0.5913

> <Gold.Chemscore.DEInternal.Weighted>
2.2451

> <Gold.Chemscore.Rot.Weighted>
3.4381

> <Gold.Chemscore.Internal.Correction.Weighted>
   9.000000E+99

> <Gold.Protein.RotatedTorsions>
[ 6907 6896 6895 6894 ] final  109.25 input  -60.11 | X-H torsion
[ 7974 7965 7964 7962 ] final   30.99 input  175.53 | X-H torsion
[ 8008 7997 7996 7995 ] final   14.56 input   59.86 | X-H torsion
[ 10167 10162 10161 10158 ] final  -45.77 input  -65.29 | X-H torsion
[ 10718 10713 10712 10709 ] final  112.03 input   66.30 | X-H torsion
[ 10763 10752 10751 10750 ] final -152.69 input  -60.55 | X-H torsion
[ 11005 11000 10999 10996 ] final   36.07 input  -57.11 | X-H torsion

> <Gold.Protein.ActiveResidues>
 VAL166  LYS551  ARG553  GLY616  TRP617  ASP618  TYR619  PRO620  LYS621  CYS622 
 ASP623  PHE694  ASN695  SER759  ASP760  ASP761  ALA762  ILE779  LEU786  VAL792 
 PHE793  MET794  SER795  GLU796  ALA797  LYS798  CYS799  TRP800  GLU811  SER814 

> <Gold.Protein.RotatedAtoms>
  152.5076  133.8971  159.7422 H   0  0  0  0  0  0  0  0  0  0  0  0  # atno 6907 bound_to 6896
  150.9396  133.6663  159.2800 H   0  0  0  0  0  0  0  0  0  0  0  0  # atno 6908 bound_to 6896
  151.3979  135.0971  159.9599 H   0  0  0  0  0  0  0  0  0  0  0  0  # atno 6909 bound_to 6896
  146.1577  139.6715  142.9055 H   0  0  0  0  0  0  0  0  0  0  0  0  # atno 7974 bound_to 7965
  154.8502  140.2928  155.5603 H   0  0  0  0  0  0  0  0  0  0  0  0  # atno 8008 bound_to 7997
  156.3016  140.2497  156.3392 H   0  0  0  0  0  0  0  0  0  0  0  0  # atno 8009 bound_to 7997
  154.9029  140.0391  157.1892 H   0  0  0  0  0  0  0  0  0  0  0  0  # atno 8010 bound_to 7997
  140.6844  143.2863  151.3687 H   0  0  0  0  0  0  0  0  0  0  0  0  # atno 10167 bound_to 10162
  157.6414  131.0961  150.6835 H   0  0  0  0  0  0  0  0  0  0  0  0  # atno 10718 bound_to 10713
  154.7977  135.3230  154.7626 H   0  0  0  0  0  0  0  0  0  0  0  0  # atno 10763 bound_to 10752
  153.8301  135.6880  153.4820 H   0  0  0  0  0  0  0  0  0  0  0  0  # atno 10764 bound_to 10752
  153.1677  135.4635  154.9802 H   0  0  0  0  0  0  0  0  0  0  0  0  # atno 10765 bound_to 10752
  140.2363  134.3468  155.7943 H   0  0  0  0  0  0  0  0  0  0  0  0  # atno 11005 bound_to 11000
  145.4666  141.0435  143.2722 LP  0  0  0  0  0  0  0  0  0  0  0  0  # atno 17320 bound_to 7965
  144.7986  139.6186  143.7082 LP  0  0  0  0  0  0  0  0  0  0  0  0  # atno 17321 bound_to 7965
  139.6191  144.0942  152.2374 LP  0  0  0  0  0  0  0  0  0  0  0  0  # atno 17342 bound_to 10162
  140.0381  144.6029  150.7433 LP  0  0  0  0  0  0  0  0  0  0  0  0  # atno 17343 bound_to 10162
  156.7158  130.4666  149.5535 LP  0  0  0  0  0  0  0  0  0  0  0  0  # atno 17370 bound_to 10713
  156.1699  130.6430  151.0824 LP  0  0  0  0  0  0  0  0  0  0  0  0  # atno 17371 bound_to 10713
  141.2214  133.7273  156.8813 LP  0  0  0  0  0  0  0  0  0  0  0  0  # atno 17394 bound_to 11000
  140.1699  134.9107  157.2820 LP  0  0  0  0  0  0  0  0  0  0  0  0  # atno 17395 bound_to 11000

$$$$
