#       Name:                AV-unprocessed.smi:134
#       Creating user name   scv26
#       Creation time:       Thu Mar 26 18:30:59 2020


#       File generated by GOLD software.
#

@<TRIPOS>MOLECULE
AV-unprocessed.smi:134
    59    62     1
SMALL
NO_CHARGES


@<TRIPOS>ATOM
      1 ****        -1.1264   0.5593   0.0353 O.2            1 S1                 0.0000
      2 ****        -0.7355  -0.5481   0.4076 C.2            1 S1                 0.0000
      3 ****         0.6384  -0.7077   1.0776 C.3            1 S1                 0.0000
      4 ****         1.5391   0.4448   0.8542 N.am           1 S1                 0.0000
      5 ****         2.3398   0.4580  -0.3147 C.2            1 S1                 0.0000
      6 ****         2.3121  -0.4747  -1.1187 O.2            1 S1                 0.0000
      7 ****         3.1730   1.6407  -0.4936 C.2            1 S1                 0.0000
      8 ****         3.9537   1.7470  -1.5823 F              1 S1                 0.0000
      9 ****         3.1701   2.6355   0.4170 C.2            1 S1                 0.0000
     10 ****         2.4018   2.6028   1.5645 N.am           1 S1                 0.0000
     11 ****         2.4336   3.7932   2.4988 C.3            1 S1                 0.0000
     12 ****         2.8902   3.4505   3.9248 C.3            1 S1                 0.0000
     13 ****         2.0457   4.4058   4.7397 C.3            1 S1                 0.0000
     14 ****         0.7481   4.4427   3.9392 C.3            1 S1                 0.0000
     15 ****         1.1538   4.3515   2.5758 O.3            1 S1                 0.0000
     16 ****         1.5376   1.5057   1.7920 C.2            1 S1                 0.0000
     17 ****         0.7939   1.4730   2.7732 O.2            1 S1                 0.0000
     18 ****        -1.4387  -1.6850   0.2641 N.am           1 S1                 0.0000
     19 ****        -2.7106  -1.8482  -0.3492 C.ar           1 S1                 0.0000
     20 ****        -3.7330  -0.8775  -0.2181 C.ar           1 S1                 0.0000
     21 ****        -4.9895  -1.0790  -0.8204 C.ar           1 S1                 0.0000
     22 ****        -5.2415  -2.2549  -1.5505 C.ar           1 S1                 0.0000
     23 ****        -4.2379  -3.2335  -1.6725 C.ar           1 S1                 0.0000
     24 ****        -2.9783  -3.0370  -1.0715 C.ar           1 S1                 0.0000
     25 ****        -1.7452  -4.2914  -1.2580 S.3            1 S1                 0.0000
     26 ****        -0.9008  -3.6858  -2.6814 C.ar           1 S1                 0.0000
     27 ****        -1.4009  -3.9657  -3.9685 C.ar           1 S1                 0.0000
     28 ****        -0.7310  -3.4699  -5.1041 C.ar           1 S1                 0.0000
     29 ****         0.4376  -2.6971  -4.9524 C.ar           1 S1                 0.0000
     30 ****         1.2560  -2.0875  -6.3435 Cl             1 S1                 0.0000
     31 ****         0.9384  -2.4222  -3.6646 C.ar           1 S1                 0.0000
     32 ****         0.2704  -2.9180  -2.5284 C.ar           1 S1                 0.0000
     33 ****         0.4787  -0.8869   2.1418 H              1 S1                 0.0000
     34 ****         1.1017  -1.6303   0.7234 H              1 S1                 0.0000
     35 ****         3.8028   3.4915   0.2329 H              1 S1                 0.0000
     36 ****         3.0914   4.5265   2.0306 H              1 S1                 0.0000
     37 ****         2.6600   2.4185   4.1850 H              1 S1                 0.0000
     38 ****         3.9626   3.6089   4.0401 H              1 S1                 0.0000
     39 ****         1.9028   4.0805   5.7704 H              1 S1                 0.0000
     40 ****         2.5058   5.3947   4.7524 H              1 S1                 0.0000
     41 ****         0.1197   3.5875   4.1890 H              1 S1                 0.0000
     42 ****         0.1697   5.3484   4.1220 H              1 S1                 0.0000
     43 ****        -0.9619  -2.5394   0.5139 H              1 S1                 0.0000
     44 ****        -3.5724   0.0248   0.3528 H              1 S1                 0.0000
     45 ****        -5.7622  -0.3316  -0.7172 H              1 S1                 0.0000
     46 ****        -6.2058  -2.4089  -2.0120 H              1 S1                 0.0000
     47 ****        -4.4365  -4.1368  -2.2305 H              1 S1                 0.0000
     48 ****        -2.2989  -4.5542  -4.0872 H              1 S1                 0.0000
     49 ****        -1.1157  -3.6819  -6.0908 H              1 S1                 0.0000
     50 ****         1.8344  -1.8309  -3.5467 H              1 S1                 0.0000
     51 ****         0.6574  -2.7061  -1.5431 H              1 S1                 0.0000
     52 ****        -0.5481   1.3643   0.1681 LP             1 S1                 0.0000
     53 ****        -2.0219   0.6532  -0.3996 LP             1 S1                 0.0000
     54 ****         1.7167  -1.2607  -0.9524 LP             1 S1                 0.0000
     55 ****         2.8852  -0.4460  -1.9377 LP             1 S1                 0.0000
     56 ****         0.5090   3.7737   2.0755 LP             1 S1                 0.0000
     57 ****         1.1656   5.2658   2.1711 LP             1 S1                 0.0000
     58 ****         0.1844   0.6926   2.9128 LP             1 S1                 0.0000
     59 ****         0.7997   2.2268   3.4303 LP             1 S1                 0.0000
@<TRIPOS>BOND
    1    1    2 2     
    2    2    3 1     
    3    2   18 am    
    4    3    4 1     
    5    3   33 1     
    6    3   34 1     
    7    4   16 am    
    8    4    5 am    
    9    5    6 2     
   10    5    7 1     
   11    7    8 1     
   12    7    9 2     
   13    9   10 1     
   14    9   35 1     
   15   10   11 1     
   16   10   16 am    
   17   11   15 1     
   18   11   12 1     
   19   11   36 1     
   20   12   13 1     
   21   12   37 1     
   22   12   38 1     
   23   13   14 1     
   24   13   39 1     
   25   13   40 1     
   26   14   15 1     
   27   14   41 1     
   28   14   42 1     
   29   16   17 2     
   30   18   19 1     
   31   18   43 1     
   32   19   24 ar    
   33   19   20 ar    
   34   20   21 ar    
   35   20   44 1     
   36   21   22 ar    
   37   21   45 1     
   38   22   23 ar    
   39   22   46 1     
   40   23   24 ar    
   41   23   47 1     
   42   24   25 1     
   43   25   26 1     
   44   26   32 ar    
   45   26   27 ar    
   46   27   28 ar    
   47   27   48 1     
   48   28   29 ar    
   49   28   49 1     
   50   29   30 1     
   51   29   31 ar    
   52   31   32 ar    
   53   31   50 1     
   54   32   51 1     
   55    1   52 1     
   56    1   53 1     
   57    6   54 1     
   58    6   55 1     
   59   15   56 1     
   60   15   57 1     
   61   17   58 1     
   62   17   59 1     
@<TRIPOS>SUBSTRUCTURE
      1 S1             1
@<TRIPOS>SET
LONE_PAIRS      STATIC     ATOMS    <user>   **** ""
8 52 53 54 55 56 57 58 59
DONOR_HYDROGENS      STATIC     ATOMS    <user>   **** ""
1 43
ATOM$BLUE        STATIC     ATOMS    COLORGROUP SYSTEM
8 52 53 54 55 56 57 58 59
ATOM$RED        STATIC     ATOMS    COLORGROUP SYSTEM
1 43
