#       Name:                AV-unprocessed.smi:1105
#       Creating user name   scv26
#       Creation time:       Fri Mar 27 03:31:40 2020


#       File generated by GOLD software.
#

@<TRIPOS>MOLECULE
AV-unprocessed.smi:1105
    39    40     1
SMALL
NO_CHARGES


@<TRIPOS>ATOM
      1 ****        -6.2866   1.6986   0.1091 C.3            1 S1                 0.0000
      2 ****        -5.1556   0.7842   0.1462 N.am           1 S1                 0.0000
      3 ****        -3.8736   1.1716   0.1358 C.2            1 S1                 0.0000
      4 ****        -3.5229   2.3508   0.0967 O.2            1 S1                 0.0000
      5 ****        -3.0460   0.1128   0.1536 N.am           1 S1                 0.0000
      6 ****        -1.6252   0.1006   0.1407 C.ar           1 S1                 0.0000
      7 ****        -0.8142   1.1821   0.5599 C.ar           1 S1                 0.0000
      8 ****         0.5860   1.0403   0.5124 C.ar           1 S1                 0.0000
      9 ****         1.1322  -0.1772   0.0575 C.ar           1 S1                 0.0000
     10 ****         2.5259  -0.3211   0.0073 N.3            1 S1                 0.0000
     11 ****         3.0448  -0.4703  -1.3469 C.3            1 S1                 0.0000
     12 ****         4.5826  -0.4972  -1.3206 C.3            1 S1                 0.0000
     13 ****         5.0272  -1.5359  -0.4523 O.3            1 S1                 0.0000
     14 ****         4.5765  -1.3458   0.8861 C.3            1 S1                 0.0000
     15 ****         3.0382  -1.3386   0.9167 C.3            1 S1                 0.0000
     16 ****         0.3623  -1.2211  -0.3310 N.ar           1 S1                 0.0000
     17 ****        -0.9788  -1.0788  -0.2830 C.ar           1 S1                 0.0000
     18 ****        -7.2199   1.1359   0.1178 H              1 S1                 0.0000
     19 ****        -6.2639   2.3073  -0.7956 H              1 S1                 0.0000
     20 ****        -6.2791   2.3611   0.9757 H              1 S1                 0.0000
     21 ****        -5.3616  -0.2036   0.1770 H              1 S1                 0.0000
     22 ****        -3.4861  -0.7945   0.1048 H              1 S1                 0.0000
     23 ****        -1.2328   2.1062   0.9268 H              1 S1                 0.0000
     24 ****         1.2266   1.8521   0.8246 H              1 S1                 0.0000
     25 ****         2.6665  -1.3932  -1.7891 H              1 S1                 0.0000
     26 ****         2.6946   0.3537  -1.9701 H              1 S1                 0.0000
     27 ****         4.9728  -0.6794  -2.3220 H              1 S1                 0.0000
     28 ****         4.9834   0.4631  -0.9916 H              1 S1                 0.0000
     29 ****         4.9608  -2.1536   1.5088 H              1 S1                 0.0000
     30 ****         4.9782  -0.4142   1.2878 H              1 S1                 0.0000
     31 ****         2.6842  -1.1407   1.9291 H              1 S1                 0.0000
     32 ****         2.6583  -2.3195   0.6273 H              1 S1                 0.0000
     33 ****        -1.5547  -1.9361  -0.5997 H              1 S1                 0.0000
     34 ****        -4.2106   3.0764   0.0708 LP             1 S1                 0.0000
     35 ****        -2.5503   2.5833   0.0909 LP             1 S1                 0.0000
     36 ****         2.8838   0.5501   0.3434 LP             1 S1                 0.0000
     37 ****         6.0270  -1.5536  -0.4563 LP             1 S1                 0.0000
     38 ****         4.6770  -2.4098  -0.7893 LP             1 S1                 0.0000
     39 ****         0.7767  -2.0752  -0.6453 LP             1 S1                 0.0000
@<TRIPOS>BOND
    1    1    2 1     
    2    1   18 1     
    3    1   19 1     
    4    1   20 1     
    5    2    3 am    
    6    2   21 1     
    7    3    4 2     
    8    3    5 am    
    9    5    6 1     
   10    5   22 1     
   11    6   17 ar    
   12    6    7 ar    
   13    7    8 ar    
   14    7   23 1     
   15    8    9 ar    
   16    8   24 1     
   17    9   10 1     
   18    9   16 ar    
   19   10   15 1     
   20   10   11 1     
   21   11   12 1     
   22   11   25 1     
   23   11   26 1     
   24   12   13 1     
   25   12   27 1     
   26   12   28 1     
   27   13   14 1     
   28   14   15 1     
   29   14   29 1     
   30   14   30 1     
   31   15   31 1     
   32   15   32 1     
   33   16   17 ar    
   34   17   33 1     
   35    4   34 1     
   36    4   35 1     
   37   10   36 1     
   38   13   37 1     
   39   13   38 1     
   40   16   39 1     
@<TRIPOS>SUBSTRUCTURE
      1 S1             1
@<TRIPOS>SET
LONE_PAIRS      STATIC     ATOMS    <user>   **** ""
6 34 35 36 37 38 39
DONOR_HYDROGENS      STATIC     ATOMS    <user>   **** ""
2 21 22
ATOM$BLUE        STATIC     ATOMS    COLORGROUP SYSTEM
6 34 35 36 37 38 39
ATOM$RED        STATIC     ATOMS    COLORGROUP SYSTEM
2 21 22
