AV-unprocessed.smi:1041|AV-procd|sdf|4534|dock6
  -GOLD-   22720 2563D 1   1.00000     0.00000
 Structure written by MMmdl.
 52 53  0  0  0  0  0  0  0  0  3 V2000
  148.8341  133.3722  153.7647 C   0  0  0  0  0  0  0  0  0  0  0  0
  149.1089  133.9002  155.0506 O   0  0  0  0  0  0  0  0  0  0  0  0
  149.5744  135.2385  154.9997 C   0  0  0  0  0  0  0  0  0  0  0  0
  148.3720  136.1893  155.1115 C   0  0  0  0  0  0  0  0  0  0  0  0
  148.6170  137.4987  154.4548 N   0  3  2  0  0  0  0  0  0  0  0  0
  149.6306  138.3329  155.1544 C   0  0  0  0  0  0  0  0  0  0  0  0
  149.9341  139.6217  154.3679 C   0  0  0  0  0  0  0  0  0  0  0  0
  148.6643  140.4420  154.0774 C   0  0  2  0  0  0  0  0  0  0  0  0
  148.1391  141.1731  155.3364 C   0  0  0  0  0  0  0  0  0  0  0  0
  149.1631  142.0006  155.9604 N   0  0  0  0  0  0  0  0  0  0  0  0
  149.9444  141.6364  156.9898 C   0  0  0  0  0  0  0  0  0  0  0  0
  149.8160  140.5665  157.5839 O   0  0  0  0  0  0  0  0  0  0  0  0
  151.0614  142.6025  157.4022 C   0  0  0  0  0  0  0  0  0  0  0  0
  151.9092  142.2040  158.6126 C   0  0  0  0  0  0  0  0  0  0  0  0
  152.0465  142.9848  159.7219 C   0  0  0  0  0  0  0  0  0  0  0  0
  151.3571  144.3289  159.8755 C   0  0  0  0  0  0  0  0  0  0  0  0
  152.8542  142.5814  160.7985 N   0  0  0  0  0  0  0  0  0  0  0  0
  153.4805  141.4687  160.7335 C   0  0  0  0  0  0  0  0  0  0  0  0
  154.3475  141.0415  161.8985 C   0  0  0  0  0  0  0  0  0  0  0  0
  153.4244  140.6173  159.6523 N   0  5  0  0  0  0  0  0  0  0  0  0
  152.6536  140.9326  158.5732 C   0  0  0  0  0  0  0  0  0  0  0  0
  152.5832  140.2041  157.5840 O   0  0  0  0  0  0  0  0  0  0  0  0
  147.6234  139.5257  153.3998 C   0  0  0  0  0  0  0  0  0  0  0  0
  147.3582  138.2504  154.2167 C   0  0  0  0  0  0  0  0  0  0  0  0
  148.4887  132.3427  153.8565 H   0  0  0  0  0  0  0  0  0  0  0  0
  149.7268  133.3734  153.1381 H   0  0  0  0  0  0  0  0  0  0  0  0
  148.0531  133.9458  153.2636 H   0  0  0  0  0  0  0  0  0  0  0  0
  150.2537  135.4163  155.8348 H   0  0  0  0  0  0  0  0  0  0  0  0
  150.1432  135.4156  154.0868 H   0  0  0  0  0  0  0  0  0  0  0  0
  147.5137  135.7009  154.6479 H   0  0  0  0  0  0  0  0  0  0  0  0
  148.1061  136.3481  156.1576 H   0  0  0  0  0  0  0  0  0  0  0  0
  149.2798  138.5704  156.1594 H   0  0  0  0  0  0  0  0  0  0  0  0
  150.5595  137.7777  155.2747 H   0  0  0  0  0  0  0  0  0  0  0  0
  150.6605  140.2291  154.9087 H   0  0  0  0  0  0  0  0  0  0  0  0
  150.4095  139.3543  153.4231 H   0  0  0  0  0  0  0  0  0  0  0  0
  148.9373  141.2124  153.3551 H   0  0  0  0  0  0  0  0  0  0  0  0
  147.3025  141.8245  155.0862 H   0  0  0  0  0  0  0  0  0  0  0  0
  147.7572  140.4536  156.0626 H   0  0  0  0  0  0  0  0  0  0  0  0
  149.3376  142.9024  155.5397 H   0  0  0  0  0  0  0  0  0  0  0  0
  151.7131  142.7377  156.5393 H   0  0  0  0  0  0  0  0  0  0  0  0
  150.6201  143.5856  157.5693 H   0  0  0  0  0  0  0  0  0  0  0  0
  150.2761  144.1982  159.9300 H   0  0  0  0  0  0  0  0  0  0  0  0
  151.5874  144.9779  159.0303 H   0  0  0  0  0  0  0  0  0  0  0  0
  151.6805  144.8370  160.7849 H   0  0  0  0  0  0  0  0  0  0  0  0
  154.2385  139.9730  162.0881 H   0  0  0  0  0  0  0  0  0  0  0  0
  154.0701  141.5758  162.8082 H   0  0  0  0  0  0  0  0  0  0  0  0
  155.3957  141.2500  161.6826 H   0  0  0  0  0  0  0  0  0  0  0  0
  146.6881  140.0566  153.2208 H   0  0  0  0  0  0  0  0  0  0  0  0
  147.9912  139.2407  152.4131 H   0  0  0  0  0  0  0  0  0  0  0  0
  146.6541  137.6225  153.6691 H   0  0  0  0  0  0  0  0  0  0  0  0
  146.8855  138.4948  155.1691 H   0  0  0  0  0  0  0  0  0  0  0  0
  148.9903  137.2886  153.5400 H   0  0  0  0  0  0  0  0  0  0  0  0
  1  2  1  0  0  0  0
  1 25  1  0  0  0  0
  1 26  1  0  0  0  0
  1 27  1  0  0  0  0
  2  3  1  0  0  0  0
  3  4  1  0  0  0  0
  3 28  1  0  0  0  0
  3 29  1  0  0  0  0
  4  5  1  0  0  0  0
  4 30  1  0  0  0  0
  4 31  1  0  0  0  0
  5 24  1  0  0  0  0
  5  6  1  0  0  0  0
  5 52  1  0  0  0  0
  6  7  1  0  0  0  0
  6 32  1  0  0  0  0
  6 33  1  0  0  0  0
  7  8  1  0  0  0  0
  7 34  1  0  0  0  0
  7 35  1  0  0  0  0
  8  9  1  0  0  0  0
  8 23  1  0  0  0  0
  8 36  1  0  0  0  0
  9 10  1  0  0  0  0
  9 37  1  0  0  0  0
  9 38  1  0  0  0  0
 10 11  1  0  0  0  0
 10 39  1  0  0  0  0
 11 12  2  0  0  0  0
 11 13  1  0  0  0  0
 13 14  1  0  0  0  0
 13 40  1  0  0  0  0
 13 41  1  0  0  0  0
 14 21  1  0  0  0  0
 14 15  2  0  0  0  0
 15 16  1  0  0  0  0
 15 17  1  0  0  0  0
 16 42  1  0  0  0  0
 16 43  1  0  0  0  0
 16 44  1  0  0  0  0
 17 18  2  0  0  0  0
 18 19  1  0  0  0  0
 18 20  1  0  0  0  0
 19 45  1  0  0  0  0
 19 46  1  0  0  0  0
 19 47  1  0  0  0  0
 20 21  1  0  0  0  0
 21 22  2  0  0  0  0
 23 24  1  0  0  0  0
 23 48  1  0  0  0  0
 23 49  1  0  0  0  0
 24 50  1  0  0  0  0
 24 51  1  0  0  0  0
M  CHG  1   5   1
M  CHG  1  20  -1
M  END
> <s_m_source_file>
AV-unprocessed.smi

> <i_m_source_file_index>
1041

> <i_lp_mmshare_version>
43012

> <i_f3d_flags>
0

> <s_epik_input>
W0NIM11PW0NIMl1bQ0gyXU4xW0NIMl1bQ0gyXVtDSF0oW0NIMl1bQ0gyXTEpW0NIMl1bTkhdQyg9TylbQ0gyXWMyYyhbQ0gzXSluYyhbQ0gzXSlbbkhdYzI9Tw==

> <s_epik_cmdline>
J2VwaWtfcHl0aG9uJywgJy1waCcsICc3LjAnLCAnLXRuJywgJzgnLCAnLW1hJywgJzIwMCcsICctbWV0YWxfYmluZGluZycsICctaW1hZScsICc8aW5maWxlLm1hZT4nLCAnLW9tYWUnLCAnPG91dGZpbGUubWFlPic=

> <r_lp_tautomer_probability>
0.839158

> <r_epik_Ionization_Penalty>
6.54961

> <r_epik_Ionization_Penalty_Charging>
0.00968647

> <r_epik_Ionization_Penalty_Neutral>
6.53992

> <r_epik_State_Penalty>
4.43892

> <r_epik_Charging_Adjusted_Penalty>
4.44861

> <i_epik_Tot_Q>
0

> <i_epik_Tot_abs_Q>
2

> <r_epik_Metal_State_Penalty>
0.818645

> <b_epik_Metal_Only>
1

> <s_lp_Force_Field>
OPLS_2005

> <r_lp_Energy>
22.1122

> <b_lp_Chiralities_Consistent>
1

> <s_lp_Variant>
AV-unprocessed.smi:1041-7

> <Gold.Version>
5.8.1

> <Gold.Id.Protein>
6NUR|6NUR_protein|mol2

> <Gold.PLP.Fitness>
50.6364

> <Gold.PLP.PLP>
-40.1811

> <Gold.PLP.part.hbond>
-3.0000

> <Gold.PLP.part.metal>
0.0000

> <Gold.PLP.part.buried>
-2.5146

> <Gold.PLP.part.nonpolar>
-34.6851

> <Gold.PLP.part.repulsive>
0.2020

> <Gold.PLP.ligand.clash>
0.0000

> <Gold.PLP.ligand.torsion>
0.6406

> <Gold.PLP.Chemscore.Hbond>
3.8800

> <Gold.PLP.Chemscore.CHOScore>
0.0000

> <Gold.PLP.Chemscore.Metal>
0.0000

> <Gold.Chemscore.Hbonds>
donor molecule, donor type, donor heavy atom, donor atom, acceptor molecule, acceptor atom, score
      L1  H     5    52       P1  7948  2.00
      L1  H    10    39       P1  8028  0.86
      P1  H  7997  8008       L1    22  1.00

> <Gold.PLP.Chemscore.Internal.Correction>
0.0964

> <Gold.Rescore>
     Score         DG    S(hbond)    S(metal)    S(lipo)     H(rot)  DE(clash)    DE(int)     intcor
     18.36     -18.94       2.77        0.00      87.38       2.35       0.03       0.55       ----

> <Gold.Chemscore.Fitness>
18.3599

> <Gold.Chemscore.DG>
-18.9379

> <Gold.Chemscore.ZeroCoef>
-5.4800

> <Gold.Chemscore.Hbond>
2.7710

> <Gold.Chemscore.Metal>
0.0000

> <Gold.Chemscore.Lipo>
87.3830

> <Gold.Chemscore.Internal_Hbond>
0.0000

> <Gold.Chemscore.DEClash>
0.0293

> <Gold.Chemscore.DEInternal>
0.5487

> <Gold.Chemscore.Rot>
2.3520

> <Gold.Chemscore.Internal.Correction>
   9.000000E+99

> <Gold.Chemscore.Hbonds>
donor molecule, donor type, donor heavy atom, donor atom, acceptor molecule, acceptor atom, score
      L1  H     5    52       P1  7948  0.95
      L1  H    10    39       P1  8028  0.85
      P1  H  7997  8008       L1    22  0.59

> <Gold.Chemscore.Hbond.Weighted>
-9.2551

> <Gold.Chemscore.Metal.Weighted>
-0.0000

> <Gold.Chemscore.Lipo.Weighted>
-10.2238

> <Gold.Chemscore.Internal_Hbond.Weighted>
0.0000

> <Gold.Chemscore.DEClash.Weighted>
0.0293

> <Gold.Chemscore.DEInternal.Weighted>
0.5487

> <Gold.Chemscore.Rot.Weighted>
6.0211

> <Gold.Chemscore.Internal.Correction.Weighted>
   9.000000E+99

> <Gold.Protein.RotatedTorsions>
[ 6907 6896 6895 6894 ] final  -40.28 input  -60.11 | X-H torsion
[ 7974 7965 7964 7962 ] final -177.92 input  175.53 | X-H torsion
[ 8008 7997 7996 7995 ] final  -67.27 input   59.86 | X-H torsion
[ 10167 10162 10161 10158 ] final  135.05 input  -65.29 | X-H torsion
[ 10718 10713 10712 10709 ] final   96.00 input   66.30 | X-H torsion
[ 10763 10752 10751 10750 ] final -106.57 input  -60.55 | X-H torsion
[ 11005 11000 10999 10996 ] final -143.06 input  -57.11 | X-H torsion

> <Gold.Protein.ActiveResidues>
 VAL166  LYS551  ARG553  GLY616  TRP617  ASP618  TYR619  PRO620  LYS621  CYS622 
 ASP623  PHE694  ASN695  SER759  ASP760  ASP761  ALA762  ILE779  LEU786  VAL792 
 PHE793  MET794  SER795  GLU796  ALA797  LYS798  CYS799  TRP800  GLU811  SER814 

> <Gold.Protein.RotatedAtoms>
  150.9803  134.9160  159.7840 H   0  0  0  0  0  0  0  0  0  0  0  0  # atno 6907 bound_to 6896
  152.5220  134.3419  159.9230 H   0  0  0  0  0  0  0  0  0  0  0  0  # atno 6908 bound_to 6896
  151.3426  133.3915  159.2707 H   0  0  0  0  0  0  0  0  0  0  0  0  # atno 6909 bound_to 6896
  144.7129  140.0947  143.6419 H   0  0  0  0  0  0  0  0  0  0  0  0  # atno 7974 bound_to 7965
  154.4789  140.0896  156.7329 H   0  0  0  0  0  0  0  0  0  0  0  0  # atno 8008 bound_to 7997
  155.4523  140.3458  155.4284 H   0  0  0  0  0  0  0  0  0  0  0  0  # atno 8009 bound_to 7997
  156.1160  140.1461  156.9260 H   0  0  0  0  0  0  0  0  0  0  0  0  # atno 8010 bound_to 7997
  139.5232  144.6537  151.5227 H   0  0  0  0  0  0  0  0  0  0  0  0  # atno 10167 bound_to 10162
  157.6932  131.0564  150.4424 H   0  0  0  0  0  0  0  0  0  0  0  0  # atno 10718 bound_to 10713
  154.8021  135.4707  154.0300 H   0  0  0  0  0  0  0  0  0  0  0  0  # atno 10763 bound_to 10752
  153.1798  135.6838  153.8500 H   0  0  0  0  0  0  0  0  0  0  0  0  # atno 10764 bound_to 10752
  153.8054  135.3224  155.3372 H   0  0  0  0  0  0  0  0  0  0  0  0  # atno 10765 bound_to 10752
  140.8163  134.2684  157.4919 H   0  0  0  0  0  0  0  0  0  0  0  0  # atno 11005 bound_to 11000
  145.9590  139.2787  143.1167 LP  0  0  0  0  0  0  0  0  0  0  0  0  # atno 17320 bound_to 7965
  145.9241  140.9094  143.0390 LP  0  0  0  0  0  0  0  0  0  0  0  0  # atno 17321 bound_to 7965
  140.6353  143.8997  150.6641 LP  0  0  0  0  0  0  0  0  0  0  0  0  # atno 17342 bound_to 10162
  140.2314  143.3733  152.1562 LP  0  0  0  0  0  0  0  0  0  0  0  0  # atno 17343 bound_to 10162
  156.4782  130.4068  149.6477 LP  0  0  0  0  0  0  0  0  0  0  0  0  # atno 17370 bound_to 10713
  156.3533  130.7443  151.2405 LP  0  0  0  0  0  0  0  0  0  0  0  0  # atno 17371 bound_to 10713
  139.8711  134.9511  156.4075 LP  0  0  0  0  0  0  0  0  0  0  0  0  # atno 17394 bound_to 11000
  140.9145  133.7688  155.9831 LP  0  0  0  0  0  0  0  0  0  0  0  0  # atno 17395 bound_to 11000

$$$$
