AV-unprocessed.smi:2492|AV-procd|sdf|9818|dock1
  -GOLD-   2272013443D 1   1.00000     0.00000
 Structure written by MMmdl.
 32 33  0  0  0  0  0  0  0  0  2 V2000
  151.5906  145.0627  160.3690 C   0  0  0  0  0  0  0  0  0  0  0  0
  152.9622  143.9078  160.1049 S   0  0  0  0  0  0  0  0  0  0  0  0
  152.0513  142.4696  159.4726 C   0  0  1  0  0  0  0  0  0  0  0  0
  151.4410  142.7210  158.0961 C   0  0  0  0  0  0  0  0  0  0  0  0
  151.1741  141.3219  157.5373 C   0  0  0  0  0  0  0  0  0  0  0  0
  152.2223  140.3945  158.1824 C   0  0  2  0  0  0  0  0  0  0  0  0
  151.5827  139.2166  158.7653 N   0  0  0  0  0  0  0  0  0  0  0  0
  151.8438  137.9403  158.4477 C   0  0  0  0  0  0  0  0  0  0  0  0
  152.6995  137.6806  157.5983 O   0  0  0  0  0  0  0  0  0  0  0  0
  151.0983  137.0453  159.1347 N   0  5  0  0  0  0  0  0  0  0  0  0
  149.7671  137.2038  159.2161 C   0  0  0  0  0  0  0  0  0  0  0  0
  148.9816  137.7306  158.2756 N   0  0  0  0  0  0  0  0  0  0  0  0
  147.7577  137.6637  158.8643 C   0  0  0  0  0  0  0  0  0  0  0  0
  146.5117  138.1388  158.1986 C   0  0  0  0  0  0  0  0  0  0  0  0
  147.7318  137.1527  160.0863 N   0  0  0  0  0  0  0  0  0  0  0  0
  149.0776  136.8446  160.3303 O   0  0  0  0  0  0  0  0  0  0  0  0
  152.9362  141.2396  159.2556 C   0  0  0  0  0  0  0  0  0  0  0  0
  151.9708  146.0213  160.7220 H   0  0  0  0  0  0  0  0  0  0  0  0
  150.8979  144.6725  161.1144 H   0  0  0  0  0  0  0  0  0  0  0  0
  151.0464  145.2274  159.4391 H   0  0  0  0  0  0  0  0  0  0  0  0
  151.2518  142.2204  160.1719 H   0  0  0  0  0  0  0  0  0  0  0  0
  150.5389  143.3319  158.1420 H   0  0  0  0  0  0  0  0  0  0  0  0
  152.1600  143.2361  157.4574 H   0  0  0  0  0  0  0  0  0  0  0  0
  150.1640  141.0145  157.8135 H   0  0  0  0  0  0  0  0  0  0  0  0
  151.2272  141.3048  156.4482 H   0  0  0  0  0  0  0  0  0  0  0  0
  152.9431  140.0789  157.4257 H   0  0  0  0  0  0  0  0  0  0  0  0
  150.8762  139.3824  159.4670 H   0  0  0  0  0  0  0  0  0  0  0  0
  146.2147  139.1059  158.6048 H   0  0  0  0  0  0  0  0  0  0  0  0
  145.6994  137.4290  158.3578 H   0  0  0  0  0  0  0  0  0  0  0  0
  146.6674  138.2472  157.1248 H   0  0  0  0  0  0  0  0  0  0  0  0
  153.9090  141.5497  158.8714 H   0  0  0  0  0  0  0  0  0  0  0  0
  153.1188  140.6956  160.1832 H   0  0  0  0  0  0  0  0  0  0  0  0
  1  2  1  0  0  0  0
  1 18  1  0  0  0  0
  1 19  1  0  0  0  0
  1 20  1  0  0  0  0
  2  3  1  0  0  0  0
  3 17  1  0  0  0  0
  3  4  1  0  0  0  0
  3 21  1  0  0  0  0
  4  5  1  0  0  0  0
  4 22  1  0  0  0  0
  4 23  1  0  0  0  0
  5  6  1  0  0  0  0
  5 24  1  0  0  0  0
  5 25  1  0  0  0  0
  6  7  1  0  0  0  0
  6 17  1  0  0  0  0
  6 26  1  0  0  0  0
  7  8  1  0  0  0  0
  7 27  1  0  0  0  0
  8  9  2  0  0  0  0
  8 10  1  0  0  0  0
 10 11  1  0  0  0  0
 11 16  1  0  0  0  0
 11 12  2  0  0  0  0
 12 13  1  0  0  0  0
 13 14  1  0  0  0  0
 13 15  2  0  0  0  0
 14 28  1  0  0  0  0
 14 29  1  0  0  0  0
 14 30  1  0  0  0  0
 15 16  1  0  0  0  0
 17 31  1  0  0  0  0
 17 32  1  0  0  0  0
M  CHG  1  10  -1
M  END
> <s_m_source_file>
AV-unprocessed.smi

> <i_m_source_file_index>
2492

> <i_lp_mmshare_version>
43012

> <i_f3d_flags>
0

> <s_epik_input>
W0NIM11TW0NAQEhdMVtDSDJdW0NIMl1bQ0BIXShbQ0gyXTEpW05IXUMoPU8pW05IXWMybmMoW0NIM10pbm8y

> <s_epik_cmdline>
J2VwaWtfcHl0aG9uJywgJy1waCcsICc3LjAnLCAnLXRuJywgJzgnLCAnLW1hJywgJzIwMCcsICctbWV0YWxfYmluZGluZycsICctaW1hZScsICc8aW5maWxlLm1hZT4nLCAnLW9tYWUnLCAnPG91dGZpbGUubWFlPic=

> <r_lp_tautomer_probability>
1

> <r_epik_Ionization_Penalty>
6.26454

> <r_epik_Ionization_Penalty_Charging>
6.26445

> <r_epik_Ionization_Penalty_Neutral>
9.05726e-05

> <r_epik_State_Penalty>
6.26444

> <r_epik_Charging_Adjusted_Penalty>
12.5289

> <i_epik_Tot_Q>
-1

> <i_epik_Tot_abs_Q>
1

> <r_epik_Metal_State_Penalty>
2.20125

> <b_epik_Metal_Only>
1

> <s_lp_Force_Field>
OPLS_2005

> <r_lp_Energy>
10.5143

> <b_lp_Chiralities_Consistent>
1

> <s_lp_Variant>
AV-unprocessed.smi:2492-8

> <Gold.Version>
5.8.1

> <Gold.Id.Protein>
6NUR|6NUR_protein|mol2

> <Gold.PLP.Fitness>
36.3433

> <Gold.PLP.PLP>
-26.5200

> <Gold.PLP.part.hbond>
-3.2443

> <Gold.PLP.part.metal>
0.0000

> <Gold.PLP.part.buried>
-4.0609

> <Gold.PLP.part.nonpolar>
-20.1841

> <Gold.PLP.part.repulsive>
0.1494

> <Gold.PLP.ligand.clash>
0.0763

> <Gold.PLP.ligand.torsion>
0.6790

> <Gold.PLP.Chemscore.Hbond>
3.7440

> <Gold.PLP.Chemscore.CHOScore>
0.0000

> <Gold.PLP.Chemscore.Metal>
0.0000

> <Gold.Chemscore.Hbonds>
donor molecule, donor type, donor heavy atom, donor atom, acceptor molecule, acceptor atom, score
      P1  H  6896  6908       L1    10  1.61
      P1  H  6931  6943       L1    16  0.26
      P1  H  6934  6947       L1    15  0.37

> <Gold.PLP.Chemscore.Internal.Correction>
0.0255

> <Gold.Rescore>
     Score         DG    S(hbond)    S(metal)    S(lipo)     H(rot)  DE(clash)    DE(int)     intcor
     13.84     -14.70       1.51        0.00      63.50       1.27       0.02       0.84       ----

> <Gold.Chemscore.Fitness>
13.8424

> <Gold.Chemscore.DG>
-14.6981

> <Gold.Chemscore.ZeroCoef>
-5.4800

> <Gold.Chemscore.Hbond>
1.5097

> <Gold.Chemscore.Metal>
0.0000

> <Gold.Chemscore.Lipo>
63.5019

> <Gold.Chemscore.Internal_Hbond>
0.0000

> <Gold.Chemscore.DEClash>
0.0202

> <Gold.Chemscore.DEInternal>
0.8354

> <Gold.Chemscore.Rot>
1.2712

> <Gold.Chemscore.Internal.Correction>
   9.000000E+99

> <Gold.Chemscore.Hbonds>
donor molecule, donor type, donor heavy atom, donor atom, acceptor molecule, acceptor atom, score
      P1  H  6896  6908       L1    10  0.15
      P1  H  6931  6943       L1    16  0.01
      P1  H  6934  6947       L1    15  0.02

> <Gold.Chemscore.Hbond.Weighted>
-5.0425

> <Gold.Chemscore.Metal.Weighted>
-0.0000

> <Gold.Chemscore.Lipo.Weighted>
-7.4297

> <Gold.Chemscore.Internal_Hbond.Weighted>
0.0000

> <Gold.Chemscore.DEClash.Weighted>
0.0202

> <Gold.Chemscore.DEInternal.Weighted>
0.8354

> <Gold.Chemscore.Rot.Weighted>
3.2542

> <Gold.Chemscore.Internal.Correction.Weighted>
   9.000000E+99

> <Gold.Protein.RotatedTorsions>
[ 6907 6896 6895 6894 ] final -143.56 input  -60.11 | X-H torsion
[ 7974 7965 7964 7962 ] final  117.91 input  175.53 | X-H torsion
[ 8008 7997 7996 7995 ] final  -76.01 input   59.86 | X-H torsion
[ 10167 10162 10161 10158 ] final  -40.93 input  -65.29 | X-H torsion
[ 10718 10713 10712 10709 ] final  136.67 input   66.30 | X-H torsion
[ 10763 10752 10751 10750 ] final   55.23 input  -60.55 | X-H torsion
[ 11005 11000 10999 10996 ] final  167.06 input  -57.11 | X-H torsion

> <Gold.Protein.ActiveResidues>
 VAL166  LYS551  ARG553  GLY616  TRP617  ASP618  TYR619  PRO620  LYS621  CYS622 
 ASP623  PHE694  ASN695  SER759  ASP760  ASP761  ALA762  ILE779  LEU786  VAL792 
 PHE793  MET794  SER795  GLU796  ALA797  LYS798  CYS799  TRP800  GLU811  SER814 

> <Gold.Protein.RotatedAtoms>
  151.1021  133.5236  159.2609 H   0  0  0  0  0  0  0  0  0  0  0  0  # atno 6907 bound_to 6896
  151.2063  135.0462  159.8902 H   0  0  0  0  0  0  0  0  0  0  0  0  # atno 6908 bound_to 6896
  152.5444  134.0842  159.8302 H   0  0  0  0  0  0  0  0  0  0  0  0  # atno 6909 bound_to 6896
  145.1616  139.3152  143.4514 H   0  0  0  0  0  0  0  0  0  0  0  0  # atno 7974 bound_to 7965
  154.5467  140.0734  156.8600 H   0  0  0  0  0  0  0  0  0  0  0  0  # atno 8008 bound_to 7997
  155.3073  140.3388  155.4227 H   0  0  0  0  0  0  0  0  0  0  0  0  # atno 8009 bound_to 7997
  156.1924  140.1691  156.8051 H   0  0  0  0  0  0  0  0  0  0  0  0  # atno 8010 bound_to 7997
  140.7019  143.3124  151.2995 H   0  0  0  0  0  0  0  0  0  0  0  0  # atno 10167 bound_to 10162
  157.4442  131.1060  151.0108 H   0  0  0  0  0  0  0  0  0  0  0  0  # atno 10718 bound_to 10713
  152.9814  135.5718  154.5033 H   0  0  0  0  0  0  0  0  0  0  0  0  # atno 10763 bound_to 10752
  154.4549  135.2779  155.1757 H   0  0  0  0  0  0  0  0  0  0  0  0  # atno 10764 bound_to 10752
  154.3369  135.6237  153.5631 H   0  0  0  0  0  0  0  0  0  0  0  0  # atno 10765 bound_to 10752
  140.2728  134.7813  157.3691 H   0  0  0  0  0  0  0  0  0  0  0  0  # atno 11005 bound_to 11000
  146.3481  140.1728  142.8589 LP  0  0  0  0  0  0  0  0  0  0  0  0  # atno 17320 bound_to 7965
  145.0325  140.8882  143.5101 LP  0  0  0  0  0  0  0  0  0  0  0  0  # atno 17321 bound_to 7965
  139.6551  144.0290  152.2654 LP  0  0  0  0  0  0  0  0  0  0  0  0  # atno 17342 bound_to 10162
  139.9840  144.6409  150.7875 LP  0  0  0  0  0  0  0  0  0  0  0  0  # atno 17343 bound_to 10162
  157.0960  130.5962  149.5450 LP  0  0  0  0  0  0  0  0  0  0  0  0  # atno 17370 bound_to 10713
  155.9961  130.5029  150.7483 LP  0  0  0  0  0  0  0  0  0  0  0  0  # atno 17371 bound_to 10713
  140.1356  134.5038  155.8071 LP  0  0  0  0  0  0  0  0  0  0  0  0  # atno 17394 bound_to 11000
  141.2175  133.6806  156.7119 LP  0  0  0  0  0  0  0  0  0  0  0  0  # atno 17395 bound_to 11000

$$$$
