AV-unprocessed.smi:194|AV-procd|sdf|1523|dock5
  -GOLD-   2262019363D 1   1.00000     0.00000
 Structure written by MMmdl.
 53 55  0  0  0  0  0  0  0  0  1 V2000
  148.7715  140.8653  156.7135 C   0  0  0  0  0  0  0  0  0  0  0  0
  149.8732  140.4366  155.7156 C   0  0  1  0  0  0  0  0  0  0  0  0
  151.2708  140.8332  156.2492 C   0  0  0  0  0  0  0  0  0  0  0  0
  151.6590  139.9077  157.8152 S   0  0  2  0  0  0  0  0  0  0  0  0
  151.8913  141.4012  158.8884 C   0  0  0  0  0  0  0  0  0  0  0  0
  153.0417  139.2767  157.6419 O   0  0  0  0  0  0  0  0  0  0  0  0
  149.7966  139.0159  155.3376 N   0  0  0  0  0  0  0  0  0  0  0  0
  150.9433  138.4449  154.6371 C   0  0  0  0  0  0  0  0  0  0  0  0
  148.6477  138.6264  154.7412 C   0  0  0  0  0  0  0  0  0  0  0  0
  147.9615  139.5623  154.0411 N   0  0  0  0  0  0  0  0  0  0  0  0
  146.8222  139.2313  153.4258 C   0  0  0  0  0  0  0  0  0  0  0  0
  146.2057  138.0477  153.3897 N   0  0  0  0  0  0  0  0  0  0  0  0
  146.8876  137.1082  154.1062 C   0  0  0  0  0  0  0  0  0  0  0  0
  148.1100  137.3101  154.8062 C   0  0  0  0  0  0  0  0  0  0  0  0
  148.5138  136.1261  155.4099 N   0  0  0  0  0  0  0  0  0  0  0  0
  147.5875  135.2695  155.0767 C   0  0  0  0  0  0  0  0  0  0  0  0
  146.5622  135.7775  154.3102 N   0  0  0  0  0  0  0  0  0  0  0  0
  145.4152  135.0429  153.7956 C   0  0  0  0  0  0  0  0  0  0  0  0
  145.4262  134.7467  152.2648 C   0  0  0  0  0  0  0  0  0  0  0  0
  145.4367  136.0700  151.4421 C   0  0  0  0  0  0  0  0  0  0  0  0
  144.3784  136.9499  151.7630 O   0  0  0  0  0  0  0  0  0  0  0  0
  146.6088  133.8205  151.8816 C   0  0  0  0  0  0  0  0  0  0  0  0
  146.4767  133.2489  150.4600 C   0  0  0  0  0  0  0  0  0  0  0  0
  145.2593  132.5239  150.3467 O   0  0  0  0  0  0  0  0  0  0  0  0
  144.1108  133.3391  150.5399 C   0  0  0  0  0  0  0  0  0  0  0  0
  144.1271  133.9611  151.9503 C   0  0  0  0  0  0  0  0  0  0  0  0
  148.9071  141.9020  157.0228 H   0  0  0  0  0  0  0  0  0  0  0  0
  148.7761  140.2477  157.6119 H   0  0  0  0  0  0  0  0  0  0  0  0
  147.7756  140.7984  156.2753 H   0  0  0  0  0  0  0  0  0  0  0  0
  149.7210  141.0153  154.8043 H   0  0  0  0  0  0  0  0  0  0  0  0
  152.0517  140.6466  155.5124 H   0  0  0  0  0  0  0  0  0  0  0  0
  151.2949  141.9028  156.4596 H   0  0  0  0  0  0  0  0  0  0  0  0
  150.9834  142.0042  158.9053 H   0  0  0  0  0  0  0  0  0  0  0  0
  152.7111  142.0148  158.5147 H   0  0  0  0  0  0  0  0  0  0  0  0
  152.1235  141.0973  159.9089 H   0  0  0  0  0  0  0  0  0  0  0  0
  150.7164  137.4612  154.2222 H   0  0  0  0  0  0  0  0  0  0  0  0
  151.7845  138.3195  155.3182 H   0  0  0  0  0  0  0  0  0  0  0  0
  151.2591  139.0938  153.8196 H   0  0  0  0  0  0  0  0  0  0  0  0
  146.3352  140.0288  152.8843 H   0  0  0  0  0  0  0  0  0  0  0  0
  147.6202  134.2371  155.3929 H   0  0  0  0  0  0  0  0  0  0  0  0
  145.3539  134.1092  154.3566 H   0  0  0  0  0  0  0  0  0  0  0  0
  144.5157  135.6011  154.0584 H   0  0  0  0  0  0  0  0  0  0  0  0
  146.3565  136.6304  151.5987 H   0  0  0  0  0  0  0  0  0  0  0  0
  145.3953  135.8519  150.3746 H   0  0  0  0  0  0  0  0  0  0  0  0
  144.1608  137.4524  150.9928 H   0  0  0  0  0  0  0  0  0  0  0  0
  147.5643  134.3352  151.9828 H   0  0  0  0  0  0  0  0  0  0  0  0
  146.6470  132.9816  152.5772 H   0  0  0  0  0  0  0  0  0  0  0  0
  146.5238  134.0351  149.7057 H   0  0  0  0  0  0  0  0  0  0  0  0
  147.3045  132.5698  150.2559 H   0  0  0  0  0  0  0  0  0  0  0  0
  144.0544  134.0987  149.7606 H   0  0  0  0  0  0  0  0  0  0  0  0
  143.2235  132.7164  150.4238 H   0  0  0  0  0  0  0  0  0  0  0  0
  144.0103  133.1483  152.6686 H   0  0  0  0  0  0  0  0  0  0  0  0
  143.2547  134.6024  152.0806 H   0  0  0  0  0  0  0  0  0  0  0  0
  1  2  1  0  0  0  0
  1 27  1  0  0  0  0
  1 28  1  0  0  0  0
  1 29  1  0  0  0  0
  2  3  1  0  0  0  0
  2  7  1  0  0  0  0
  2 30  1  0  0  0  0
  3  4  1  0  0  0  0
  3 31  1  0  0  0  0
  3 32  1  0  0  0  0
  4  5  1  0  0  0  0
  4  6  2  0  0  0  0
  5 33  1  0  0  0  0
  5 34  1  0  0  0  0
  5 35  1  0  0  0  0
  7  8  1  0  0  0  0
  7  9  1  0  0  0  0
  8 36  1  0  0  0  0
  8 37  1  0  0  0  0
  8 38  1  0  0  0  0
  9 14  1  0  0  0  0
  9 10  2  0  0  0  0
 10 11  1  0  0  0  0
 11 12  2  0  0  0  0
 11 39  1  0  0  0  0
 12 13  1  0  0  0  0
 13 17  1  0  0  0  0
 13 14  2  0  0  0  0
 14 15  1  0  0  0  0
 15 16  2  0  0  0  0
 16 17  1  0  0  0  0
 16 40  1  0  0  0  0
 17 18  1  0  0  0  0
 18 19  1  0  0  0  0
 18 41  1  0  0  0  0
 18 42  1  0  0  0  0
 19 26  1  0  0  0  0
 19 20  1  0  0  0  0
 19 22  1  0  0  0  0
 20 21  1  0  0  0  0
 20 43  1  0  0  0  0
 20 44  1  0  0  0  0
 21 45  1  0  0  0  0
 22 23  1  0  0  0  0
 22 46  1  0  0  0  0
 22 47  1  0  0  0  0
 23 24  1  0  0  0  0
 23 48  1  0  0  0  0
 23 49  1  0  0  0  0
 24 25  1  0  0  0  0
 25 26  1  0  0  0  0
 25 50  1  0  0  0  0
 25 51  1  0  0  0  0
 26 52  1  0  0  0  0
 26 53  1  0  0  0  0
M  END
> <s_m_source_file>
AV-unprocessed.smi

> <i_m_source_file_index>
194

> <i_lp_mmshare_version>
43012

> <i_f3d_flags>
0

> <s_epik_input>
W0NIM11bU0BAXSg9TylbQ0gyXVtDQEBIXShbQ0gzXSlOKFtDSDNdKWMobltjSF1uMSljKGMxMiluW2NIXW4yW0NIMl1DMyhbQ0gyXVtPSF0pW0NIMl1bQ0gyXU9bQ0gyXVtDSDJdMw==

> <s_epik_cmdline>
J2VwaWtfcHl0aG9uJywgJy1waCcsICc3LjAnLCAnLXRuJywgJzgnLCAnLW1hJywgJzIwMCcsICctbWV0YWxfYmluZGluZycsICctaW1hZScsICc8aW5maWxlLm1hZT4nLCAnLW9tYWUnLCAnPG91dGZpbGUubWFlPic=

> <r_lp_tautomer_probability>
1

> <r_epik_Ionization_Penalty>
0.00101625

> <r_epik_Ionization_Penalty_Charging>
0

> <r_epik_Ionization_Penalty_Neutral>
0.00101625

> <r_epik_State_Penalty>
0.000568005

> <r_epik_Charging_Adjusted_Penalty>
0.000568005

> <i_epik_Tot_Q>
0

> <i_epik_Tot_abs_Q>
0

> <r_epik_Metal_State_Penalty>
-0

> <b_epik_Metal_Only>
0

> <s_lp_Force_Field>
OPLS_2005

> <r_lp_Energy>
31.3732

> <b_lp_Chiralities_Consistent>
1

> <s_lp_Variant>
AV-unprocessed.smi:194-4

> <Gold.Version>
5.8.1

> <Gold.Id.Protein>
6NUR|6NUR_protein|mol2

> <Gold.PLP.Fitness>
41.6313

> <Gold.PLP.PLP>
-33.9144

> <Gold.PLP.part.hbond>
-1.7782

> <Gold.PLP.part.metal>
0.0000

> <Gold.PLP.part.buried>
-5.7747

> <Gold.PLP.part.nonpolar>
-27.1664

> <Gold.PLP.part.repulsive>
0.7062

> <Gold.PLP.ligand.clash>
0.0000

> <Gold.PLP.ligand.torsion>
0.8254

> <Gold.PLP.Chemscore.Hbond>
2.0000

> <Gold.PLP.Chemscore.CHOScore>
0.8942

> <Gold.PLP.Chemscore.Metal>
0.0000

> <Gold.Chemscore.Hbonds>
donor molecule, donor type, donor heavy atom, donor atom, acceptor molecule, acceptor atom, score
      L1  H    21    45       P1 10171  1.00
      P1  H  7997  8008       L1     6  1.00
      L1  C    11    39       P1 10175  0.53

> <Gold.PLP.Chemscore.Internal.Correction>
0.6849

> <Gold.Rescore>
     Score         DG    S(hbond)    S(metal)    S(lipo)     H(rot)  DE(clash)    DE(int)     intcor
      9.33     -11.51       2.00        0.00      66.94       3.31       0.08       2.11       ----

> <Gold.Chemscore.Fitness>
9.3256

> <Gold.Chemscore.DG>
-11.5096

> <Gold.Chemscore.ZeroCoef>
-5.4800

> <Gold.Chemscore.Hbond>
1.9973

> <Gold.Chemscore.Metal>
0.0000

> <Gold.Chemscore.Lipo>
66.9356

> <Gold.Chemscore.Internal_Hbond>
0.0000

> <Gold.Chemscore.DEClash>
0.0775

> <Gold.Chemscore.DEInternal>
2.1065

> <Gold.Chemscore.Rot>
3.3098

> <Gold.Chemscore.Internal.Correction>
   9.000000E+99

> <Gold.Chemscore.Hbonds>
donor molecule, donor type, donor heavy atom, donor atom, acceptor molecule, acceptor atom, score
      L1  H    21    45       P1 10171  1.00
      P1  H  7997  8008       L1     6  1.00

> <Gold.Chemscore.Hbond.Weighted>
-6.6711

> <Gold.Chemscore.Metal.Weighted>
-0.0000

> <Gold.Chemscore.Lipo.Weighted>
-7.8315

> <Gold.Chemscore.Internal_Hbond.Weighted>
0.0000

> <Gold.Chemscore.DEClash.Weighted>
0.0775

> <Gold.Chemscore.DEInternal.Weighted>
2.1065

> <Gold.Chemscore.Rot.Weighted>
8.4730

> <Gold.Chemscore.Internal.Correction.Weighted>
   9.000000E+99

> <Gold.Protein.RotatedTorsions>
[ 6907 6896 6895 6894 ] final  -80.59 input  -60.11 | X-H torsion
[ 7974 7965 7964 7962 ] final  -60.60 input  175.53 | X-H torsion
[ 8008 7997 7996 7995 ] final  -84.75 input   59.86 | X-H torsion
[ 10167 10162 10161 10158 ] final  -27.25 input  -65.29 | X-H torsion
[ 10718 10713 10712 10709 ] final  -23.45 input   66.30 | X-H torsion
[ 10763 10752 10751 10750 ] final  150.05 input  -60.55 | X-H torsion
[ 11005 11000 10999 10996 ] final  101.68 input  -57.11 | X-H torsion

> <Gold.Protein.ActiveResidues>
 VAL166  LYS551  ARG553  GLY616  TRP617  ASP618  TYR619  PRO620  LYS621  CYS622 
 ASP623  PHE694  ASN695  SER759  ASP760  ASP761  ALA762  ILE779  LEU786  VAL792 
 PHE793  MET794  SER795  GLU796  ALA797  LYS798  CYS799  TRP800  GLU811  SER814 

> <Gold.Protein.RotatedAtoms>
  150.6927  134.3946  159.5091 H   0  0  0  0  0  0  0  0  0  0  0  0  # atno 6907 bound_to 6896
  152.1729  134.8816  160.0542 H   0  0  0  0  0  0  0  0  0  0  0  0  # atno 6908 bound_to 6896
  151.9835  133.3731  159.4154 H   0  0  0  0  0  0  0  0  0  0  0  0  # atno 6909 bound_to 6896
  145.8135  140.8584  143.0169 H   0  0  0  0  0  0  0  0  0  0  0  0  # atno 7974 bound_to 7965
  154.6332  140.0601  156.9757 H   0  0  0  0  0  0  0  0  0  0  0  0  # atno 8008 bound_to 7997
  155.1633  140.3284  155.4388 H   0  0  0  0  0  0  0  0  0  0  0  0  # atno 8009 bound_to 7997
  156.2493  140.1927  156.6739 H   0  0  0  0  0  0  0  0  0  0  0  0  # atno 8010 bound_to 7997
  140.7278  143.4109  151.1107 H   0  0  0  0  0  0  0  0  0  0  0  0  # atno 10167 bound_to 10162
  156.4909  130.4566  149.6756 H   0  0  0  0  0  0  0  0  0  0  0  0  # atno 10718 bound_to 10713
  154.0812  135.2859  155.3290 H   0  0  0  0  0  0  0  0  0  0  0  0  # atno 10763 bound_to 10752
  154.6682  135.5309  153.8108 H   0  0  0  0  0  0  0  0  0  0  0  0  # atno 10764 bound_to 10752
  153.0448  135.6551  154.0987 H   0  0  0  0  0  0  0  0  0  0  0  0  # atno 10765 bound_to 10752
  139.8774  134.9193  156.4943 H   0  0  0  0  0  0  0  0  0  0  0  0  # atno 11005 bound_to 11000
  144.6755  140.0430  143.7480 LP  0  0  0  0  0  0  0  0  0  0  0  0  # atno 17320 bound_to 7965
  145.9752  139.2899  143.1075 LP  0  0  0  0  0  0  0  0  0  0  0  0  # atno 17321 bound_to 7965
  139.7742  143.8449  152.3126 LP  0  0  0  0  0  0  0  0  0  0  0  0  # atno 17342 bound_to 10162
  139.8378  144.7224  150.9369 LP  0  0  0  0  0  0  0  0  0  0  0  0  # atno 17343 bound_to 10162
  156.3427  130.7391  151.2338 LP  0  0  0  0  0  0  0  0  0  0  0  0  # atno 17370 bound_to 10713
  157.7474  131.0399  150.4572 LP  0  0  0  0  0  0  0  0  0  0  0  0  # atno 17371 bound_to 10713
  140.8636  133.8041  155.9290 LP  0  0  0  0  0  0  0  0  0  0  0  0  # atno 17394 bound_to 11000
  140.9025  134.2361  157.5033 LP  0  0  0  0  0  0  0  0  0  0  0  0  # atno 17395 bound_to 11000

$$$$
