#       Name:                AV-unprocessed.smi:1244
#       Creating user name   scv26
#       Creation time:       Fri Mar 27 04:31:54 2020


#       File generated by GOLD software.
#

@<TRIPOS>MOLECULE
AV-unprocessed.smi:1244
    61    63     1
SMALL
NO_CHARGES


@<TRIPOS>ATOM
      1 ****        -3.0192   3.1185   4.8109 C.3            1 S1                 0.0000
      2 ****        -3.9328   2.4908   3.7442 C.3            1 S1                 0.0000
      3 ****        -3.2335   1.4049   2.9021 C.3            1 S1                 0.0000
      4 ****        -2.2820   1.9570   1.9434 N.3            1 S1                 0.0000
      5 ****        -1.6450   0.8936   1.1680 C.3            1 S1                 0.0000
      6 ****        -0.4482   1.3466   0.3097 C.3            1 S1                 0.0000
      7 ****         0.1866   0.2210  -0.3657 N.am           1 S1                 0.0000
      8 ****         1.0333  -0.6434   0.2110 C.2            1 S1                 0.0000
      9 ****         1.3557  -0.5912   1.3980 O.2            1 S1                 0.0000
     10 ****         1.4895  -1.5439  -0.6758 N.am           1 S1                 0.0000
     11 ****         2.4125  -2.6046  -0.4518 C.ar           1 S1                 0.0000
     12 ****         2.4638  -3.2886   0.7875 C.ar           1 S1                 0.0000
     13 ****         3.4025  -4.3183   0.9701 C.ar           1 S1                 0.0000
     14 ****         4.2590  -4.6323  -0.0977 C.ar           1 S1                 0.0000
     15 ****         4.2102  -4.0047  -1.2894 N.ar           1 S1                 0.0000
     16 ****         3.2997  -3.0193  -1.4870 C.ar           1 S1                 0.0000
     17 ****         3.2879  -2.4115  -2.7639 N.3            1 S1                 0.0000
     18 ****         4.3938  -2.6214  -3.6926 C.3            1 S1                 0.0000
     19 ****         3.8665  -2.1573  -5.0472 C.3            1 S1                 0.0000
     20 ****         2.4011  -2.5765  -4.9848 C.3            1 S1                 0.0000
     21 ****         2.0329  -2.3868  -3.5094 C.3            1 S1                 0.0000
     22 ****        -2.9691   2.9325   1.1025 C.3            1 S1                 0.0000
     23 ****        -3.6206   4.0522   1.9345 C.3            1 S1                 0.0000
     24 ****        -4.4210   5.0254   1.0625 C.3            1 S1                 0.0000
     25 ****        -4.5107   3.4800   2.8910 O.3            1 S1                 0.0000
     26 ****        -2.6828   2.3658   5.5242 H              1 S1                 0.0000
     27 ****        -3.5483   3.8902   5.3706 H              1 S1                 0.0000
     28 ****        -2.1299   3.5726   4.3742 H              1 S1                 0.0000
     29 ****        -4.7626   2.0211   4.2732 H              1 S1                 0.0000
     30 ****        -2.7304   0.6994   3.5646 H              1 S1                 0.0000
     31 ****        -3.9936   0.8334   2.3671 H              1 S1                 0.0000
     32 ****        -1.2907   0.1272   1.8588 H              1 S1                 0.0000
     33 ****        -2.3862   0.4042   0.5343 H              1 S1                 0.0000
     34 ****        -0.7677   2.0451  -0.4625 H              1 S1                 0.0000
     35 ****         0.2846   1.8727   0.9238 H              1 S1                 0.0000
     36 ****        -0.0206   0.1029  -1.3465 H              1 S1                 0.0000
     37 ****         1.2255  -1.3956  -1.6386 H              1 S1                 0.0000
     38 ****         1.7934  -3.0441   1.5974 H              1 S1                 0.0000
     39 ****         3.4650  -4.8523   1.9067 H              1 S1                 0.0000
     40 ****         4.9976  -5.4135   0.0039 H              1 S1                 0.0000
     41 ****         5.2803  -2.0640  -3.3885 H              1 S1                 0.0000
     42 ****         4.6556  -3.6787  -3.7505 H              1 S1                 0.0000
     43 ****         3.9413  -1.0717  -5.1265 H              1 S1                 0.0000
     44 ****         4.4041  -2.5989  -5.8867 H              1 S1                 0.0000
     45 ****         1.7638  -2.0029  -5.6584 H              1 S1                 0.0000
     46 ****         2.3114  -3.6301  -5.2527 H              1 S1                 0.0000
     47 ****         1.3364  -3.1548  -3.1700 H              1 S1                 0.0000
     48 ****         1.5614  -1.4140  -3.3685 H              1 S1                 0.0000
     49 ****        -2.2696   3.3873   0.4023 H              1 S1                 0.0000
     50 ****        -3.7306   2.4311   0.5033 H              1 S1                 0.0000
     51 ****        -2.8458   4.6164   2.4545 H              1 S1                 0.0000
     52 ****        -3.7825   5.5016   0.3180 H              1 S1                 0.0000
     53 ****        -4.8686   5.8131   1.6688 H              1 S1                 0.0000
     54 ****        -5.2260   4.5126   0.5353 H              1 S1                 0.0000
     55 ****        -1.5433   2.4272   2.4264 LP             1 S1                 0.0000
     56 ****         0.9806   0.1246   1.9870 LP             1 S1                 0.0000
     57 ****         1.9927  -1.2646   1.7732 LP             1 S1                 0.0000
     58 ****         4.8401  -4.2635  -2.0218 LP             1 S1                 0.0000
     59 ****         3.4399  -1.5063  -2.3670 LP             1 S1                 0.0000
     60 ****        -4.8620   4.2182   3.4669 LP             1 S1                 0.0000
     61 ****        -5.2677   3.0558   2.3940 LP             1 S1                 0.0000
@<TRIPOS>BOND
    1    1    2 1     
    2    1   26 1     
    3    1   27 1     
    4    1   28 1     
    5    2   25 1     
    6    2    3 1     
    7    2   29 1     
    8    3    4 1     
    9    3   30 1     
   10    3   31 1     
   11    4    5 1     
   12    4   22 1     
   13    5    6 1     
   14    5   32 1     
   15    5   33 1     
   16    6    7 1     
   17    6   34 1     
   18    6   35 1     
   19    7    8 am    
   20    7   36 1     
   21    8    9 2     
   22    8   10 am    
   23   10   11 1     
   24   10   37 1     
   25   11   16 ar    
   26   11   12 ar    
   27   12   13 ar    
   28   12   38 1     
   29   13   14 ar    
   30   13   39 1     
   31   14   15 ar    
   32   14   40 1     
   33   15   16 ar    
   34   16   17 1     
   35   17   21 1     
   36   17   18 1     
   37   18   19 1     
   38   18   41 1     
   39   18   42 1     
   40   19   20 1     
   41   19   43 1     
   42   19   44 1     
   43   20   21 1     
   44   20   45 1     
   45   20   46 1     
   46   21   47 1     
   47   21   48 1     
   48   22   23 1     
   49   22   49 1     
   50   22   50 1     
   51   23   24 1     
   52   23   25 1     
   53   23   51 1     
   54   24   52 1     
   55   24   53 1     
   56   24   54 1     
   57    4   55 1     
   58    9   56 1     
   59    9   57 1     
   60   15   58 1     
   61   17   59 1     
   62   25   60 1     
   63   25   61 1     
@<TRIPOS>SUBSTRUCTURE
      1 S1             1
@<TRIPOS>SET
LONE_PAIRS      STATIC     ATOMS    <user>   **** ""
7 55 56 57 58 59 60 61
DONOR_HYDROGENS      STATIC     ATOMS    <user>   **** ""
2 36 37
ATOM$BLUE        STATIC     ATOMS    COLORGROUP SYSTEM
7 55 56 57 58 59 60 61
ATOM$RED        STATIC     ATOMS    COLORGROUP SYSTEM
2 36 37
