#       Name:                AV-unprocessed.smi:287
#       Creating user name   scv26
#       Creation time:       Thu Mar 26 21:55:35 2020


#       File generated by GOLD software.
#

@<TRIPOS>MOLECULE
AV-unprocessed.smi:287
    70    73     1
SMALL
NO_CHARGES


@<TRIPOS>ATOM
      1 ****        -0.1327   5.1268  -4.3966 C.3            1 S1                 0.0000
      2 ****        -0.4926   4.9227  -2.9649 C.2            1 S1                 0.0000
      3 ****        -1.0533   3.8917  -2.2689 C.2            1 S1                 0.0000
      4 ****        -1.1386   4.2956  -0.9030 C.2            1 S1                 0.0000
      5 ****        -1.6984   3.4630   0.2429 C.3            1 S1                 0.0000
      6 ****        -3.2313   3.3983   0.1396 C.3            1 S1                 0.0000
      7 ****        -1.4323   4.0267   1.5127 O.3            1 S1                 0.0000
      8 ****        -1.1092   2.0342   0.2803 C.3            1 S1                 0.0000
      9 ****         0.3331   2.0065   0.0731 N.pl3          1 S1                 0.0000
     10 ****         0.9952   0.8360  -0.0421 C.ar           1 S1                 0.0000
     11 ****         2.3118   0.9387  -0.3435 N.ar           1 S1                 0.0000
     12 ****         3.0568  -0.1611  -0.4859 C.ar           1 S1                 0.0000
     13 ****         2.6897  -1.4385  -0.3692 N.ar           1 S1                 0.0000
     14 ****         1.3653  -1.5502  -0.0607 C.ar           1 S1                 0.0000
     15 ****         0.4508  -0.4733   0.1189 C.ar           1 S1                 0.0000
     16 ****        -0.8055  -0.9894   0.4198 N.2            1 S1                 0.0000
     17 ****        -0.6384  -2.2841   0.4111 C.2            1 S1                 0.0000
     18 ****         0.6453  -2.7073   0.1417 N.pl3          1 S1                 0.0000
     19 ****         1.1894  -4.0995   0.0383 C.3            1 S1                 0.0000
     20 ****         0.1312  -4.9953   0.2024 O.3            1 S1                 0.0000
     21 ****         0.0721  -5.4157   1.5615 C.3            1 S1                 0.0000
     22 ****        -0.7822  -6.6856   1.7196 C.3            1 S1                 0.0000
     23 ****        -2.1490  -6.3414   1.8011 O.3            1 S1                 0.0000
     24 ****         1.5587  -5.5655   1.9049 C.3            1 S1                 0.0000
     25 ****         2.0560  -6.8058   1.4279 O.3            1 S1                 0.0000
     26 ****         2.1800  -4.3662   1.1887 C.3            1 S1                 0.0000
     27 ****         3.5010  -4.6158   0.7456 O.3            1 S1                 0.0000
     28 ****        -0.6268   5.5711  -0.8826 C.2            1 S1                 0.0000
     29 ****        -0.4248   6.5920   0.1880 C.3            1 S1                 0.0000
     30 ****        -0.2291   5.9562  -2.1272 O.3            1 S1                 0.0000
     31 ****         1.6155  -4.1612  -0.9641 H              1 S1                 0.0000
     32 ****        -0.3403  -4.6102   2.1725 H              1 S1                 0.0000
     33 ****         1.7313  -5.5225   2.9807 H              1 S1                 0.0000
     34 ****         2.1915  -3.5099   1.8652 H              1 S1                 0.0000
     35 ****        -0.2117   4.1940  -4.9550 H              1 S1                 0.0000
     36 ****         0.8908   5.4906  -4.4909 H              1 S1                 0.0000
     37 ****        -0.7961   5.8564  -4.8610 H              1 S1                 0.0000
     38 ****        -1.3635   2.9473  -2.6908 H              1 S1                 0.0000
     39 ****        -3.5453   2.9389  -0.7984 H              1 S1                 0.0000
     40 ****        -3.6739   4.3944   0.1809 H              1 S1                 0.0000
     41 ****        -3.6629   2.8107   0.9509 H              1 S1                 0.0000
     42 ****        -1.8103   3.4676   2.1741 H              1 S1                 0.0000
     43 ****        -1.3700   1.5344   1.2141 H              1 S1                 0.0000
     44 ****        -1.5589   1.4537  -0.5265 H              1 S1                 0.0000
     45 ****         0.7731   2.9068  -0.0534 H              1 S1                 0.0000
     46 ****         4.0957   0.0069  -0.7285 H              1 S1                 0.0000
     47 ****        -1.4566  -2.9631   0.6027 H              1 S1                 0.0000
     48 ****        -0.6171  -7.3832   0.8980 H              1 S1                 0.0000
     49 ****        -0.5200  -7.2017   2.6437 H              1 S1                 0.0000
     50 ****        -2.6529  -7.1353   1.8957 H              1 S1                 0.0000
     51 ****         2.9966  -6.8038   1.5230 H              1 S1                 0.0000
     52 ****         3.8119  -3.8479   0.2900 H              1 S1                 0.0000
     53 ****        -1.3512   6.7670   0.7350 H              1 S1                 0.0000
     54 ****        -0.0994   7.5449  -0.2307 H              1 S1                 0.0000
     55 ****         0.3327   6.2612   0.8985 H              1 S1                 0.0000
     56 ****        -1.8392   4.9385   1.5690 LP             1 S1                 0.0000
     57 ****        -0.4443   4.0934   1.6518 LP             1 S1                 0.0000
     58 ****         2.7275   1.8407  -0.4598 LP             1 S1                 0.0000
     59 ****         3.3070  -2.2156  -0.4922 LP             1 S1                 0.0000
     60 ****        -1.6479  -0.4823   0.6020 LP             1 S1                 0.0000
     61 ****         0.2733  -5.7907  -0.3867 LP             1 S1                 0.0000
     62 ****        -0.7273  -4.5462  -0.0453 LP             1 S1                 0.0000
     63 ****        -2.4267  -5.8629   0.9681 LP             1 S1                 0.0000
     64 ****        -2.3011  -5.7490   2.5923 LP             1 S1                 0.0000
     65 ****         1.8135  -6.9196   0.4644 LP             1 S1                 0.0000
     66 ****         1.6636  -7.5553   1.9611 LP             1 S1                 0.0000
     67 ****         3.5072  -5.4015   0.1270 LP             1 S1                 0.0000
     68 ****         4.0908  -4.8050   1.5307 LP             1 S1                 0.0000
     69 ****        -0.7367   6.7687  -2.4139 LP             1 S1                 0.0000
     70 ****         0.7504   6.1576  -2.1278 LP             1 S1                 0.0000
@<TRIPOS>BOND
    1    1    2 1     
    2    1   35 1     
    3    1   36 1     
    4    1   37 1     
    5    2   30 1     
    6    2    3 2     
    7    3    4 1     
    8    3   38 1     
    9    4    5 1     
   10    4   28 2     
   11    5    6 1     
   12    5    7 1     
   13    5    8 1     
   14    6   39 1     
   15    6   40 1     
   16    6   41 1     
   17    7   42 1     
   18    8    9 1     
   19    8   43 1     
   20    8   44 1     
   21    9   10 1     
   22    9   45 1     
   23   10   15 ar    
   24   10   11 ar    
   25   11   12 ar    
   26   12   13 ar    
   27   12   46 1     
   28   13   14 ar    
   29   14   18 1     
   30   14   15 ar    
   31   15   16 1     
   32   16   17 2     
   33   17   18 1     
   34   17   47 1     
   35   18   19 1     
   36   19   31 1     
   37   19   26 1     
   38   19   20 1     
   39   20   21 1     
   40   21   32 1     
   41   21   22 1     
   42   21   24 1     
   43   22   23 1     
   44   22   48 1     
   45   22   49 1     
   46   23   50 1     
   47   24   33 1     
   48   24   25 1     
   49   24   26 1     
   50   25   51 1     
   51   26   34 1     
   52   26   27 1     
   53   27   52 1     
   54   28   29 1     
   55   28   30 1     
   56   29   53 1     
   57   29   54 1     
   58   29   55 1     
   59    7   56 1     
   60    7   57 1     
   61   11   58 1     
   62   13   59 1     
   63   16   60 1     
   64   20   61 1     
   65   20   62 1     
   66   23   63 1     
   67   23   64 1     
   68   25   65 1     
   69   25   66 1     
   70   27   67 1     
   71   27   68 1     
   72   30   69 1     
   73   30   70 1     
@<TRIPOS>SUBSTRUCTURE
      1 S1             1
@<TRIPOS>SET
LONE_PAIRS      STATIC     ATOMS    <user>   **** ""
15 56 57 58 59 60 61 62 63 64 65 66 67 68 69 70
DONOR_HYDROGENS      STATIC     ATOMS    <user>   **** ""
5 42 45 50 51 52
ATOM$BLUE        STATIC     ATOMS    COLORGROUP SYSTEM
15 56 57 58 59 60 61 62 63 64 65 66 67 68 69 70
ATOM$RED        STATIC     ATOMS    COLORGROUP SYSTEM
5 42 45 50 51 52
