AV-unprocessed.smi:1199|AV-procd|sdf|5019|dock2
  -GOLD-   22720 4 33D 1   1.00000     0.00000
 Structure written by MMmdl.
 41 42  0  0  0  0  0  0  0  0  1 V2000
  151.7449  144.7307  157.1242 C   0  0  0  0  0  0  0  0  0  0  0  0
  152.1640  143.5324  157.9891 C   0  0  1  0  0  0  0  0  0  0  0  0
  152.1727  143.8878  159.4925 C   0  0  0  0  0  0  0  0  0  0  0  0
  153.1450  143.1586  160.3117 N   0  0  0  0  0  0  0  0  0  0  0  0
  153.4811  141.8438  159.7667 C   0  0  0  0  0  0  0  0  0  0  0  0
  154.4666  141.0764  160.6646 C   0  0  0  0  0  0  0  0  0  0  0  0
  153.9313  140.9628  161.9784 O   0  0  0  0  0  0  0  0  0  0  0  0
  153.6493  142.2295  162.5637 C   0  0  0  0  0  0  0  0  0  0  0  0
  152.6521  142.9932  161.6755 C   0  0  0  0  0  0  0  0  0  0  0  0
  151.2332  142.4317  157.7515 N   0  0  0  0  0  0  0  0  0  0  0  0
  149.9368  142.4179  158.0962 C   0  0  0  0  0  0  0  0  0  0  0  0
  149.4000  143.3086  158.7550 O   0  0  0  0  0  0  0  0  0  0  0  0
  149.1222  141.2132  157.6110 C   0  0  0  0  0  0  0  0  0  0  0  0
  148.5392  141.4604  156.2854 N   0  0  0  0  0  0  0  0  0  0  0  0
  147.2320  141.9241  156.3300 N   0  0  0  0  0  0  0  0  0  0  0  0
  146.5845  142.1359  155.2348 C   0  0  0  0  0  0  0  0  0  0  0  0
  145.2908  142.5870  155.3268 O   0  0  0  0  0  0  0  0  0  0  0  0
  147.1992  141.9072  153.9461 C   0  0  0  0  0  0  0  0  0  0  0  0
  148.4742  141.4614  153.9122 C   0  0  0  0  0  0  0  0  0  0  0  0
  149.2362  141.2043  155.1357 C   0  0  0  0  0  0  0  0  0  0  0  0
  150.3947  140.7892  155.1317 O   0  0  0  0  0  0  0  0  0  0  0  0
  144.7722  141.8233  155.5287 H   0  0  0  0  0  0  0  0  0  0  0  0
  152.4322  145.5672  157.2539 H   0  0  0  0  0  0  0  0  0  0  0  0
  150.7442  145.0785  157.3824 H   0  0  0  0  0  0  0  0  0  0  0  0
  151.7456  144.4701  156.0653 H   0  0  0  0  0  0  0  0  0  0  0  0
  153.1775  143.2536  157.6941 H   0  0  0  0  0  0  0  0  0  0  0  0
  152.4088  144.9497  159.5736 H   0  0  0  0  0  0  0  0  0  0  0  0
  151.1704  143.7842  159.9118 H   0  0  0  0  0  0  0  0  0  0  0  0
  152.5735  141.2526  159.6352 H   0  0  0  0  0  0  0  0  0  0  0  0
  153.9358  141.9486  158.7835 H   0  0  0  0  0  0  0  0  0  0  0  0
  154.6457  140.0787  160.2630 H   0  0  0  0  0  0  0  0  0  0  0  0
  155.4314  141.5849  160.7008 H   0  0  0  0  0  0  0  0  0  0  0  0
  153.2320  142.0773  163.5591 H   0  0  0  0  0  0  0  0  0  0  0  0
  154.5731  142.7974  162.6856 H   0  0  0  0  0  0  0  0  0  0  0  0
  152.4526  143.9698  162.1181 H   0  0  0  0  0  0  0  0  0  0  0  0
  151.7016  142.4574  161.6620 H   0  0  0  0  0  0  0  0  0  0  0  0
  151.5870  141.6480  157.2225 H   0  0  0  0  0  0  0  0  0  0  0  0
  149.7560  140.3248  157.5702 H   0  0  0  0  0  0  0  0  0  0  0  0
  148.3540  140.9867  158.3521 H   0  0  0  0  0  0  0  0  0  0  0  0
  146.6445  142.0916  153.0381 H   0  0  0  0  0  0  0  0  0  0  0  0
  148.9450  141.2855  152.9562 H   0  0  0  0  0  0  0  0  0  0  0  0
  1  2  1  0  0  0  0
  1 23  1  0  0  0  0
  1 24  1  0  0  0  0
  1 25  1  0  0  0  0
  2  3  1  0  0  0  0
  2 10  1  0  0  0  0
  2 26  1  0  0  0  0
  3  4  1  0  0  0  0
  3 27  1  0  0  0  0
  3 28  1  0  0  0  0
  4  9  1  0  0  0  0
  4  5  1  0  0  0  0
  5  6  1  0  0  0  0
  5 29  1  0  0  0  0
  5 30  1  0  0  0  0
  6  7  1  0  0  0  0
  6 31  1  0  0  0  0
  6 32  1  0  0  0  0
  7  8  1  0  0  0  0
  8  9  1  0  0  0  0
  8 33  1  0  0  0  0
  8 34  1  0  0  0  0
  9 35  1  0  0  0  0
  9 36  1  0  0  0  0
 10 11  1  0  0  0  0
 10 37  1  0  0  0  0
 11 12  2  0  0  0  0
 11 13  1  0  0  0  0
 13 38  1  0  0  0  0
 13 39  1  0  0  0  0
 13 14  1  0  0  0  0
 14 15  1  0  0  0  0
 14 20  1  0  0  0  0
 15 16  2  0  0  0  0
 16 17  1  0  0  0  0
 16 18  1  0  0  0  0
 17 22  1  0  0  0  0
 18 40  1  0  0  0  0
 18 19  2  0  0  0  0
 19 41  1  0  0  0  0
 19 20  1  0  0  0  0
 20 21  2  0  0  0  0
M  END
> <s_m_source_file>
AV-unprocessed.smi

> <i_m_source_file_index>
1199

> <i_lp_mmshare_version>
43012

> <i_f3d_flags>
0

> <s_epik_input>
W0NIMl0xW0NIMl1PW0NIMl1bQ0gyXU4xW0NIMl1bQ0BASF0oW0NIM10pW05IXUMoPU8pW0NIMl1uMltuSF1jKD1PKVtjSF1bY0hdYzI9Tw==

> <s_epik_cmdline>
J2VwaWtfcHl0aG9uJywgJy1waCcsICc3LjAnLCAnLXRuJywgJzgnLCAnLW1hJywgJzIwMCcsICctbWV0YWxfYmluZGluZycsICctaW1hZScsICc8aW5maWxlLm1hZT4nLCAnLW9tYWUnLCAnPG91dGZpbGUubWFlPic=

> <r_epik_Ionization_Penalty>
2.36432

> <r_epik_Ionization_Penalty_Charging>
3.67277e-08

> <r_epik_Ionization_Penalty_Neutral>
2.36432

> <r_epik_State_Penalty>
1.96081

> <r_epik_Charging_Adjusted_Penalty>
1.96081

> <i_epik_Tot_Q>
0

> <i_epik_Tot_abs_Q>
0

> <r_epik_Metal_State_Penalty>
1.96081

> <b_epik_Metal_Only>
0

> <s_lp_Force_Field>
OPLS_2005

> <r_lp_Energy>
38.3542

> <b_lp_Chiralities_Consistent>
1

> <s_lp_Variant>
AV-unprocessed.smi:1199-6

> <Gold.Version>
5.8.1

> <Gold.Id.Protein>
6NUR|6NUR_protein|mol2

> <Gold.PLP.Fitness>
40.3140

> <Gold.PLP.PLP>
-40.7997

> <Gold.PLP.part.hbond>
-1.0000

> <Gold.PLP.part.metal>
0.0000

> <Gold.PLP.part.buried>
-4.7848

> <Gold.PLP.part.nonpolar>
-34.2283

> <Gold.PLP.part.repulsive>
0.4176

> <Gold.PLP.ligand.clash>
0.0000

> <Gold.PLP.ligand.torsion>
1.5402

> <Gold.PLP.Chemscore.Hbond>
0.8247

> <Gold.PLP.Chemscore.CHOScore>
0.0000

> <Gold.PLP.Chemscore.Metal>
0.0000

> <Gold.Chemscore.Hbonds>
donor molecule, donor type, donor heavy atom, donor atom, acceptor molecule, acceptor atom, score
      P1  H  7989  7998       L1    21  0.81

> <Gold.PLP.Chemscore.Internal.Correction>
0.1205

> <Gold.Rescore>
     Score         DG    S(hbond)    S(metal)    S(lipo)     H(rot)  DE(clash)    DE(int)     intcor
      8.24     -12.36       0.80        0.00     100.55       2.94       1.36       2.76       ----

> <Gold.Chemscore.Fitness>
8.2446

> <Gold.Chemscore.DG>
-12.3637

> <Gold.Chemscore.ZeroCoef>
-5.4800

> <Gold.Chemscore.Hbond>
0.7950

> <Gold.Chemscore.Metal>
0.0000

> <Gold.Chemscore.Lipo>
100.5496

> <Gold.Chemscore.Internal_Hbond>
0.0000

> <Gold.Chemscore.DEClash>
1.3570

> <Gold.Chemscore.DEInternal>
2.7622

> <Gold.Chemscore.Rot>
2.9437

> <Gold.Chemscore.Internal.Correction>
   9.000000E+99

> <Gold.Chemscore.Hbonds>
donor molecule, donor type, donor heavy atom, donor atom, acceptor molecule, acceptor atom, score
      P1  H  7989  7998       L1    21  0.75

> <Gold.Chemscore.Hbond.Weighted>
-2.6554

> <Gold.Chemscore.Metal.Weighted>
-0.0000

> <Gold.Chemscore.Lipo.Weighted>
-11.7643

> <Gold.Chemscore.Internal_Hbond.Weighted>
0.0000

> <Gold.Chemscore.DEClash.Weighted>
1.3570

> <Gold.Chemscore.DEInternal.Weighted>
2.7622

> <Gold.Chemscore.Rot.Weighted>
7.5359

> <Gold.Chemscore.Internal.Correction.Weighted>
   9.000000E+99

> <Gold.Protein.RotatedTorsions>
[ 6907 6896 6895 6894 ] final -114.47 input  -60.11 | X-H torsion
[ 7974 7965 7964 7962 ] final  -88.84 input  175.53 | X-H torsion
[ 8008 7997 7996 7995 ] final   98.13 input   59.86 | X-H torsion
[ 10167 10162 10161 10158 ] final -141.24 input  -65.29 | X-H torsion
[ 10718 10713 10712 10709 ] final  139.50 input   66.30 | X-H torsion
[ 10763 10752 10751 10750 ] final  109.61 input  -60.55 | X-H torsion
[ 11005 11000 10999 10996 ] final    4.62 input  -57.11 | X-H torsion

> <Gold.Protein.ActiveResidues>
 VAL166  LYS551  ARG553  GLY616  TRP617  ASP618  TYR619  PRO620  LYS621  CYS622 
 ASP623  PHE694  ASN695  SER759  ASP760  ASP761  ALA762  ILE779  LEU786  VAL792 
 PHE793  MET794  SER795  GLU796  ALA797  LYS798  CYS799  TRP800  GLU811  SER814 

> <Gold.Protein.RotatedAtoms>
  150.7905  133.8796  159.3281 H   0  0  0  0  0  0  0  0  0  0  0  0  # atno 6907 bound_to 6896
  151.6635  135.0984  160.0193 H   0  0  0  0  0  0  0  0  0  0  0  0  # atno 6908 bound_to 6896
  152.3978  133.6733  159.6326 H   0  0  0  0  0  0  0  0  0  0  0  0  # atno 6909 bound_to 6896
  145.4477  140.9560  143.2039 H   0  0  0  0  0  0  0  0  0  0  0  0  # atno 7974 bound_to 7965
  156.0973  140.3248  155.7895 H   0  0  0  0  0  0  0  0  0  0  0  0  # atno 8008 bound_to 7997
  155.4896  140.0560  157.2973 H   0  0  0  0  0  0  0  0  0  0  0  0  # atno 8009 bound_to 7997
  154.4674  140.1996  156.0097 H   0  0  0  0  0  0  0  0  0  0  0  0  # atno 8010 bound_to 7997
  139.8203  143.7582  152.2666 H   0  0  0  0  0  0  0  0  0  0  0  0  # atno 10167 bound_to 10162
  157.4137  131.1031  151.0427 H   0  0  0  0  0  0  0  0  0  0  0  0  # atno 10718 bound_to 10713
  153.4372  135.3774  155.2206 H   0  0  0  0  0  0  0  0  0  0  0  0  # atno 10763 bound_to 10752
  154.8752  135.3854  154.4196 H   0  0  0  0  0  0  0  0  0  0  0  0  # atno 10764 bound_to 10752
  153.4737  135.7087  153.6042 H   0  0  0  0  0  0  0  0  0  0  0  0  # atno 10765 bound_to 10752
  140.5799  134.0022  155.8043 H   0  0  0  0  0  0  0  0  0  0  0  0  # atno 11005 bound_to 11000
  144.8081  139.6013  143.7042 LP  0  0  0  0  0  0  0  0  0  0  0  0  # atno 17320 bound_to 7965
  146.2521  139.6223  142.9420 LP  0  0  0  0  0  0  0  0  0  0  0  0  # atno 17321 bound_to 7965
  139.7759  144.7461  151.0158 LP  0  0  0  0  0  0  0  0  0  0  0  0  # atno 17342 bound_to 10162
  140.7813  143.4594  151.0298 LP  0  0  0  0  0  0  0  0  0  0  0  0  # atno 17343 bound_to 10162
  157.1382  130.6132  149.5548 LP  0  0  0  0  0  0  0  0  0  0  0  0  # atno 17370 bound_to 10713
  155.9858  130.4890  150.7051 LP  0  0  0  0  0  0  0  0  0  0  0  0  # atno 17371 bound_to 10713
  141.1003  133.9779  157.3091 LP  0  0  0  0  0  0  0  0  0  0  0  0  # atno 17394 bound_to 11000
  139.9322  135.0199  156.8438 LP  0  0  0  0  0  0  0  0  0  0  0  0  # atno 17395 bound_to 11000

$$$$
