AV-unprocessed.smi:28|AV-procd|sdf|190|dock8
  -GOLD-   2262015453D 1   1.00000     0.00000
 Structure written by MMmdl.
 41 44  0  0  0  0  0  0  0  0  1 V2000
  147.6550  137.6556  156.3590 O   0  0  0  0  0  0  0  0  0  0  0  0
  147.5842  137.3870  157.5593 C   0  0  0  0  0  0  0  0  0  0  0  0
  146.3263  137.3463  158.2975 C   0  0  0  0  0  0  0  0  0  0  0  0
  145.1719  137.5970  157.6568 F   0  0  0  0  0  0  0  0  0  0  0  0
  146.3010  137.0684  159.6188 C   0  0  0  0  0  0  0  0  0  0  0  0
  147.4427  136.8052  160.3579 N   0  0  0  0  0  0  0  0  0  0  0  0
  147.3796  136.5222  161.8441 C   0  0  1  0  0  0  0  0  0  0  0  0
  145.9622  136.7709  162.3708 C   0  0  0  0  0  0  0  0  0  0  0  0
  145.3304  135.4064  162.2029 C   0  0  0  0  0  0  0  0  0  0  0  0
  146.5037  134.4822  162.5133 C   0  0  0  0  0  0  0  0  0  0  0  0
  147.6716  135.1732  162.0715 O   0  0  0  0  0  0  0  0  0  0  0  0
  148.7050  136.8252  159.7259 C   0  0  0  0  0  0  0  0  0  0  0  0
  149.7364  136.6210  160.3710 O   0  0  0  0  0  0  0  0  0  0  0  0
  148.7332  137.1055  158.3392 N   0  0  0  0  0  0  0  0  0  0  0  0
  150.0320  137.1825  157.6912 C   0  0  0  0  0  0  0  0  0  0  0  0
  150.8912  138.1987  158.3758 C   0  0  0  0  0  0  0  0  0  0  0  0
  151.8533  137.9778  159.2730 N   0  0  0  0  0  0  0  0  0  0  0  0
  152.3704  139.2162  159.5771 N   0  0  0  0  0  0  0  0  0  0  0  0
  151.6737  140.0993  158.8537 C   0  0  0  0  0  0  0  0  0  0  0  0
  151.8278  141.5494  158.7677 C   0  0  0  0  0  0  0  0  0  0  0  0
  151.0332  142.2565  157.8371 C   0  0  0  0  0  0  0  0  0  0  0  0
  151.1413  143.6548  157.7171 C   0  0  0  0  0  0  0  0  0  0  0  0
  152.0433  144.3616  158.5325 C   0  0  0  0  0  0  0  0  0  0  0  0
  152.8306  143.6684  159.4704 C   0  0  0  0  0  0  0  0  0  0  0  0
  152.7263  142.2683  159.5980 C   0  0  0  0  0  0  0  0  0  0  0  0
  153.7947  141.4090  160.9245 Br  0  0  0  0  0  0  0  0  0  0  0  0
  150.7296  139.5116  158.0710 O   0  0  0  0  0  0  0  0  0  0  0  0
  145.3379  137.0627  160.1067 H   0  0  0  0  0  0  0  0  0  0  0  0
  148.1448  137.1516  162.3013 H   0  0  0  0  0  0  0  0  0  0  0  0
  146.0250  137.0369  163.4266 H   0  0  0  0  0  0  0  0  0  0  0  0
  145.4483  137.5695  161.8347 H   0  0  0  0  0  0  0  0  0  0  0  0
  144.4751  135.2455  162.8594 H   0  0  0  0  0  0  0  0  0  0  0  0
  145.0002  135.2680  161.1726 H   0  0  0  0  0  0  0  0  0  0  0  0
  146.5828  134.3202  163.5890 H   0  0  0  0  0  0  0  0  0  0  0  0
  146.4089  133.5095  162.0304 H   0  0  0  0  0  0  0  0  0  0  0  0
  150.4920  136.1932  157.7154 H   0  0  0  0  0  0  0  0  0  0  0  0
  149.8920  137.4300  156.6381 H   0  0  0  0  0  0  0  0  0  0  0  0
  150.3382  141.7266  157.2019 H   0  0  0  0  0  0  0  0  0  0  0  0
  150.5322  144.1845  156.9995 H   0  0  0  0  0  0  0  0  0  0  0  0
  152.1273  145.4347  158.4432 H   0  0  0  0  0  0  0  0  0  0  0  0
  153.5149  144.2157  160.1018 H   0  0  0  0  0  0  0  0  0  0  0  0
  1  2  2  0  0  0  0
  2 14  1  0  0  0  0
  2  3  1  0  0  0  0
  3  4  1  0  0  0  0
  3  5  2  0  0  0  0
  5  6  1  0  0  0  0
  5 28  1  0  0  0  0
  6  7  1  0  0  0  0
  6 12  1  0  0  0  0
  7 11  1  0  0  0  0
  7  8  1  0  0  0  0
  7 29  1  0  0  0  0
  8  9  1  0  0  0  0
  8 30  1  0  0  0  0
  8 31  1  0  0  0  0
  9 10  1  0  0  0  0
  9 32  1  0  0  0  0
  9 33  1  0  0  0  0
 10 11  1  0  0  0  0
 10 34  1  0  0  0  0
 10 35  1  0  0  0  0
 12 13  2  0  0  0  0
 12 14  1  0  0  0  0
 14 15  1  0  0  0  0
 15 16  1  0  0  0  0
 15 36  1  0  0  0  0
 15 37  1  0  0  0  0
 16 27  1  0  0  0  0
 16 17  2  0  0  0  0
 17 18  1  0  0  0  0
 18 19  2  0  0  0  0
 19 20  1  0  0  0  0
 19 27  1  0  0  0  0
 20 25  1  0  0  0  0
 20 21  2  0  0  0  0
 21 22  1  0  0  0  0
 21 38  1  0  0  0  0
 22 23  2  0  0  0  0
 22 39  1  0  0  0  0
 23 24  1  0  0  0  0
 23 40  1  0  0  0  0
 24 25  2  0  0  0  0
 24 41  1  0  0  0  0
 25 26  1  0  0  0  0
M  END
> <s_m_source_file>
AV-unprocessed.smi

> <i_m_source_file_index>
28

> <i_lp_mmshare_version>
43012

> <i_f3d_flags>
0

> <s_epik_input>
TzFbQ0gyXVtDSDJdW0NIMl1bQ0BIXTFuKFtjSF1jKEYpYzI9TyljKD1PKW4yW0NIMl1jM25uYyhvMyktYzRbY0hdW2NIXVtjSF1bY0hdYzRCcg==

> <s_epik_cmdline>
J2VwaWtfcHl0aG9uJywgJy1waCcsICc3LjAnLCAnLXRuJywgJzgnLCAnLW1hJywgJzIwMCcsICctbWV0YWxfYmluZGluZycsICctaW1hZScsICc8aW5maWxlLm1hZT4nLCAnLW9tYWUnLCAnPG91dGZpbGUubWFlPic=

> <r_lp_tautomer_probability>
1

> <r_epik_Ionization_Penalty>
2.5628e-09

> <r_epik_Ionization_Penalty_Charging>
2.54231e-09

> <r_epik_Ionization_Penalty_Neutral>
2.0492e-11

> <r_epik_State_Penalty>
-0

> <r_epik_Charging_Adjusted_Penalty>
2.54231e-09

> <i_epik_Tot_Q>
0

> <i_epik_Tot_abs_Q>
0

> <r_epik_Metal_State_Penalty>
-0

> <b_epik_Metal_Only>
0

> <s_epik_Chemistry_Notes>
This compound contains an acetal/aminal-like group ( X-CH(R)-Y where X, Y are N, S, or O) that may be acid/base labile, releasing an aldehyde.

> <s_lp_Force_Field>
OPLS_2005

> <r_lp_Energy>
35.5142

> <b_lp_Chiralities_Consistent>
1

> <s_lp_Variant>
AV-unprocessed.smi:28-2

> <Gold.Version>
5.8.1

> <Gold.Id.Protein>
6NUR|6NUR_protein|mol2

> <Gold.PLP.Fitness>
45.7329

> <Gold.PLP.PLP>
-43.7183

> <Gold.PLP.part.hbond>
-1.8416

> <Gold.PLP.part.metal>
0.0000

> <Gold.PLP.part.buried>
-3.9146

> <Gold.PLP.part.nonpolar>
-39.0348

> <Gold.PLP.part.repulsive>
0.0083

> <Gold.PLP.ligand.clash>
0.0000

> <Gold.PLP.ligand.torsion>
0.4997

> <Gold.PLP.Chemscore.Hbond>
0.9935

> <Gold.PLP.Chemscore.CHOScore>
0.0000

> <Gold.PLP.Chemscore.Metal>
0.0000

> <Gold.Chemscore.Hbonds>
donor molecule, donor type, donor heavy atom, donor atom, acceptor molecule, acceptor atom, score
      P1  H  6896  6909       L1    13  0.80
      P1  H  6931  6943       L1    13  0.08

> <Gold.PLP.Chemscore.Internal.Correction>
0.0334

> <Gold.Rescore>
     Score         DG    S(hbond)    S(metal)    S(lipo)     H(rot)  DE(clash)    DE(int)     intcor
     11.04     -16.24       1.00        0.00     100.64       1.70       0.02       5.18       ----

> <Gold.Chemscore.Fitness>
11.0385

> <Gold.Chemscore.DG>
-16.2380

> <Gold.Chemscore.ZeroCoef>
-5.4800

> <Gold.Chemscore.Hbond>
0.9971

> <Gold.Chemscore.Metal>
0.0000

> <Gold.Chemscore.Lipo>
100.6378

> <Gold.Chemscore.Internal_Hbond>
0.0000

> <Gold.Chemscore.DEClash>
0.0158

> <Gold.Chemscore.DEInternal>
5.1837

> <Gold.Chemscore.Rot>
1.6980

> <Gold.Chemscore.Internal.Correction>
   9.000000E+99

> <Gold.Chemscore.Hbonds>
donor molecule, donor type, donor heavy atom, donor atom, acceptor molecule, acceptor atom, score
      P1  H  6896  6909       L1    13  0.76

> <Gold.Chemscore.Hbond.Weighted>
-3.3302

> <Gold.Chemscore.Metal.Weighted>
-0.0000

> <Gold.Chemscore.Lipo.Weighted>
-11.7746

> <Gold.Chemscore.Internal_Hbond.Weighted>
0.0000

> <Gold.Chemscore.DEClash.Weighted>
0.0158

> <Gold.Chemscore.DEInternal.Weighted>
5.1837

> <Gold.Chemscore.Rot.Weighted>
4.3469

> <Gold.Chemscore.Internal.Correction.Weighted>
   9.000000E+99

> <Gold.Protein.RotatedTorsions>
[ 6907 6896 6895 6894 ] final   87.93 input  -60.11 | X-H torsion
[ 7974 7965 7964 7962 ] final  159.15 input  175.53 | X-H torsion
[ 8008 7997 7996 7995 ] final  -75.18 input   59.86 | X-H torsion
[ 10167 10162 10161 10158 ] final  -38.68 input  -65.29 | X-H torsion
[ 10718 10713 10712 10709 ] final   63.07 input   66.30 | X-H torsion
[ 10763 10752 10751 10750 ] final   74.90 input  -60.55 | X-H torsion
[ 11005 11000 10999 10996 ] final  152.94 input  -57.11 | X-H torsion

> <Gold.Protein.ActiveResidues>
 VAL166  LYS551  ARG553  GLY616  TRP617  ASP618  TYR619  PRO620  LYS621  CYS622 
 ASP623  PHE694  ASN695  SER759  ASP760  ASP761  ALA762  ILE779  LEU786  VAL792 
 PHE793  MET794  SER795  GLU796  ALA797  LYS798  CYS799  TRP800  GLU811  SER814 

> <Gold.Protein.RotatedAtoms>
  152.5418  134.2200  159.8783 H   0  0  0  0  0  0  0  0  0  0  0  0  # atno 6907 bound_to 6896
  151.2177  133.4513  159.2607 H   0  0  0  0  0  0  0  0  0  0  0  0  # atno 6908 bound_to 6896
  151.0835  134.9886  159.8423 H   0  0  0  0  0  0  0  0  0  0  0  0  # atno 6909 bound_to 6896
  144.7806  139.7577  143.6261 H   0  0  0  0  0  0  0  0  0  0  0  0  # atno 7974 bound_to 7965
  154.5395  140.0748  156.8485 H   0  0  0  0  0  0  0  0  0  0  0  0  # atno 8008 bound_to 7997
  155.3210  140.3396  155.4223 H   0  0  0  0  0  0  0  0  0  0  0  0  # atno 8009 bound_to 7997
  156.1860  140.1669  156.8170 H   0  0  0  0  0  0  0  0  0  0  0  0  # atno 8010 bound_to 7997
  140.7085  143.3262  151.2675 H   0  0  0  0  0  0  0  0  0  0  0  0  # atno 10167 bound_to 10162
  157.5945  130.9085  149.9668 H   0  0  0  0  0  0  0  0  0  0  0  0  # atno 10718 bound_to 10713
  153.0618  135.5008  154.8110 H   0  0  0  0  0  0  0  0  0  0  0  0  # atno 10763 bound_to 10752
  154.6894  135.2982  154.9504 H   0  0  0  0  0  0  0  0  0  0  0  0  # atno 10764 bound_to 10752
  154.0264  135.6735  153.4829 H   0  0  0  0  0  0  0  0  0  0  0  0  # atno 10765 bound_to 10752
  140.1353  134.8775  157.2259 H   0  0  0  0  0  0  0  0  0  0  0  0  # atno 11005 bound_to 11000
  146.2012  139.5307  142.9742 LP  0  0  0  0  0  0  0  0  0  0  0  0  # atno 17320 bound_to 7965
  145.6061  141.0347  143.1992 LP  0  0  0  0  0  0  0  0  0  0  0  0  # atno 17321 bound_to 7965
  139.6731  143.9986  152.2765 LP  0  0  0  0  0  0  0  0  0  0  0  0  # atno 17342 bound_to 10162
  139.9591  144.6570  150.8097 LP  0  0  0  0  0  0  0  0  0  0  0  0  # atno 17343 bound_to 10162
  156.1005  130.3656  150.0226 LP  0  0  0  0  0  0  0  0  0  0  0  0  # atno 17370 bound_to 10713
  156.8343  130.9403  151.3635 LP  0  0  0  0  0  0  0  0  0  0  0  0  # atno 17371 bound_to 10713
  140.2790  134.3372  155.7349 LP  0  0  0  0  0  0  0  0  0  0  0  0  # atno 17394 bound_to 11000
  141.2177  133.7467  156.9336 LP  0  0  0  0  0  0  0  0  0  0  0  0  # atno 17395 bound_to 11000

$$$$
