AV-unprocessed.smi:3040|AV-procd|sdf|11595|dock4
  -GOLD-   2272016573D 1   1.00000     0.00000
 Structure written by MMmdl.
 39 40  0  0  0  0  0  0  0  0  1 V2000
  156.0896  134.8683  158.8654 C   0  0  0  0  0  0  0  0  0  0  0  0
  154.9997  135.8069  159.1377 N   0  0  0  0  0  0  0  0  0  0  0  0
  154.9209  136.2740  160.5270 C   0  0  0  0  0  0  0  0  0  0  0  0
  153.5393  136.8303  160.8958 C   0  0  0  0  0  0  0  0  0  0  0  0
  153.0388  137.8385  159.8511 C   0  0  1  0  0  0  0  0  0  0  0  0
  153.8042  139.1711  159.9150 C   0  0  0  0  0  0  0  0  0  0  0  0
  154.5607  139.4997  159.0003 O   0  0  0  0  0  0  0  0  0  0  0  0
  153.6141  139.9177  161.0151 N   0  0  0  0  0  0  0  0  0  0  0  0
  154.3365  141.1463  161.3397 C   0  0  0  0  0  0  0  0  0  0  0  0
  153.3892  142.3541  161.4860 C   0  0  0  0  0  0  0  0  0  0  0  0
  152.7784  142.7855  160.1779 C   0  0  0  0  0  0  0  0  0  0  0  0
  151.9886  142.0106  159.2811 C   0  0  0  0  0  0  0  0  0  0  0  0
  151.6382  142.6794  158.1946 N   0  0  0  0  0  0  0  0  0  0  0  0
  152.1872  143.8999  158.3600 N   0  0  0  0  0  0  0  0  0  0  0  0
  152.0140  144.9055  157.3340 C   0  0  0  0  0  0  0  0  0  0  0  0
  152.8716  143.9965  159.5518 C   0  0  0  0  0  0  0  0  0  0  0  0
  153.0447  137.2188  158.4344 C   0  0  0  0  0  0  0  0  0  0  0  0
  154.1834  136.2226  158.1386 C   0  0  0  0  0  0  0  0  0  0  0  0
  154.3045  135.8195  156.9813 O   0  0  0  0  0  0  0  0  0  0  0  0
  156.6899  135.1994  158.0165 H   0  0  0  0  0  0  0  0  0  0  0  0
  155.6901  133.8795  158.6369 H   0  0  0  0  0  0  0  0  0  0  0  0
  156.7663  134.7670  159.7148 H   0  0  0  0  0  0  0  0  0  0  0  0
  155.1649  135.4600  161.2111 H   0  0  0  0  0  0  0  0  0  0  0  0
  155.6865  137.0366  160.6727 H   0  0  0  0  0  0  0  0  0  0  0  0
  152.8273  136.0068  160.9654 H   0  0  0  0  0  0  0  0  0  0  0  0
  153.5725  137.2836  161.8872 H   0  0  0  0  0  0  0  0  0  0  0  0
  151.9995  138.0675  160.0935 H   0  0  0  0  0  0  0  0  0  0  0  0
  152.9660  139.5760  161.7100 H   0  0  0  0  0  0  0  0  0  0  0  0
  154.9199  141.0203  162.2534 H   0  0  0  0  0  0  0  0  0  0  0  0
  155.0584  141.3404  160.5463 H   0  0  0  0  0  0  0  0  0  0  0  0
  152.6095  142.1045  162.2061 H   0  0  0  0  0  0  0  0  0  0  0  0
  153.9428  143.1802  161.9336 H   0  0  0  0  0  0  0  0  0  0  0  0
  151.6749  140.9821  159.3812 H   0  0  0  0  0  0  0  0  0  0  0  0
  152.6548  145.7633  157.5403 H   0  0  0  0  0  0  0  0  0  0  0  0
  150.9747  145.2340  157.3130 H   0  0  0  0  0  0  0  0  0  0  0  0
  152.2805  144.4922  156.3604 H   0  0  0  0  0  0  0  0  0  0  0  0
  153.3788  144.9036  159.8456 H   0  0  0  0  0  0  0  0  0  0  0  0
  152.1104  136.6749  158.2908 H   0  0  0  0  0  0  0  0  0  0  0  0
  153.0494  137.9970  157.6689 H   0  0  0  0  0  0  0  0  0  0  0  0
  1  2  1  0  0  0  0
  1 20  1  0  0  0  0
  1 21  1  0  0  0  0
  1 22  1  0  0  0  0
  2 18  1  0  0  0  0
  2  3  1  0  0  0  0
  3  4  1  0  0  0  0
  3 23  1  0  0  0  0
  3 24  1  0  0  0  0
  4  5  1  0  0  0  0
  4 25  1  0  0  0  0
  4 26  1  0  0  0  0
  5  6  1  0  0  0  0
  5 17  1  0  0  0  0
  5 27  1  0  0  0  0
  6  7  2  0  0  0  0
  6  8  1  0  0  0  0
  8  9  1  0  0  0  0
  8 28  1  0  0  0  0
  9 10  1  0  0  0  0
  9 29  1  0  0  0  0
  9 30  1  0  0  0  0
 10 11  1  0  0  0  0
 10 31  1  0  0  0  0
 10 32  1  0  0  0  0
 11 16  2  0  0  0  0
 11 12  1  0  0  0  0
 12 13  2  0  0  0  0
 12 33  1  0  0  0  0
 13 14  1  0  0  0  0
 14 15  1  0  0  0  0
 14 16  1  0  0  0  0
 15 34  1  0  0  0  0
 15 35  1  0  0  0  0
 15 36  1  0  0  0  0
 16 37  1  0  0  0  0
 17 18  1  0  0  0  0
 17 38  1  0  0  0  0
 17 39  1  0  0  0  0
 18 19  2  0  0  0  0
M  END
> <s_m_source_file>
AV-unprocessed.smi

> <i_m_source_file_index>
3040

> <i_lp_mmshare_version>
43012

> <i_f3d_flags>
0

> <s_epik_input>
W0NIM11OMVtDSDJdW0NIMl1bQ0BIXShbQ0gyXUMxPU8pQyg9TylbTkhdW0NIMl1bQ0gyXWMyW2NIXW5uKFtDSDNdKVtjSF0y

> <s_epik_cmdline>
J2VwaWtfcHl0aG9uJywgJy1waCcsICc3LjAnLCAnLXRuJywgJzgnLCAnLW1hJywgJzIwMCcsICctbWV0YWxfYmluZGluZycsICctaW1hZScsICc8aW5maWxlLm1hZT4nLCAnLW9tYWUnLCAnPG91dGZpbGUubWFlPic=

> <r_lp_tautomer_probability>
1

> <r_epik_Ionization_Penalty>
0.000456436

> <r_epik_Ionization_Penalty_Charging>
0

> <r_epik_Ionization_Penalty_Neutral>
0.000456436

> <r_epik_State_Penalty>
-0

> <r_epik_Charging_Adjusted_Penalty>
0

> <i_epik_Tot_Q>
0

> <i_epik_Tot_abs_Q>
0

> <r_epik_Metal_State_Penalty>
-0

> <b_epik_Metal_Only>
0

> <s_lp_Force_Field>
OPLS_2005

> <r_lp_Energy>
8.58968

> <b_lp_Chiralities_Consistent>
1

> <s_lp_Variant>
AV-unprocessed.smi:3040-1

> <Gold.Version>
5.8.1

> <Gold.Id.Protein>
6NUR|6NUR_protein|mol2

> <Gold.PLP.Fitness>
38.2347

> <Gold.PLP.PLP>
-32.7244

> <Gold.PLP.part.hbond>
-2.0000

> <Gold.PLP.part.metal>
0.0000

> <Gold.PLP.part.buried>
-3.1284

> <Gold.PLP.part.nonpolar>
-27.1107

> <Gold.PLP.part.repulsive>
0.0848

> <Gold.PLP.ligand.clash>
0.0000

> <Gold.PLP.ligand.torsion>
0.2661

> <Gold.PLP.Chemscore.Hbond>
2.0000

> <Gold.PLP.Chemscore.CHOScore>
0.0000

> <Gold.PLP.Chemscore.Metal>
0.0000

> <Gold.Chemscore.Hbonds>
donor molecule, donor type, donor heavy atom, donor atom, acceptor molecule, acceptor atom, score
      P1  H  7997  8010       L1     7  1.00
      P1  H 10752 10765       L1    19  1.00

> <Gold.PLP.Chemscore.Internal.Correction>
0.0423

> <Gold.Rescore>
     Score         DG    S(hbond)    S(metal)    S(lipo)     H(rot)  DE(clash)    DE(int)     intcor
     17.17     -18.87       2.00        0.00      93.68       1.65       1.46       0.25       ----

> <Gold.Chemscore.Fitness>
17.1714

> <Gold.Chemscore.DG>
-18.8746

> <Gold.Chemscore.ZeroCoef>
-5.4800

> <Gold.Chemscore.Hbond>
1.9963

> <Gold.Chemscore.Metal>
0.0000

> <Gold.Chemscore.Lipo>
93.6770

> <Gold.Chemscore.Internal_Hbond>
0.0000

> <Gold.Chemscore.DEClash>
1.4555

> <Gold.Chemscore.DEInternal>
0.2476

> <Gold.Chemscore.Rot>
1.6536

> <Gold.Chemscore.Internal.Correction>
   9.000000E+99

> <Gold.Chemscore.Hbonds>
donor molecule, donor type, donor heavy atom, donor atom, acceptor molecule, acceptor atom, score
      P1  H  7997  8010       L1     7  1.00
      P1  H 10752 10765       L1    19  1.00

> <Gold.Chemscore.Hbond.Weighted>
-6.6675

> <Gold.Chemscore.Metal.Weighted>
-0.0000

> <Gold.Chemscore.Lipo.Weighted>
-10.9602

> <Gold.Chemscore.Internal_Hbond.Weighted>
0.0000

> <Gold.Chemscore.DEClash.Weighted>
1.4555

> <Gold.Chemscore.DEInternal.Weighted>
0.2476

> <Gold.Chemscore.Rot.Weighted>
4.2332

> <Gold.Chemscore.Internal.Correction.Weighted>
   9.000000E+99

> <Gold.Protein.RotatedTorsions>
[ 6907 6896 6895 6894 ] final   77.67 input  -60.11 | X-H torsion
[ 7974 7965 7964 7962 ] final   86.64 input  175.53 | X-H torsion
[ 8008 7997 7996 7995 ] final    0.29 input   59.86 | X-H torsion
[ 10167 10162 10161 10158 ] final  -51.78 input  -65.29 | X-H torsion
[ 10718 10713 10712 10709 ] final   33.52 input   66.30 | X-H torsion
[ 10763 10752 10751 10750 ] final  -85.06 input  -60.55 | X-H torsion
[ 11005 11000 10999 10996 ] final -124.76 input  -57.11 | X-H torsion

> <Gold.Protein.ActiveResidues>
 VAL166  LYS551  ARG553  GLY616  TRP617  ASP618  TYR619  PRO620  LYS621  CYS622 
 ASP623  PHE694  ASN695  SER759  ASP760  ASP761  ALA762  ILE779  LEU786  VAL792 
 PHE793  MET794  SER795  GLU796  ALA797  LYS798  CYS799  TRP800  GLU811  SER814 

> <Gold.Protein.RotatedAtoms>
  152.5127  134.3782  159.9341 H   0  0  0  0  0  0  0  0  0  0  0  0  # atno 6907 bound_to 6896
  151.3738  133.3839  159.2710 H   0  0  0  0  0  0  0  0  0  0  0  0  # atno 6908 bound_to 6896
  150.9557  134.8972  159.7758 H   0  0  0  0  0  0  0  0  0  0  0  0  # atno 6909 bound_to 6896
  145.5695  139.2312  143.2414 H   0  0  0  0  0  0  0  0  0  0  0  0  # atno 7974 bound_to 7965
  154.6664  140.2602  155.7053 H   0  0  0  0  0  0  0  0  0  0  0  0  # atno 8008 bound_to 7997
  156.2640  140.2838  156.1078 H   0  0  0  0  0  0  0  0  0  0  0  0  # atno 8009 bound_to 7997
  155.1232  140.0377  157.2746 H   0  0  0  0  0  0  0  0  0  0  0  0  # atno 8010 bound_to 7997
  140.6571  143.2607  151.4553 H   0  0  0  0  0  0  0  0  0  0  0  0  # atno 10167 bound_to 10162
  157.2989  130.7340  149.6655 H   0  0  0  0  0  0  0  0  0  0  0  0  # atno 10718 bound_to 10713
  154.6067  135.5498  153.7430 H   0  0  0  0  0  0  0  0  0  0  0  0  # atno 10763 bound_to 10752
  153.0177  135.6379  154.1637 H   0  0  0  0  0  0  0  0  0  0  0  0  # atno 10764 bound_to 10752
  154.1576  135.2899  155.3098 H   0  0  0  0  0  0  0  0  0  0  0  0  # atno 10765 bound_to 10752
  140.9816  134.0665  157.3758 H   0  0  0  0  0  0  0  0  0  0  0  0  # atno 11005 bound_to 11000
  146.1794  140.6521  142.9196 LP  0  0  0  0  0  0  0  0  0  0  0  0  # atno 17320 bound_to 7965
  144.7444  140.5029  143.6846 LP  0  0  0  0  0  0  0  0  0  0  0  0  # atno 17321 bound_to 7965
  139.5796  144.1740  152.1950 LP  0  0  0  0  0  0  0  0  0  0  0  0  # atno 17342 bound_to 10162
  140.1061  144.5497  150.6956 LP  0  0  0  0  0  0  0  0  0  0  0  0  # atno 17343 bound_to 10162
  155.9670  130.4286  150.4795 LP  0  0  0  0  0  0  0  0  0  0  0  0  # atno 17370 bound_to 10713
  157.2772  131.0599  151.2221 LP  0  0  0  0  0  0  0  0  0  0  0  0  # atno 17371 bound_to 10713
  139.8952  135.0140  156.6992 LP  0  0  0  0  0  0  0  0  0  0  0  0  # atno 17394 bound_to 11000
  140.7178  133.9167  155.8126 LP  0  0  0  0  0  0  0  0  0  0  0  0  # atno 17395 bound_to 11000

$$$$
