AV-unprocessed.smi:3290|AV-procd|sdf|12615|dock5
  -GOLD-   2272018543D 1   1.00000     0.00000
 Structure written by MMmdl.
 43 44  0  0  0  0  0  0  0  0  2 V2000
  149.3087  141.5831  154.9614 C   0  0  0  0  0  0  0  0  0  0  0  0
  149.9323  140.2017  155.2313 C   0  0  2  0  0  0  0  0  0  0  0  0
  151.4503  140.3574  155.4634 C   0  0  0  0  0  0  0  0  0  0  0  0
  152.1221  139.0183  155.7946 C   0  0  0  0  0  0  0  0  0  0  0  0
  151.8534  137.9880  154.6926 C   0  0  0  0  0  0  0  0  0  0  0  0
  150.3459  137.8180  154.4594 C   0  0  0  0  0  0  0  0  0  0  0  0
  149.6512  139.1542  154.1131 C   0  0  1  0  0  0  0  0  0  0  0  0
  148.1468  138.8995  153.8658 C   0  0  0  0  0  0  0  0  0  0  0  0
  147.8783  138.4356  152.4898 N   0  3  0  0  0  0  0  0  0  0  0  0
  146.4496  138.4476  152.1174 C   0  0  0  0  0  0  0  0  0  0  0  0
  145.6087  137.5935  153.0819 C   0  0  1  0  0  0  0  0  0  0  0  0
  144.4584  138.3275  153.4543 O   0  0  0  0  0  0  0  0  0  0  0  0
  145.2453  136.2569  152.4553 C   0  0  0  0  0  0  0  0  0  0  0  0
  145.6462  135.9330  151.1408 C   0  0  0  0  0  0  0  0  0  0  0  0
  145.2894  134.6736  150.6185 C   0  0  0  0  0  0  0  0  0  0  0  0
  144.5825  133.7566  151.3129 N   0  0  0  0  0  0  0  0  0  0  0  0
  144.2021  134.0712  152.5696 C   0  0  0  0  0  0  0  0  0  0  0  0
  144.5074  135.3018  153.1854 C   0  0  0  0  0  0  0  0  0  0  0  0
  149.6129  141.9751  153.9904 H   0  0  0  0  0  0  0  0  0  0  0  0
  149.6154  142.3049  155.7192 H   0  0  0  0  0  0  0  0  0  0  0  0
  148.2201  141.5471  154.9899 H   0  0  0  0  0  0  0  0  0  0  0  0
  149.4977  139.8289  156.1601 H   0  0  0  0  0  0  0  0  0  0  0  0
  151.9175  140.7880  154.5764 H   0  0  0  0  0  0  0  0  0  0  0  0
  151.6342  141.0596  156.2775 H   0  0  0  0  0  0  0  0  0  0  0  0
  153.1960  139.1599  155.9185 H   0  0  0  0  0  0  0  0  0  0  0  0
  151.7463  138.6443  156.7477 H   0  0  0  0  0  0  0  0  0  0  0  0
  152.3363  138.3045  153.7672 H   0  0  0  0  0  0  0  0  0  0  0  0
  152.2989  137.0303  154.9631 H   0  0  0  0  0  0  0  0  0  0  0  0
  150.1927  137.0973  153.6552 H   0  0  0  0  0  0  0  0  0  0  0  0
  149.8884  137.3843  155.3499 H   0  0  0  0  0  0  0  0  0  0  0  0
  150.0951  139.5119  153.1823 H   0  0  0  0  0  0  0  0  0  0  0  0
  147.7821  138.1239  154.5409 H   0  0  0  0  0  0  0  0  0  0  0  0
  147.5682  139.7988  154.0814 H   0  0  0  0  0  0  0  0  0  0  0  0
  148.3811  139.0311  151.8475 H   0  0  0  0  0  0  0  0  0  0  0  0
  146.0835  139.4756  152.0988 H   0  0  0  0  0  0  0  0  0  0  0  0
  146.3551  138.0561  151.1035 H   0  0  0  0  0  0  0  0  0  0  0  0
  146.1831  137.4049  153.9902 H   0  0  0  0  0  0  0  0  0  0  0  0
  144.5385  139.2049  153.1109 H   0  0  0  0  0  0  0  0  0  0  0  0
  146.2162  136.6293  150.5434 H   0  0  0  0  0  0  0  0  0  0  0  0
  145.5819  134.3952  149.6169 H   0  0  0  0  0  0  0  0  0  0  0  0
  143.6389  133.3193  153.1023 H   0  0  0  0  0  0  0  0  0  0  0  0
  144.1807  135.5011  154.1956 H   0  0  0  0  0  0  0  0  0  0  0  0
  148.2250  137.4915  152.3929 H   0  0  0  0  0  0  0  0  0  0  0  0
  1  2  1  0  0  0  0
  1 19  1  0  0  0  0
  1 20  1  0  0  0  0
  1 21  1  0  0  0  0
  2  7  1  0  0  0  0
  2  3  1  0  0  0  0
  2 22  1  0  0  0  0
  3  4  1  0  0  0  0
  3 23  1  0  0  0  0
  3 24  1  0  0  0  0
  4  5  1  0  0  0  0
  4 25  1  0  0  0  0
  4 26  1  0  0  0  0
  5  6  1  0  0  0  0
  5 27  1  0  0  0  0
  5 28  1  0  0  0  0
  6  7  1  0  0  0  0
  6 29  1  0  0  0  0
  6 30  1  0  0  0  0
  7  8  1  0  0  0  0
  7 31  1  0  0  0  0
  8  9  1  0  0  0  0
  8 32  1  0  0  0  0
  8 33  1  0  0  0  0
  9 10  1  0  0  0  0
  9 34  1  0  0  0  0
  9 43  1  0  0  0  0
 10 11  1  0  0  0  0
 10 35  1  0  0  0  0
 10 36  1  0  0  0  0
 11 12  1  0  0  0  0
 11 13  1  0  0  0  0
 11 37  1  0  0  0  0
 12 38  1  0  0  0  0
 13 18  1  0  0  0  0
 13 14  2  0  0  0  0
 14 15  1  0  0  0  0
 14 39  1  0  0  0  0
 15 16  2  0  0  0  0
 15 40  1  0  0  0  0
 16 17  1  0  0  0  0
 17 18  2  0  0  0  0
 17 41  1  0  0  0  0
 18 42  1  0  0  0  0
M  CHG  1   9   1
M  END
> <s_m_source_file>
AV-unprocessed.smi

> <i_m_source_file_index>
3290

> <i_lp_mmshare_version>
43012

> <i_f3d_flags>
0

> <s_epik_input>
W0NIM11bQ0BASF0xW0NIMl1bQ0gyXVtDSDJdW0NIMl1bQ0BIXTFbQ0gyXVtOSF1bQ0gyXVtDQEhdKFtPSF0pYzJbY0hdW2NIXW5bY0hdW2NIXTI=

> <s_epik_cmdline>
J2VwaWtfcHl0aG9uJywgJy1waCcsICc3LjAnLCAnLXRuJywgJzgnLCAnLW1hJywgJzIwMCcsICctbWV0YWxfYmluZGluZycsICctaW1hZScsICc8aW5maWxlLm1hZT4nLCAnLW9tYWUnLCAnPG91dGZpbGUubWFlPic=

> <r_lp_tautomer_probability>
1

> <r_epik_Ionization_Penalty>
0.00420552

> <r_epik_Ionization_Penalty_Charging>
0.00207255

> <r_epik_Ionization_Penalty_Neutral>
0.00213297

> <r_epik_State_Penalty>
-0

> <r_epik_Charging_Adjusted_Penalty>
0.00207255

> <i_epik_Tot_Q>
1

> <i_epik_Tot_abs_Q>
1

> <r_epik_Metal_State_Penalty>
-0

> <b_epik_Metal_Only>
0

> <s_lp_Force_Field>
OPLS_2005

> <r_lp_Energy>
17.7323

> <b_lp_Chiralities_Consistent>
1

> <s_lp_Variant>
AV-unprocessed.smi:3290-5

> <Gold.Version>
5.8.1

> <Gold.Id.Protein>
6NUR|6NUR_protein|mol2

> <Gold.PLP.Fitness>
50.0921

> <Gold.PLP.PLP>
-34.5189

> <Gold.PLP.part.hbond>
-2.5866

> <Gold.PLP.part.metal>
0.0000

> <Gold.PLP.part.buried>
-2.0722

> <Gold.PLP.part.nonpolar>
-32.4371

> <Gold.PLP.part.repulsive>
0.2046

> <Gold.PLP.ligand.clash>
0.0000

> <Gold.PLP.ligand.torsion>
0.9463

> <Gold.PLP.Chemscore.Hbond>
3.8160

> <Gold.PLP.Chemscore.CHOScore>
1.9987

> <Gold.PLP.Chemscore.Metal>
0.0000

> <Gold.Chemscore.Hbonds>
donor molecule, donor type, donor heavy atom, donor atom, acceptor molecule, acceptor atom, score
      L1  H     9    34       P1  7957  1.00
      L1  H     9    43       P1  7948  2.00
      L1  H    12    38       P1 10175  0.85
      L1  C    15    40       P1  7921  1.00
      L1  C    17    41       P1 10957  1.00

> <Gold.PLP.Chemscore.Internal.Correction>
0.0218

> <Gold.Rescore>
     Score         DG    S(hbond)    S(metal)    S(lipo)     H(rot)  DE(clash)    DE(int)     intcor
     19.66     -20.91       2.94        0.00      92.69       2.05       0.44       0.81       ----

> <Gold.Chemscore.Fitness>
19.6607

> <Gold.Chemscore.DG>
-20.9055

> <Gold.Chemscore.ZeroCoef>
-5.4800

> <Gold.Chemscore.Hbond>
2.9426

> <Gold.Chemscore.Metal>
0.0000

> <Gold.Chemscore.Lipo>
92.6894

> <Gold.Chemscore.Internal_Hbond>
0.0000

> <Gold.Chemscore.DEClash>
0.4352

> <Gold.Chemscore.DEInternal>
0.8095

> <Gold.Chemscore.Rot>
2.0498

> <Gold.Chemscore.Internal.Correction>
   9.000000E+99

> <Gold.Chemscore.Hbonds>
donor molecule, donor type, donor heavy atom, donor atom, acceptor molecule, acceptor atom, score
      L1  H     9    34       P1  7957  0.94
      L1  H     9    43       P1  7948  0.93
      L1  H    12    38       P1 10175  0.85

> <Gold.Chemscore.Hbond.Weighted>
-9.8283

> <Gold.Chemscore.Metal.Weighted>
-0.0000

> <Gold.Chemscore.Lipo.Weighted>
-10.8447

> <Gold.Chemscore.Internal_Hbond.Weighted>
0.0000

> <Gold.Chemscore.DEClash.Weighted>
0.4352

> <Gold.Chemscore.DEInternal.Weighted>
0.8095

> <Gold.Chemscore.Rot.Weighted>
5.2475

> <Gold.Chemscore.Internal.Correction.Weighted>
   9.000000E+99

> <Gold.Protein.RotatedTorsions>
[ 6907 6896 6895 6894 ] final   14.03 input  -60.11 | X-H torsion
[ 7974 7965 7964 7962 ] final -116.61 input  175.53 | X-H torsion
[ 8008 7997 7996 7995 ] final -169.84 input   59.86 | X-H torsion
[ 10167 10162 10161 10158 ] final  -85.40 input  -65.29 | X-H torsion
[ 10718 10713 10712 10709 ] final   75.35 input   66.30 | X-H torsion
[ 10763 10752 10751 10750 ] final  -68.10 input  -60.55 | X-H torsion
[ 11005 11000 10999 10996 ] final  151.87 input  -57.11 | X-H torsion

> <Gold.Protein.ActiveResidues>
 VAL166  LYS551  ARG553  GLY616  TRP617  ASP618  TYR619  PRO620  LYS621  CYS622 
 ASP623  PHE694  ASN695  SER759  ASP760  ASP761  ALA762  ILE779  LEU786  VAL792 
 PHE793  MET794  SER795  GLU796  ALA797  LYS798  CYS799  TRP800  GLU811  SER814 

> <Gold.Protein.RotatedAtoms>
  151.7957  135.0723  160.0393 H   0  0  0  0  0  0  0  0  0  0  0  0  # atno 6907 bound_to 6896
  152.3125  133.5763  159.5698 H   0  0  0  0  0  0  0  0  0  0  0  0  # atno 6908 bound_to 6896
  150.7327  134.0047  159.3692 H   0  0  0  0  0  0  0  0  0  0  0  0  # atno 6909 bound_to 6896
  145.0948  140.8514  143.3961 H   0  0  0  0  0  0  0  0  0  0  0  0  # atno 7974 bound_to 7965
  155.9104  140.1056  157.1283 H   0  0  0  0  0  0  0  0  0  0  0  0  # atno 8008 bound_to 7997
  154.4038  140.1275  156.4615 H   0  0  0  0  0  0  0  0  0  0  0  0  # atno 8009 bound_to 7997
  155.7317  140.3468  155.5065 H   0  0  0  0  0  0  0  0  0  0  0  0  # atno 8010 bound_to 7997
  140.4041  143.2650  151.9104 H   0  0  0  0  0  0  0  0  0  0  0  0  # atno 10167 bound_to 10162
  157.6630  130.9722  150.1341 H   0  0  0  0  0  0  0  0  0  0  0  0  # atno 10718 bound_to 10713
  154.3841  135.6067  153.5807 H   0  0  0  0  0  0  0  0  0  0  0  0  # atno 10763 bound_to 10752
  152.9788  135.5868  154.4375 H   0  0  0  0  0  0  0  0  0  0  0  0  # atno 10764 bound_to 10752
  154.4149  135.2845  155.1991 H   0  0  0  0  0  0  0  0  0  0  0  0  # atno 10765 bound_to 10752
  140.1257  134.8834  157.2135 H   0  0  0  0  0  0  0  0  0  0  0  0  # atno 11005 bound_to 11000
  145.1024  139.2814  143.5679 LP  0  0  0  0  0  0  0  0  0  0  0  0  # atno 17320 bound_to 7965
  146.3531  140.0594  142.8630 LP  0  0  0  0  0  0  0  0  0  0  0  0  # atno 17321 bound_to 7965
  139.4784  144.5604  151.8248 LP  0  0  0  0  0  0  0  0  0  0  0  0  # atno 17342 bound_to 10162
  140.4708  144.1589  150.5918 LP  0  0  0  0  0  0  0  0  0  0  0  0  # atno 17343 bound_to 10162
  156.2180  130.3672  149.8590 LP  0  0  0  0  0  0  0  0  0  0  0  0  # atno 17370 bound_to 10713
  156.6450  130.8720  151.3521 LP  0  0  0  0  0  0  0  0  0  0  0  0  # atno 17371 bound_to 10713
  140.2906  134.3244  155.7316 LP  0  0  0  0  0  0  0  0  0  0  0  0  # atno 17394 bound_to 11000
  141.2161  133.7532  156.9498 LP  0  0  0  0  0  0  0  0  0  0  0  0  # atno 17395 bound_to 11000

$$$$
