AV-unprocessed.smi:1200|AV-procd|sdf|5022|dock4
  -GOLD-   22720 4 43D 1   1.00000     0.00000
 Structure written by MMmdl.
 42 43  0  0  0  0  0  0  0  0  1 V2000
  146.3424  134.7394  154.0052 C   0  0  0  0  0  0  0  0  0  0  0  0
  146.6112  136.0030  153.3368 N   0  0  0  0  0  0  0  0  0  0  0  0
  145.6845  136.9414  153.0943 C   0  0  0  0  0  0  0  0  0  0  0  0
  144.5013  136.8220  153.4105 O   0  0  0  0  0  0  0  0  0  0  0  0
  146.1640  138.2102  152.3793 C   0  0  0  0  0  0  0  0  0  0  0  0
  146.7853  139.2249  153.2627 N   0  0  0  0  0  0  0  0  0  0  0  0
  147.0533  140.4918  152.5652 C   0  0  0  0  0  0  0  0  0  0  0  0
  147.6339  141.5330  153.5387 C   0  0  0  0  0  0  0  0  0  0  0  0
  148.9189  141.0197  154.2034 C   0  0  0  0  0  0  0  0  0  0  0  0
  149.3707  141.9657  155.2210 N   0  0  0  0  0  0  0  0  0  0  0  0
  150.2567  141.7086  156.1942 C   0  0  0  0  0  0  0  0  0  0  0  0
  150.7934  140.6132  156.3569 O   0  0  0  0  0  0  0  0  0  0  0  0
  150.4573  142.7930  156.9631 N   0  0  0  0  0  0  0  0  0  0  0  0
  151.3216  142.9385  158.0824 C   0  0  0  0  0  0  0  0  0  0  0  0
  151.6248  144.2454  158.5171 C   0  0  0  0  0  0  0  0  0  0  0  0
  152.4904  144.4213  159.6133 C   0  0  0  0  0  0  0  0  0  0  0  0
  153.0312  143.2765  160.2296 C   0  0  0  0  0  0  0  0  0  0  0  0
  152.7651  142.0194  159.8175 N   0  0  0  0  0  0  0  0  0  0  0  0
  151.9315  141.8577  158.7671 C   0  0  0  0  0  0  0  0  0  0  0  0
  148.6408  139.6515  154.8413 C   0  0  0  0  0  0  0  0  0  0  0  0
  148.0280  138.6790  153.8185 C   0  0  0  0  0  0  0  0  0  0  0  0
  147.2646  134.1669  154.1021 H   0  0  0  0  0  0  0  0  0  0  0  0
  145.6289  134.1431  153.4351 H   0  0  0  0  0  0  0  0  0  0  0  0
  145.9382  134.9063  155.0046 H   0  0  0  0  0  0  0  0  0  0  0  0
  147.5614  136.1815  153.0452 H   0  0  0  0  0  0  0  0  0  0  0  0
  146.8832  137.9005  151.6197 H   0  0  0  0  0  0  0  0  0  0  0  0
  145.3226  138.6548  151.8441 H   0  0  0  0  0  0  0  0  0  0  0  0
  147.7402  140.3256  151.7334 H   0  0  0  0  0  0  0  0  0  0  0  0
  146.1387  140.9040  152.1393 H   0  0  0  0  0  0  0  0  0  0  0  0
  147.8360  142.4629  153.0058 H   0  0  0  0  0  0  0  0  0  0  0  0
  146.8883  141.7690  154.2997 H   0  0  0  0  0  0  0  0  0  0  0  0
  149.6785  140.8899  153.4304 H   0  0  0  0  0  0  0  0  0  0  0  0
  148.9789  142.8949  155.1754 H   0  0  0  0  0  0  0  0  0  0  0  0
  149.8847  143.5974  156.7527 H   0  0  0  0  0  0  0  0  0  0  0  0
  151.1969  145.1046  158.0211 H   0  0  0  0  0  0  0  0  0  0  0  0
  152.7353  145.4099  159.9725 H   0  0  0  0  0  0  0  0  0  0  0  0
  153.6997  143.3734  161.0724 H   0  0  0  0  0  0  0  0  0  0  0  0
  151.7790  140.8320  158.4703 H   0  0  0  0  0  0  0  0  0  0  0  0
  149.5649  139.2319  155.2406 H   0  0  0  0  0  0  0  0  0  0  0  0
  147.9604  139.7628  155.6872 H   0  0  0  0  0  0  0  0  0  0  0  0
  147.8239  137.7302  154.3164 H   0  0  0  0  0  0  0  0  0  0  0  0
  148.7428  138.4709  153.0201 H   0  0  0  0  0  0  0  0  0  0  0  0
  1  2  1  0  0  0  0
  1 22  1  0  0  0  0
  1 23  1  0  0  0  0
  1 24  1  0  0  0  0
  2  3  1  0  0  0  0
  2 25  1  0  0  0  0
  3  4  2  0  0  0  0
  3  5  1  0  0  0  0
  5  6  1  0  0  0  0
  5 26  1  0  0  0  0
  5 27  1  0  0  0  0
  6 21  1  0  0  0  0
  6  7  1  0  0  0  0
  7  8  1  0  0  0  0
  7 28  1  0  0  0  0
  7 29  1  0  0  0  0
  8  9  1  0  0  0  0
  8 30  1  0  0  0  0
  8 31  1  0  0  0  0
  9 10  1  0  0  0  0
  9 20  1  0  0  0  0
  9 32  1  0  0  0  0
 10 11  1  0  0  0  0
 10 33  1  0  0  0  0
 11 12  2  0  0  0  0
 11 13  1  0  0  0  0
 13 14  1  0  0  0  0
 13 34  1  0  0  0  0
 14 19  1  0  0  0  0
 14 15  2  0  0  0  0
 15 16  1  0  0  0  0
 15 35  1  0  0  0  0
 16 17  2  0  0  0  0
 16 36  1  0  0  0  0
 17 18  1  0  0  0  0
 17 37  1  0  0  0  0
 18 19  2  0  0  0  0
 19 38  1  0  0  0  0
 20 21  1  0  0  0  0
 20 39  1  0  0  0  0
 20 40  1  0  0  0  0
 21 41  1  0  0  0  0
 21 42  1  0  0  0  0
M  END
> <s_m_source_file>
AV-unprocessed.smi

> <i_m_source_file_index>
1200

> <i_lp_mmshare_version>
43012

> <i_f3d_flags>
0

> <s_epik_input>
W0NIM11bTkhdQyg9TylbQ0gyXU4xW0NIMl1bQ0gyXVtDSF0oW0NIMl1bQ0gyXTEpW05IXUMoPU8pW05IXWMyW2NIXVtjSF1bY0hdbltjSF0y

> <s_epik_cmdline>
J2VwaWtfcHl0aG9uJywgJy1waCcsICc3LjAnLCAnLXRuJywgJzgnLCAnLW1hJywgJzIwMCcsICctbWV0YWxfYmluZGluZycsICctaW1hZScsICc8aW5maWxlLm1hZT4nLCAnLW9tYWUnLCAnPG91dGZpbGUubWFlPic=

> <r_epik_Ionization_Penalty>
0.169655

> <r_epik_Ionization_Penalty_Charging>
0

> <r_epik_Ionization_Penalty_Neutral>
0.169655

> <r_epik_State_Penalty>
0.162809

> <r_epik_Charging_Adjusted_Penalty>
0.162809

> <i_epik_Tot_Q>
0

> <i_epik_Tot_abs_Q>
0

> <r_epik_Metal_State_Penalty>
0.163912

> <b_epik_Metal_Only>
0

> <s_lp_Force_Field>
OPLS_2005

> <r_lp_Energy>
16.8115

> <b_lp_Chiralities_Consistent>
1

> <s_lp_Variant>
AV-unprocessed.smi:1200-1

> <Gold.Version>
5.8.1

> <Gold.Id.Protein>
6NUR|6NUR_protein|mol2

> <Gold.PLP.Fitness>
45.0984

> <Gold.PLP.PLP>
-37.3184

> <Gold.PLP.part.hbond>
-2.9273

> <Gold.PLP.part.metal>
0.0000

> <Gold.PLP.part.buried>
-3.9551

> <Gold.PLP.part.nonpolar>
-31.1466

> <Gold.PLP.part.repulsive>
0.5984

> <Gold.PLP.ligand.clash>
0.0000

> <Gold.PLP.ligand.torsion>
0.6123

> <Gold.PLP.Chemscore.Hbond>
3.0000

> <Gold.PLP.Chemscore.CHOScore>
0.0000

> <Gold.PLP.Chemscore.Metal>
0.0000

> <Gold.Chemscore.Hbonds>
donor molecule, donor type, donor heavy atom, donor atom, acceptor molecule, acceptor atom, score
      L1  H     2    25       P1  7948  1.00
      L1  H    10    33       P1  8028  1.00
      L1  H    13    34       P1  8028  1.00

> <Gold.PLP.Chemscore.Internal.Correction>
0.0045

> <Gold.Rescore>
     Score         DG    S(hbond)    S(metal)    S(lipo)     H(rot)  DE(clash)    DE(int)     intcor
     19.69     -23.42       2.94        0.00     105.77       1.66       0.57       3.16       ----

> <Gold.Chemscore.Fitness>
19.6948

> <Gold.Chemscore.DG>
-23.4248

> <Gold.Chemscore.ZeroCoef>
-5.4800

> <Gold.Chemscore.Hbond>
2.9418

> <Gold.Chemscore.Metal>
0.0000

> <Gold.Chemscore.Lipo>
105.7666

> <Gold.Chemscore.Internal_Hbond>
0.0000

> <Gold.Chemscore.DEClash>
0.5674

> <Gold.Chemscore.DEInternal>
3.1626

> <Gold.Chemscore.Rot>
1.6623

> <Gold.Chemscore.Internal.Correction>
   9.000000E+99

> <Gold.Chemscore.Hbonds>
donor molecule, donor type, donor heavy atom, donor atom, acceptor molecule, acceptor atom, score
      L1  H     2    25       P1  7948  0.98
      L1  H    10    33       P1  8028  0.98
      L1  H    13    34       P1  8028  0.98

> <Gold.Chemscore.Hbond.Weighted>
-9.8256

> <Gold.Chemscore.Metal.Weighted>
-0.0000

> <Gold.Chemscore.Lipo.Weighted>
-12.3747

> <Gold.Chemscore.Internal_Hbond.Weighted>
0.0000

> <Gold.Chemscore.DEClash.Weighted>
0.5674

> <Gold.Chemscore.DEInternal.Weighted>
3.1626

> <Gold.Chemscore.Rot.Weighted>
4.2554

> <Gold.Chemscore.Internal.Correction.Weighted>
   9.000000E+99

> <Gold.Protein.RotatedTorsions>
[ 6907 6896 6895 6894 ] final  146.46 input  -60.11 | X-H torsion
[ 7974 7965 7964 7962 ] final   50.39 input  175.53 | X-H torsion
[ 8008 7997 7996 7995 ] final  -17.65 input   59.86 | X-H torsion
[ 10167 10162 10161 10158 ] final  117.25 input  -65.29 | X-H torsion
[ 10718 10713 10712 10709 ] final  110.20 input   66.30 | X-H torsion
[ 10763 10752 10751 10750 ] final   90.60 input  -60.55 | X-H torsion
[ 11005 11000 10999 10996 ] final  162.16 input  -57.11 | X-H torsion

> <Gold.Protein.ActiveResidues>
 VAL166  LYS551  ARG553  GLY616  TRP617  ASP618  TYR619  PRO620  LYS621  CYS622 
 ASP623  PHE694  ASN695  SER759  ASP760  ASP761  ALA762  ILE779  LEU786  VAL792 
 PHE793  MET794  SER795  GLU796  ALA797  LYS798  CYS799  TRP800  GLU811  SER814 

> <Gold.Protein.RotatedAtoms>
  152.1676  133.4622  159.4892 H   0  0  0  0  0  0  0  0  0  0  0  0  # atno 6907 bound_to 6896
  150.6915  134.1993  159.4325 H   0  0  0  0  0  0  0  0  0  0  0  0  # atno 6908 bound_to 6896
  151.9899  134.9984  160.0611 H   0  0  0  0  0  0  0  0  0  0  0  0  # atno 6909 bound_to 6896
  146.0017  139.4446  143.0011 H   0  0  0  0  0  0  0  0  0  0  0  0  # atno 7974 bound_to 7965
  154.4963  140.2137  155.9440 H   0  0  0  0  0  0  0  0  0  0  0  0  # atno 8008 bound_to 7997
  156.1374  140.3186  155.8410 H   0  0  0  0  0  0  0  0  0  0  0  0  # atno 8009 bound_to 7997
  155.4184  140.0495  157.3018 H   0  0  0  0  0  0  0  0  0  0  0  0  # atno 8010 bound_to 7997
  139.6191  144.7098  151.2673 H   0  0  0  0  0  0  0  0  0  0  0  0  # atno 10167 bound_to 10162
  157.6505  131.0928  150.6566 H   0  0  0  0  0  0  0  0  0  0  0  0  # atno 10718 bound_to 10713
  153.1993  135.4428  155.0246 H   0  0  0  0  0  0  0  0  0  0  0  0  # atno 10763 bound_to 10752
  154.8137  135.3306  154.7237 H   0  0  0  0  0  0  0  0  0  0  0  0  # atno 10764 bound_to 10752
  153.7684  135.6986  153.4967 H   0  0  0  0  0  0  0  0  0  0  0  0  # atno 10765 bound_to 10752
  140.2230  134.8182  157.3239 H   0  0  0  0  0  0  0  0  0  0  0  0  # atno 11005 bound_to 11000
  145.7478  140.9984  143.1266 LP  0  0  0  0  0  0  0  0  0  0  0  0  # atno 17320 bound_to 7965
  144.6921  139.9177  143.7466 LP  0  0  0  0  0  0  0  0  0  0  0  0  # atno 17321 bound_to 7965
  140.7370  143.6689  150.8098 LP  0  0  0  0  0  0  0  0  0  0  0  0  # atno 17342 bound_to 10162
  140.0297  143.5456  152.2765 LP  0  0  0  0  0  0  0  0  0  0  0  0  # atno 17343 bound_to 10162
  156.6878  130.4586  149.5608 LP  0  0  0  0  0  0  0  0  0  0  0  0  # atno 17370 bound_to 10713
  156.1883  130.6543  151.1032 LP  0  0  0  0  0  0  0  0  0  0  0  0  # atno 17371 bound_to 10713
  140.1830  134.4466  155.7760 LP  0  0  0  0  0  0  0  0  0  0  0  0  # atno 17394 bound_to 11000
  141.2222  133.6992  156.7900 LP  0  0  0  0  0  0  0  0  0  0  0  0  # atno 17395 bound_to 11000

$$$$
