#       Name:                AV-unprocessed.smi:1692
#       Creating user name   scv26
#       Creation time:       Fri Mar 27 07:54:17 2020


#       File generated by GOLD software.
#

@<TRIPOS>MOLECULE
AV-unprocessed.smi:1692
    51    52     1
SMALL
NO_CHARGES


@<TRIPOS>ATOM
      1 ****        -3.4888   3.2642  -0.6090 C.3            1 S1                 0.0000
      2 ****        -1.9583   3.2622  -0.6879 C.3            1 S1                 0.0000
      3 ****        -1.3869   1.8367  -0.7874 C.3            1 S1                 0.0000
      4 ****         0.0855   1.8776  -0.9465 N.4            1 S1                 1.0000
      5 ****         0.6923   0.5231  -0.9412 C.3            1 S1                 0.0000
      6 ****         2.1865   0.5446  -0.5627 C.3            1 S1                 0.0000
      7 ****         2.8490  -0.8455  -0.5459 C.3            1 S1                 0.0000
      8 ****         2.3491  -1.6950   0.5319 N.am           1 S1                 0.0000
      9 ****         1.3772  -2.6115   0.4110 C.2            1 S1                 0.0000
     10 ****         0.7674  -2.8170  -0.6389 O.2            1 S1                 0.0000
     11 ****         1.1650  -3.2542   1.5729 N.am           1 S1                 0.0000
     12 ****         0.2084  -4.2663   1.8533 C.ar           1 S1                 0.0000
     13 ****         0.2540  -4.7858   3.1670 C.ar           1 S1                 0.0000
     14 ****        -0.6527  -5.7950   3.5448 C.ar           1 S1                 0.0000
     15 ****        -1.5848  -6.2574   2.5989 C.ar           1 S1                 0.0000
     16 ****        -1.5649  -5.6851   1.3136 C.ar           1 S1                 0.0000
     17 ****        -0.6965  -4.7179   0.9492 N.ar           1 S1                 0.0000
     18 ****         0.4493   2.6869  -2.1358 C.3            1 S1                 0.0000
     19 ****        -0.1702   4.0966  -2.0608 C.3            1 S1                 0.0000
     20 ****         0.5209   5.0191  -1.0408 C.3            1 S1                 0.0000
     21 ****        -1.5779   4.0069  -1.8417 O.3            1 S1                 0.0000
     22 ****        -3.8381   2.7158   0.2662 H              1 S1                 0.0000
     23 ****        -3.9309   2.8025  -1.4924 H              1 S1                 0.0000
     24 ****        -3.8734   4.2819  -0.5381 H              1 S1                 0.0000
     25 ****        -1.5746   3.7492   0.2087 H              1 S1                 0.0000
     26 ****        -1.6465   1.2780   0.1129 H              1 S1                 0.0000
     27 ****        -1.8296   1.3060  -1.6322 H              1 S1                 0.0000
     28 ****         0.1621  -0.0861  -0.2094 H              1 S1                 0.0000
     29 ****         0.5430   0.0424  -1.9092 H              1 S1                 0.0000
     30 ****         2.7366   1.1626  -1.2713 H              1 S1                 0.0000
     31 ****         2.3116   1.0188   0.4117 H              1 S1                 0.0000
     32 ****         2.7358  -1.3339  -1.5154 H              1 S1                 0.0000
     33 ****         3.9222  -0.7282  -0.3939 H              1 S1                 0.0000
     34 ****         2.7935  -1.5918   1.4326 H              1 S1                 0.0000
     35 ****         1.7552  -2.9897   2.3475 H              1 S1                 0.0000
     36 ****         0.9766  -4.4190   3.8815 H              1 S1                 0.0000
     37 ****        -0.6325  -6.2064   4.5430 H              1 S1                 0.0000
     38 ****        -2.2963  -7.0298   2.8513 H              1 S1                 0.0000
     39 ****        -2.2640  -6.0118   0.5580 H              1 S1                 0.0000
     40 ****         1.5309   2.7698  -2.2365 H              1 S1                 0.0000
     41 ****         0.0901   2.1793  -3.0325 H              1 S1                 0.0000
     42 ****        -0.0478   4.5637  -3.0384 H              1 S1                 0.0000
     43 ****         1.5654   5.1777  -1.3103 H              1 S1                 0.0000
     44 ****         0.5069   4.6074  -0.0322 H              1 S1                 0.0000
     45 ****         0.0372   5.9958  -1.0106 H              1 S1                 0.0000
     46 ****         0.4449   2.3592  -0.1347 H              1 S1                 0.0000
     47 ****         0.9887  -2.2872  -1.4576 LP             1 S1                 0.0000
     48 ****         0.0508  -3.5137  -0.6728 LP             1 S1                 0.0000
     49 ****        -0.7200  -4.3390   0.0241 LP             1 S1                 0.0000
     50 ****        -1.9372   4.9351  -1.7449 LP             1 S1                 0.0000
     51 ****        -1.9900   3.5718  -2.6423 LP             1 S1                 0.0000
@<TRIPOS>BOND
    1    1    2 1     
    2    1   22 1     
    3    1   23 1     
    4    1   24 1     
    5    2   21 1     
    6    2    3 1     
    7    2   25 1     
    8    3    4 1     
    9    3   26 1     
   10    3   27 1     
   11    4    5 1     
   12    4   18 1     
   13    4   46 1     
   14    5    6 1     
   15    5   28 1     
   16    5   29 1     
   17    6    7 1     
   18    6   30 1     
   19    6   31 1     
   20    7    8 1     
   21    7   32 1     
   22    7   33 1     
   23    8    9 am    
   24    8   34 1     
   25    9   10 2     
   26    9   11 am    
   27   11   12 1     
   28   11   35 1     
   29   12   17 ar    
   30   12   13 ar    
   31   13   14 ar    
   32   13   36 1     
   33   14   15 ar    
   34   14   37 1     
   35   15   16 ar    
   36   15   38 1     
   37   16   17 ar    
   38   16   39 1     
   39   18   19 1     
   40   18   40 1     
   41   18   41 1     
   42   19   20 1     
   43   19   21 1     
   44   19   42 1     
   45   20   43 1     
   46   20   44 1     
   47   20   45 1     
   48   10   47 1     
   49   10   48 1     
   50   17   49 1     
   51   21   50 1     
   52   21   51 1     
@<TRIPOS>SUBSTRUCTURE
      1 S1             1
@<TRIPOS>SET
LONE_PAIRS      STATIC     ATOMS    <user>   **** ""
5 47 48 49 50 51
DONOR_HYDROGENS      STATIC     ATOMS    <user>   **** ""
3 46 34 35
ATOM$BLUE        STATIC     ATOMS    COLORGROUP SYSTEM
5 47 48 49 50 51
ATOM$RED        STATIC     ATOMS    COLORGROUP SYSTEM
3 46 34 35
