#       Name:                AV-unprocessed.smi:2818
#       Creating user name   scv26
#       Creation time:       Fri Mar 27 15:29:14 2020


#       File generated by GOLD software.
#

@<TRIPOS>MOLECULE
AV-unprocessed.smi:2818
    34    35     1
SMALL
NO_CHARGES


@<TRIPOS>ATOM
      1 ****        -4.3750   3.1764  -0.2394 O.co2          1 S1                 0.0000
      2 ****        -3.1291   3.1137  -0.1409 C.2            1 S1                 0.0000
      3 ****        -2.4256   4.1181   0.1083 O.co2          1 S1                -1.0000
      4 ****        -2.4537   1.7833  -0.3283 C.ar           1 S1                 0.0000
      5 ****        -3.2033   0.6195  -0.6114 C.ar           1 S1                 0.0000
      6 ****        -2.5211  -0.6005  -0.7769 C.ar           1 S1                 0.0000
      7 ****        -1.1809  -0.7209  -0.6794 N.ar           1 S1                 0.0000
      8 ****        -0.4568   0.3926  -0.4065 C.ar           1 S1                 0.0000
      9 ****         0.9166   0.2915  -0.3020 O.3            1 S1                 0.0000
     10 ****         1.5423  -0.9865  -0.4318 C.3            1 S1                 0.0000
     11 ****         1.4242  -1.7870   0.8589 C.3            1 S1                 0.0000
     12 ****         2.6450  -1.3279   1.6415 C.3            1 S1                 0.0000
     13 ****         3.6477  -1.2450   0.6432 O.3            1 S1                 0.0000
     14 ****         3.0567  -0.7613  -0.5593 C.3            1 S1                 0.0000
     15 ****        -1.0495   1.6582  -0.2259 C.ar           1 S1                 0.0000
     16 ****        -4.2793   0.6522  -0.7015 H              1 S1                 0.0000
     17 ****        -3.0681  -1.5059  -0.9942 H              1 S1                 0.0000
     18 ****         1.1665  -1.5331  -1.2983 H              1 S1                 0.0000
     19 ****         0.4900  -1.6258   1.3975 H              1 S1                 0.0000
     20 ****         1.5078  -2.8527   0.6420 H              1 S1                 0.0000
     21 ****         2.4802  -0.3422   2.0797 H              1 S1                 0.0000
     22 ****         2.9235  -2.0200   2.4364 H              1 S1                 0.0000
     23 ****         3.4733  -1.3060  -1.4070 H              1 S1                 0.0000
     24 ****         3.2956   0.2944  -0.6941 H              1 S1                 0.0000
     25 ****        -0.4278   2.5152  -0.0107 H              1 S1                 0.0000
     26 ****        -4.8427   4.0518  -0.1178 LP             1 S1                 0.0000
     27 ****        -4.9029   2.3510  -0.4397 LP             1 S1                 0.0000
     28 ****        -2.8567   5.0112   0.2365 LP             1 S1                 0.0000
     29 ****        -1.4322   4.0276   0.1793 LP             1 S1                 0.0000
     30 ****        -0.7339  -1.6066  -0.8049 LP             1 S1                 0.0000
     31 ****         1.1663   0.6469   0.5988 LP             1 S1                 0.0000
     32 ****         1.3059   0.8788  -1.0116 LP             1 S1                 0.0000
     33 ****         4.0401  -2.1510   0.4845 LP             1 S1                 0.0000
     34 ****         4.3674  -0.6175   0.9405 LP             1 S1                 0.0000
@<TRIPOS>BOND
    1    1    2 ar    
    2    2    3 ar    
    3    2    4 1     
    4    4   15 ar    
    5    4    5 ar    
    6    5    6 ar    
    7    5   16 1     
    8    6    7 ar    
    9    6   17 1     
   10    7    8 ar    
   11    8    9 1     
   12    8   15 ar    
   13    9   10 1     
   14   10   14 1     
   15   10   11 1     
   16   10   18 1     
   17   11   12 1     
   18   11   19 1     
   19   11   20 1     
   20   12   13 1     
   21   12   21 1     
   22   12   22 1     
   23   13   14 1     
   24   14   23 1     
   25   14   24 1     
   26   15   25 1     
   27    1   26 1     
   28    1   27 1     
   29    3   28 1     
   30    3   29 1     
   31    7   30 1     
   32    9   31 1     
   33    9   32 1     
   34   13   33 1     
   35   13   34 1     
@<TRIPOS>SUBSTRUCTURE
      1 S1             1
@<TRIPOS>SET
LONE_PAIRS      STATIC     ATOMS    <user>   **** ""
9 26 27 28 29 30 31 32 33 34
ATOM$BLUE        STATIC     ATOMS    COLORGROUP SYSTEM
9 26 27 28 29 30 31 32 33 34
