AV-unprocessed.smi:2878|AV-procd|sdf|11045|dock4
  -GOLD-   2272015513D 1   1.00000     0.00000
 Structure written by MMmdl.
 42 43  0  0  0  0  0  0  0  0  1 V2000
  150.8574  140.4956  157.3151 C   0  0  0  0  0  0  0  0  0  0  0  0
  151.3880  142.2291  157.2623 S   0  0  0  0  0  0  0  0  0  0  0  0
  151.3445  142.6670  159.0302 C   0  0  2  0  0  0  0  0  0  0  0  0
  151.2330  144.1965  159.1758 C   0  0  0  0  0  0  0  0  0  0  0  0
  151.2274  144.6334  160.6476 C   0  0  0  0  0  0  0  0  0  0  0  0
  152.4776  144.1205  161.3742 C   0  0  0  0  0  0  0  0  0  0  0  0
  152.5934  142.5941  161.2576 C   0  0  0  0  0  0  0  0  0  0  0  0
  152.5828  142.1260  159.7878 C   0  0  1  0  0  0  0  0  0  0  0  0
  152.6026  140.6652  159.7571 N   0  0  0  0  0  0  0  0  0  0  0  0
  153.6515  139.9053  159.4133 C   0  0  0  0  0  0  0  0  0  0  0  0
  154.7568  140.3481  159.1010 O   0  0  0  0  0  0  0  0  0  0  0  0
  153.3473  138.6002  159.4410 N   0  0  0  0  0  0  0  0  0  0  0  0
  154.2666  137.5228  159.0936 C   0  0  0  0  0  0  0  0  0  0  0  0
  154.7573  137.6442  157.6419 C   0  0  0  0  0  0  0  0  0  0  0  0
  153.6316  137.7300  156.6668 C   0  0  0  0  0  0  0  0  0  0  0  0
  153.1563  138.8270  156.0814 N   0  0  0  0  0  0  0  0  0  0  0  0
  152.1215  138.3110  155.3629 C   0  0  0  0  0  0  0  0  0  0  0  0
  151.2396  139.1482  154.5005 C   0  0  0  0  0  0  0  0  0  0  0  0
  151.9267  137.0034  155.4820 N   0  0  0  0  0  0  0  0  0  0  0  0
  152.9363  136.6058  156.3702 O   0  0  0  0  0  0  0  0  0  0  0  0
  150.8112  140.0900  156.3046 H   0  0  0  0  0  0  0  0  0  0  0  0
  149.8675  140.4135  157.7637 H   0  0  0  0  0  0  0  0  0  0  0  0
  151.5540  139.8899  157.8936 H   0  0  0  0  0  0  0  0  0  0  0  0
  150.4428  142.2294  159.4611 H   0  0  0  0  0  0  0  0  0  0  0  0
  152.0665  144.6763  158.6604 H   0  0  0  0  0  0  0  0  0  0  0  0
  150.3247  144.5509  158.6872 H   0  0  0  0  0  0  0  0  0  0  0  0
  151.1794  145.7206  160.7123 H   0  0  0  0  0  0  0  0  0  0  0  0
  150.3319  144.2533  161.1409 H   0  0  0  0  0  0  0  0  0  0  0  0
  153.3671  144.5886  160.9510 H   0  0  0  0  0  0  0  0  0  0  0  0
  152.4437  144.4119  162.4244 H   0  0  0  0  0  0  0  0  0  0  0  0
  153.5084  142.2594  161.7483 H   0  0  0  0  0  0  0  0  0  0  0  0
  151.7670  142.1308  161.7990 H   0  0  0  0  0  0  0  0  0  0  0  0
  153.4734  142.5234  159.2970 H   0  0  0  0  0  0  0  0  0  0  0  0
  151.7408  140.1983  159.9981 H   0  0  0  0  0  0  0  0  0  0  0  0
  152.4124  138.3334  159.7123 H   0  0  0  0  0  0  0  0  0  0  0  0
  155.1122  137.5153  159.7837 H   0  0  0  0  0  0  0  0  0  0  0  0
  153.7459  136.5746  159.2304 H   0  0  0  0  0  0  0  0  0  0  0  0
  155.3839  138.5299  157.5300 H   0  0  0  0  0  0  0  0  0  0  0  0
  155.3774  136.7873  157.3762 H   0  0  0  0  0  0  0  0  0  0  0  0
  150.8248  138.5574  153.6830 H   0  0  0  0  0  0  0  0  0  0  0  0
  151.8012  139.9787  154.0722 H   0  0  0  0  0  0  0  0  0  0  0  0
  150.4157  139.5530  155.0887 H   0  0  0  0  0  0  0  0  0  0  0  0
  1  2  1  0  0  0  0
  1 21  1  0  0  0  0
  1 22  1  0  0  0  0
  1 23  1  0  0  0  0
  2  3  1  0  0  0  0
  3  8  1  0  0  0  0
  3  4  1  0  0  0  0
  3 24  1  0  0  0  0
  4  5  1  0  0  0  0
  4 25  1  0  0  0  0
  4 26  1  0  0  0  0
  5  6  1  0  0  0  0
  5 27  1  0  0  0  0
  5 28  1  0  0  0  0
  6  7  1  0  0  0  0
  6 29  1  0  0  0  0
  6 30  1  0  0  0  0
  7  8  1  0  0  0  0
  7 31  1  0  0  0  0
  7 32  1  0  0  0  0
  8  9  1  0  0  0  0
  8 33  1  0  0  0  0
  9 10  1  0  0  0  0
  9 34  1  0  0  0  0
 10 11  2  0  0  0  0
 10 12  1  0  0  0  0
 12 13  1  0  0  0  0
 12 35  1  0  0  0  0
 13 14  1  0  0  0  0
 13 36  1  0  0  0  0
 13 37  1  0  0  0  0
 14 15  1  0  0  0  0
 14 38  1  0  0  0  0
 14 39  1  0  0  0  0
 15 20  1  0  0  0  0
 15 16  2  0  0  0  0
 16 17  1  0  0  0  0
 17 18  1  0  0  0  0
 17 19  2  0  0  0  0
 18 40  1  0  0  0  0
 18 41  1  0  0  0  0
 18 42  1  0  0  0  0
 19 20  1  0  0  0  0
M  END
> <s_m_source_file>
AV-unprocessed.smi

> <i_m_source_file_index>
2878

> <i_lp_mmshare_version>
43012

> <i_f3d_flags>
0

> <s_epik_input>
W0NIM11TW0NAQEhdMVtDSDJdW0NIMl1bQ0gyXVtDSDJdW0NASF0xW05IXUMoPU8pW05IXVtDSDJdW0NIMl1jMm5jKFtDSDNdKW5vMg==

> <s_epik_cmdline>
J2VwaWtfcHl0aG9uJywgJy1waCcsICc3LjAnLCAnLXRuJywgJzgnLCAnLW1hJywgJzIwMCcsICctbWV0YWxfYmluZGluZycsICctaW1hZScsICc8aW5maWxlLm1hZT4nLCAnLW9tYWUnLCAnPG91dGZpbGUubWFlPic=

> <r_lp_tautomer_probability>
1

> <r_epik_Ionization_Penalty>
4.9299e-05

> <r_epik_Ionization_Penalty_Charging>
0

> <r_epik_Ionization_Penalty_Neutral>
4.9299e-05

> <r_epik_State_Penalty>
-0

> <r_epik_Charging_Adjusted_Penalty>
0

> <i_epik_Tot_Q>
0

> <i_epik_Tot_abs_Q>
0

> <r_epik_Metal_State_Penalty>
-0

> <b_epik_Metal_Only>
0

> <s_lp_Force_Field>
OPLS_2005

> <r_lp_Energy>
1.6378

> <b_lp_Chiralities_Consistent>
1

> <s_lp_Variant>
AV-unprocessed.smi:2878-1

> <Gold.Version>
5.8.1

> <Gold.Id.Protein>
6NUR|6NUR_protein|mol2

> <Gold.PLP.Fitness>
40.6327

> <Gold.PLP.PLP>
-34.7170

> <Gold.PLP.part.hbond>
-4.0000

> <Gold.PLP.part.metal>
0.0000

> <Gold.PLP.part.buried>
-4.4324

> <Gold.PLP.part.nonpolar>
-25.4636

> <Gold.PLP.part.repulsive>
0.2790

> <Gold.PLP.ligand.clash>
0.0000

> <Gold.PLP.ligand.torsion>
0.5531

> <Gold.PLP.Chemscore.Hbond>
2.3272

> <Gold.PLP.Chemscore.CHOScore>
0.0000

> <Gold.PLP.Chemscore.Metal>
0.0000

> <Gold.Chemscore.Hbonds>
donor molecule, donor type, donor heavy atom, donor atom, acceptor molecule, acceptor atom, score
      P1  H  7997  8009       L1    11  0.67
      P1  H  7997  8010       L1    16  0.85
      P1  H 10752 10763       L1    20  0.69

> <Gold.PLP.Chemscore.Internal.Correction>
0.0402

> <Gold.Rescore>
     Score         DG    S(hbond)    S(metal)    S(lipo)     H(rot)  DE(clash)    DE(int)     intcor
     15.51     -16.75       1.76        0.00      91.78       2.09       0.32       0.93       ----

> <Gold.Chemscore.Fitness>
15.5113

> <Gold.Chemscore.DG>
-16.7548

> <Gold.Chemscore.ZeroCoef>
-5.4800

> <Gold.Chemscore.Hbond>
1.7642

> <Gold.Chemscore.Metal>
0.0000

> <Gold.Chemscore.Lipo>
91.7835

> <Gold.Chemscore.Internal_Hbond>
0.0000

> <Gold.Chemscore.DEClash>
0.3156

> <Gold.Chemscore.DEInternal>
0.9280

> <Gold.Chemscore.Rot>
2.0923

> <Gold.Chemscore.Internal.Correction>
   9.000000E+99

> <Gold.Chemscore.Hbonds>
donor molecule, donor type, donor heavy atom, donor atom, acceptor molecule, acceptor atom, score
      P1  H  7997  8009       L1    11  0.66
      P1  H  7997  8010       L1    16  0.68
      P1  H 10752 10763       L1    20  0.13

> <Gold.Chemscore.Hbond.Weighted>
-5.8924

> <Gold.Chemscore.Metal.Weighted>
-0.0000

> <Gold.Chemscore.Lipo.Weighted>
-10.7387

> <Gold.Chemscore.Internal_Hbond.Weighted>
0.0000

> <Gold.Chemscore.DEClash.Weighted>
0.3156

> <Gold.Chemscore.DEInternal.Weighted>
0.9280

> <Gold.Chemscore.Rot.Weighted>
5.3562

> <Gold.Chemscore.Internal.Correction.Weighted>
   9.000000E+99

> <Gold.Protein.RotatedTorsions>
[ 6907 6896 6895 6894 ] final   44.59 input  -60.11 | X-H torsion
[ 7974 7965 7964 7962 ] final  136.85 input  175.53 | X-H torsion
[ 8008 7997 7996 7995 ] final  100.18 input   59.86 | X-H torsion
[ 10167 10162 10161 10158 ] final   88.26 input  -65.29 | X-H torsion
[ 10718 10713 10712 10709 ] final  137.43 input   66.30 | X-H torsion
[ 10763 10752 10751 10750 ] final  127.17 input  -60.55 | X-H torsion
[ 11005 11000 10999 10996 ] final   -2.20 input  -57.11 | X-H torsion

> <Gold.Protein.ActiveResidues>
 VAL166  LYS551  ARG553  GLY616  TRP617  ASP618  TYR619  PRO620  LYS621  CYS622 
 ASP623  PHE694  ASN695  SER759  ASP760  ASP761  ALA762  ILE779  LEU786  VAL792 
 PHE793  MET794  SER795  GLU796  ALA797  LYS798  CYS799  TRP800  GLU811  SER814 

> <Gold.Protein.RotatedAtoms>
  152.2344  134.8291  160.0468 H   0  0  0  0  0  0  0  0  0  0  0  0  # atno 6907 bound_to 6896
  151.9028  133.3537  159.3845 H   0  0  0  0  0  0  0  0  0  0  0  0  # atno 6908 bound_to 6896
  150.7035  134.4737  159.5481 H   0  0  0  0  0  0  0  0  0  0  0  0  # atno 6909 bound_to 6896
  144.9524  139.4803  143.5519 H   0  0  0  0  0  0  0  0  0  0  0  0  # atno 7974 bound_to 7965
  156.1178  140.3217  155.8164 H   0  0  0  0  0  0  0  0  0  0  0  0  # atno 8008 bound_to 7997
  155.4559  140.0536  157.3013 H   0  0  0  0  0  0  0  0  0  0  0  0  # atno 8009 bound_to 7997
  154.4805  140.2051  155.9788 H   0  0  0  0  0  0  0  0  0  0  0  0  # atno 8010 bound_to 7997
  139.8691  144.6503  150.8970 H   0  0  0  0  0  0  0  0  0  0  0  0  # atno 10167 bound_to 10162
  157.4361  131.1053  151.0195 H   0  0  0  0  0  0  0  0  0  0  0  0  # atno 10718 bound_to 10713
  153.7052  135.3277  155.3234 H   0  0  0  0  0  0  0  0  0  0  0  0  # atno 10763 bound_to 10752
  154.8401  135.4463  154.1370 H   0  0  0  0  0  0  0  0  0  0  0  0  # atno 10764 bound_to 10752
  153.2449  135.6975  153.7821 H   0  0  0  0  0  0  0  0  0  0  0  0  # atno 10765 bound_to 10752
  140.6557  133.9365  155.8406 H   0  0  0  0  0  0  0  0  0  0  0  0  # atno 11005 bound_to 11000
  146.3325  139.8619  142.8855 LP  0  0  0  0  0  0  0  0  0  0  0  0  # atno 17320 bound_to 7965
  145.2823  141.0142  143.3710 LP  0  0  0  0  0  0  0  0  0  0  0  0  # atno 17321 bound_to 7965
  140.7763  143.3679  151.1704 LP  0  0  0  0  0  0  0  0  0  0  0  0  # atno 17342 bound_to 10162
  139.7301  143.9086  152.3016 LP  0  0  0  0  0  0  0  0  0  0  0  0  # atno 17343 bound_to 10162
  157.1075  130.6007  149.5474 LP  0  0  0  0  0  0  0  0  0  0  0  0  # atno 17370 bound_to 10713
  155.9931  130.4991  150.7367 LP  0  0  0  0  0  0  0  0  0  0  0  0  # atno 17371 bound_to 10713
  141.0503  134.0494  157.3792 LP  0  0  0  0  0  0  0  0  0  0  0  0  # atno 17394 bound_to 11000
  139.9030  135.0171  156.7358 LP  0  0  0  0  0  0  0  0  0  0  0  0  # atno 17395 bound_to 11000

$$$$
