AV-unprocessed.smi:1164|AV-procd|sdf|4926|dock6
  -GOLD-   22720 3503D 1   1.00000     0.00000
 Structure written by MMmdl.
 30 30  0  0  0  0  0  0  0  0  2 V2000
  153.9100  140.9921  160.4938 C   0  0  0  0  0  0  0  0  0  0  0  0
  152.9287  142.1144  160.1118 C   0  0  0  0  0  0  0  0  0  0  0  0
  152.3260  142.7119  161.4010 C   0  0  0  0  0  0  0  0  0  0  0  0
  153.6888  143.1956  159.3146 C   0  0  0  0  0  0  0  0  0  0  0  0
  151.8825  141.5021  159.2843 N   0  0  0  0  0  0  0  0  0  0  0  0
  152.0119  140.5683  158.3249 C   0  0  0  0  0  0  0  0  0  0  0  0
  153.0916  140.0792  157.9895 O   0  0  0  0  0  0  0  0  0  0  0  0
  150.7006  140.1407  157.6462 C   0  0  0  0  0  0  0  0  0  0  0  0
  150.8715  139.1543  156.5690 N   0  0  0  0  0  0  0  0  0  0  0  0
  151.2629  137.8286  157.0396 N   0  5  0  0  0  0  0  0  0  0  0  0
  151.4303  136.8274  156.1354 C   0  0  0  0  0  0  0  0  0  0  0  0
  151.7398  135.6826  156.4580 O   0  0  0  0  0  0  0  0  0  0  0  0
  151.2362  137.1363  154.7283 C   0  0  0  0  0  0  0  0  0  0  0  0
  150.8973  138.3753  154.3204 C   0  0  0  0  0  0  0  0  0  0  0  0
  150.6998  139.4767  155.2549 C   0  0  0  0  0  0  0  0  0  0  0  0
  150.3976  140.6127  154.8887 O   0  0  0  0  0  0  0  0  0  0  0  0
  154.7267  141.3707  161.1092 H   0  0  0  0  0  0  0  0  0  0  0  0
  154.3532  140.5318  159.6096 H   0  0  0  0  0  0  0  0  0  0  0  0
  153.4122  140.2037  161.0601 H   0  0  0  0  0  0  0  0  0  0  0  0
  151.7449  141.9689  161.9485 H   0  0  0  0  0  0  0  0  0  0  0  0
  151.6691  143.5567  161.1941 H   0  0  0  0  0  0  0  0  0  0  0  0
  153.1083  143.0731  162.0690 H   0  0  0  0  0  0  0  0  0  0  0  0
  154.5266  143.5910  159.8896 H   0  0  0  0  0  0  0  0  0  0  0  0
  153.0502  144.0412  159.0587 H   0  0  0  0  0  0  0  0  0  0  0  0
  154.0910  142.7933  158.3840 H   0  0  0  0  0  0  0  0  0  0  0  0
  150.9438  141.8277  159.4635 H   0  0  0  0  0  0  0  0  0  0  0  0
  150.0253  139.7393  158.4040 H   0  0  0  0  0  0  0  0  0  0  0  0
  150.2089  141.0370  157.2638 H   0  0  0  0  0  0  0  0  0  0  0  0
  151.3694  136.3556  153.9940 H   0  0  0  0  0  0  0  0  0  0  0  0
  150.7649  138.5603  153.2650 H   0  0  0  0  0  0  0  0  0  0  0  0
  1  2  1  0  0  0  0
  1 17  1  0  0  0  0
  1 18  1  0  0  0  0
  1 19  1  0  0  0  0
  2  3  1  0  0  0  0
  2  4  1  0  0  0  0
  2  5  1  0  0  0  0
  3 20  1  0  0  0  0
  3 21  1  0  0  0  0
  3 22  1  0  0  0  0
  4 23  1  0  0  0  0
  4 24  1  0  0  0  0
  4 25  1  0  0  0  0
  5  6  1  0  0  0  0
  5 26  1  0  0  0  0
  6  7  2  0  0  0  0
  6  8  1  0  0  0  0
  8 27  1  0  0  0  0
  8 28  1  0  0  0  0
  8  9  1  0  0  0  0
  9 10  1  0  0  0  0
  9 15  1  0  0  0  0
 10 11  1  0  0  0  0
 11 12  2  0  0  0  0
 11 13  1  0  0  0  0
 13 29  1  0  0  0  0
 13 14  2  0  0  0  0
 14 30  1  0  0  0  0
 14 15  1  0  0  0  0
 15 16  2  0  0  0  0
M  CHG  1  10  -1
M  END
> <s_m_source_file>
AV-unprocessed.smi

> <i_m_source_file_index>
1164

> <i_lp_mmshare_version>
43012

> <i_f3d_flags>
0

> <s_epik_input>
W0NIM11DKFtDSDNdKShbQ0gzXSlbTkhdQyg9TylbQ0gyXW4xW25IXWMoPU8pW2NIXVtjSF1jMT1P

> <s_epik_cmdline>
J2VwaWtfcHl0aG9uJywgJy1waCcsICc3LjAnLCAnLXRuJywgJzgnLCAnLW1hJywgJzIwMCcsICctbWV0YWxfYmluZGluZycsICctaW1hZScsICc8aW5maWxlLm1hZT4nLCAnLW9tYWUnLCAnPG91dGZpbGUubWFlPic=

> <r_lp_tautomer_probability>
1

> <r_epik_Ionization_Penalty>
0.098909

> <r_epik_Ionization_Penalty_Charging>
0.0989089

> <r_epik_Ionization_Penalty_Neutral>
2.46306e-08

> <r_epik_State_Penalty>
0.0348838

> <r_epik_Charging_Adjusted_Penalty>
0.133793

> <i_epik_Tot_Q>
-1

> <i_epik_Tot_abs_Q>
1

> <r_epik_Metal_State_Penalty>
0.0348839

> <b_epik_Metal_Only>
0

> <s_lp_Force_Field>
OPLS_2005

> <r_lp_Energy>
18.541

> <b_lp_Chiralities_Consistent>
1

> <s_lp_Variant>
AV-unprocessed.smi:1164-1

> <Gold.Version>
5.8.1

> <Gold.Id.Protein>
6NUR|6NUR_protein|mol2

> <Gold.PLP.Fitness>
36.2866

> <Gold.PLP.PLP>
-28.6391

> <Gold.PLP.part.hbond>
-3.0000

> <Gold.PLP.part.metal>
0.0000

> <Gold.PLP.part.buried>
-3.0540

> <Gold.PLP.part.nonpolar>
-22.1523

> <Gold.PLP.part.repulsive>
0.2256

> <Gold.PLP.ligand.clash>
0.0000

> <Gold.PLP.ligand.torsion>
0.5234

> <Gold.PLP.Chemscore.Hbond>
2.8960

> <Gold.PLP.Chemscore.CHOScore>
0.0000

> <Gold.PLP.Chemscore.Metal>
0.0000

> <Gold.Chemscore.Hbonds>
donor molecule, donor type, donor heavy atom, donor atom, acceptor molecule, acceptor atom, score
      P1  H  7989  7998       L1    16  0.93
      P1  H  7997  8008       L1     7  1.00
      P1  H 10752 10763       L1    12  0.90

> <Gold.PLP.Chemscore.Internal.Correction>
0.0063

> <Gold.Rescore>
     Score         DG    S(hbond)    S(metal)    S(lipo)     H(rot)  DE(clash)    DE(int)     intcor
     13.24     -15.00       1.97        0.00      62.12       1.70       0.05       1.71       ----

> <Gold.Chemscore.Fitness>
13.2369

> <Gold.Chemscore.DG>
-14.9988

> <Gold.Chemscore.ZeroCoef>
-5.4800

> <Gold.Chemscore.Hbond>
1.9730

> <Gold.Chemscore.Metal>
0.0000

> <Gold.Chemscore.Lipo>
62.1216

> <Gold.Chemscore.Internal_Hbond>
0.0000

> <Gold.Chemscore.DEClash>
0.0524

> <Gold.Chemscore.DEInternal>
1.7094

> <Gold.Chemscore.Rot>
1.6950

> <Gold.Chemscore.Internal.Correction>
   9.000000E+99

> <Gold.Chemscore.Hbonds>
donor molecule, donor type, donor heavy atom, donor atom, acceptor molecule, acceptor atom, score
      P1  H  7989  7998       L1    16  0.27
      P1  H  7997  8008       L1     7  0.96
      P1  H 10752 10763       L1    12  0.17

> <Gold.Chemscore.Hbond.Weighted>
-6.5898

> <Gold.Chemscore.Metal.Weighted>
-0.0000

> <Gold.Chemscore.Lipo.Weighted>
-7.2682

> <Gold.Chemscore.Internal_Hbond.Weighted>
0.0000

> <Gold.Chemscore.DEClash.Weighted>
0.0524

> <Gold.Chemscore.DEInternal.Weighted>
1.7094

> <Gold.Chemscore.Rot.Weighted>
4.3393

> <Gold.Chemscore.Internal.Correction.Weighted>
   9.000000E+99

> <Gold.Protein.RotatedTorsions>
[ 6907 6896 6895 6894 ] final   -3.90 input  -60.11 | X-H torsion
[ 7974 7965 7964 7962 ] final   63.17 input  175.53 | X-H torsion
[ 8008 7997 7996 7995 ] final  -82.44 input   59.86 | X-H torsion
[ 10167 10162 10161 10158 ] final -102.95 input  -65.29 | X-H torsion
[ 10718 10713 10712 10709 ] final   -2.63 input   66.30 | X-H torsion
[ 10763 10752 10751 10750 ] final   99.34 input  -60.55 | X-H torsion
[ 11005 11000 10999 10996 ] final   46.93 input  -57.11 | X-H torsion

> <Gold.Protein.ActiveResidues>
 VAL166  LYS551  ARG553  GLY616  TRP617  ASP618  TYR619  PRO620  LYS621  CYS622 
 ASP623  PHE694  ASN695  SER759  ASP760  ASP761  ALA762  ILE779  LEU786  VAL792 
 PHE793  MET794  SER795  GLU796  ALA797  LYS798  CYS799  TRP800  GLU811  SER814 

> <Gold.Protein.RotatedAtoms>
  151.5064  135.1063  159.9842 H   0  0  0  0  0  0  0  0  0  0  0  0  # atno 6907 bound_to 6896
  152.4680  133.7962  159.6939 H   0  0  0  0  0  0  0  0  0  0  0  0  # atno 6908 bound_to 6896
  150.8674  133.7491  159.2998 H   0  0  0  0  0  0  0  0  0  0  0  0  # atno 6909 bound_to 6896
  145.8649  139.3339  143.0797 H   0  0  0  0  0  0  0  0  0  0  0  0  # atno 7974 bound_to 7965
  154.6087  140.0633  156.9464 H   0  0  0  0  0  0  0  0  0  0  0  0  # atno 8008 bound_to 7997
  155.2010  140.3315  155.4325 H   0  0  0  0  0  0  0  0  0  0  0  0  # atno 8009 bound_to 7997
  156.2363  140.1864  156.7093 H   0  0  0  0  0  0  0  0  0  0  0  0  # atno 8010 bound_to 7997
  140.2252  143.3647  152.0935 H   0  0  0  0  0  0  0  0  0  0  0  0  # atno 10167 bound_to 10162
  156.7879  130.5352  149.5740 H   0  0  0  0  0  0  0  0  0  0  0  0  # atno 10718 bound_to 10713
  153.3003  135.4117  155.1246 H   0  0  0  0  0  0  0  0  0  0  0  0  # atno 10763 bound_to 10752
  154.8547  135.3539  154.5861 H   0  0  0  0  0  0  0  0  0  0  0  0  # atno 10764 bound_to 10752
  153.6286  135.7061  153.5342 H   0  0  0  0  0  0  0  0  0  0  0  0  # atno 10765 bound_to 10752
  140.1324  134.4688  155.8511 H   0  0  0  0  0  0  0  0  0  0  0  0  # atno 11005 bound_to 11000
  145.9205  140.9118  143.0407 LP  0  0  0  0  0  0  0  0  0  0  0  0  # atno 17320 bound_to 7965
  144.6726  140.1282  143.7445 LP  0  0  0  0  0  0  0  0  0  0  0  0  # atno 17321 bound_to 7965
  139.5130  144.6925  151.5721 LP  0  0  0  0  0  0  0  0  0  0  0  0  # atno 17342 bound_to 10162
  140.6226  143.9230  150.6538 LP  0  0  0  0  0  0  0  0  0  0  0  0  # atno 17343 bound_to 10162
  156.1177  130.6087  151.0146 LP  0  0  0  0  0  0  0  0  0  0  0  0  # atno 17370 bound_to 10713
  157.6615  131.0880  150.7828 LP  0  0  0  0  0  0  0  0  0  0  0  0  # atno 17371 bound_to 10713
  141.2172  133.6801  156.7095 LP  0  0  0  0  0  0  0  0  0  0  0  0  # atno 17394 bound_to 11000
  140.2825  134.8305  157.3945 LP  0  0  0  0  0  0  0  0  0  0  0  0  # atno 17395 bound_to 11000

$$$$
