AV-unprocessed.smi:861|AV-procd|sdf|3968|dock4
  -GOLD-   22720 1443D 1   1.00000     0.00000
 Structure written by MMmdl.
 44 45  0  0  0  0  0  0  0  0  2 V2000
  152.7077  142.3827  159.6038 C   0  0  0  0  0  0  0  0  0  0  0  0
  152.1553  143.4396  158.6327 C   0  0  0  0  0  0  0  0  0  0  0  0
  152.2114  144.8350  159.2732 C   0  0  0  0  0  0  0  0  0  0  0  0
  150.7228  143.1154  158.1619 C   0  0  0  0  0  0  0  0  0  0  0  0
  150.6365  141.9124  157.2016 C   0  0  0  0  0  0  0  0  0  0  0  0
  149.4457  141.9728  156.3121 N   0  3  1  0  0  0  0  0  0  0  0  0
  149.6558  141.3161  154.9991 C   0  0  0  0  0  0  0  0  0  0  0  0
  149.5486  139.7853  155.1195 C   0  0  0  0  0  0  0  0  0  0  0  0
  148.2873  139.4409  155.6798 O   0  0  0  0  0  0  0  0  0  0  0  0
  148.1093  139.9584  156.9943 C   0  0  2  0  0  0  0  0  0  0  0  0
  146.7595  139.4314  157.5135 C   0  0  0  0  0  0  0  0  0  0  0  0
  146.7034  137.9740  157.5624 N   0  0  0  0  0  0  0  0  0  0  0  0
  146.9196  137.2534  158.7460 C   0  0  0  0  0  0  0  0  0  0  0  0
  147.2931  135.8979  158.6552 C   0  0  0  0  0  0  0  0  0  0  0  0
  147.5142  135.1991  159.8546 C   0  0  0  0  0  0  0  0  0  0  0  0
  147.3455  135.9106  161.0563 C   0  0  0  0  0  0  0  0  0  0  0  0
  146.9841  137.2130  161.0859 N   0  0  0  0  0  0  0  0  0  0  0  0
  146.7708  137.8747  159.9430 N   0  0  0  0  0  0  0  0  0  0  0  0
  148.1783  141.5018  156.9268 C   0  0  0  0  0  0  0  0  0  0  0  0
  152.0708  142.2795  160.4829 H   0  0  0  0  0  0  0  0  0  0  0  0
  153.7061  142.6536  159.9486 H   0  0  0  0  0  0  0  0  0  0  0  0
  152.7888  141.4037  159.1323 H   0  0  0  0  0  0  0  0  0  0  0  0
  152.8050  143.4608  157.7567 H   0  0  0  0  0  0  0  0  0  0  0  0
  151.5793  144.8897  160.1602 H   0  0  0  0  0  0  0  0  0  0  0  0
  151.8747  145.6037  158.5771 H   0  0  0  0  0  0  0  0  0  0  0  0
  153.2281  145.0899  159.5743 H   0  0  0  0  0  0  0  0  0  0  0  0
  150.0965  142.9521  159.0386 H   0  0  0  0  0  0  0  0  0  0  0  0
  150.3134  143.9906  157.6553 H   0  0  0  0  0  0  0  0  0  0  0  0
  151.5326  141.9143  156.5800 H   0  0  0  0  0  0  0  0  0  0  0  0
  150.6483  140.9730  157.7531 H   0  0  0  0  0  0  0  0  0  0  0  0
  148.8914  141.6760  154.3094 H   0  0  0  0  0  0  0  0  0  0  0  0
  150.6156  141.6064  154.5699 H   0  0  0  0  0  0  0  0  0  0  0  0
  149.6299  139.3275  154.1336 H   0  0  0  0  0  0  0  0  0  0  0  0
  150.3578  139.3754  155.7255 H   0  0  0  0  0  0  0  0  0  0  0  0
  148.9019  139.5652  157.6329 H   0  0  0  0  0  0  0  0  0  0  0  0
  146.5102  139.8793  158.4758 H   0  0  0  0  0  0  0  0  0  0  0  0
  145.9725  139.7480  156.8286 H   0  0  0  0  0  0  0  0  0  0  0  0
  146.5221  137.4713  156.7055 H   0  0  0  0  0  0  0  0  0  0  0  0
  147.4082  135.4073  157.6997 H   0  0  0  0  0  0  0  0  0  0  0  0
  147.8023  134.1585  159.8538 H   0  0  0  0  0  0  0  0  0  0  0  0
  147.5030  135.4284  162.0096 H   0  0  0  0  0  0  0  0  0  0  0  0
  148.0427  141.9428  157.9120 H   0  0  0  0  0  0  0  0  0  0  0  0
  147.3521  141.8717  156.3179 H   0  0  0  0  0  0  0  0  0  0  0  0
  149.3181  142.9547  156.1119 H   0  0  0  0  0  0  0  0  0  0  0  0
  1  2  1  0  0  0  0
  1 20  1  0  0  0  0
  1 21  1  0  0  0  0
  1 22  1  0  0  0  0
  2  3  1  0  0  0  0
  2  4  1  0  0  0  0
  2 23  1  0  0  0  0
  3 24  1  0  0  0  0
  3 25  1  0  0  0  0
  3 26  1  0  0  0  0
  4  5  1  0  0  0  0
  4 27  1  0  0  0  0
  4 28  1  0  0  0  0
  5  6  1  0  0  0  0
  5 29  1  0  0  0  0
  5 30  1  0  0  0  0
  6 19  1  0  0  0  0
  6  7  1  0  0  0  0
  6 44  1  0  0  0  0
  7  8  1  0  0  0  0
  7 31  1  0  0  0  0
  7 32  1  0  0  0  0
  8  9  1  0  0  0  0
  8 33  1  0  0  0  0
  8 34  1  0  0  0  0
  9 10  1  0  0  0  0
 10 11  1  0  0  0  0
 10 19  1  0  0  0  0
 10 35  1  0  0  0  0
 11 12  1  0  0  0  0
 11 36  1  0  0  0  0
 11 37  1  0  0  0  0
 12 13  1  0  0  0  0
 12 38  1  0  0  0  0
 13 18  1  0  0  0  0
 13 14  2  0  0  0  0
 14 15  1  0  0  0  0
 14 39  1  0  0  0  0
 15 16  2  0  0  0  0
 15 40  1  0  0  0  0
 16 17  1  0  0  0  0
 16 41  1  0  0  0  0
 17 18  2  0  0  0  0
 19 42  1  0  0  0  0
 19 43  1  0  0  0  0
M  CHG  1   6   1
M  END
> <s_m_source_file>
AV-unprocessed.smi

> <i_m_source_file_index>
861

> <i_lp_mmshare_version>
43012

> <i_f3d_flags>
0

> <s_epik_input>
W0NIM11bQ0hdKFtDSDNdKVtDSDJdW0NIMl1OMVtDSDJdW0NIMl1PW0NASF0oW0NIMl0xKVtDSDJdW05IXWMyW2NIXVtjSF1bY0hdbm4y

> <s_epik_cmdline>
J2VwaWtfcHl0aG9uJywgJy1waCcsICc3LjAnLCAnLXRuJywgJzgnLCAnLW1hJywgJzIwMCcsICctbWV0YWxfYmluZGluZycsICctaW1hZScsICc8aW5maWxlLm1hZT4nLCAnLW9tYWUnLCAnPG91dGZpbGUubWFlPic=

> <r_lp_tautomer_probability>
0.999978

> <r_epik_Ionization_Penalty>
0.114704

> <r_epik_Ionization_Penalty_Charging>
0.0953451

> <r_epik_Ionization_Penalty_Neutral>
0.0193593

> <r_epik_State_Penalty>
0.104983

> <r_epik_Charging_Adjusted_Penalty>
0.200328

> <i_epik_Tot_Q>
1

> <i_epik_Tot_abs_Q>
1

> <r_epik_Metal_State_Penalty>
0.100113

> <b_epik_Metal_Only>
0

> <s_lp_Force_Field>
OPLS_2005

> <r_lp_Energy>
26.2812

> <b_lp_Chiralities_Consistent>
1

> <s_lp_Variant>
AV-unprocessed.smi:861-3

> <Gold.Version>
5.8.1

> <Gold.Id.Protein>
6NUR|6NUR_protein|mol2

> <Gold.PLP.Fitness>
42.1784

> <Gold.PLP.PLP>
-33.1803

> <Gold.PLP.part.hbond>
-4.0987

> <Gold.PLP.part.metal>
0.0000

> <Gold.PLP.part.buried>
-4.1480

> <Gold.PLP.part.nonpolar>
-26.1790

> <Gold.PLP.part.repulsive>
0.1166

> <Gold.PLP.ligand.clash>
0.0000

> <Gold.PLP.ligand.torsion>
0.7624

> <Gold.PLP.Chemscore.Hbond>
3.4596

> <Gold.PLP.Chemscore.CHOScore>
0.0000

> <Gold.PLP.Chemscore.Metal>
0.0000

> <Gold.Chemscore.Hbonds>
donor molecule, donor type, donor heavy atom, donor atom, acceptor molecule, acceptor atom, score
      L1  H     6    44       P1  8028  2.00

> <Gold.PLP.Chemscore.Internal.Correction>
0.1442

> <Gold.Rescore>
     Score         DG    S(hbond)    S(metal)    S(lipo)     H(rot)  DE(clash)    DE(int)     intcor
     15.31     -16.10       1.42        0.00      87.77       1.71       0.03       0.76       ----

> <Gold.Chemscore.Fitness>
15.3097

> <Gold.Chemscore.DG>
-16.1017

> <Gold.Chemscore.ZeroCoef>
-5.4800

> <Gold.Chemscore.Hbond>
1.4184

> <Gold.Chemscore.Metal>
0.0000

> <Gold.Chemscore.Lipo>
87.7678

> <Gold.Chemscore.Internal_Hbond>
0.0000

> <Gold.Chemscore.DEClash>
0.0343

> <Gold.Chemscore.DEInternal>
0.7577

> <Gold.Chemscore.Rot>
1.7127

> <Gold.Chemscore.Internal.Correction>
   9.000000E+99

> <Gold.Chemscore.Hbonds>
donor molecule, donor type, donor heavy atom, donor atom, acceptor molecule, acceptor atom, score
      L1  H     6    44       P1  8028  1.00
      P1  H  6931  6943       L1    17  0.01

> <Gold.Chemscore.Hbond.Weighted>
-4.7373

> <Gold.Chemscore.Metal.Weighted>
-0.0000

> <Gold.Chemscore.Lipo.Weighted>
-10.2688

> <Gold.Chemscore.Internal_Hbond.Weighted>
0.0000

> <Gold.Chemscore.DEClash.Weighted>
0.0343

> <Gold.Chemscore.DEInternal.Weighted>
0.7577

> <Gold.Chemscore.Rot.Weighted>
4.3844

> <Gold.Chemscore.Internal.Correction.Weighted>
   9.000000E+99

> <Gold.Protein.RotatedTorsions>
[ 6907 6896 6895 6894 ] final   67.43 input  -60.11 | X-H torsion
[ 7974 7965 7964 7962 ] final -176.27 input  175.53 | X-H torsion
[ 8008 7997 7996 7995 ] final   58.07 input   59.86 | X-H torsion
[ 10167 10162 10161 10158 ] final  160.76 input  -65.29 | X-H torsion
[ 10718 10713 10712 10709 ] final    6.76 input   66.30 | X-H torsion
[ 10763 10752 10751 10750 ] final -103.10 input  -60.55 | X-H torsion
[ 11005 11000 10999 10996 ] final  102.40 input  -57.11 | X-H torsion

> <Gold.Protein.ActiveResidues>
 VAL166  LYS551  ARG553  GLY616  TRP617  ASP618  TYR619  PRO620  LYS621  CYS622 
 ASP623  PHE694  ASN695  SER759  ASP760  ASP761  ALA762  ILE779  LEU786  VAL792 
 PHE793  MET794  SER795  GLU796  ALA797  LYS798  CYS799  TRP800  GLU811  SER814 

> <Gold.Protein.RotatedAtoms>
  152.4551  134.5308  159.9810 H   0  0  0  0  0  0  0  0  0  0  0  0  # atno 6907 bound_to 6896
  151.5371  133.3433  159.2936 H   0  0  0  0  0  0  0  0  0  0  0  0  # atno 6908 bound_to 6896
  150.8493  134.7843  159.7059 H   0  0  0  0  0  0  0  0  0  0  0  0  # atno 6909 bound_to 6896
  144.7127  140.1196  143.6406 H   0  0  0  0  0  0  0  0  0  0  0  0  # atno 7974 bound_to 7965
  155.5441  140.3485  155.4453 H   0  0  0  0  0  0  0  0  0  0  0  0  # atno 8008 bound_to 7997
  156.0630  140.1344  156.9945 H   0  0  0  0  0  0  0  0  0  0  0  0  # atno 8009 bound_to 7997
  154.4489  140.0981  156.6530 H   0  0  0  0  0  0  0  0  0  0  0  0  # atno 8010 bound_to 7997
  139.4843  144.4603  151.8714 H   0  0  0  0  0  0  0  0  0  0  0  0  # atno 10167 bound_to 10162
  156.9269  130.5811  149.5648 H   0  0  0  0  0  0  0  0  0  0  0  0  # atno 10718 bound_to 10713
  154.7782  135.4836  153.9789 H   0  0  0  0  0  0  0  0  0  0  0  0  # atno 10763 bound_to 10752
  153.1458  135.6781  153.8964 H   0  0  0  0  0  0  0  0  0  0  0  0  # atno 10764 bound_to 10752
  153.8625  135.3153  155.3417 H   0  0  0  0  0  0  0  0  0  0  0  0  # atno 10765 bound_to 10752
  139.8777  134.9222  156.5052 H   0  0  0  0  0  0  0  0  0  0  0  0  # atno 11005 bound_to 11000
  145.9383  139.2652  143.1284 LP  0  0  0  0  0  0  0  0  0  0  0  0  # atno 17320 bound_to 7965
  145.9451  140.8951  143.0288 LP  0  0  0  0  0  0  0  0  0  0  0  0  # atno 17321 bound_to 7965
  140.4065  144.2425  150.5890 LP  0  0  0  0  0  0  0  0  0  0  0  0  # atno 17342 bound_to 10162
  140.5007  143.2319  151.8682 LP  0  0  0  0  0  0  0  0  0  0  0  0  # atno 17343 bound_to 10162
  156.0465  130.5541  150.8892 LP  0  0  0  0  0  0  0  0  0  0  0  0  # atno 17370 bound_to 10713
  157.5872  131.0945  150.9177 LP  0  0  0  0  0  0  0  0  0  0  0  0  # atno 17371 bound_to 10713
  140.8560  133.8096  155.9217 LP  0  0  0  0  0  0  0  0  0  0  0  0  # atno 17394 bound_to 11000
  140.9097  134.2276  157.4993 LP  0  0  0  0  0  0  0  0  0  0  0  0  # atno 17395 bound_to 11000

$$$$
