AV-unprocessed.smi:2495|AV-procd|sdf|9823|dock2
  -GOLD-   2272013453D 1   1.00000     0.00000
 Structure written by MMmdl.
 33 34  0  0  0  0  0  0  0  0  1 V2000
  146.5179  141.5101  154.3422 C   0  0  0  0  0  0  0  0  0  0  0  0
  147.5856  140.7314  154.9500 N   0  0  0  0  0  0  0  0  0  0  0  0
  148.8832  140.8433  154.6281 C   0  0  0  0  0  0  0  0  0  0  0  0
  149.2942  141.6394  153.7830 O   0  0  0  0  0  0  0  0  0  0  0  0
  149.8626  139.9372  155.3893 C   0  0  2  0  0  0  0  0  0  0  0  0
  150.7430  140.7262  156.3859 C   0  0  0  0  0  0  0  0  0  0  0  0
  151.7424  139.8542  156.9999 N   0  0  0  0  0  0  0  0  0  0  0  0
  152.4275  140.3934  158.1107 C   0  0  0  0  0  0  0  0  0  0  0  0
  151.9618  141.5644  158.7565 C   0  0  0  0  0  0  0  0  0  0  0  0
  152.7123  142.0292  159.8568 C   0  0  0  0  0  0  0  0  0  0  0  0
  152.3054  143.2729  160.6185 C   0  0  0  0  0  0  0  0  0  0  0  0
  153.8254  141.3934  160.2799 N   0  0  0  0  0  0  0  0  0  0  0  0
  154.1767  140.2957  159.6079 C   0  0  0  0  0  0  0  0  0  0  0  0
  153.5432  139.7655  158.5593 N   0  0  0  0  0  0  0  0  0  0  0  0
  152.5171  139.0818  156.0316 C   0  0  0  0  0  0  0  0  0  0  0  0
  151.5791  138.3392  155.0679 C   0  0  0  0  0  0  0  0  0  0  0  0
  150.7020  139.2708  154.4460 O   0  0  0  0  0  0  0  0  0  0  0  0
  145.5691  141.2836  154.8283 H   0  0  0  0  0  0  0  0  0  0  0  0
  146.4236  141.2732  153.2819 H   0  0  0  0  0  0  0  0  0  0  0  0
  146.7063  142.5796  154.4449 H   0  0  0  0  0  0  0  0  0  0  0  0
  147.3250  140.0559  155.6544 H   0  0  0  0  0  0  0  0  0  0  0  0
  149.2702  139.1956  155.9281 H   0  0  0  0  0  0  0  0  0  0  0  0
  151.2593  141.5394  155.8736 H   0  0  0  0  0  0  0  0  0  0  0  0
  150.1026  141.1827  157.1391 H   0  0  0  0  0  0  0  0  0  0  0  0
  151.0672  142.0808  158.4423 H   0  0  0  0  0  0  0  0  0  0  0  0
  151.2388  143.4676  160.5036 H   0  0  0  0  0  0  0  0  0  0  0  0
  152.8546  144.1376  160.2458 H   0  0  0  0  0  0  0  0  0  0  0  0
  152.5160  143.1634  161.6829 H   0  0  0  0  0  0  0  0  0  0  0  0
  155.0648  139.7836  159.9468 H   0  0  0  0  0  0  0  0  0  0  0  0
  153.1714  139.7534  155.4739 H   0  0  0  0  0  0  0  0  0  0  0  0
  153.1515  138.3577  156.5444 H   0  0  0  0  0  0  0  0  0  0  0  0
  152.1590  137.8295  154.2984 H   0  0  0  0  0  0  0  0  0  0  0  0
  151.0046  137.5746  155.5931 H   0  0  0  0  0  0  0  0  0  0  0  0
  1  2  1  0  0  0  0
  1 18  1  0  0  0  0
  1 19  1  0  0  0  0
  1 20  1  0  0  0  0
  2  3  1  0  0  0  0
  2 21  1  0  0  0  0
  3  4  2  0  0  0  0
  3  5  1  0  0  0  0
  5 17  1  0  0  0  0
  5  6  1  0  0  0  0
  5 22  1  0  0  0  0
  6  7  1  0  0  0  0
  6 23  1  0  0  0  0
  6 24  1  0  0  0  0
  7  8  1  0  0  0  0
  7 15  1  0  0  0  0
  8 14  1  0  0  0  0
  8  9  2  0  0  0  0
  9 10  1  0  0  0  0
  9 25  1  0  0  0  0
 10 11  1  0  0  0  0
 10 12  2  0  0  0  0
 11 26  1  0  0  0  0
 11 27  1  0  0  0  0
 11 28  1  0  0  0  0
 12 13  1  0  0  0  0
 13 14  2  0  0  0  0
 13 29  1  0  0  0  0
 15 16  1  0  0  0  0
 15 30  1  0  0  0  0
 15 31  1  0  0  0  0
 16 17  1  0  0  0  0
 16 32  1  0  0  0  0
 16 33  1  0  0  0  0
M  END
> <s_m_source_file>
AV-unprocessed.smi

> <i_m_source_file_index>
2495

> <i_lp_mmshare_version>
43012

> <i_f3d_flags>
0

> <s_epik_input>
W0NIM11bTkhdQyg9TylbQ0BASF0xW0NIMl1OKFtDSDJdW0NIMl1PMSljMltjSF1jKFtDSDNdKW5bY0hdbjI=

> <s_epik_cmdline>
J2VwaWtfcHl0aG9uJywgJy1waCcsICc3LjAnLCAnLXRuJywgJzgnLCAnLW1hJywgJzIwMCcsICctbWV0YWxfYmluZGluZycsICctaW1hZScsICc8aW5maWxlLm1hZT4nLCAnLW9tYWUnLCAnPG91dGZpbGUubWFlPic=

> <r_lp_tautomer_probability>
1

> <r_epik_Ionization_Penalty>
0.000466083

> <r_epik_Ionization_Penalty_Charging>
0

> <r_epik_Ionization_Penalty_Neutral>
0.000466083

> <r_epik_State_Penalty>
0.000259726

> <r_epik_Charging_Adjusted_Penalty>
0.000259726

> <i_epik_Tot_Q>
0

> <i_epik_Tot_abs_Q>
0

> <r_epik_Metal_State_Penalty>
-0

> <b_epik_Metal_Only>
0

> <s_lp_Force_Field>
OPLS_2005

> <r_lp_Energy>
12.0364

> <b_lp_Chiralities_Consistent>
1

> <s_lp_Variant>
AV-unprocessed.smi:2495-1

> <Gold.Version>
5.8.1

> <Gold.Id.Protein>
6NUR|6NUR_protein|mol2

> <Gold.PLP.Fitness>
37.9138

> <Gold.PLP.PLP>
-31.4118

> <Gold.PLP.part.hbond>
-3.5517

> <Gold.PLP.part.metal>
0.0000

> <Gold.PLP.part.buried>
-2.3663

> <Gold.PLP.part.nonpolar>
-25.2717

> <Gold.PLP.part.repulsive>
0.3937

> <Gold.PLP.ligand.clash>
0.0000

> <Gold.PLP.ligand.torsion>
0.7142

> <Gold.PLP.Chemscore.Hbond>
2.5280

> <Gold.PLP.Chemscore.CHOScore>
0.0000

> <Gold.PLP.Chemscore.Metal>
0.0000

> <Gold.Chemscore.Hbonds>
donor molecule, donor type, donor heavy atom, donor atom, acceptor molecule, acceptor atom, score
      P1  H  7989  7998       L1    17  0.89
      P1  H  7997  8010       L1    14  0.75
      P1  H  8011  8017       L1     4  0.67

> <Gold.PLP.Chemscore.Internal.Correction>
0.3465

> <Gold.Rescore>
     Score         DG    S(hbond)    S(metal)    S(lipo)     H(rot)  DE(clash)    DE(int)     intcor
     13.36     -14.06       1.49        0.00      60.74       1.37       0.04       0.65       ----

> <Gold.Chemscore.Fitness>
13.3626

> <Gold.Chemscore.DG>
-14.0588

> <Gold.Chemscore.ZeroCoef>
-5.4800

> <Gold.Chemscore.Hbond>
1.4913

> <Gold.Chemscore.Metal>
0.0000

> <Gold.Chemscore.Lipo>
60.7393

> <Gold.Chemscore.Internal_Hbond>
0.0000

> <Gold.Chemscore.DEClash>
0.0423

> <Gold.Chemscore.DEInternal>
0.6539

> <Gold.Chemscore.Rot>
1.3706

> <Gold.Chemscore.Internal.Correction>
   9.000000E+99

> <Gold.Chemscore.Hbonds>
donor molecule, donor type, donor heavy atom, donor atom, acceptor molecule, acceptor atom, score
      P1  H  7989  7998       L1    17  0.27
      P1  H  7997  8010       L1    14  0.07
      P1  H  8011  8017       L1     4  0.68

> <Gold.Chemscore.Hbond.Weighted>
-4.9810

> <Gold.Chemscore.Metal.Weighted>
-0.0000

> <Gold.Chemscore.Lipo.Weighted>
-7.1065

> <Gold.Chemscore.Internal_Hbond.Weighted>
0.0000

> <Gold.Chemscore.DEClash.Weighted>
0.0423

> <Gold.Chemscore.DEInternal.Weighted>
0.6539

> <Gold.Chemscore.Rot.Weighted>
3.5087

> <Gold.Chemscore.Internal.Correction.Weighted>
   9.000000E+99

> <Gold.Protein.RotatedTorsions>
[ 6907 6896 6895 6894 ] final -151.95 input  -60.11 | X-H torsion
[ 7974 7965 7964 7962 ] final  -67.87 input  175.53 | X-H torsion
[ 8008 7997 7996 7995 ] final   39.96 input   59.86 | X-H torsion
[ 10167 10162 10161 10158 ] final  -68.65 input  -65.29 | X-H torsion
[ 10718 10713 10712 10709 ] final  119.00 input   66.30 | X-H torsion
[ 10763 10752 10751 10750 ] final  -63.79 input  -60.55 | X-H torsion
[ 11005 11000 10999 10996 ] final   62.42 input  -57.11 | X-H torsion

> <Gold.Protein.ActiveResidues>
 VAL166  LYS551  ARG553  GLY616  TRP617  ASP618  TYR619  PRO620  LYS621  CYS622 
 ASP623  PHE694  ASN695  SER759  ASP760  ASP761  ALA762  ILE779  LEU786  VAL792 
 PHE793  MET794  SER795  GLU796  ALA797  LYS798  CYS799  TRP800  GLU811  SER814 

> <Gold.Protein.RotatedAtoms>
  151.2206  133.4504  159.2600 H   0  0  0  0  0  0  0  0  0  0  0  0  # atno 6907 bound_to 6896
  151.0888  134.9903  159.8402 H   0  0  0  0  0  0  0  0  0  0  0  0  # atno 6908 bound_to 6896
  152.5432  134.2141  159.8814 H   0  0  0  0  0  0  0  0  0  0  0  0  # atno 6909 bound_to 6896
  145.7237  140.9027  143.0616 H   0  0  0  0  0  0  0  0  0  0  0  0  # atno 7974 bound_to 7965
  155.2452  140.3348  155.4288 H   0  0  0  0  0  0  0  0  0  0  0  0  # atno 8008 bound_to 7997
  156.2239  140.1821  156.7455 H   0  0  0  0  0  0  0  0  0  0  0  0  # atno 8009 bound_to 7997
  154.5868  140.0644  156.9168 H   0  0  0  0  0  0  0  0  0  0  0  0  # atno 8010 bound_to 7997
  140.5491  143.2312  151.6946 H   0  0  0  0  0  0  0  0  0  0  0  0  # atno 10167 bound_to 10162
  157.5992  131.1053  150.7834 H   0  0  0  0  0  0  0  0  0  0  0  0  # atno 10718 bound_to 10713
  154.3203  135.6197  153.5505 H   0  0  0  0  0  0  0  0  0  0  0  0  # atno 10763 bound_to 10752
  152.9820  135.5722  154.5077 H   0  0  0  0  0  0  0  0  0  0  0  0  # atno 10764 bound_to 10752
  154.4744  135.2860  155.1595 H   0  0  0  0  0  0  0  0  0  0  0  0  # atno 10765 bound_to 10752
  140.0094  134.6320  155.9805 H   0  0  0  0  0  0  0  0  0  0  0  0  # atno 11005 bound_to 11000
  144.6910  139.9237  143.7469 LP  0  0  0  0  0  0  0  0  0  0  0  0  # atno 17320 bound_to 7965
  146.0601  139.3595  143.0586 LP  0  0  0  0  0  0  0  0  0  0  0  0  # atno 17321 bound_to 7965
  139.5020  144.3847  152.0340 LP  0  0  0  0  0  0  0  0  0  0  0  0  # atno 17342 bound_to 10162
  140.2962  144.3698  150.6073 LP  0  0  0  0  0  0  0  0  0  0  0  0  # atno 17343 bound_to 10162
  156.8237  130.4992  149.5340 LP  0  0  0  0  0  0  0  0  0  0  0  0  # atno 17370 bound_to 10713
  156.1061  130.6006  150.9973 LP  0  0  0  0  0  0  0  0  0  0  0  0  # atno 17371 bound_to 10713
  141.1700  133.6537  156.4616 LP  0  0  0  0  0  0  0  0  0  0  0  0  # atno 17394 bound_to 11000
  140.4583  134.6865  157.5073 LP  0  0  0  0  0  0  0  0  0  0  0  0  # atno 17395 bound_to 11000

$$$$
