AV-unprocessed.smi:2396|AV-procd|sdf|9492|dock4
  -GOLD-   2272013123D 1   1.00000     0.00000
 Structure written by MMmdl.
 32 32  0  0  0  0  0  0  0  0  1 V2000
  147.0307  140.9568  153.4371 C   0  0  0  0  0  0  0  0  0  0  0  0
  147.9448  141.9633  154.1482 C   0  0  0  0  0  0  0  0  0  0  0  0
  148.6350  141.3547  155.2793 N   0  0  0  0  0  0  0  0  0  0  0  0
  149.7243  140.5761  155.1897 C   0  0  0  0  0  0  0  0  0  0  0  0
  150.2608  140.2890  154.1187 O   0  0  0  0  0  0  0  0  0  0  0  0
  150.2836  140.0414  156.5127 C   0  0  0  0  0  0  0  0  0  0  0  0
  150.9595  141.0751  157.2787 N   0  0  0  0  0  0  0  0  0  0  0  0
  150.9079  142.4399  157.1103 C   0  0  0  0  0  0  0  0  0  0  0  0
  151.7134  143.0084  158.0567 C   0  0  0  0  0  0  0  0  0  0  0  0
  151.9849  144.4800  158.2445 C   0  0  0  0  0  0  0  0  0  0  0  0
  151.0537  145.1126  159.2900 C   0  0  0  0  0  0  0  0  0  0  0  0
  149.7112  144.7423  159.0570 O   0  0  0  0  0  0  0  0  0  0  0  0
  152.2227  141.8851  158.7851 C   0  0  0  0  0  0  0  0  0  0  0  0
  153.1838  141.8339  159.9502 C   0  0  0  0  0  0  0  0  0  0  0  0
  152.6949  142.5542  160.9594 F   0  0  0  0  0  0  0  0  0  0  0  0
  153.3893  140.5900  160.3775 F   0  0  0  0  0  0  0  0  0  0  0  0
  154.3596  142.3479  159.5874 F   0  0  0  0  0  0  0  0  0  0  0  0
  151.7642  140.7359  158.3049 N   0  0  0  0  0  0  0  0  0  0  0  0
  146.5449  141.4168  152.5764 H   0  0  0  0  0  0  0  0  0  0  0  0
  146.2471  140.5917  154.1020 H   0  0  0  0  0  0  0  0  0  0  0  0
  147.5956  140.0958  153.0789 H   0  0  0  0  0  0  0  0  0  0  0  0
  148.6964  142.3333  153.4504 H   0  0  0  0  0  0  0  0  0  0  0  0
  147.3718  142.8319  154.4761 H   0  0  0  0  0  0  0  0  0  0  0  0
  148.2557  141.5374  156.1972 H   0  0  0  0  0  0  0  0  0  0  0  0
  149.4801  139.6311  157.1262 H   0  0  0  0  0  0  0  0  0  0  0  0
  150.9795  139.2269  156.3065 H   0  0  0  0  0  0  0  0  0  0  0  0
  150.3131  142.8919  156.3301 H   0  0  0  0  0  0  0  0  0  0  0  0
  153.0123  144.6197  158.5823 H   0  0  0  0  0  0  0  0  0  0  0  0
  151.9252  145.0307  157.3062 H   0  0  0  0  0  0  0  0  0  0  0  0
  151.3482  144.8292  160.3011 H   0  0  0  0  0  0  0  0  0  0  0  0
  151.1152  146.1995  159.2302 H   0  0  0  0  0  0  0  0  0  0  0  0
  149.3444  145.3288  158.4131 H   0  0  0  0  0  0  0  0  0  0  0  0
  1  2  1  0  0  0  0
  1 19  1  0  0  0  0
  1 20  1  0  0  0  0
  1 21  1  0  0  0  0
  2  3  1  0  0  0  0
  2 22  1  0  0  0  0
  2 23  1  0  0  0  0
  3  4  1  0  0  0  0
  3 24  1  0  0  0  0
  4  5  2  0  0  0  0
  4  6  1  0  0  0  0
  6  7  1  0  0  0  0
  6 25  1  0  0  0  0
  6 26  1  0  0  0  0
  7 18  1  0  0  0  0
  7  8  1  0  0  0  0
  8  9  2  0  0  0  0
  8 27  1  0  0  0  0
  9 10  1  0  0  0  0
  9 13  1  0  0  0  0
 10 11  1  0  0  0  0
 10 28  1  0  0  0  0
 10 29  1  0  0  0  0
 11 12  1  0  0  0  0
 11 30  1  0  0  0  0
 11 31  1  0  0  0  0
 12 32  1  0  0  0  0
 13 14  1  0  0  0  0
 13 18  2  0  0  0  0
 14 15  1  0  0  0  0
 14 16  1  0  0  0  0
 14 17  1  0  0  0  0
M  END
> <s_m_source_file>
AV-unprocessed.smi

> <i_m_source_file_index>
2396

> <i_lp_mmshare_version>
43012

> <i_f3d_flags>
0

> <s_epik_input>
W0NIM11bQ0gyXVtOSF1DKD1PKVtDSDJdbjFbY0hdYyhjKG4xKUMoRikoRilGKVtDSDJdW0NIMl1bT0hd

> <s_epik_cmdline>
J2VwaWtfcHl0aG9uJywgJy1waCcsICc3LjAnLCAnLXRuJywgJzgnLCAnLW1hJywgJzIwMCcsICctbWV0YWxfYmluZGluZycsICctaW1hZScsICc8aW5maWxlLm1hZT4nLCAnLW9tYWUnLCAnPG91dGZpbGUubWFlPic=

> <r_lp_tautomer_probability>
1

> <r_epik_Ionization_Penalty>
2.37964e-07

> <r_epik_Ionization_Penalty_Charging>
0

> <r_epik_Ionization_Penalty_Neutral>
2.37964e-07

> <r_epik_State_Penalty>
-0

> <r_epik_Charging_Adjusted_Penalty>
0

> <i_epik_Tot_Q>
0

> <i_epik_Tot_abs_Q>
0

> <r_epik_Metal_State_Penalty>
-0

> <b_epik_Metal_Only>
0

> <s_lp_Force_Field>
OPLS_2005

> <r_lp_Energy>
5.98536

> <b_lp_Chiralities_Consistent>
1

> <s_lp_Variant>
AV-unprocessed.smi:2396-1

> <Gold.Version>
5.8.1

> <Gold.Id.Protein>
6NUR|6NUR_protein|mol2

> <Gold.PLP.Fitness>
47.2027

> <Gold.PLP.PLP>
-39.9592

> <Gold.PLP.part.hbond>
-1.9048

> <Gold.PLP.part.metal>
0.0000

> <Gold.PLP.part.buried>
-6.2667

> <Gold.PLP.part.nonpolar>
-32.2009

> <Gold.PLP.part.repulsive>
0.8255

> <Gold.PLP.ligand.clash>
0.0000

> <Gold.PLP.ligand.torsion>
0.8911

> <Gold.PLP.Chemscore.Hbond>
1.9920

> <Gold.PLP.Chemscore.CHOScore>
1.0000

> <Gold.PLP.Chemscore.Metal>
0.0000

> <Gold.Chemscore.Hbonds>
donor molecule, donor type, donor heavy atom, donor atom, acceptor molecule, acceptor atom, score
      L1  H    12    32       P1  8029  1.00
      P1  H  7989  7998       L1     5  0.94
      L1  C     8    27       P1  8028  1.00

> <Gold.PLP.Chemscore.Internal.Correction>
0.0498

> <Gold.Rescore>
     Score         DG    S(hbond)    S(metal)    S(lipo)     H(rot)  DE(clash)    DE(int)     intcor
     12.57     -14.17       1.94        0.00      81.61       2.86       0.89       0.71       ----

> <Gold.Chemscore.Fitness>
12.5728

> <Gold.Chemscore.DG>
-14.1728

> <Gold.Chemscore.ZeroCoef>
-5.4800

> <Gold.Chemscore.Hbond>
1.9378

> <Gold.Chemscore.Metal>
0.0000

> <Gold.Chemscore.Lipo>
81.6113

> <Gold.Chemscore.Internal_Hbond>
0.0000

> <Gold.Chemscore.DEClash>
0.8872

> <Gold.Chemscore.DEInternal>
0.7128

> <Gold.Chemscore.Rot>
2.8625

> <Gold.Chemscore.Internal.Correction>
   9.000000E+99

> <Gold.Chemscore.Hbonds>
donor molecule, donor type, donor heavy atom, donor atom, acceptor molecule, acceptor atom, score
      L1  H    12    32       P1  8029  0.79
      P1  H  7989  7998       L1     5  0.90

> <Gold.Chemscore.Hbond.Weighted>
-6.4722

> <Gold.Chemscore.Metal.Weighted>
-0.0000

> <Gold.Chemscore.Lipo.Weighted>
-9.5485

> <Gold.Chemscore.Internal_Hbond.Weighted>
0.0000

> <Gold.Chemscore.DEClash.Weighted>
0.8872

> <Gold.Chemscore.DEInternal.Weighted>
0.7128

> <Gold.Chemscore.Rot.Weighted>
7.3279

> <Gold.Chemscore.Internal.Correction.Weighted>
   9.000000E+99

> <Gold.Protein.RotatedTorsions>
[ 6907 6896 6895 6894 ] final -152.58 input  -60.11 | X-H torsion
[ 7974 7965 7964 7962 ] final  111.45 input  175.53 | X-H torsion
[ 8008 7997 7996 7995 ] final  153.09 input   59.86 | X-H torsion
[ 10167 10162 10161 10158 ] final   93.07 input  -65.29 | X-H torsion
[ 10718 10713 10712 10709 ] final   30.68 input   66.30 | X-H torsion
[ 10763 10752 10751 10750 ] final  158.53 input  -60.55 | X-H torsion
[ 11005 11000 10999 10996 ] final  -77.64 input  -57.11 | X-H torsion

> <Gold.Protein.ActiveResidues>
 VAL166  LYS551  ARG553  GLY616  TRP617  ASP618  TYR619  PRO620  LYS621  CYS622 
 ASP623  PHE694  ASN695  SER759  ASP760  ASP761  ALA762  ILE779  LEU786  VAL792 
 PHE793  MET794  SER795  GLU796  ALA797  LYS798  CYS799  TRP800  GLU811  SER814 

> <Gold.Protein.RotatedAtoms>
  151.2299  133.4456  159.2603 H   0  0  0  0  0  0  0  0  0  0  0  0  # atno 6907 bound_to 6896
  151.0804  134.9855  159.8363 H   0  0  0  0  0  0  0  0  0  0  0  0  # atno 6908 bound_to 6896
  152.5423  134.2239  159.8851 H   0  0  0  0  0  0  0  0  0  0  0  0  # atno 6909 bound_to 6896
  145.2421  139.2774  143.4112 H   0  0  0  0  0  0  0  0  0  0  0  0  # atno 7974 bound_to 7965
  156.2598  140.2003  156.6435 H   0  0  0  0  0  0  0  0  0  0  0  0  # atno 8008 bound_to 7997
  154.6591  140.0563  157.0067 H   0  0  0  0  0  0  0  0  0  0  0  0  # atno 8009 bound_to 7997
  155.1303  140.3233  155.4478 H   0  0  0  0  0  0  0  0  0  0  0  0  # atno 8010 bound_to 7997
  139.8216  144.6729  150.9512 H   0  0  0  0  0  0  0  0  0  0  0  0  # atno 10167 bound_to 10162
  157.2627  130.7169  149.6462 H   0  0  0  0  0  0  0  0  0  0  0  0  # atno 10718 bound_to 10713
  154.2175  135.2783  155.2937 H   0  0  0  0  0  0  0  0  0  0  0  0  # atno 10763 bound_to 10752
  154.5729  135.5613  153.7115 H   0  0  0  0  0  0  0  0  0  0  0  0  # atno 10764 bound_to 10752
  153.0049  135.6326  154.2314 H   0  0  0  0  0  0  0  0  0  0  0  0  # atno 10765 bound_to 10752
  141.1661  133.7031  156.7851 H   0  0  0  0  0  0  0  0  0  0  0  0  # atno 11005 bound_to 11000
  146.3325  140.2787  142.8609 LP  0  0  0  0  0  0  0  0  0  0  0  0  # atno 17320 bound_to 7965
  144.9579  140.8245  143.5531 LP  0  0  0  0  0  0  0  0  0  0  0  0  # atno 17321 bound_to 7965
  140.7813  143.4086  151.1029 LP  0  0  0  0  0  0  0  0  0  0  0  0  # atno 17342 bound_to 10162
  139.7746  143.8443  152.3127 LP  0  0  0  0  0  0  0  0  0  0  0  0  # atno 17343 bound_to 10162
  155.9664  130.4392  150.5250 LP  0  0  0  0  0  0  0  0  0  0  0  0  # atno 17370 bound_to 10713
  157.3157  131.0672  151.1968 LP  0  0  0  0  0  0  0  0  0  0  0  0  # atno 17371 bound_to 10713
  140.2366  134.8645  157.3531 LP  0  0  0  0  0  0  0  0  0  0  0  0  # atno 17394 bound_to 11000
  140.1838  134.4457  155.7756 LP  0  0  0  0  0  0  0  0  0  0  0  0  # atno 17395 bound_to 11000

$$$$
