AV-unprocessed.smi:2664|AV-procd|sdf|10328|dock1
  -GOLD-   2272014343D 1   1.00000     0.00000
 Structure written by MMmdl.
 44 45  0  0  0  0  0  0  0  0  2 V2000
  145.2582  138.1983  153.7970 O   0  0  0  0  0  0  0  0  0  0  0  0
  146.2571  137.6540  153.3281 C   0  0  0  0  0  0  0  0  0  0  0  0
  147.4877  138.1939  153.2908 N   0  0  0  0  0  0  0  0  0  0  0  0
  147.9242  139.4441  153.8081 C   0  0  0  0  0  0  0  0  0  0  0  0
  147.0703  140.5561  153.6350 C   0  0  0  0  0  0  0  0  0  0  0  0
  147.4679  141.8206  154.1152 C   0  0  0  0  0  0  0  0  0  0  0  0
  148.6628  141.9619  154.7278 N   0  3  0  0  0  0  0  0  0  0  0  0
  149.5185  140.9325  154.9047 C   0  0  0  0  0  0  0  0  0  0  0  0
  149.1760  139.6446  154.4446 C   0  0  0  0  0  0  0  0  0  0  0  0
  146.2475  136.4363  152.7645 N   0  0  0  0  0  0  0  0  0  0  0  0
  145.0838  135.5539  152.6363 C   0  0  2  0  0  0  0  0  0  0  0  0
  144.9289  134.7344  153.9429 C   0  0  0  0  0  0  0  0  0  0  0  0
  143.8059  135.2089  154.8850 C   0  0  0  0  0  0  0  0  0  0  0  0
  142.5651  134.6596  154.4951 O   0  0  0  0  0  0  0  0  0  0  0  0
  145.2209  134.6712  151.3616 C   0  0  0  0  0  0  0  0  0  0  0  0
  143.9570  133.8098  151.1036 C   0  0  0  0  0  0  0  0  0  0  0  0
  144.0904  132.9331  149.8482 C   0  0  0  0  0  0  0  0  0  0  0  0
  145.3272  132.0305  149.9281 C   0  0  0  0  0  0  0  0  0  0  0  0
  146.5913  132.8674  150.1574 C   0  0  0  0  0  0  0  0  0  0  0  0
  146.4634  133.7475  151.4113 C   0  0  0  0  0  0  0  0  0  0  0  0
  148.1874  137.6629  152.7931 H   0  0  0  0  0  0  0  0  0  0  0  0
  146.1146  140.4439  153.1435 H   0  0  0  0  0  0  0  0  0  0  0  0
  146.8710  142.7166  154.0265 H   0  0  0  0  0  0  0  0  0  0  0  0
  150.4491  141.1688  155.4000 H   0  0  0  0  0  0  0  0  0  0  0  0
  149.8851  138.8423  154.5787 H   0  0  0  0  0  0  0  0  0  0  0  0
  147.1184  136.0797  152.3994 H   0  0  0  0  0  0  0  0  0  0  0  0
  144.1802  136.1540  152.5170 H   0  0  0  0  0  0  0  0  0  0  0  0
  144.7387  133.6871  153.7129 H   0  0  0  0  0  0  0  0  0  0  0  0
  145.8729  134.7544  154.4887 H   0  0  0  0  0  0  0  0  0  0  0  0
  144.0174  134.8843  155.9041 H   0  0  0  0  0  0  0  0  0  0  0  0
  143.7324  136.2960  154.9117 H   0  0  0  0  0  0  0  0  0  0  0  0
  142.5690  133.7351  154.6914 H   0  0  0  0  0  0  0  0  0  0  0  0
  145.3406  135.3396  150.5073 H   0  0  0  0  0  0  0  0  0  0  0  0
  143.7635  133.1757  151.9700 H   0  0  0  0  0  0  0  0  0  0  0  0
  143.0756  134.4392  150.9829 H   0  0  0  0  0  0  0  0  0  0  0  0
  143.1946  132.3239  149.7238 H   0  0  0  0  0  0  0  0  0  0  0  0
  144.1573  133.5685  148.9642 H   0  0  0  0  0  0  0  0  0  0  0  0
  145.2081  131.3119  150.7400 H   0  0  0  0  0  0  0  0  0  0  0  0
  145.4256  131.4500  149.0103 H   0  0  0  0  0  0  0  0  0  0  0  0
  147.4576  132.2118  150.2514 H   0  0  0  0  0  0  0  0  0  0  0  0
  146.7749  133.4980  149.2867 H   0  0  0  0  0  0  0  0  0  0  0  0
  147.3784  134.3308  151.4985 H   0  0  0  0  0  0  0  0  0  0  0  0
  146.4148  133.1130  152.2974 H   0  0  0  0  0  0  0  0  0  0  0  0
  148.9326  142.8857  155.0669 H   0  0  0  0  0  0  0  0  0  0  0  0
  1  2  2  0  0  0  0
  2  3  1  0  0  0  0
  2 10  1  0  0  0  0
  3  4  1  0  0  0  0
  3 21  1  0  0  0  0
  4  9  1  0  0  0  0
  4  5  2  0  0  0  0
  5  6  1  0  0  0  0
  5 22  1  0  0  0  0
  6  7  2  0  0  0  0
  6 23  1  0  0  0  0
  7  8  1  0  0  0  0
  7 44  1  0  0  0  0
  8  9  2  0  0  0  0
  8 24  1  0  0  0  0
  9 25  1  0  0  0  0
 10 11  1  0  0  0  0
 10 26  1  0  0  0  0
 11 12  1  0  0  0  0
 11 15  1  0  0  0  0
 11 27  1  0  0  0  0
 12 13  1  0  0  0  0
 12 28  1  0  0  0  0
 12 29  1  0  0  0  0
 13 14  1  0  0  0  0
 13 30  1  0  0  0  0
 13 31  1  0  0  0  0
 14 32  1  0  0  0  0
 15 20  1  0  0  0  0
 15 16  1  0  0  0  0
 15 33  1  0  0  0  0
 16 17  1  0  0  0  0
 16 34  1  0  0  0  0
 16 35  1  0  0  0  0
 17 18  1  0  0  0  0
 17 36  1  0  0  0  0
 17 37  1  0  0  0  0
 18 19  1  0  0  0  0
 18 38  1  0  0  0  0
 18 39  1  0  0  0  0
 19 20  1  0  0  0  0
 19 40  1  0  0  0  0
 19 41  1  0  0  0  0
 20 42  1  0  0  0  0
 20 43  1  0  0  0  0
M  CHG  1   7   1
M  END
> <s_m_source_file>
AV-unprocessed.smi

> <i_m_source_file_index>
2664

> <i_lp_mmshare_version>
43012

> <i_f3d_flags>
0

> <s_epik_input>
W2NIXTFbY0hdbltjSF1bY0hdYzFbTkhdQyg9TylbTkhdW0NASF0oW0NIMl1bQ0gyXVtPSF0pW0NIXTJbQ0gyXVtDSDJdW0NIMl1bQ0gyXVtDSDJdMg==

> <s_epik_cmdline>
J2VwaWtfcHl0aG9uJywgJy1waCcsICc3LjAnLCAnLXRuJywgJzgnLCAnLW1hJywgJzIwMCcsICctbWV0YWxfYmluZGluZycsICctaW1hZScsICc8aW5maWxlLm1hZT4nLCAnLW9tYWUnLCAnPG91dGZpbGUubWFlPic=

> <r_epik_Ionization_Penalty>
1.0085

> <r_epik_Ionization_Penalty_Charging>
1.00848

> <r_epik_Ionization_Penalty_Neutral>
2.14516e-05

> <r_epik_State_Penalty>
1.05769

> <r_epik_Charging_Adjusted_Penalty>
2.06617

> <i_epik_Tot_Q>
1

> <i_epik_Tot_abs_Q>
1

> <r_epik_Metal_State_Penalty>
1.15842

> <b_epik_Metal_Only>
0

> <s_lp_Force_Field>
OPLS_2005

> <r_lp_Energy>
27.8621

> <b_lp_Chiralities_Consistent>
1

> <s_lp_Variant>
AV-unprocessed.smi:2664-3

> <Gold.Version>
5.8.1

> <Gold.Id.Protein>
6NUR|6NUR_protein|mol2

> <Gold.PLP.Fitness>
48.3216

> <Gold.PLP.PLP>
-36.0891

> <Gold.PLP.part.hbond>
-4.5787

> <Gold.PLP.part.metal>
0.0000

> <Gold.PLP.part.buried>
-4.2454

> <Gold.PLP.part.nonpolar>
-28.0690

> <Gold.PLP.part.repulsive>
1.0679

> <Gold.PLP.ligand.clash>
0.0000

> <Gold.PLP.ligand.torsion>
1.4532

> <Gold.PLP.Chemscore.Hbond>
5.0000

> <Gold.PLP.Chemscore.CHOScore>
0.0000

> <Gold.PLP.Chemscore.Metal>
0.0000

> <Gold.Chemscore.Hbonds>
donor molecule, donor type, donor heavy atom, donor atom, acceptor molecule, acceptor atom, score
      L1  H     3    21       P1  7948  1.00
      L1  H     7    44       P1  8028  2.00
      L1  H    10    26       P1  7948  1.00
      L1  H    14    32       P1 10957  1.00

> <Gold.PLP.Chemscore.Internal.Correction>
0.1389

> <Gold.Rescore>
     Score         DG    S(hbond)    S(metal)    S(lipo)     H(rot)  DE(clash)    DE(int)     intcor
     20.27     -23.23       3.97        0.00      88.07       2.27       0.35       2.62       ----

> <Gold.Chemscore.Fitness>
20.2653

> <Gold.Chemscore.DG>
-23.2341

> <Gold.Chemscore.ZeroCoef>
-5.4800

> <Gold.Chemscore.Hbond>
3.9726

> <Gold.Chemscore.Metal>
0.0000

> <Gold.Chemscore.Lipo>
88.0744

> <Gold.Chemscore.Internal_Hbond>
0.0000

> <Gold.Chemscore.DEClash>
0.3476

> <Gold.Chemscore.DEInternal>
2.6212

> <Gold.Chemscore.Rot>
2.2731

> <Gold.Chemscore.Internal.Correction>
   9.000000E+99

> <Gold.Chemscore.Hbonds>
donor molecule, donor type, donor heavy atom, donor atom, acceptor molecule, acceptor atom, score
      L1  H     3    21       P1  7948  1.00
      L1  H     7    44       P1  8028  0.99
      L1  H    10    26       P1  7948  0.98
      L1  H    14    32       P1 10957  0.98

> <Gold.Chemscore.Hbond.Weighted>
-13.2686

> <Gold.Chemscore.Metal.Weighted>
-0.0000

> <Gold.Chemscore.Lipo.Weighted>
-10.3047

> <Gold.Chemscore.Internal_Hbond.Weighted>
0.0000

> <Gold.Chemscore.DEClash.Weighted>
0.3476

> <Gold.Chemscore.DEInternal.Weighted>
2.6212

> <Gold.Chemscore.Rot.Weighted>
5.8192

> <Gold.Chemscore.Internal.Correction.Weighted>
   9.000000E+99

> <Gold.Protein.RotatedTorsions>
[ 6907 6896 6895 6894 ] final -157.81 input  -60.11 | X-H torsion
[ 7974 7965 7964 7962 ] final  170.66 input  175.53 | X-H torsion
[ 8008 7997 7996 7995 ] final   -6.86 input   59.86 | X-H torsion
[ 10167 10162 10161 10158 ] final  -30.70 input  -65.29 | X-H torsion
[ 10718 10713 10712 10709 ] final  128.66 input   66.30 | X-H torsion
[ 10763 10752 10751 10750 ] final  100.67 input  -60.55 | X-H torsion
[ 11005 11000 10999 10996 ] final  -42.63 input  -57.11 | X-H torsion

> <Gold.Protein.ActiveResidues>
 VAL166  LYS551  ARG553  GLY616  TRP617  ASP618  TYR619  PRO620  LYS621  CYS622 
 ASP623  PHE694  ASN695  SER759  ASP760  ASP761  ALA762  ILE779  LEU786  VAL792 
 PHE793  MET794  SER795  GLU796  ALA797  LYS798  CYS799  TRP800  GLU811  SER814 

> <Gold.Protein.RotatedAtoms>
  151.3085  133.4091  159.2644 H   0  0  0  0  0  0  0  0  0  0  0  0  # atno 6907 bound_to 6896
  151.0135  134.9415  159.8030 H   0  0  0  0  0  0  0  0  0  0  0  0  # atno 6908 bound_to 6896
  152.5306  134.3049  159.9144 H   0  0  0  0  0  0  0  0  0  0  0  0  # atno 6909 bound_to 6896
  144.7317  139.9235  143.6421 H   0  0  0  0  0  0  0  0  0  0  0  0  # atno 7974 bound_to 7965
  154.5895  140.2422  155.7940 H   0  0  0  0  0  0  0  0  0  0  0  0  # atno 8008 bound_to 7997
  156.2237  140.2989  155.9969 H   0  0  0  0  0  0  0  0  0  0  0  0  # atno 8009 bound_to 7997
  155.2399  140.0406  157.2964 H   0  0  0  0  0  0  0  0  0  0  0  0  # atno 8010 bound_to 7997
  140.7246  143.3828  151.1570 H   0  0  0  0  0  0  0  0  0  0  0  0  # atno 10167 bound_to 10162
  157.5225  131.1098  150.9133 H   0  0  0  0  0  0  0  0  0  0  0  0  # atno 10718 bound_to 10713
  153.3168  135.4071  155.1383 H   0  0  0  0  0  0  0  0  0  0  0  0  # atno 10763 bound_to 10752
  154.8590  135.3578  154.5649 H   0  0  0  0  0  0  0  0  0  0  0  0  # atno 10764 bound_to 10752
  153.6081  135.7069  153.5416 H   0  0  0  0  0  0  0  0  0  0  0  0  # atno 10765 bound_to 10752
  141.0329  133.6812  156.2621 H   0  0  0  0  0  0  0  0  0  0  0  0  # atno 11005 bound_to 11000
  146.0911  139.3901  143.0405 LP  0  0  0  0  0  0  0  0  0  0  0  0  # atno 17320 bound_to 7965
  145.7709  140.9897  143.1150 LP  0  0  0  0  0  0  0  0  0  0  0  0  # atno 17321 bound_to 7965
  139.7420  143.8910  152.3052 LP  0  0  0  0  0  0  0  0  0  0  0  0  # atno 17342 bound_to 10162
  139.8734  144.7056  150.8960 LP  0  0  0  0  0  0  0  0  0  0  0  0  # atno 17343 bound_to 10162
  156.9739  130.5501  149.5292 LP  0  0  0  0  0  0  0  0  0  0  0  0  # atno 17370 bound_to 10713
  156.0363  130.5450  150.8662 LP  0  0  0  0  0  0  0  0  0  0  0  0  # atno 17371 bound_to 10713
  140.6375  134.5200  157.5566 LP  0  0  0  0  0  0  0  0  0  0  0  0  # atno 17394 bound_to 11000
  139.9220  134.8130  156.1182 LP  0  0  0  0  0  0  0  0  0  0  0  0  # atno 17395 bound_to 11000

$$$$
