AV-unprocessed.smi:276|AV-procd|sdf|2079|dock5
  -GOLD-   2262021343D 1   1.00000     0.00000
 Structure written by MMmdl.
 57 61  0  0  0  0  0  0  0  0  1 V2000
  152.5757  142.0190  159.6255 C   0  0  0  0  0  0  0  0  0  0  0  0
  151.7439  142.7166  158.7143 O   0  0  0  0  0  0  0  0  0  0  0  0
  150.5808  141.9861  158.3568 C   0  0  1  0  0  0  0  0  0  0  0  0
  150.0019  142.4511  157.0177 C   0  0  0  0  0  0  0  0  0  0  0  0
  149.6456  140.9834  156.7508 C   0  0  1  0  0  0  0  0  0  0  0  0
  149.7861  140.6056  155.3424 N   0  0  0  0  0  0  0  0  0  0  0  0
  148.6462  140.9027  154.4843 C   0  0  0  0  0  0  0  0  0  0  0  0
  150.2339  139.3524  155.1022 C   0  0  0  0  0  0  0  0  0  0  0  0
  151.4675  139.2376  154.5494 N   0  0  0  0  0  0  0  0  0  0  0  0
  151.9765  138.0296  154.2908 C   0  0  0  0  0  0  0  0  0  0  0  0
  151.4269  136.8309  154.4948 N   0  0  0  0  0  0  0  0  0  0  0  0
  150.1773  136.9440  155.0290 C   0  0  0  0  0  0  0  0  0  0  0  0
  149.5050  138.1550  155.3572 C   0  0  0  0  0  0  0  0  0  0  0  0
  148.2420  137.8693  155.8638 N   0  0  0  0  0  0  0  0  0  0  0  0
  148.1779  136.5660  155.8488 C   0  0  0  0  0  0  0  0  0  0  0  0
  149.2969  135.9310  155.3617 N   0  0  0  0  0  0  0  0  0  0  0  0
  149.4998  134.5000  155.2238 C   0  0  0  0  0  0  0  0  0  0  0  0
  148.7344  133.6940  156.2915 C   0  0  2  0  0  0  0  0  0  0  0  0
  149.1656  134.0985  157.5774 O   0  0  0  0  0  0  0  0  0  0  0  0
  148.9533  132.1769  156.1458 C   0  0  1  0  0  0  0  0  0  0  0  0
  148.5323  131.6020  154.7933 C   0  0  0  0  0  0  0  0  0  0  0  0
  149.3598  130.3325  154.6782 C   0  0  0  0  0  0  0  0  0  0  0  0
  150.4981  130.5400  155.6815 C   0  0  0  0  0  0  0  0  0  0  0  0
  150.3382  131.8662  156.1680 O   0  0  0  0  0  0  0  0  0  0  0  0
  150.8211  140.6118  157.6942 C   0  0  0  0  0  0  0  0  0  0  0  0
  150.8028  139.3239  158.5290 C   0  0  0  0  0  0  0  0  0  0  0  0
  151.9791  138.7958  157.7012 C   0  0  0  0  0  0  0  0  0  0  0  0
  152.2202  140.2163  157.1793 C   0  0  0  0  0  0  0  0  0  0  0  0
  153.4400  142.6343  159.8751 H   0  0  0  0  0  0  0  0  0  0  0  0
  152.9431  141.0860  159.1985 H   0  0  0  0  0  0  0  0  0  0  0  0
  152.0443  141.7945  160.5512 H   0  0  0  0  0  0  0  0  0  0  0  0
  149.8164  141.9612  159.1368 H   0  0  0  0  0  0  0  0  0  0  0  0
  149.1465  143.1221  157.0975 H   0  0  0  0  0  0  0  0  0  0  0  0
  150.7629  142.8442  156.3404 H   0  0  0  0  0  0  0  0  0  0  0  0
  148.6753  140.7400  157.1858 H   0  0  0  0  0  0  0  0  0  0  0  0
  147.7673  140.3401  154.8021 H   0  0  0  0  0  0  0  0  0  0  0  0
  148.8582  140.6513  153.4439 H   0  0  0  0  0  0  0  0  0  0  0  0
  148.4019  141.9642  154.5219 H   0  0  0  0  0  0  0  0  0  0  0  0
  152.9667  138.0224  153.8595 H   0  0  0  0  0  0  0  0  0  0  0  0
  147.3043  136.0291  156.1887 H   0  0  0  0  0  0  0  0  0  0  0  0
  149.1746  134.2090  154.2243 H   0  0  0  0  0  0  0  0  0  0  0  0
  150.5690  134.2901  155.2770 H   0  0  0  0  0  0  0  0  0  0  0  0
  147.6685  133.9121  156.2111 H   0  0  0  0  0  0  0  0  0  0  0  0
  148.9521  135.0119  157.6920 H   0  0  0  0  0  0  0  0  0  0  0  0
  148.4562  131.6360  156.9536 H   0  0  0  0  0  0  0  0  0  0  0  0
  147.4598  131.4164  154.7271 H   0  0  0  0  0  0  0  0  0  0  0  0
  148.8053  132.2888  153.9908 H   0  0  0  0  0  0  0  0  0  0  0  0
  148.7716  129.4544  154.9472 H   0  0  0  0  0  0  0  0  0  0  0  0
  149.7295  130.1919  153.6620 H   0  0  0  0  0  0  0  0  0  0  0  0
  150.4111  129.8377  156.5116 H   0  0  0  0  0  0  0  0  0  0  0  0
  151.4814  130.4108  155.2288 H   0  0  0  0  0  0  0  0  0  0  0  0
  151.0660  139.4915  159.5738 H   0  0  0  0  0  0  0  0  0  0  0  0
  149.8903  138.7352  158.4390 H   0  0  0  0  0  0  0  0  0  0  0  0
  152.7996  138.3913  158.2943 H   0  0  0  0  0  0  0  0  0  0  0  0
  151.6698  138.1000  156.9212 H   0  0  0  0  0  0  0  0  0  0  0  0
  152.3634  140.2848  156.1015 H   0  0  0  0  0  0  0  0  0  0  0  0
  153.0337  140.7118  157.7096 H   0  0  0  0  0  0  0  0  0  0  0  0
  1  2  1  0  0  0  0
  1 29  1  0  0  0  0
  1 30  1  0  0  0  0
  1 31  1  0  0  0  0
  2  3  1  0  0  0  0
  3 25  1  0  0  0  0
  3  4  1  0  0  0  0
  3 32  1  0  0  0  0
  4  5  1  0  0  0  0
  4 33  1  0  0  0  0
  4 34  1  0  0  0  0
  5  6  1  0  0  0  0
  5 25  1  0  0  0  0
  5 35  1  0  0  0  0
  6  7  1  0  0  0  0
  6  8  1  0  0  0  0
  7 36  1  0  0  0  0
  7 37  1  0  0  0  0
  7 38  1  0  0  0  0
  8 13  1  0  0  0  0
  8  9  2  0  0  0  0
  9 10  1  0  0  0  0
 10 11  2  0  0  0  0
 10 39  1  0  0  0  0
 11 12  1  0  0  0  0
 12 16  1  0  0  0  0
 12 13  2  0  0  0  0
 13 14  1  0  0  0  0
 14 15  2  0  0  0  0
 15 16  1  0  0  0  0
 15 40  1  0  0  0  0
 16 17  1  0  0  0  0
 17 18  1  0  0  0  0
 17 41  1  0  0  0  0
 17 42  1  0  0  0  0
 18 19  1  0  0  0  0
 18 20  1  0  0  0  0
 18 43  1  0  0  0  0
 19 44  1  0  0  0  0
 20 24  1  0  0  0  0
 20 21  1  0  0  0  0
 20 45  1  0  0  0  0
 21 22  1  0  0  0  0
 21 46  1  0  0  0  0
 21 47  1  0  0  0  0
 22 23  1  0  0  0  0
 22 48  1  0  0  0  0
 22 49  1  0  0  0  0
 23 24  1  0  0  0  0
 23 50  1  0  0  0  0
 23 51  1  0  0  0  0
 25 28  1  0  0  0  0
 25 26  1  0  0  0  0
 26 27  1  0  0  0  0
 26 52  1  0  0  0  0
 26 53  1  0  0  0  0
 27 28  1  0  0  0  0
 27 54  1  0  0  0  0
 27 55  1  0  0  0  0
 28 56  1  0  0  0  0
 28 57  1  0  0  0  0
M  END
> <s_m_source_file>
AV-unprocessed.smi

> <i_m_source_file_index>
276

> <i_lp_mmshare_version>
43012

> <i_f3d_flags>
0

> <s_epik_input>
W0NIMl0xW0NIMl1bQ0gyXUMxMltDQEhdKE9bQ0gzXSlbQ0gyXVtDQEhdMk4oW0NIM10pYyhuW2NIXW4zKWMoYzM0KW5bY0hdbjRbQ0gyXVtDQEhdKFtPSF0pW0NAQEhdNVtDSDJdW0NIMl1bQ0gyXU81

> <s_epik_cmdline>
J2VwaWtfcHl0aG9uJywgJy1waCcsICc3LjAnLCAnLXRuJywgJzgnLCAnLW1hJywgJzIwMCcsICctbWV0YWxfYmluZGluZycsICctaW1hZScsICc8aW5maWxlLm1hZT4nLCAnLW9tYWUnLCAnPG91dGZpbGUubWFlPic=

> <r_lp_tautomer_probability>
1

> <r_epik_Ionization_Penalty>
0.00204117

> <r_epik_Ionization_Penalty_Charging>
0

> <r_epik_Ionization_Penalty_Neutral>
0.00204117

> <r_epik_State_Penalty>
0.00127401

> <r_epik_Charging_Adjusted_Penalty>
0.00127401

> <i_epik_Tot_Q>
0

> <i_epik_Tot_abs_Q>
0

> <r_epik_Metal_State_Penalty>
-0

> <b_epik_Metal_Only>
0

> <s_lp_Force_Field>
OPLS_2005

> <r_lp_Energy>
54.7762

> <b_lp_Chiralities_Consistent>
1

> <s_lp_Variant>
AV-unprocessed.smi:276-10

> <Gold.Version>
5.8.1

> <Gold.Id.Protein>
6NUR|6NUR_protein|mol2

> <Gold.PLP.Fitness>
46.2980

> <Gold.PLP.PLP>
-38.6989

> <Gold.PLP.part.hbond>
-2.9851

> <Gold.PLP.part.metal>
0.0000

> <Gold.PLP.part.buried>
-4.9325

> <Gold.PLP.part.nonpolar>
-32.3748

> <Gold.PLP.part.repulsive>
0.3435

> <Gold.PLP.ligand.clash>
0.0000

> <Gold.PLP.ligand.torsion>
1.0455

> <Gold.PLP.Chemscore.Hbond>
2.9920

> <Gold.PLP.Chemscore.CHOScore>
0.0000

> <Gold.PLP.Chemscore.Metal>
0.0000

> <Gold.Chemscore.Hbonds>
donor molecule, donor type, donor heavy atom, donor atom, acceptor molecule, acceptor atom, score
      P1  H  6896  6907       L1    19  0.08
      P1  H  7989  7998       L1     9  1.00
      P1  H 10752 10765       L1    11  1.00

> <Gold.PLP.Chemscore.Internal.Correction>
0.7142

> <Gold.Rescore>
     Score         DG    S(hbond)    S(metal)    S(lipo)     H(rot)  DE(clash)    DE(int)     intcor
     11.56     -16.20       2.45        0.00      81.18       2.72       0.57       4.07       ----

> <Gold.Chemscore.Fitness>
11.5613

> <Gold.Chemscore.DG>
-16.2004

> <Gold.Chemscore.ZeroCoef>
-5.4800

> <Gold.Chemscore.Hbond>
2.4485

> <Gold.Chemscore.Metal>
0.0000

> <Gold.Chemscore.Lipo>
81.1822

> <Gold.Chemscore.Internal_Hbond>
0.0000

> <Gold.Chemscore.DEClash>
0.5706

> <Gold.Chemscore.DEInternal>
4.0684

> <Gold.Chemscore.Rot>
2.7172

> <Gold.Chemscore.Internal.Correction>
   9.000000E+99

> <Gold.Chemscore.Hbonds>
donor molecule, donor type, donor heavy atom, donor atom, acceptor molecule, acceptor atom, score
      P1  H  6896  6907       L1    19  0.04
      P1  H  7989  7998       L1     9  0.44
      P1  H 10752 10765       L1    11  0.45

> <Gold.Chemscore.Hbond.Weighted>
-8.1781

> <Gold.Chemscore.Metal.Weighted>
-0.0000

> <Gold.Chemscore.Lipo.Weighted>
-9.4983

> <Gold.Chemscore.Internal_Hbond.Weighted>
0.0000

> <Gold.Chemscore.DEClash.Weighted>
0.5706

> <Gold.Chemscore.DEInternal.Weighted>
4.0684

> <Gold.Chemscore.Rot.Weighted>
6.9560

> <Gold.Chemscore.Internal.Correction.Weighted>
   9.000000E+99

> <Gold.Protein.RotatedTorsions>
[ 6907 6896 6895 6894 ] final -126.74 input  -60.11 | X-H torsion
[ 7974 7965 7964 7962 ] final   87.75 input  175.53 | X-H torsion
[ 8008 7997 7996 7995 ] final  173.61 input   59.86 | X-H torsion
[ 10167 10162 10161 10158 ] final -152.95 input  -65.29 | X-H torsion
[ 10718 10713 10712 10709 ] final  -78.30 input   66.30 | X-H torsion
[ 10763 10752 10751 10750 ] final  175.14 input  -60.55 | X-H torsion
[ 11005 11000 10999 10996 ] final -158.79 input  -57.11 | X-H torsion

> <Gold.Protein.ActiveResidues>
 VAL166  LYS551  ARG553  GLY616  TRP617  ASP618  TYR619  PRO620  LYS621  CYS622 
 ASP623  PHE694  ASN695  SER759  ASP760  ASP761  ALA762  ILE779  LEU786  VAL792 
 PHE793  MET794  SER795  GLU796  ALA797  LYS798  CYS799  TRP800  GLU811  SER814 

> <Gold.Protein.RotatedAtoms>
  150.9001  133.7130  159.2881 H   0  0  0  0  0  0  0  0  0  0  0  0  # atno 6907 bound_to 6896
  151.4651  135.1040  159.9745 H   0  0  0  0  0  0  0  0  0  0  0  0  # atno 6908 bound_to 6896
  152.4871  133.8354  159.7180 H   0  0  0  0  0  0  0  0  0  0  0  0  # atno 6909 bound_to 6896
  145.5548  139.2298  143.2492 H   0  0  0  0  0  0  0  0  0  0  0  0  # atno 7974 bound_to 7965
  156.1058  140.1455  156.9406 H   0  0  0  0  0  0  0  0  0  0  0  0  # atno 8008 bound_to 7997
  154.4733  140.0903  156.7243 H   0  0  0  0  0  0  0  0  0  0  0  0  # atno 8009 bound_to 7997
  155.4682  140.3441  155.4324 H   0  0  0  0  0  0  0  0  0  0  0  0  # atno 8010 bound_to 7997
  139.7138  143.9067  152.2478 H   0  0  0  0  0  0  0  0  0  0  0  0  # atno 10167 bound_to 10162
  156.0121  130.4514  150.3476 H   0  0  0  0  0  0  0  0  0  0  0  0  # atno 10718 bound_to 10713
  154.4636  135.2768  155.1695 H   0  0  0  0  0  0  0  0  0  0  0  0  # atno 10763 bound_to 10752
  154.3473  135.6157  153.5629 H   0  0  0  0  0  0  0  0  0  0  0  0  # atno 10764 bound_to 10752
  152.9857  135.5803  154.5003 H   0  0  0  0  0  0  0  0  0  0  0  0  # atno 10765 bound_to 10752
  140.6497  134.4464  157.5235 H   0  0  0  0  0  0  0  0  0  0  0  0  # atno 11005 bound_to 11000
  146.1892  140.6372  142.9153 LP  0  0  0  0  0  0  0  0  0  0  0  0  # atno 17320 bound_to 7965
  144.7511  140.5194  143.6801 LP  0  0  0  0  0  0  0  0  0  0  0  0  # atno 17321 bound_to 7965
  139.8943  144.6948  150.8735 LP  0  0  0  0  0  0  0  0  0  0  0  0  # atno 17342 bound_to 10162
  140.7739  143.3562  151.1916 LP  0  0  0  0  0  0  0  0  0  0  0  0  # atno 17343 bound_to 10162
  157.1569  131.0335  151.2859 LP  0  0  0  0  0  0  0  0  0  0  0  0  # atno 17370 bound_to 10713
  157.4344  130.7509  149.7017 LP  0  0  0  0  0  0  0  0  0  0  0  0  # atno 17371 bound_to 10713
  139.9050  134.8469  156.1741 LP  0  0  0  0  0  0  0  0  0  0  0  0  # atno 17394 bound_to 11000
  141.0546  133.6872  156.1836 LP  0  0  0  0  0  0  0  0  0  0  0  0  # atno 17395 bound_to 11000

$$$$
