AV-unprocessed.smi:1245|AV-procd|sdf|5240|dock1
  -GOLD-   22720 4343D 1   1.00000     0.00000
 Structure written by MMmdl.
 44 45  0  0  0  0  0  0  0  0  2 V2000
  150.4387  139.7715  153.9848 O   0  0  0  0  0  0  0  0  0  0  0  0
  150.7198  139.1052  154.9817 C   0  0  0  0  0  0  0  0  0  0  0  0
  150.4692  137.5948  155.0142 C   0  0  0  0  0  0  0  0  0  0  0  0
  149.6348  137.1432  156.2263 C   0  0  0  0  0  0  0  0  0  0  0  0
  149.5087  135.2973  156.3281 S   0  0  0  0  0  0  0  0  0  0  0  0
  150.8636  134.7490  156.1638 O   0  0  0  0  0  0  0  0  0  0  0  0
  148.7132  134.9435  157.5141 O   0  0  0  0  0  0  0  0  0  0  0  0
  148.5300  134.8396  154.8200 C   0  0  0  0  0  0  0  0  0  0  0  0
  147.2587  134.0347  155.1510 C   0  0  0  0  0  0  0  0  0  0  0  0
  147.3966  132.6959  154.4181 C   0  0  0  0  0  0  0  0  0  0  0  0
  148.3473  132.9808  153.2569 C   0  0  0  0  0  0  0  0  0  0  0  0
  149.3398  133.9971  153.8208 C   0  0  0  0  0  0  0  0  0  0  0  0
  151.2551  139.6364  156.0914 N   0  0  0  0  0  0  0  0  0  0  0  0
  151.5826  141.0457  156.2746 C   0  0  0  0  0  0  0  0  0  0  0  0
  150.5386  141.7654  157.1455 C   0  0  0  0  0  0  0  0  0  0  0  0
  151.1647  142.8113  158.0476 C   0  0  0  0  0  0  0  0  0  0  0  0
  152.1144  142.4782  159.0379 C   0  0  0  0  0  0  0  0  0  0  0  0
  152.6537  143.5004  159.8469 C   0  0  0  0  0  0  0  0  0  0  0  0
  152.2320  144.8316  159.6498 C   0  0  0  0  0  0  0  0  0  0  0  0
  151.2792  145.1076  158.6482 C   0  0  0  0  0  0  0  0  0  0  0  0
  150.7855  144.1009  157.8939 N   0  3  0  0  0  0  0  0  0  0  0  0
  149.9656  137.3087  154.0901 H   0  0  0  0  0  0  0  0  0  0  0  0
  151.4323  137.0833  155.0191 H   0  0  0  0  0  0  0  0  0  0  0  0
  150.0566  137.5256  157.1537 H   0  0  0  0  0  0  0  0  0  0  0  0
  148.6198  137.5352  156.1537 H   0  0  0  0  0  0  0  0  0  0  0  0
  148.2354  135.7745  154.3417 H   0  0  0  0  0  0  0  0  0  0  0  0
  147.1104  133.8912  156.2217 H   0  0  0  0  0  0  0  0  0  0  0  0
  146.3845  134.5699  154.7783 H   0  0  0  0  0  0  0  0  0  0  0  0
  147.8410  131.9528  155.0806 H   0  0  0  0  0  0  0  0  0  0  0  0
  146.4360  132.3030  154.0839 H   0  0  0  0  0  0  0  0  0  0  0  0
  148.8356  132.0803  152.8833 H   0  0  0  0  0  0  0  0  0  0  0  0
  147.7938  133.4276  152.4298 H   0  0  0  0  0  0  0  0  0  0  0  0
  149.7986  134.6059  153.0412 H   0  0  0  0  0  0  0  0  0  0  0  0
  150.1426  133.4630  154.3268 H   0  0  0  0  0  0  0  0  0  0  0  0
  151.4593  139.0157  156.8616 H   0  0  0  0  0  0  0  0  0  0  0  0
  152.5644  141.1024  156.7452 H   0  0  0  0  0  0  0  0  0  0  0  0
  151.6751  141.5365  155.3041 H   0  0  0  0  0  0  0  0  0  0  0  0
  149.7875  142.2464  156.5177 H   0  0  0  0  0  0  0  0  0  0  0  0
  150.0044  141.0414  157.7625 H   0  0  0  0  0  0  0  0  0  0  0  0
  152.4264  141.4534  159.1788 H   0  0  0  0  0  0  0  0  0  0  0  0
  153.3817  143.2657  160.6097 H   0  0  0  0  0  0  0  0  0  0  0  0
  152.6330  145.6287  160.2590 H   0  0  0  0  0  0  0  0  0  0  0  0
  150.8998  146.0951  158.4289 H   0  0  0  0  0  0  0  0  0  0  0  0
  150.0970  144.3240  157.1747 H   0  0  0  0  0  0  0  0  0  0  0  0
  1  2  2  0  0  0  0
  2  3  1  0  0  0  0
  2 13  1  0  0  0  0
  3  4  1  0  0  0  0
  3 22  1  0  0  0  0
  3 23  1  0  0  0  0
  4  5  1  0  0  0  0
  4 24  1  0  0  0  0
  4 25  1  0  0  0  0
  5  6  2  0  0  0  0
  5  7  2  0  0  0  0
  5  8  1  0  0  0  0
  8 12  1  0  0  0  0
  8  9  1  0  0  0  0
  8 26  1  0  0  0  0
  9 10  1  0  0  0  0
  9 27  1  0  0  0  0
  9 28  1  0  0  0  0
 10 11  1  0  0  0  0
 10 29  1  0  0  0  0
 10 30  1  0  0  0  0
 11 12  1  0  0  0  0
 11 31  1  0  0  0  0
 11 32  1  0  0  0  0
 12 33  1  0  0  0  0
 12 34  1  0  0  0  0
 13 14  1  0  0  0  0
 13 35  1  0  0  0  0
 14 15  1  0  0  0  0
 14 36  1  0  0  0  0
 14 37  1  0  0  0  0
 15 16  1  0  0  0  0
 15 38  1  0  0  0  0
 15 39  1  0  0  0  0
 16 21  1  0  0  0  0
 16 17  2  0  0  0  0
 17 18  1  0  0  0  0
 17 40  1  0  0  0  0
 18 19  2  0  0  0  0
 18 41  1  0  0  0  0
 19 20  1  0  0  0  0
 19 42  1  0  0  0  0
 20 21  2  0  0  0  0
 20 43  1  0  0  0  0
 21 44  1  0  0  0  0
M  CHG  1  21   1
M  END
> <s_m_source_file>
AV-unprocessed.smi

> <i_m_source_file_index>
1245

> <i_lp_mmshare_version>
43012

> <i_f3d_flags>
0

> <s_epik_input>
W0NIMl0xW0NIMl1bQ0gyXVtDSDJdW0NIXTFTKD1PKSg9TylbQ0gyXVtDSDJdQyg9TylbTkhdW0NIMl1bQ0gyXWMyW2NIXVtjSF1bY0hdW2NIXW4y

> <s_epik_cmdline>
J2VwaWtfcHl0aG9uJywgJy1waCcsICc3LjAnLCAnLXRuJywgJzgnLCAnLW1hJywgJzIwMCcsICctbWV0YWxfYmluZGluZycsICctaW1hZScsICc8aW5maWxlLm1hZT4nLCAnLW9tYWUnLCAnPG91dGZpbGUubWFlPic=

> <r_epik_Ionization_Penalty>
1.90383

> <r_epik_Ionization_Penalty_Charging>
1.90383

> <r_epik_Ionization_Penalty_Neutral>
6.52612e-08

> <r_epik_State_Penalty>
2.02532

> <r_epik_Charging_Adjusted_Penalty>
3.92915

> <i_epik_Tot_Q>
1

> <i_epik_Tot_abs_Q>
1

> <r_epik_Metal_State_Penalty>
2.0489

> <b_epik_Metal_Only>
0

> <s_lp_Force_Field>
OPLS_2005

> <r_lp_Energy>
22.4311

> <b_lp_Chiralities_Consistent>
1

> <s_lp_Variant>
AV-unprocessed.smi:1245-2

> <Gold.Version>
5.8.1

> <Gold.Id.Protein>
6NUR|6NUR_protein|mol2

> <Gold.PLP.Fitness>
52.3261

> <Gold.PLP.PLP>
-38.2729

> <Gold.PLP.part.hbond>
-4.0172

> <Gold.PLP.part.metal>
0.0000

> <Gold.PLP.part.buried>
-6.1373

> <Gold.PLP.part.nonpolar>
-27.9014

> <Gold.PLP.part.repulsive>
0.9769

> <Gold.PLP.ligand.clash>
0.0000

> <Gold.PLP.ligand.torsion>
0.5981

> <Gold.PLP.Chemscore.Hbond>
4.8960

> <Gold.PLP.Chemscore.CHOScore>
0.0000

> <Gold.PLP.Chemscore.Metal>
0.0000

> <Gold.Chemscore.Hbonds>
donor molecule, donor type, donor heavy atom, donor atom, acceptor molecule, acceptor atom, score
      L1  H    21    44       P1  8028  2.00
      P1  H  7989  7998       L1     1  1.00

> <Gold.PLP.Chemscore.Internal.Correction>
0.5614

> <Gold.Rescore>
     Score         DG    S(hbond)    S(metal)    S(lipo)     H(rot)  DE(clash)    DE(int)     intcor
     21.68     -23.36       3.43        0.00     101.77       2.14       0.90       0.78       ----

> <Gold.Chemscore.Fitness>
21.6818

> <Gold.Chemscore.DG>
-23.3643

> <Gold.Chemscore.ZeroCoef>
-5.4800

> <Gold.Chemscore.Hbond>
3.4306

> <Gold.Chemscore.Metal>
0.0000

> <Gold.Chemscore.Lipo>
101.7661

> <Gold.Chemscore.Internal_Hbond>
0.0000

> <Gold.Chemscore.DEClash>
0.9045

> <Gold.Chemscore.DEInternal>
0.7780

> <Gold.Chemscore.Rot>
2.1408

> <Gold.Chemscore.Internal.Correction>
   9.000000E+99

> <Gold.Chemscore.Hbonds>
donor molecule, donor type, donor heavy atom, donor atom, acceptor molecule, acceptor atom, score
      L1  H    21    44       P1  8028  0.65
      P1  H  7989  7998       L1     1  0.91

> <Gold.Chemscore.Hbond.Weighted>
-11.4581

> <Gold.Chemscore.Metal.Weighted>
-0.0000

> <Gold.Chemscore.Lipo.Weighted>
-11.9066

> <Gold.Chemscore.Internal_Hbond.Weighted>
0.0000

> <Gold.Chemscore.DEClash.Weighted>
0.9045

> <Gold.Chemscore.DEInternal.Weighted>
0.7780

> <Gold.Chemscore.Rot.Weighted>
5.4805

> <Gold.Chemscore.Internal.Correction.Weighted>
   9.000000E+99

> <Gold.Protein.RotatedTorsions>
[ 6907 6896 6895 6894 ] final   29.22 input  -60.11 | X-H torsion
[ 7974 7965 7964 7962 ] final   69.72 input  175.53 | X-H torsion
[ 8008 7997 7996 7995 ] final  111.95 input   59.86 | X-H torsion
[ 10167 10162 10161 10158 ] final   25.33 input  -65.29 | X-H torsion
[ 10718 10713 10712 10709 ] final  145.65 input   66.30 | X-H torsion
[ 10763 10752 10751 10750 ] final  -32.64 input  -60.55 | X-H torsion
[ 11005 11000 10999 10996 ] final -125.38 input  -57.11 | X-H torsion

> <Gold.Protein.ActiveResidues>
 VAL166  LYS551  ARG553  GLY616  TRP617  ASP618  TYR619  PRO620  LYS621  CYS622 
 ASP623  PHE694  ASN695  SER759  ASP760  ASP761  ALA762  ILE779  LEU786  VAL792 
 PHE793  MET794  SER795  GLU796  ALA797  LYS798  CYS799  TRP800  GLU811  SER814 

> <Gold.Protein.RotatedAtoms>
  152.0283  134.9782  160.0571 H   0  0  0  0  0  0  0  0  0  0  0  0  # atno 6907 bound_to 6896
  152.1269  133.4380  159.4710 H   0  0  0  0  0  0  0  0  0  0  0  0  # atno 6908 bound_to 6896
  150.6853  134.2386  159.4506 H   0  0  0  0  0  0  0  0  0  0  0  0  # atno 6909 bound_to 6896
  145.7870  139.2915  143.1232 H   0  0  0  0  0  0  0  0  0  0  0  0  # atno 7974 bound_to 7965
  156.2159  140.3009  155.9838 H   0  0  0  0  0  0  0  0  0  0  0  0  # atno 8008 bound_to 7997
  155.2607  140.0429  157.3014 H   0  0  0  0  0  0  0  0  0  0  0  0  # atno 8009 bound_to 7997
  154.5767  140.2363  155.8121 H   0  0  0  0  0  0  0  0  0  0  0  0  # atno 8010 bound_to 7997
  140.5115  144.0153  150.6375 H   0  0  0  0  0  0  0  0  0  0  0  0  # atno 10167 bound_to 10162
  157.3427  131.0938  151.1069 H   0  0  0  0  0  0  0  0  0  0  0  0  # atno 10718 bound_to 10713
  153.8171  135.6877  153.4832 H   0  0  0  0  0  0  0  0  0  0  0  0  # atno 10763 bound_to 10752
  153.1592  135.4586  154.9746 H   0  0  0  0  0  0  0  0  0  0  0  0  # atno 10764 bound_to 10752
  154.7943  135.3313  154.7646 H   0  0  0  0  0  0  0  0  0  0  0  0  # atno 10765 bound_to 10752
  140.9766  134.0731  157.3811 H   0  0  0  0  0  0  0  0  0  0  0  0  # atno 11005 bound_to 11000
  146.0016  140.8515  143.0016 LP  0  0  0  0  0  0  0  0  0  0  0  0  # atno 17320 bound_to 7965
  144.6787  140.2360  143.7349 LP  0  0  0  0  0  0  0  0  0  0  0  0  # atno 17321 bound_to 7965
  140.3476  143.2982  152.0521 LP  0  0  0  0  0  0  0  0  0  0  0  0  # atno 17342 bound_to 10162
  139.4897  144.6397  151.6903 LP  0  0  0  0  0  0  0  0  0  0  0  0  # atno 17343 bound_to 10162
  157.2275  130.6509  149.5836 LP  0  0  0  0  0  0  0  0  0  0  0  0  # atno 17370 bound_to 10713
  155.9710  130.4609  150.6091 LP  0  0  0  0  0  0  0  0  0  0  0  0  # atno 17371 bound_to 10713
  139.8933  135.0129  156.6892 LP  0  0  0  0  0  0  0  0  0  0  0  0  # atno 17394 bound_to 11000
  140.7249  133.9109  155.8172 LP  0  0  0  0  0  0  0  0  0  0  0  0  # atno 17395 bound_to 11000

$$$$
