AV-unprocessed.smi:3281|AV-procd|sdf|12557|dock8
  -GOLD-   2272018473D 1   1.00000     0.00000
 Structure written by MMmdl.
 37 38  0  0  0  0  0  0  0  0  2 V2000
  151.5255  144.6604  159.1801 C   0  0  0  0  0  0  0  0  0  0  0  0
  152.0296  143.2129  159.1622 C   0  0  0  0  0  0  0  0  0  0  0  0
  152.7287  142.8166  160.4212 C   0  0  0  0  0  0  0  0  0  0  0  0
  153.4584  141.6759  160.6504 C   0  0  0  0  0  0  0  0  0  0  0  0
  153.9917  141.5958  161.9389 N   0  0  0  0  0  0  0  0  0  0  0  0
  153.6625  142.6471  162.6925 C   0  0  0  0  0  0  0  0  0  0  0  0
  154.1214  142.8256  164.1005 C   0  0  0  0  0  0  0  0  0  0  0  0
  155.2091  141.8184  164.4945 C   0  0  0  0  0  0  0  0  0  0  0  0
  156.4459  142.5104  164.9081 N   0  3  0  0  0  0  0  0  0  0  0  0
  156.4746  142.9408  166.3228 C   0  0  1  0  0  0  0  0  0  0  0  0
  157.9126  143.3277  166.7194 C   0  0  0  0  0  0  0  0  0  0  0  0
  158.0342  143.7407  168.1959 C   0  0  0  0  0  0  0  0  0  0  0  0
  157.1666  144.9601  168.5382 C   0  0  0  0  0  0  0  0  0  0  0  0
  155.4087  144.6057  168.2722 S   0  0  0  0  0  0  0  0  0  0  0  0
  155.4937  144.1082  166.5305 C   0  0  0  0  0  0  0  0  0  0  0  0
  152.6899  143.8373  161.8363 S   0  0  0  0  0  0  0  0  0  0  0  0
  151.0136  144.9044  158.2491 H   0  0  0  0  0  0  0  0  0  0  0  0
  152.3487  145.3650  159.3006 H   0  0  0  0  0  0  0  0  0  0  0  0
  150.8237  144.8215  159.9989 H   0  0  0  0  0  0  0  0  0  0  0  0
  151.1871  142.5427  158.9874 H   0  0  0  0  0  0  0  0  0  0  0  0
  152.7038  143.0758  158.3164 H   0  0  0  0  0  0  0  0  0  0  0  0
  153.6503  140.8721  159.9548 H   0  0  0  0  0  0  0  0  0  0  0  0
  154.4916  143.8449  164.2167 H   0  0  0  0  0  0  0  0  0  0  0  0
  153.2607  142.7284  164.7634 H   0  0  0  0  0  0  0  0  0  0  0  0
  154.8578  141.1915  165.3155 H   0  0  0  0  0  0  0  0  0  0  0  0
  155.4304  141.1598  163.6532 H   0  0  0  0  0  0  0  0  0  0  0  0
  157.2272  141.8903  164.7494 H   0  0  0  0  0  0  0  0  0  0  0  0
  156.1558  142.1106  166.9562 H   0  0  0  0  0  0  0  0  0  0  0  0
  158.5786  142.4839  166.5353 H   0  0  0  0  0  0  0  0  0  0  0  0
  158.2678  144.1402  166.0841 H   0  0  0  0  0  0  0  0  0  0  0  0
  157.7606  142.9028  168.8384 H   0  0  0  0  0  0  0  0  0  0  0  0
  159.0768  143.9687  168.4202 H   0  0  0  0  0  0  0  0  0  0  0  0
  157.3118  145.2468  169.5799 H   0  0  0  0  0  0  0  0  0  0  0  0
  157.4544  145.8169  167.9279 H   0  0  0  0  0  0  0  0  0  0  0  0
  155.7891  144.9708  165.9318 H   0  0  0  0  0  0  0  0  0  0  0  0
  154.4909  143.8248  166.2092 H   0  0  0  0  0  0  0  0  0  0  0  0
  156.5636  143.3272  164.3256 H   0  0  0  0  0  0  0  0  0  0  0  0
  1  2  1  0  0  0  0
  1 17  1  0  0  0  0
  1 18  1  0  0  0  0
  1 19  1  0  0  0  0
  2  3  1  0  0  0  0
  2 20  1  0  0  0  0
  2 21  1  0  0  0  0
  3 16  1  0  0  0  0
  3  4  2  0  0  0  0
  4  5  1  0  0  0  0
  4 22  1  0  0  0  0
  5  6  2  0  0  0  0
  6  7  1  0  0  0  0
  6 16  1  0  0  0  0
  7  8  1  0  0  0  0
  7 23  1  0  0  0  0
  7 24  1  0  0  0  0
  8  9  1  0  0  0  0
  8 25  1  0  0  0  0
  8 26  1  0  0  0  0
  9 10  1  0  0  0  0
  9 27  1  0  0  0  0
  9 37  1  0  0  0  0
 10 15  1  0  0  0  0
 10 11  1  0  0  0  0
 10 28  1  0  0  0  0
 11 12  1  0  0  0  0
 11 29  1  0  0  0  0
 11 30  1  0  0  0  0
 12 13  1  0  0  0  0
 12 31  1  0  0  0  0
 12 32  1  0  0  0  0
 13 14  1  0  0  0  0
 13 33  1  0  0  0  0
 13 34  1  0  0  0  0
 14 15  1  0  0  0  0
 15 35  1  0  0  0  0
 15 36  1  0  0  0  0
M  CHG  1   9   1
M  END
> <s_m_source_file>
AV-unprocessed.smi

> <i_m_source_file_index>
3281

> <i_lp_mmshare_version>
43012

> <i_f3d_flags>
0

> <s_epik_input>
W0NIM11bQ0gyXWMxW2NIXW5jKHMxKVtDSDJdW0NIMl1bTkhdW0NAQEhdMltDSDJdW0NIMl1bQ0gyXVNbQ0gyXTI=

> <s_epik_cmdline>
J2VwaWtfcHl0aG9uJywgJy1waCcsICc3LjAnLCAnLXRuJywgJzgnLCAnLW1hJywgJzIwMCcsICctbWV0YWxfYmluZGluZycsICctaW1hZScsICc8aW5maWxlLm1hZT4nLCAnLW9tYWUnLCAnPG91dGZpbGUubWFlPic=

> <r_epik_Ionization_Penalty>
0.00827702

> <r_epik_Ionization_Penalty_Charging>
0.00826679

> <r_epik_Ionization_Penalty_Neutral>
1.02314e-05

> <r_epik_State_Penalty>
0.00622064

> <r_epik_Charging_Adjusted_Penalty>
0.0144874

> <i_epik_Tot_Q>
1

> <i_epik_Tot_abs_Q>
1

> <r_epik_Metal_State_Penalty>
0.0062521

> <b_epik_Metal_Only>
0

> <s_lp_Force_Field>
OPLS_2005

> <r_lp_Energy>
0.380523

> <b_lp_Chiralities_Consistent>
1

> <s_lp_Variant>
AV-unprocessed.smi:3281-2

> <Gold.Version>
5.8.1

> <Gold.Id.Protein>
6NUR|6NUR_protein|mol2

> <Gold.PLP.Fitness>
40.7143

> <Gold.PLP.PLP>
-42.3143

> <Gold.PLP.part.hbond>
-1.9559

> <Gold.PLP.part.metal>
0.0000

> <Gold.PLP.part.buried>
-3.1603

> <Gold.PLP.part.nonpolar>
-35.5928

> <Gold.PLP.part.repulsive>
0.0032

> <Gold.PLP.ligand.clash>
0.0000

> <Gold.PLP.ligand.torsion>
0.8144

> <Gold.PLP.Chemscore.Hbond>
0.0000

> <Gold.PLP.Chemscore.CHOScore>
0.0000

> <Gold.PLP.Chemscore.Metal>
0.0000

> <Gold.PLP.Chemscore.Internal.Correction>
0.0287

> <Gold.Rescore>
     Score         DG    S(hbond)    S(metal)    S(lipo)     H(rot)  DE(clash)    DE(int)     intcor
     15.32     -16.23       0.00        0.00     121.97       1.38       0.13       0.78       ----

> <Gold.Chemscore.Fitness>
15.3240

> <Gold.Chemscore.DG>
-16.2256

> <Gold.Chemscore.ZeroCoef>
-5.4800

> <Gold.Chemscore.Hbond>
0.0000

> <Gold.Chemscore.Metal>
0.0000

> <Gold.Chemscore.Lipo>
121.9655

> <Gold.Chemscore.Internal_Hbond>
0.0000

> <Gold.Chemscore.DEClash>
0.1261

> <Gold.Chemscore.DEInternal>
0.7755

> <Gold.Chemscore.Rot>
1.3767

> <Gold.Chemscore.Internal.Correction>
   9.000000E+99

> <Gold.Chemscore.Hbond.Weighted>
-0.0000

> <Gold.Chemscore.Metal.Weighted>
-0.0000

> <Gold.Chemscore.Lipo.Weighted>
-14.2700

> <Gold.Chemscore.Internal_Hbond.Weighted>
0.0000

> <Gold.Chemscore.DEClash.Weighted>
0.1261

> <Gold.Chemscore.DEInternal.Weighted>
0.7755

> <Gold.Chemscore.Rot.Weighted>
3.5243

> <Gold.Chemscore.Internal.Correction.Weighted>
   9.000000E+99

> <Gold.Protein.RotatedTorsions>
[ 6907 6896 6895 6894 ] final  -85.68 input  -60.11 | X-H torsion
[ 7974 7965 7964 7962 ] final  -43.98 input  175.53 | X-H torsion
[ 8008 7997 7996 7995 ] final  138.88 input   59.86 | X-H torsion
[ 10167 10162 10161 10158 ] final  106.45 input  -65.29 | X-H torsion
[ 10718 10713 10712 10709 ] final  -16.60 input   66.30 | X-H torsion
[ 10763 10752 10751 10750 ] final -131.27 input  -60.55 | X-H torsion
[ 11005 11000 10999 10996 ] final    3.77 input  -57.11 | X-H torsion

> <Gold.Protein.ActiveResidues>
 VAL166  LYS551  ARG553  GLY616  TRP617  ASP618  TYR619  PRO620  LYS621  CYS622 
 ASP623  PHE694  ASN695  SER759  ASP760  ASP761  ALA762  ILE779  LEU786  VAL792 
 PHE793  MET794  SER795  GLU796  ALA797  LYS798  CYS799  TRP800  GLU811  SER814 

> <Gold.Protein.RotatedAtoms>
  150.6869  134.3168  159.4769 H   0  0  0  0  0  0  0  0  0  0  0  0  # atno 6907 bound_to 6896
  152.1048  134.9314  160.0578 H   0  0  0  0  0  0  0  0  0  0  0  0  # atno 6908 bound_to 6896
  152.0579  133.4014  159.4442 H   0  0  0  0  0  0  0  0  0  0  0  0  # atno 6909 bound_to 6896
  145.9966  140.7122  142.9291 H   0  0  0  0  0  0  0  0  0  0  0  0  # atno 7974 bound_to 7965
  156.2994  140.2382  156.4145 H   0  0  0  0  0  0  0  0  0  0  0  0  # atno 8008 bound_to 7997
  154.8411  140.0428  157.1562 H   0  0  0  0  0  0  0  0  0  0  0  0  # atno 8009 bound_to 7997
  154.9102  140.2989  155.5274 H   0  0  0  0  0  0  0  0  0  0  0  0  # atno 8010 bound_to 7997
  139.7008  144.7094  151.1189 H   0  0  0  0  0  0  0  0  0  0  0  0  # atno 10167 bound_to 10162
  156.5853  130.4784  149.6303 H   0  0  0  0  0  0  0  0  0  0  0  0  # atno 10718 bound_to 10713
  154.8751  135.3835  154.4218 H   0  0  0  0  0  0  0  0  0  0  0  0  # atno 10763 bound_to 10752
  153.4921  135.7030  153.5883 H   0  0  0  0  0  0  0  0  0  0  0  0  # atno 10764 bound_to 10752
  153.4252  135.3892  155.2103 H   0  0  0  0  0  0  0  0  0  0  0  0  # atno 10765 bound_to 10752
  140.5893  133.9939  155.8082 H   0  0  0  0  0  0  0  0  0  0  0  0  # atno 11005 bound_to 11000
  144.6905  140.3160  143.7240 LP  0  0  0  0  0  0  0  0  0  0  0  0  # atno 17320 bound_to 7965
  145.7551  139.1806  143.2299 LP  0  0  0  0  0  0  0  0  0  0  0  0  # atno 17321 bound_to 7965
  140.7709  143.5427  150.9294 LP  0  0  0  0  0  0  0  0  0  0  0  0  # atno 17342 bound_to 10162
  139.9108  143.6722  152.3115 LP  0  0  0  0  0  0  0  0  0  0  0  0  # atno 17343 bound_to 10162
  156.2596  130.6955  151.1719 LP  0  0  0  0  0  0  0  0  0  0  0  0  # atno 17370 bound_to 10713
  157.7317  131.0606  150.5666 LP  0  0  0  0  0  0  0  0  0  0  0  0  # atno 17371 bound_to 10713
  141.0945  133.9865  157.3183 LP  0  0  0  0  0  0  0  0  0  0  0  0  # atno 17394 bound_to 11000
  139.9281  135.0201  156.8306 LP  0  0  0  0  0  0  0  0  0  0  0  0  # atno 17395 bound_to 11000

$$$$
