#       Name:                AV-unprocessed.smi:900
#       Creating user name   scv26
#       Creation time:       Fri Mar 27 01:57:51 2020


#       File generated by GOLD software.
#

@<TRIPOS>MOLECULE
AV-unprocessed.smi:900
    39    40     1
SMALL
NO_CHARGES


@<TRIPOS>ATOM
      1 ****        -3.7903   2.1849  -0.3401 C.3            1 S1                 0.0000
      2 ****        -3.5207   0.8194   0.0824 N.am           1 S1                 0.0000
      3 ****        -3.5561   0.4020   1.3567 C.2            1 S1                 0.0000
      4 ****        -3.8407   1.1378   2.3015 O.2            1 S1                 0.0000
      5 ****        -3.2200  -1.0696   1.6062 C.3            1 S1                 0.0000
      6 ****        -1.7388  -1.2711   1.6349 C.2            1 S1                 0.0000
      7 ****        -1.0545  -1.2055   2.7713 N.2            1 S1                 0.0000
      8 ****         0.2699  -1.4217   2.3650 O.3            1 S1                 0.0000
      9 ****         0.2187  -1.6164   1.0256 C.2            1 S1                 0.0000
     10 ****         1.4953  -1.8122   0.2769 C.3            1 S1                 0.0000
     11 ****         2.1924  -0.4866  -0.0765 C.3            1 S1                 0.0000
     12 ****         1.4012   0.4171  -1.0277 C.3            1 S1                 0.0000
     13 ****         2.4396   1.3751  -1.6214 C.3            1 S1                 0.0000
     14 ****         3.8016   0.6780  -1.4778 C.3            1 S1                 0.0000
     15 ****         3.5277  -0.6694  -0.8008 C.3            1 S1                 0.0000
     16 ****        -1.0068  -1.5268   0.5147 N.2            1 S1                 0.0000
     17 ****        -3.7939   2.2430  -1.4286 H              1 S1                 0.0000
     18 ****        -3.0223   2.8621   0.0354 H              1 S1                 0.0000
     19 ****        -4.7618   2.5238   0.0226 H              1 S1                 0.0000
     20 ****        -3.2764   0.1525  -0.6359 H              1 S1                 0.0000
     21 ****        -3.6561  -1.3931   2.5527 H              1 S1                 0.0000
     22 ****        -3.6615  -1.6909   0.8257 H              1 S1                 0.0000
     23 ****         2.1586  -2.4277   0.8856 H              1 S1                 0.0000
     24 ****         1.2857  -2.3844  -0.6276 H              1 S1                 0.0000
     25 ****         2.3824   0.0692   0.8436 H              1 S1                 0.0000
     26 ****         0.9610  -0.1808  -1.8270 H              1 S1                 0.0000
     27 ****         0.5891   0.9452  -0.5265 H              1 S1                 0.0000
     28 ****         2.2108   1.6151  -2.6603 H              1 S1                 0.0000
     29 ****         2.4462   2.3127  -1.0642 H              1 S1                 0.0000
     30 ****         4.2954   0.5450  -2.4410 H              1 S1                 0.0000
     31 ****         4.4611   1.2840  -0.8552 H              1 S1                 0.0000
     32 ****         4.3312  -0.9668  -0.1264 H              1 S1                 0.0000
     33 ****         3.4335  -1.4443  -1.5630 H              1 S1                 0.0000
     34 ****        -4.0606   2.0995   2.1377 LP             1 S1                 0.0000
     35 ****        -3.8521   0.7739   3.2328 LP             1 S1                 0.0000
     36 ****        -1.4008  -1.0413   3.6949 LP             1 S1                 0.0000
     37 ****         0.6462  -2.2288   2.8199 LP             1 S1                 0.0000
     38 ****         0.8343  -0.6246   2.5795 LP             1 S1                 0.0000
     39 ****        -1.3086  -1.6215  -0.4340 LP             1 S1                 0.0000
@<TRIPOS>BOND
    1    1    2 1     
    2    1   17 1     
    3    1   18 1     
    4    1   19 1     
    5    2    3 am    
    6    2   20 1     
    7    3    4 2     
    8    3    5 1     
    9    5    6 1     
   10    5   21 1     
   11    5   22 1     
   12    6   16 1     
   13    6    7 2     
   14    7    8 1     
   15    8    9 1     
   16    9   10 1     
   17    9   16 2     
   18   10   11 1     
   19   10   23 1     
   20   10   24 1     
   21   11   15 1     
   22   11   12 1     
   23   11   25 1     
   24   12   13 1     
   25   12   26 1     
   26   12   27 1     
   27   13   14 1     
   28   13   28 1     
   29   13   29 1     
   30   14   15 1     
   31   14   30 1     
   32   14   31 1     
   33   15   32 1     
   34   15   33 1     
   35    4   34 1     
   36    4   35 1     
   37    7   36 1     
   38    8   37 1     
   39    8   38 1     
   40   16   39 1     
@<TRIPOS>SUBSTRUCTURE
      1 S1             1
@<TRIPOS>SET
LONE_PAIRS      STATIC     ATOMS    <user>   **** ""
6 34 35 36 37 38 39
DONOR_HYDROGENS      STATIC     ATOMS    <user>   **** ""
1 20
ATOM$BLUE        STATIC     ATOMS    COLORGROUP SYSTEM
6 34 35 36 37 38 39
ATOM$RED        STATIC     ATOMS    COLORGROUP SYSTEM
1 20
