#       Name:                AV-unprocessed.smi:3148
#       Creating user name   scv26
#       Creation time:       Fri Mar 27 17:40:04 2020


#       File generated by GOLD software.
#

@<TRIPOS>MOLECULE
AV-unprocessed.smi:3148
    40    42     1
SMALL
NO_CHARGES


@<TRIPOS>ATOM
      1 ****        -3.5345  -1.2770   0.0118 C.3            1 S1                 0.0000
      2 ****        -2.8104  -2.5019   0.0487 O.3            1 S1                 0.0000
      3 ****        -1.4372  -2.4476  -0.0707 C.ar           1 S1                 0.0000
      4 ****        -0.6891  -3.6416  -0.0290 C.ar           1 S1                 0.0000
      5 ****         0.7095  -3.5108  -0.1577 C.ar           1 S1                 0.0000
      6 ****         1.6241  -4.7168  -0.1230 C.3            1 S1                 0.0000
      7 ****         1.3013  -2.3058  -0.3127 N.ar           1 S1                 0.0000
      8 ****         0.5020  -1.2368  -0.3365 C.ar           1 S1                 0.0000
      9 ****         1.1397  -0.0191  -0.4864 N.pl3          1 S1                 0.0000
     10 ****         0.4824   1.2755  -0.3558 C.3            1 S1                 0.0000
     11 ****         0.1291   1.6232   1.0958 C.3            1 S1                 0.0000
     12 ****         0.8361   2.9719   1.2789 C.3            1 S1                 0.0000
     13 ****         0.1799   4.0893   0.4566 C.3            1 S1                 0.0000
     14 ****         0.6173   3.7299  -0.9632 C.3            1 S1                 0.0000
     15 ****         1.4149   2.4390  -0.7318 C.3            1 S1                 0.0000
     16 ****         2.0098   2.7418   0.5199 O.3            1 S1                 0.0000
     17 ****        -0.8311  -1.2443  -0.2251 N.ar           1 S1                 0.0000
     18 ****        -4.5997  -1.4839   0.1115 H              1 S1                 0.0000
     19 ****        -3.3859  -0.7535  -0.9338 H              1 S1                 0.0000
     20 ****        -3.2465  -0.6193   0.8334 H              1 S1                 0.0000
     21 ****        -1.1655  -4.6027   0.0963 H              1 S1                 0.0000
     22 ****         1.0518  -5.6448  -0.1083 H              1 S1                 0.0000
     23 ****         2.2521  -4.6886   0.7678 H              1 S1                 0.0000
     24 ****         2.2715  -4.7301  -1.0003 H              1 S1                 0.0000
     25 ****         2.1479  -0.0330  -0.5401 H              1 S1                 0.0000
     26 ****        -0.4018   1.2869  -0.9945 H              1 S1                 0.0000
     27 ****        -0.9466   1.6890   1.2617 H              1 S1                 0.0000
     28 ****         0.5329   0.8898   1.7955 H              1 S1                 0.0000
     29 ****         1.0197   3.2363   2.3205 H              1 S1                 0.0000
     30 ****        -0.9041   4.1074   0.5753 H              1 S1                 0.0000
     31 ****         0.5728   5.0658   0.7421 H              1 S1                 0.0000
     32 ****        -0.2235   3.5859  -1.6425 H              1 S1                 0.0000
     33 ****         1.2583   4.5108  -1.3742 H              1 S1                 0.0000
     34 ****         2.1224   2.2146  -1.5309 H              1 S1                 0.0000
     35 ****        -3.1514  -3.0713  -0.6993 LP             1 S1                 0.0000
     36 ****        -3.0155  -2.9421   0.9229 LP             1 S1                 0.0000
     37 ****         2.2932  -2.2188  -0.4054 LP             1 S1                 0.0000
     38 ****         2.5417   1.9740   0.8769 LP             1 S1                 0.0000
     39 ****         2.5896   3.5551   0.4717 LP             1 S1                 0.0000
     40 ****        -1.3598  -0.3960  -0.2545 LP             1 S1                 0.0000
@<TRIPOS>BOND
    1    1    2 1     
    2    1   18 1     
    3    1   19 1     
    4    1   20 1     
    5    2    3 1     
    6    3   17 ar    
    7    3    4 ar    
    8    4    5 ar    
    9    4   21 1     
   10    5    6 1     
   11    5    7 ar    
   12    6   22 1     
   13    6   23 1     
   14    6   24 1     
   15    7    8 ar    
   16    8    9 1     
   17    8   17 ar    
   18    9   10 1     
   19    9   25 1     
   20   10   15 1     
   21   10   11 1     
   22   10   26 1     
   23   11   12 1     
   24   11   27 1     
   25   11   28 1     
   26   12   16 1     
   27   12   13 1     
   28   12   29 1     
   29   13   14 1     
   30   13   30 1     
   31   13   31 1     
   32   14   15 1     
   33   14   32 1     
   34   14   33 1     
   35   15   16 1     
   36   15   34 1     
   37    2   35 1     
   38    2   36 1     
   39    7   37 1     
   40   16   38 1     
   41   16   39 1     
   42   17   40 1     
@<TRIPOS>SUBSTRUCTURE
      1 S1             1
@<TRIPOS>SET
LONE_PAIRS      STATIC     ATOMS    <user>   **** ""
6 35 36 37 38 39 40
DONOR_HYDROGENS      STATIC     ATOMS    <user>   **** ""
1 25
ATOM$BLUE        STATIC     ATOMS    COLORGROUP SYSTEM
6 35 36 37 38 39 40
ATOM$RED        STATIC     ATOMS    COLORGROUP SYSTEM
1 25
