AV-unprocessed.smi:3348|AV-procd|sdf|12921|dock3
  -GOLD-   2272019343D 1   1.00000     0.00000
 Structure written by MMmdl.
 47 48  0  0  0  0  0  0  0  0  2 V2000
  143.7919  136.4989  151.9300 C   0  0  0  0  0  0  0  0  0  0  0  0
  145.2221  135.9589  151.7672 C   0  0  2  0  0  0  0  0  0  0  0  0
  145.3394  134.5348  152.3444 C   0  0  0  0  0  0  0  0  0  0  0  0
  145.1751  133.5113  151.3271 N   0  0  0  0  0  0  0  0  0  0  0  0
  144.1043  133.3108  150.4812 C   0  0  0  0  0  0  0  0  0  0  0  0
  144.4031  132.2345  149.6962 C   0  0  0  0  0  0  0  0  0  0  0  0
  145.6948  131.8379  150.1424 C   0  0  0  0  0  0  0  0  0  0  0  0
  146.1558  132.6061  151.1168 N   0  0  0  0  0  0  0  0  0  0  0  0
  146.1983  136.8594  152.4215 N   0  3  0  0  0  0  0  0  0  0  0  0
  146.2085  138.2489  151.9191 C   0  0  0  0  0  0  0  0  0  0  0  0
  147.3251  139.0607  152.5826 C   0  0  0  0  0  0  0  0  0  0  0  0
  147.0018  139.2299  153.9548 O   0  0  0  0  0  0  0  0  0  0  0  0
  148.0810  139.6777  154.7664 C   0  0  1  0  0  0  0  0  0  0  0  0
  149.1305  138.5539  154.9046 C   0  0  0  0  0  0  0  0  0  0  0  0
  150.3779  139.0353  155.6598 C   0  0  0  0  0  0  0  0  0  0  0  0
  150.9878  140.2710  154.9845 C   0  0  0  0  0  0  0  0  0  0  0  0
  149.9501  141.3958  154.8522 C   0  0  0  0  0  0  0  0  0  0  0  0
  148.6924  140.9275  154.0927 C   0  0  2  0  0  0  0  0  0  0  0  0
  147.6713  142.0714  153.9802 C   0  0  0  0  0  0  0  0  0  0  0  0
  143.0683  135.8376  151.4527 H   0  0  0  0  0  0  0  0  0  0  0  0
  143.6760  137.4823  151.4749 H   0  0  0  0  0  0  0  0  0  0  0  0
  143.5177  136.5839  152.9820 H   0  0  0  0  0  0  0  0  0  0  0  0
  145.4535  135.9084  150.7019 H   0  0  0  0  0  0  0  0  0  0  0  0
  146.3004  134.3934  152.8422 H   0  0  0  0  0  0  0  0  0  0  0  0
  144.5718  134.3739  153.1027 H   0  0  0  0  0  0  0  0  0  0  0  0
  143.2290  133.9433  150.5076 H   0  0  0  0  0  0  0  0  0  0  0  0
  143.7912  131.7956  148.9220 H   0  0  0  0  0  0  0  0  0  0  0  0
  146.3066  131.0213  149.7885 H   0  0  0  0  0  0  0  0  0  0  0  0
  146.0218  136.8659  153.4162 H   0  0  0  0  0  0  0  0  0  0  0  0
  146.3658  138.2289  150.8403 H   0  0  0  0  0  0  0  0  0  0  0  0
  145.2462  138.7292  152.0952 H   0  0  0  0  0  0  0  0  0  0  0  0
  148.2844  138.5528  152.4689 H   0  0  0  0  0  0  0  0  0  0  0  0
  147.4074  140.0303  152.0920 H   0  0  0  0  0  0  0  0  0  0  0  0
  147.7165  139.9628  155.7553 H   0  0  0  0  0  0  0  0  0  0  0  0
  148.7094  137.6941  155.4249 H   0  0  0  0  0  0  0  0  0  0  0  0
  149.4211  138.2017  153.9137 H   0  0  0  0  0  0  0  0  0  0  0  0
  150.1130  139.2733  156.6908 H   0  0  0  0  0  0  0  0  0  0  0  0
  151.1169  138.2350  155.7062 H   0  0  0  0  0  0  0  0  0  0  0  0
  151.8467  140.6226  155.5569 H   0  0  0  0  0  0  0  0  0  0  0  0
  151.3635  140.0012  153.9969 H   0  0  0  0  0  0  0  0  0  0  0  0
  149.6709  141.7493  155.8458 H   0  0  0  0  0  0  0  0  0  0  0  0
  150.4010  142.2458  154.3387 H   0  0  0  0  0  0  0  0  0  0  0  0
  148.9967  140.6538  153.0811 H   0  0  0  0  0  0  0  0  0  0  0  0
  147.3113  142.3791  154.9624 H   0  0  0  0  0  0  0  0  0  0  0  0
  146.8063  141.7767  153.3858 H   0  0  0  0  0  0  0  0  0  0  0  0
  148.1136  142.9446  153.4999 H   0  0  0  0  0  0  0  0  0  0  0  0
  147.1200  136.4752  152.2648 H   0  0  0  0  0  0  0  0  0  0  0  0
  1  2  1  0  0  0  0
  1 20  1  0  0  0  0
  1 21  1  0  0  0  0
  1 22  1  0  0  0  0
  2  3  1  0  0  0  0
  2  9  1  0  0  0  0
  2 23  1  0  0  0  0
  3  4  1  0  0  0  0
  3 24  1  0  0  0  0
  3 25  1  0  0  0  0
  4  8  1  0  0  0  0
  4  5  1  0  0  0  0
  5  6  2  0  0  0  0
  5 26  1  0  0  0  0
  6  7  1  0  0  0  0
  6 27  1  0  0  0  0
  7  8  2  0  0  0  0
  7 28  1  0  0  0  0
  9 10  1  0  0  0  0
  9 29  1  0  0  0  0
  9 47  1  0  0  0  0
 10 11  1  0  0  0  0
 10 30  1  0  0  0  0
 10 31  1  0  0  0  0
 11 12  1  0  0  0  0
 11 32  1  0  0  0  0
 11 33  1  0  0  0  0
 12 13  1  0  0  0  0
 13 18  1  0  0  0  0
 13 14  1  0  0  0  0
 13 34  1  0  0  0  0
 14 15  1  0  0  0  0
 14 35  1  0  0  0  0
 14 36  1  0  0  0  0
 15 16  1  0  0  0  0
 15 37  1  0  0  0  0
 15 38  1  0  0  0  0
 16 17  1  0  0  0  0
 16 39  1  0  0  0  0
 16 40  1  0  0  0  0
 17 18  1  0  0  0  0
 17 41  1  0  0  0  0
 17 42  1  0  0  0  0
 18 19  1  0  0  0  0
 18 43  1  0  0  0  0
 19 44  1  0  0  0  0
 19 45  1  0  0  0  0
 19 46  1  0  0  0  0
M  CHG  1   9   1
M  END
> <s_m_source_file>
AV-unprocessed.smi

> <i_m_source_file_index>
3348

> <i_lp_mmshare_version>
43012

> <i_f3d_flags>
0

> <s_epik_input>
bjFbY0hdW2NIXVtjSF1uMVtDSDJdW0NAQEhdKFtDSDNdKVtOSF1bQ0gyXVtDSDJdT1tDQEBIXTJbQ0gyXVtDSDJdW0NIMl1bQ0gyXVtDQEhdMltDSDNd

> <s_epik_cmdline>
J2VwaWtfcHl0aG9uJywgJy1waCcsICc3LjAnLCAnLXRuJywgJzgnLCAnLW1hJywgJzIwMCcsICctbWV0YWxfYmluZGluZycsICctaW1hZScsICc8aW5maWxlLm1hZT4nLCAnLW9tYWUnLCAnPG91dGZpbGUubWFlPic=

> <r_lp_tautomer_probability>
1

> <r_epik_Ionization_Penalty>
0.00925088

> <r_epik_Ionization_Penalty_Charging>
0.00924645

> <r_epik_Ionization_Penalty_Neutral>
4.42413e-06

> <r_epik_State_Penalty>
0.0070118

> <r_epik_Charging_Adjusted_Penalty>
0.0162583

> <i_epik_Tot_Q>
1

> <i_epik_Tot_abs_Q>
1

> <r_epik_Metal_State_Penalty>
0.00701222

> <b_epik_Metal_Only>
0

> <s_lp_Force_Field>
OPLS_2005

> <r_lp_Energy>
15.6253

> <b_lp_Chiralities_Consistent>
1

> <s_lp_Variant>
AV-unprocessed.smi:3348-7

> <Gold.Version>
5.8.1

> <Gold.Id.Protein>
6NUR|6NUR_protein|mol2

> <Gold.PLP.Fitness>
45.5983

> <Gold.PLP.PLP>
-35.4057

> <Gold.PLP.part.hbond>
-1.0000

> <Gold.PLP.part.metal>
0.0000

> <Gold.PLP.part.buried>
-0.1148

> <Gold.PLP.part.nonpolar>
-34.8719

> <Gold.PLP.part.repulsive>
0.3679

> <Gold.PLP.ligand.clash>
0.0000

> <Gold.PLP.ligand.torsion>
0.6283

> <Gold.PLP.Chemscore.Hbond>
2.0000

> <Gold.PLP.Chemscore.CHOScore>
1.7245

> <Gold.PLP.Chemscore.Metal>
0.0000

> <Gold.Chemscore.Hbonds>
donor molecule, donor type, donor heavy atom, donor atom, acceptor molecule, acceptor atom, score
      L1  H     9    47       P1  7948  2.00
      L1  C     5    26       P1 10186  1.00
      L1  C     7    28       P1 10747  0.51

> <Gold.PLP.Chemscore.Internal.Correction>
0.2758

> <Gold.Rescore>
     Score         DG    S(hbond)    S(metal)    S(lipo)     H(rot)  DE(clash)    DE(int)     intcor
     14.82     -15.62       1.00        0.00      97.86       1.82       0.33       0.47       ----

> <Gold.Chemscore.Fitness>
14.8194

> <Gold.Chemscore.DG>
-15.6204

> <Gold.Chemscore.ZeroCoef>
-5.4800

> <Gold.Chemscore.Hbond>
1.0000

> <Gold.Chemscore.Metal>
0.0000

> <Gold.Chemscore.Lipo>
97.8647

> <Gold.Chemscore.Internal_Hbond>
0.0000

> <Gold.Chemscore.DEClash>
0.3350

> <Gold.Chemscore.DEInternal>
0.4660

> <Gold.Chemscore.Rot>
1.8163

> <Gold.Chemscore.Internal.Correction>
   9.000000E+99

> <Gold.Chemscore.Hbonds>
donor molecule, donor type, donor heavy atom, donor atom, acceptor molecule, acceptor atom, score
      L1  H     9    47       P1  7948  1.00

> <Gold.Chemscore.Hbond.Weighted>
-3.3400

> <Gold.Chemscore.Metal.Weighted>
-0.0000

> <Gold.Chemscore.Lipo.Weighted>
-11.4502

> <Gold.Chemscore.Internal_Hbond.Weighted>
0.0000

> <Gold.Chemscore.DEClash.Weighted>
0.3350

> <Gold.Chemscore.DEInternal.Weighted>
0.4660

> <Gold.Chemscore.Rot.Weighted>
4.6497

> <Gold.Chemscore.Internal.Correction.Weighted>
   9.000000E+99

> <Gold.Protein.RotatedTorsions>
[ 6907 6896 6895 6894 ] final   53.34 input  -60.11 | X-H torsion
[ 7974 7965 7964 7962 ] final  -75.49 input  175.53 | X-H torsion
[ 8008 7997 7996 7995 ] final  -43.15 input   59.86 | X-H torsion
[ 10167 10162 10161 10158 ] final  174.41 input  -65.29 | X-H torsion
[ 10718 10713 10712 10709 ] final  128.99 input   66.30 | X-H torsion
[ 10763 10752 10751 10750 ] final  111.83 input  -60.55 | X-H torsion
[ 11005 11000 10999 10996 ] final  -67.42 input  -57.11 | X-H torsion

> <Gold.Protein.ActiveResidues>
 VAL166  LYS551  ARG553  GLY616  TRP617  ASP618  TYR619  PRO620  LYS621  CYS622 
 ASP623  PHE694  ASN695  SER759  ASP760  ASP761  ALA762  ILE779  LEU786  VAL792 
 PHE793  MET794  SER795  GLU796  ALA797  LYS798  CYS799  TRP800  GLU811  SER814 

> <Gold.Protein.RotatedAtoms>
  152.3326  134.7239  160.0285 H   0  0  0  0  0  0  0  0  0  0  0  0  # atno 6907 bound_to 6896
  151.7651  133.3331  159.3436 H   0  0  0  0  0  0  0  0  0  0  0  0  # atno 6908 bound_to 6896
  150.7432  134.6002  159.6077 H   0  0  0  0  0  0  0  0  0  0  0  0  # atno 6909 bound_to 6896
  145.6254  140.9352  143.1116 H   0  0  0  0  0  0  0  0  0  0  0  0  # atno 7974 bound_to 7965
  154.3997  140.1455  156.3472 H   0  0  0  0  0  0  0  0  0  0  0  0  # atno 8008 bound_to 7997
  155.8302  140.3466  155.5547 H   0  0  0  0  0  0  0  0  0  0  0  0  # atno 8009 bound_to 7997
  155.8196  140.0896  157.1847 H   0  0  0  0  0  0  0  0  0  0  0  0  # atno 8010 bound_to 7997
  139.5141  144.3150  152.0256 H   0  0  0  0  0  0  0  0  0  0  0  0  # atno 10167 bound_to 10162
  157.5195  131.1098  150.9175 H   0  0  0  0  0  0  0  0  0  0  0  0  # atno 10718 bound_to 10713
  153.4690  135.3705  155.2380 H   0  0  0  0  0  0  0  0  0  0  0  0  # atno 10763 bound_to 10752
  154.8757  135.3927  154.3834 H   0  0  0  0  0  0  0  0  0  0  0  0  # atno 10764 bound_to 10752
  153.4420  135.7084  153.6228 H   0  0  0  0  0  0  0  0  0  0  0  0  # atno 10765 bound_to 10752
  141.1507  133.6719  156.6291 H   0  0  0  0  0  0  0  0  0  0  0  0  # atno 11005 bound_to 11000
  144.7214  139.8016  143.7380 LP  0  0  0  0  0  0  0  0  0  0  0  0  # atno 17320 bound_to 7965
  146.1398  139.4453  143.0116 LP  0  0  0  0  0  0  0  0  0  0  0  0  # atno 17321 bound_to 7965
  140.2593  144.4084  150.6191 LP  0  0  0  0  0  0  0  0  0  0  0  0  # atno 17342 bound_to 10162
  140.6168  143.2173  151.6774 LP  0  0  0  0  0  0  0  0  0  0  0  0  # atno 17343 bound_to 10162
  156.9790  130.5520  149.5295 LP  0  0  0  0  0  0  0  0  0  0  0  0  # atno 17370 bound_to 10713
  156.0343  130.5432  150.8614 LP  0  0  0  0  0  0  0  0  0  0  0  0  # atno 17371 bound_to 10713
  140.3481  134.7792  157.4447 LP  0  0  0  0  0  0  0  0  0  0  0  0  # atno 17394 bound_to 11000
  140.0883  134.5636  155.8470 LP  0  0  0  0  0  0  0  0  0  0  0  0  # atno 17395 bound_to 11000

$$$$
