#       Name:                AV-unprocessed.smi:1047
#       Creating user name   scv26
#       Creation time:       Fri Mar 27 03:01:18 2020


#       File generated by GOLD software.
#

@<TRIPOS>MOLECULE
AV-unprocessed.smi:1047
    62    64     1
SMALL
NO_CHARGES


@<TRIPOS>ATOM
      1 ****        -4.1779   4.6330  -1.8782 C.3            1 S1                 0.0000
      2 ****        -2.8485   5.0929  -1.2635 C.3            1 S1                 0.0000
      3 ****        -2.6021   4.4941   0.0756 N.4            1 S1                 1.0000
      4 ****        -1.6189   5.2497   0.8895 C.3            1 S1                 0.0000
      5 ****        -0.1782   4.9528   0.4373 C.3            1 S1                 0.0000
      6 ****         0.0594   3.5517   0.5064 O.3            1 S1                 0.0000
      7 ****        -0.7925   2.8067  -0.3585 C.3            1 S1                 0.0000
      8 ****        -0.4052   1.3243  -0.2448 C.3            1 S1                 0.0000
      9 ****         0.9454   1.0775  -0.7892 N.4            1 S1                 1.0000
     10 ****         1.3907  -0.3257  -0.6798 C.3            1 S1                 0.0000
     11 ****         2.8177  -0.5059  -1.2313 C.3            1 S1                 0.0000
     12 ****         3.7159   0.1839  -0.3837 O.3            1 S1                 0.0000
     13 ****         3.2560  -1.9829  -1.3414 C.3            1 S1                 0.0000
     14 ****         3.1425  -2.7190  -0.0925 N.pl3          1 S1                 0.0000
     15 ****         4.0521  -2.7814   0.8996 C.2            1 S1                 0.0000
     16 ****         3.7415  -3.5118   1.9662 N.2            1 S1                 0.0000
     17 ****         2.4873  -3.9864   1.6241 C.ar           1 S1                 0.0000
     18 ****         1.6004  -4.8261   2.3324 C.ar           1 S1                 0.0000
     19 ****         0.3497  -5.1874   1.7831 C.ar           1 S1                 0.0000
     20 ****        -0.5724  -6.0936   2.5795 C.3            1 S1                 0.0000
     21 ****        -0.0299  -4.7074   0.5040 C.ar           1 S1                 0.0000
     22 ****        -1.3678  -5.0845  -0.1072 C.3            1 S1                 0.0000
     23 ****         0.8445  -3.8684  -0.2177 C.ar           1 S1                 0.0000
     24 ****         2.0855  -3.5134   0.3407 C.ar           1 S1                 0.0000
     25 ****        -2.2602   3.0478   0.0619 C.3            1 S1                 0.0000
     26 ****        -4.3741   5.1683  -2.8074 H              1 S1                 0.0000
     27 ****        -5.0127   4.8285  -1.2045 H              1 S1                 0.0000
     28 ****        -4.1764   3.5697  -2.1151 H              1 S1                 0.0000
     29 ****        -2.0230   4.8852  -1.9440 H              1 S1                 0.0000
     30 ****        -2.8929   6.1781  -1.1617 H              1 S1                 0.0000
     31 ****        -1.8254   6.3200   0.8522 H              1 S1                 0.0000
     32 ****        -1.7366   4.9528   1.9326 H              1 S1                 0.0000
     33 ****         0.0052   5.3194  -0.5738 H              1 S1                 0.0000
     34 ****         0.5307   5.4614   1.0908 H              1 S1                 0.0000
     35 ****        -0.6414   3.1305  -1.3894 H              1 S1                 0.0000
     36 ****        -0.4457   1.0025   0.7970 H              1 S1                 0.0000
     37 ****        -1.1184   0.7115  -0.7976 H              1 S1                 0.0000
     38 ****         0.9631   1.3461  -1.7625 H              1 S1                 0.0000
     39 ****         1.3363  -0.6430   0.3628 H              1 S1                 0.0000
     40 ****         0.6971  -0.9517  -1.2422 H              1 S1                 0.0000
     41 ****         2.8825  -0.0564  -2.2230 H              1 S1                 0.0000
     42 ****         4.5917   0.0847  -0.7265 H              1 S1                 0.0000
     43 ****         2.6515  -2.4918  -2.0930 H              1 S1                 0.0000
     44 ****         4.2882  -2.0476  -1.6889 H              1 S1                 0.0000
     45 ****         4.9935  -2.2550   0.8382 H              1 S1                 0.0000
     46 ****         1.8904  -5.1927   3.3062 H              1 S1                 0.0000
     47 ****        -0.7829  -7.0077   2.0240 H              1 S1                 0.0000
     48 ****        -1.5162  -5.5896   2.7888 H              1 S1                 0.0000
     49 ****        -0.1262  -6.3777   3.5331 H              1 S1                 0.0000
     50 ****        -1.5034  -4.6217  -1.0851 H              1 S1                 0.0000
     51 ****        -2.1874  -4.7584   0.5337 H              1 S1                 0.0000
     52 ****        -1.4372  -6.1648  -0.2360 H              1 S1                 0.0000
     53 ****         0.5673  -3.4994  -1.1938 H              1 S1                 0.0000
     54 ****        -2.4138   2.6601   1.0700 H              1 S1                 0.0000
     55 ****        -2.9420   2.4911  -0.5796 H              1 S1                 0.0000
     56 ****         1.6051   1.6523  -0.2833 H              1 S1                 0.0000
     57 ****        -3.4828   4.5775   0.5640 H              1 S1                 0.0000
     58 ****        -0.0937   3.2471   1.4465 LP             1 S1                 0.0000
     59 ****         1.0096   3.3752   0.2495 LP             1 S1                 0.0000
     60 ****         3.6700  -0.1994   0.5388 LP             1 S1                 0.0000
     61 ****         3.4737   1.1536  -0.3542 LP             1 S1                 0.0000
     62 ****         4.2739  -3.6752   2.7968 LP             1 S1                 0.0000
@<TRIPOS>BOND
    1    1    2 1     
    2    1   26 1     
    3    1   27 1     
    4    1   28 1     
    5    2    3 1     
    6    2   29 1     
    7    2   30 1     
    8    3   25 1     
    9    3    4 1     
   10    3   57 1     
   11    4    5 1     
   12    4   31 1     
   13    4   32 1     
   14    5    6 1     
   15    5   33 1     
   16    5   34 1     
   17    6    7 1     
   18    7    8 1     
   19    7   25 1     
   20    7   35 1     
   21    8    9 1     
   22    8   36 1     
   23    8   37 1     
   24    9   10 1     
   25    9   38 1     
   26    9   56 1     
   27   10   11 1     
   28   10   39 1     
   29   10   40 1     
   30   11   12 1     
   31   11   13 1     
   32   11   41 1     
   33   12   42 1     
   34   13   14 1     
   35   13   43 1     
   36   13   44 1     
   37   14   24 1     
   38   14   15 1     
   39   15   16 2     
   40   15   45 1     
   41   16   17 1     
   42   17   24 ar    
   43   17   18 ar    
   44   18   19 ar    
   45   18   46 1     
   46   19   20 1     
   47   19   21 ar    
   48   20   47 1     
   49   20   48 1     
   50   20   49 1     
   51   21   22 1     
   52   21   23 ar    
   53   22   50 1     
   54   22   51 1     
   55   22   52 1     
   56   23   24 ar    
   57   23   53 1     
   58   25   54 1     
   59   25   55 1     
   60    6   58 1     
   61    6   59 1     
   62   12   60 1     
   63   12   61 1     
   64   16   62 1     
@<TRIPOS>SUBSTRUCTURE
      1 S1             1
@<TRIPOS>SET
LONE_PAIRS      STATIC     ATOMS    <user>   **** ""
5 58 59 60 61 62
DONOR_HYDROGENS      STATIC     ATOMS    <user>   **** ""
4 57 38 56 42
ATOM$BLUE        STATIC     ATOMS    COLORGROUP SYSTEM
5 58 59 60 61 62
ATOM$RED        STATIC     ATOMS    COLORGROUP SYSTEM
4 57 38 56 42
