AV-unprocessed.smi:3057|AV-procd|sdf|11666|dock3
  -GOLD-   2272017 73D 1   1.00000     0.00000
 Structure written by MMmdl.
 41 43  0  0  0  0  0  0  0  0  2 V2000
  153.6917  143.4752  158.9282 C   0  0  0  0  0  0  0  0  0  0  0  0
  152.4218  142.8515  159.5435 C   0  0  2  0  0  0  0  0  0  0  0  0
  152.7754  141.7852  160.5928 C   0  0  0  0  0  0  0  0  0  0  0  0
  152.8204  140.4747  159.7918 C   0  0  0  0  0  0  0  0  0  0  0  0
  151.9331  140.7888  158.5961 C   0  0  0  0  0  0  0  0  0  0  0  0
  151.4861  139.9243  157.8435 O   0  0  0  0  0  0  0  0  0  0  0  0
  151.6762  142.1060  158.5466 N   0  0  0  0  0  0  0  0  0  0  0  0
  150.6195  142.8320  157.8258 C   0  0  1  0  0  0  0  0  0  0  0  0
  149.2449  142.1416  157.9019 C   0  0  0  0  0  0  0  0  0  0  0  0
  149.0741  141.1770  158.6487 O   0  0  0  0  0  0  0  0  0  0  0  0
  148.2735  142.6549  157.1330 N   0  0  0  0  0  0  0  0  0  0  0  0
  146.9163  142.1317  157.0587 C   0  0  0  0  0  0  0  0  0  0  0  0
  145.8993  143.2099  157.4574 C   0  0  0  0  0  0  0  0  0  0  0  0
  146.0028  143.5812  158.9239 C   0  0  0  0  0  0  0  0  0  0  0  0
  145.6005  142.7020  159.9528 C   0  0  0  0  0  0  0  0  0  0  0  0
  145.7173  143.1151  161.2965 C   0  0  0  0  0  0  0  0  0  0  0  0
  146.2323  144.3965  161.5827 C   0  0  0  0  0  0  0  0  0  0  0  0
  146.6188  145.2338  160.5161 C   0  0  0  0  0  0  0  0  0  0  0  0
  146.4916  144.8020  159.2421 N   0  3  0  0  0  0  0  0  0  0  0  0
  150.5847  144.2601  158.4142 C   0  0  0  0  0  0  0  0  0  0  0  0
  151.2643  144.1228  160.0902 S   0  0  0  0  0  0  0  0  0  0  0  0
  154.3657  142.7110  158.5395 H   0  0  0  0  0  0  0  0  0  0  0  0
  154.2433  144.0491  159.6735 H   0  0  0  0  0  0  0  0  0  0  0  0
  153.4570  144.1491  158.1045 H   0  0  0  0  0  0  0  0  0  0  0  0
  153.7150  141.9930  161.1058 H   0  0  0  0  0  0  0  0  0  0  0  0
  151.9948  141.7206  161.3525 H   0  0  0  0  0  0  0  0  0  0  0  0
  153.8298  140.2512  159.4453 H   0  0  0  0  0  0  0  0  0  0  0  0
  152.4461  139.6260  160.3649 H   0  0  0  0  0  0  0  0  0  0  0  0
  150.9162  142.8928  156.7773 H   0  0  0  0  0  0  0  0  0  0  0  0
  148.4945  143.4517  156.5535 H   0  0  0  0  0  0  0  0  0  0  0  0
  146.7053  141.7837  156.0457 H   0  0  0  0  0  0  0  0  0  0  0  0
  146.8332  141.2683  157.7206 H   0  0  0  0  0  0  0  0  0  0  0  0
  146.0453  144.1048  156.8507 H   0  0  0  0  0  0  0  0  0  0  0  0
  144.8855  142.8614  157.2541 H   0  0  0  0  0  0  0  0  0  0  0  0
  145.2056  141.7241  159.7184 H   0  0  0  0  0  0  0  0  0  0  0  0
  145.4143  142.4571  162.0979 H   0  0  0  0  0  0  0  0  0  0  0  0
  146.3288  144.7325  162.6048 H   0  0  0  0  0  0  0  0  0  0  0  0
  147.0212  146.2284  160.6424 H   0  0  0  0  0  0  0  0  0  0  0  0
  151.2227  144.9248  157.8313 H   0  0  0  0  0  0  0  0  0  0  0  0
  149.5867  144.7003  158.4332 H   0  0  0  0  0  0  0  0  0  0  0  0
  146.7755  145.4255  158.4858 H   0  0  0  0  0  0  0  0  0  0  0  0
  1  2  1  0  0  0  0
  1 22  1  0  0  0  0
  1 23  1  0  0  0  0
  1 24  1  0  0  0  0
  2  7  1  0  0  0  0
  2 21  1  0  0  0  0
  2  3  1  0  0  0  0
  3  4  1  0  0  0  0
  3 25  1  0  0  0  0
  3 26  1  0  0  0  0
  4  5  1  0  0  0  0
  4 27  1  0  0  0  0
  4 28  1  0  0  0  0
  5  6  2  0  0  0  0
  5  7  1  0  0  0  0
  7  8  1  0  0  0  0
  8  9  1  0  0  0  0
  8 20  1  0  0  0  0
  8 29  1  0  0  0  0
  9 10  2  0  0  0  0
  9 11  1  0  0  0  0
 11 12  1  0  0  0  0
 11 30  1  0  0  0  0
 12 13  1  0  0  0  0
 12 31  1  0  0  0  0
 12 32  1  0  0  0  0
 13 14  1  0  0  0  0
 13 33  1  0  0  0  0
 13 34  1  0  0  0  0
 14 19  1  0  0  0  0
 14 15  2  0  0  0  0
 15 16  1  0  0  0  0
 15 35  1  0  0  0  0
 16 17  2  0  0  0  0
 16 36  1  0  0  0  0
 17 18  1  0  0  0  0
 17 37  1  0  0  0  0
 18 19  2  0  0  0  0
 18 38  1  0  0  0  0
 19 41  1  0  0  0  0
 20 21  1  0  0  0  0
 20 39  1  0  0  0  0
 20 40  1  0  0  0  0
M  CHG  1  19   1
M  END
> <s_m_source_file>
AV-unprocessed.smi

> <i_m_source_file_index>
3057

> <i_lp_mmshare_version>
43012

> <i_f3d_flags>
0

> <s_epik_input>
W0NIMl0xW0NIMl1DKD1PKU4oW0NAQF0xMltDSDNdKVtDQEhdKFtDSDJdUzIpQyg9TylbTkhdW0NIMl1bQ0gyXWMzW2NIXVtjSF1bY0hdW2NIXW4z

> <s_epik_cmdline>
J2VwaWtfcHl0aG9uJywgJy1waCcsICc3LjAnLCAnLXRuJywgJzgnLCAnLW1hJywgJzIwMCcsICctbWV0YWxfYmluZGluZycsICctaW1hZScsICc8aW5maWxlLm1hZT4nLCAnLW9tYWUnLCAnPG91dGZpbGUubWFlPic=

> <r_epik_Ionization_Penalty>
1.8888

> <r_epik_Ionization_Penalty_Charging>
1.8888

> <r_epik_Ionization_Penalty_Neutral>
1.66252e-07

> <r_epik_State_Penalty>
2.00916

> <r_epik_Charging_Adjusted_Penalty>
3.89796

> <i_epik_Tot_Q>
1

> <i_epik_Tot_abs_Q>
1

> <r_epik_Metal_State_Penalty>
2.03343

> <b_epik_Metal_Only>
0

> <s_lp_Force_Field>
OPLS_2005

> <r_lp_Energy>
32.3734

> <b_lp_Chiralities_Consistent>
1

> <s_lp_Variant>
AV-unprocessed.smi:3057-6

> <Gold.Version>
5.8.1

> <Gold.Id.Protein>
6NUR|6NUR_protein|mol2

> <Gold.PLP.Fitness>
44.3710

> <Gold.PLP.PLP>
-35.8361

> <Gold.PLP.part.hbond>
-3.9478

> <Gold.PLP.part.metal>
0.0000

> <Gold.PLP.part.buried>
-4.0730

> <Gold.PLP.part.nonpolar>
-27.1730

> <Gold.PLP.part.repulsive>
0.0618

> <Gold.PLP.ligand.clash>
0.0000

> <Gold.PLP.ligand.torsion>
0.2422

> <Gold.PLP.Chemscore.Hbond>
3.0000

> <Gold.PLP.Chemscore.CHOScore>
0.0000

> <Gold.PLP.Chemscore.Metal>
0.0000

> <Gold.Chemscore.Hbonds>
donor molecule, donor type, donor heavy atom, donor atom, acceptor molecule, acceptor atom, score
      L1  H    11    30       P1  8028  1.00
      L1  H    19    41       P1  8029  2.00

> <Gold.PLP.Chemscore.Internal.Correction>
0.0192

> <Gold.Rescore>
     Score         DG    S(hbond)    S(metal)    S(lipo)     H(rot)  DE(clash)    DE(int)     intcor
     15.18     -18.15       1.80        0.00      92.46       1.62       0.13       2.84       ----

> <Gold.Chemscore.Fitness>
15.1789

> <Gold.Chemscore.DG>
-18.1451

> <Gold.Chemscore.ZeroCoef>
-5.4800

> <Gold.Chemscore.Hbond>
1.7972

> <Gold.Chemscore.Metal>
0.0000

> <Gold.Chemscore.Lipo>
92.4629

> <Gold.Chemscore.Internal_Hbond>
0.0000

> <Gold.Chemscore.DEClash>
0.1269

> <Gold.Chemscore.DEInternal>
2.8393

> <Gold.Chemscore.Rot>
1.6234

> <Gold.Chemscore.Internal.Correction>
   9.000000E+99

> <Gold.Chemscore.Hbonds>
donor molecule, donor type, donor heavy atom, donor atom, acceptor molecule, acceptor atom, score
      L1  H    11    30       P1  8028  0.49
      L1  H    19    41       P1  8029  0.98

> <Gold.Chemscore.Hbond.Weighted>
-6.0027

> <Gold.Chemscore.Metal.Weighted>
-0.0000

> <Gold.Chemscore.Lipo.Weighted>
-10.8182

> <Gold.Chemscore.Internal_Hbond.Weighted>
0.0000

> <Gold.Chemscore.DEClash.Weighted>
0.1269

> <Gold.Chemscore.DEInternal.Weighted>
2.8393

> <Gold.Chemscore.Rot.Weighted>
4.1558

> <Gold.Chemscore.Internal.Correction.Weighted>
   9.000000E+99

> <Gold.Protein.RotatedTorsions>
[ 6907 6896 6895 6894 ] final   18.04 input  -60.11 | X-H torsion
[ 7974 7965 7964 7962 ] final -159.34 input  175.53 | X-H torsion
[ 8008 7997 7996 7995 ] final    4.00 input   59.86 | X-H torsion
[ 10167 10162 10161 10158 ] final  -42.21 input  -65.29 | X-H torsion
[ 10718 10713 10712 10709 ] final   -2.35 input   66.30 | X-H torsion
[ 10763 10752 10751 10750 ] final -105.93 input  -60.55 | X-H torsion
[ 11005 11000 10999 10996 ] final  -81.44 input  -57.11 | X-H torsion

> <Gold.Protein.ActiveResidues>
 VAL166  LYS551  ARG553  GLY616  TRP617  ASP618  TYR619  PRO620  LYS621  CYS622 
 ASP623  PHE694  ASN695  SER759  ASP760  ASP761  ALA762  ILE779  LEU786  VAL792 
 PHE793  MET794  SER795  GLU796  ALA797  LYS798  CYS799  TRP800  GLU811  SER814 

> <Gold.Protein.RotatedAtoms>
  151.8591  135.0530  160.0467 H   0  0  0  0  0  0  0  0  0  0  0  0  # atno 6907 bound_to 6896
  152.2677  133.5349  159.5428 H   0  0  0  0  0  0  0  0  0  0  0  0  # atno 6908 bound_to 6896
  150.7140  134.0657  159.3889 H   0  0  0  0  0  0  0  0  0  0  0  0  # atno 6909 bound_to 6896
  144.7469  140.3699  143.6078 H   0  0  0  0  0  0  0  0  0  0  0  0  # atno 7974 bound_to 7965
  154.7105  140.2691  155.6633 H   0  0  0  0  0  0  0  0  0  0  0  0  # atno 8008 bound_to 7997
  156.2794  140.2754  156.1670 H   0  0  0  0  0  0  0  0  0  0  0  0  # atno 8009 bound_to 7997
  155.0641  140.0371  157.2576 H   0  0  0  0  0  0  0  0  0  0  0  0  # atno 8010 bound_to 7997
  140.6977  143.3051  151.3176 H   0  0  0  0  0  0  0  0  0  0  0  0  # atno 10167 bound_to 10162
  156.7922  130.5365  149.5734 H   0  0  0  0  0  0  0  0  0  0  0  0  # atno 10718 bound_to 10713
  154.7979  135.4731  154.0205 H   0  0  0  0  0  0  0  0  0  0  0  0  # atno 10763 bound_to 10752
  153.1733  135.6828  153.8585 H   0  0  0  0  0  0  0  0  0  0  0  0  # atno 10764 bound_to 10752
  153.8160  135.3210  155.3383 H   0  0  0  0  0  0  0  0  0  0  0  0  # atno 10765 bound_to 10752
  141.1666  133.7197  156.8423 H   0  0  0  0  0  0  0  0  0  0  0  0  # atno 11005 bound_to 11000
  145.7088  139.1679  143.2550 LP  0  0  0  0  0  0  0  0  0  0  0  0  # atno 17320 bound_to 7965
  146.1362  140.7120  142.9389 LP  0  0  0  0  0  0  0  0  0  0  0  0  # atno 17321 bound_to 7965
  139.6453  144.0463  152.2586 LP  0  0  0  0  0  0  0  0  0  0  0  0  # atno 17342 bound_to 10162
  139.9981  144.6313  150.7754 LP  0  0  0  0  0  0  0  0  0  0  0  0  # atno 17343 bound_to 10162
  156.1152  130.6070  151.0110 LP  0  0  0  0  0  0  0  0  0  0  0  0  # atno 17370 bound_to 10713
  157.6595  131.0883  150.7871 LP  0  0  0  0  0  0  0  0  0  0  0  0  # atno 17371 bound_to 10713
  140.1974  134.8922  157.3130 LP  0  0  0  0  0  0  0  0  0  0  0  0  # atno 17394 bound_to 11000
  140.2224  134.4007  155.7559 LP  0  0  0  0  0  0  0  0  0  0  0  0  # atno 17395 bound_to 11000

$$$$
