AV-unprocessed.smi:65|AV-procd|sdf|613|dock10
  -GOLD-   2262016503D 1   1.00000     0.00000
 Structure written by MMmdl.
 25 26  0  0  0  0  0  0  0  0  1 V2000
  146.0151  139.2041  152.9984 N   0  0  0  0  0  0  0  0  0  0  0  0
  146.9868  139.9684  153.5966 C   0  0  0  0  0  0  0  0  0  0  0  0
  146.6732  141.2389  153.8533 N   0  0  0  0  0  0  0  0  0  0  0  0
  147.6300  141.9893  154.4396 C   0  0  0  0  0  0  0  0  0  0  0  0
  148.8950  141.4602  154.7669 C   0  0  0  0  0  0  0  0  0  0  0  0
  149.1169  140.0979  154.4534 C   0  0  0  0  0  0  0  0  0  0  0  0
  150.3465  139.4699  154.7301 N   0  0  0  0  0  0  0  0  0  0  0  0
  151.3348  140.0865  155.6060 C   0  0  0  0  0  0  0  0  0  0  0  0
  152.1268  138.9245  156.2185 C   0  0  0  0  0  0  0  0  0  0  0  0
  151.8970  137.7734  155.2382 C   0  0  1  0  0  0  0  0  0  0  0  0
  152.0461  136.5074  155.8448 O   0  0  0  0  0  0  0  0  0  0  0  0
  150.4693  138.0207  154.7539 C   0  0  0  0  0  0  0  0  0  0  0  0
  148.1458  139.3619  153.8596 N   0  0  0  0  0  0  0  0  0  0  0  0
  146.1913  138.2346  152.7780 H   0  0  0  0  0  0  0  0  0  0  0  0
  145.1244  139.6110  152.7527 H   0  0  0  0  0  0  0  0  0  0  0  0
  147.3864  143.0206  154.6478 H   0  0  0  0  0  0  0  0  0  0  0  0
  149.6484  142.0813  155.2279 H   0  0  0  0  0  0  0  0  0  0  0  0
  151.9851  140.7252  155.0075 H   0  0  0  0  0  0  0  0  0  0  0  0
  150.8756  140.6965  156.3846 H   0  0  0  0  0  0  0  0  0  0  0  0
  153.1817  139.1585  156.3645 H   0  0  0  0  0  0  0  0  0  0  0  0
  151.7012  138.6751  157.1919 H   0  0  0  0  0  0  0  0  0  0  0  0
  152.5913  137.8607  154.4010 H   0  0  0  0  0  0  0  0  0  0  0  0
  152.1357  136.6302  156.7775 H   0  0  0  0  0  0  0  0  0  0  0  0
  149.7411  137.6106  155.4554 H   0  0  0  0  0  0  0  0  0  0  0  0
  150.2918  137.5808  153.7719 H   0  0  0  0  0  0  0  0  0  0  0  0
  1  2  1  0  0  0  0
  1 14  1  0  0  0  0
  1 15  1  0  0  0  0
  2 13  1  0  0  0  0
  2  3  2  0  0  0  0
  3  4  1  0  0  0  0
  4  5  2  0  0  0  0
  4 16  1  0  0  0  0
  5  6  1  0  0  0  0
  5 17  1  0  0  0  0
  6  7  1  0  0  0  0
  6 13  2  0  0  0  0
  7 12  1  0  0  0  0
  7  8  1  0  0  0  0
  8  9  1  0  0  0  0
  8 18  1  0  0  0  0
  8 19  1  0  0  0  0
  9 10  1  0  0  0  0
  9 20  1  0  0  0  0
  9 21  1  0  0  0  0
 10 11  1  0  0  0  0
 10 12  1  0  0  0  0
 10 22  1  0  0  0  0
 11 23  1  0  0  0  0
 12 24  1  0  0  0  0
 12 25  1  0  0  0  0
M  END
> <s_m_source_file>
AV-unprocessed.smi

> <i_m_source_file_index>
65

> <i_lp_mmshare_version>
43012

> <i_f3d_flags>
0

> <s_epik_input>
W05IMl1jMW5bY0hdW2NIXWMobjEpTjJbQ0gyXVtDSDJdW0NAQEhdKFtPSF0pW0NIMl0y

> <s_epik_cmdline>
J2VwaWtfcHl0aG9uJywgJy1waCcsICc3LjAnLCAnLXRuJywgJzgnLCAnLW1hJywgJzIwMCcsICctbWV0YWxfYmluZGluZycsICctaW1hZScsICc8aW5maWxlLm1hZT4nLCAnLW9tYWUnLCAnPG91dGZpbGUubWFlPic=

> <r_lp_tautomer_probability>
1

> <r_epik_Ionization_Penalty>
0.99295

> <r_epik_Ionization_Penalty_Charging>
0

> <r_epik_Ionization_Penalty_Neutral>
0.99295

> <r_epik_State_Penalty>
0.750885

> <r_epik_Charging_Adjusted_Penalty>
0.750885

> <i_epik_Tot_Q>
0

> <i_epik_Tot_abs_Q>
0

> <r_epik_Metal_State_Penalty>
0.338511

> <b_epik_Metal_Only>
0

> <s_lp_Force_Field>
OPLS_2005

> <r_lp_Energy>
17.7727

> <b_lp_Chiralities_Consistent>
1

> <s_lp_Variant>
AV-unprocessed.smi:65-3

> <Gold.Version>
5.8.1

> <Gold.Id.Protein>
6NUR|6NUR_protein|mol2

> <Gold.PLP.Fitness>
34.5600

> <Gold.PLP.PLP>
-25.6167

> <Gold.PLP.part.hbond>
-2.0000

> <Gold.PLP.part.metal>
0.0000

> <Gold.PLP.part.buried>
-2.2733

> <Gold.PLP.part.nonpolar>
-22.4882

> <Gold.PLP.part.repulsive>
0.9451

> <Gold.PLP.ligand.clash>
0.0000

> <Gold.PLP.ligand.torsion>
0.1063

> <Gold.PLP.Chemscore.Hbond>
2.0000

> <Gold.PLP.Chemscore.CHOScore>
0.9820

> <Gold.PLP.Chemscore.Metal>
0.0000

> <Gold.Chemscore.Hbonds>
donor molecule, donor type, donor heavy atom, donor atom, acceptor molecule, acceptor atom, score
      L1  H     1    15       P1 10175  1.00
      P1  H 10752 10764       L1    11  0.98
      L1  C     4    16       P1  8028  0.96

> <Gold.PLP.Chemscore.Internal.Correction>
0.2099

> <Gold.Rescore>
     Score         DG    S(hbond)    S(metal)    S(lipo)     H(rot)  DE(clash)    DE(int)     intcor
     14.13     -14.27       1.94        0.00      41.58       1.00       0.03       0.11       ----

> <Gold.Chemscore.Fitness>
14.1270

> <Gold.Chemscore.DG>
-14.2688

> <Gold.Chemscore.ZeroCoef>
-5.4800

> <Gold.Chemscore.Hbond>
1.9413

> <Gold.Chemscore.Metal>
0.0000

> <Gold.Chemscore.Lipo>
41.5811

> <Gold.Chemscore.Internal_Hbond>
0.0000

> <Gold.Chemscore.DEClash>
0.0348

> <Gold.Chemscore.DEInternal>
0.1071

> <Gold.Chemscore.Rot>
1.0000

> <Gold.Chemscore.Internal.Correction>
   9.000000E+99

> <Gold.Chemscore.Hbonds>
donor molecule, donor type, donor heavy atom, donor atom, acceptor molecule, acceptor atom, score
      L1  H     1    15       P1 10175  1.00
      P1  H 10752 10764       L1    11  0.76

> <Gold.Chemscore.Hbond.Weighted>
-6.4838

> <Gold.Chemscore.Metal.Weighted>
-0.0000

> <Gold.Chemscore.Lipo.Weighted>
-4.8650

> <Gold.Chemscore.Internal_Hbond.Weighted>
0.0000

> <Gold.Chemscore.DEClash.Weighted>
0.0348

> <Gold.Chemscore.DEInternal.Weighted>
0.1071

> <Gold.Chemscore.Rot.Weighted>
2.5600

> <Gold.Chemscore.Internal.Correction.Weighted>
   9.000000E+99

> <Gold.Protein.RotatedTorsions>
[ 6907 6896 6895 6894 ] final   20.61 input  -60.11 | X-H torsion
[ 7974 7965 7964 7962 ] final  -98.82 input  175.53 | X-H torsion
[ 8008 7997 7996 7995 ] final  -85.62 input   59.86 | X-H torsion
[ 10167 10162 10161 10158 ] final  -22.83 input  -65.29 | X-H torsion
[ 10718 10713 10712 10709 ] final   86.94 input   66.30 | X-H torsion
[ 10763 10752 10751 10750 ] final  -19.47 input  -60.55 | X-H torsion
[ 11005 11000 10999 10996 ] final    7.68 input  -57.11 | X-H torsion

> <Gold.Protein.ActiveResidues>
 VAL166  LYS551  ARG553  GLY616  TRP617  ASP618  TYR619  PRO620  LYS621  CYS622 
 ASP623  PHE694  ASN695  SER759  ASP760  ASP761  ALA762  ILE779  LEU786  VAL792 
 PHE793  MET794  SER795  GLU796  ALA797  LYS798  CYS799  TRP800  GLU811  SER814 

> <Gold.Protein.RotatedAtoms>
  151.8991  135.0385  160.0504 H   0  0  0  0  0  0  0  0  0  0  0  0  # atno 6907 bound_to 6896
  152.2373  133.5102  159.5258 H   0  0  0  0  0  0  0  0  0  0  0  0  # atno 6908 bound_to 6896
  150.7043  134.1053  159.4023 H   0  0  0  0  0  0  0  0  0  0  0  0  # atno 6909 bound_to 6896
  145.3156  140.9410  143.2745 H   0  0  0  0  0  0  0  0  0  0  0  0  # atno 7974 bound_to 7965
  154.6428  140.0589  156.9865 H   0  0  0  0  0  0  0  0  0  0  0  0  # atno 8008 bound_to 7997
  155.1491  140.3272  155.4416 H   0  0  0  0  0  0  0  0  0  0  0  0  # atno 8009 bound_to 7997
  156.2539  140.1950  156.6604 H   0  0  0  0  0  0  0  0  0  0  0  0  # atno 8010 bound_to 7997
  140.7287  143.4498  151.0533 H   0  0  0  0  0  0  0  0  0  0  0  0  # atno 10167 bound_to 10162
  157.6935  131.0236  150.3049 H   0  0  0  0  0  0  0  0  0  0  0  0  # atno 10718 bound_to 10713
  153.6052  135.6998  153.5368 H   0  0  0  0  0  0  0  0  0  0  0  0  # atno 10763 bound_to 10752
  153.3063  135.4114  155.1296 H   0  0  0  0  0  0  0  0  0  0  0  0  # atno 10764 bound_to 10752
  154.8574  135.3661  154.5589 H   0  0  0  0  0  0  0  0  0  0  0  0  # atno 10765 bound_to 10752
  140.5456  134.0333  155.7919 H   0  0  0  0  0  0  0  0  0  0  0  0  # atno 11005 bound_to 11000
  144.8980  139.4686  143.6646 LP  0  0  0  0  0  0  0  0  0  0  0  0  # atno 17320 bound_to 7965
  146.3101  139.7718  142.9026 LP  0  0  0  0  0  0  0  0  0  0  0  0  # atno 17321 bound_to 7965
  139.8173  143.7868  152.3175 LP  0  0  0  0  0  0  0  0  0  0  0  0  # atno 17342 bound_to 10162
  139.7938  144.7400  150.9918 LP  0  0  0  0  0  0  0  0  0  0  0  0  # atno 17343 bound_to 10162
  156.3559  130.3839  149.7291 LP  0  0  0  0  0  0  0  0  0  0  0  0  # atno 17370 bound_to 10713
  156.4753  130.8015  151.3032 LP  0  0  0  0  0  0  0  0  0  0  0  0  # atno 17371 bound_to 10713
  141.1202  133.9474  157.2744 LP  0  0  0  0  0  0  0  0  0  0  0  0  # atno 17394 bound_to 11000
  139.9481  135.0180  156.8914 LP  0  0  0  0  0  0  0  0  0  0  0  0  # atno 17395 bound_to 11000

$$$$
