#       Name:                AV-unprocessed.smi:1740
#       Creating user name   scv26
#       Creation time:       Fri Mar 27 08:23:06 2020


#       File generated by GOLD software.
#

@<TRIPOS>MOLECULE
AV-unprocessed.smi:1740
    58    60     1
SMALL
NO_CHARGES


@<TRIPOS>ATOM
      1 ****        -5.6187  -3.7318   1.1410 N.pl3          1 S1                -1.0000
      2 ****        -6.2167  -2.5291   1.2592 C.2            1 S1                 0.0000
      3 ****        -6.8892  -2.1088   2.1976 O.2            1 S1                 0.0000
      4 ****        -5.9808  -1.6372   0.0353 C.3            1 S1                 0.0000
      5 ****        -4.5367  -1.3284  -0.1237 N.4            1 S1                 1.0000
      6 ****        -4.0481  -0.2954   0.8293 C.3            1 S1                 0.0000
      7 ****        -2.5265  -0.1036   0.7120 C.3            1 S1                 0.0000
      8 ****        -2.1218   0.2513  -0.7302 C.3            1 S1                 0.0000
      9 ****        -0.6703   0.3453  -0.8589 N.am           1 S1                 0.0000
     10 ****         0.0629   1.4269  -0.5590 C.2            1 S1                 0.0000
     11 ****        -0.4131   2.4706  -0.1127 O.2            1 S1                 0.0000
     12 ****         1.3684   1.2110  -0.7917 N.am           1 S1                 0.0000
     13 ****         2.4573   2.1028  -0.5747 C.ar           1 S1                 0.0000
     14 ****         2.3095   3.5020  -0.7597 C.ar           1 S1                 0.0000
     15 ****         3.4208   4.3526  -0.6102 C.ar           1 S1                 0.0000
     16 ****         4.6694   3.7910  -0.2939 C.ar           1 S1                 0.0000
     17 ****         4.7810   2.4561  -0.1364 N.pl3          1 S1                 1.0000
     18 ****         3.7462   1.5863  -0.2519 C.ar           1 S1                 0.0000
     19 ****         4.0129   0.2132  -0.0476 N.3            1 S1                 0.0000
     20 ****         5.3854  -0.2616   0.0872 C.3            1 S1                 0.0000
     21 ****         5.2614  -1.6772   0.6444 C.3            1 S1                 0.0000
     22 ****         4.0446  -1.5645   1.5578 C.3            1 S1                 0.0000
     23 ****         3.1439  -0.5550   0.8386 C.3            1 S1                 0.0000
     24 ****        -2.6634  -0.8192  -1.6906 C.3            1 S1                 0.0000
     25 ****        -4.1823  -0.9947  -1.5263 C.3            1 S1                 0.0000
     26 ****        -5.7226  -4.4099   1.9057 H              1 S1                 0.0000
     27 ****        -6.3550  -2.1687  -0.8415 H              1 S1                 0.0000
     28 ****        -6.5608  -0.7161   0.1110 H              1 S1                 0.0000
     29 ****        -4.5595   0.6490   0.6368 H              1 S1                 0.0000
     30 ****        -4.2922  -0.5818   1.8527 H              1 S1                 0.0000
     31 ****        -2.2036   0.6795   1.3991 H              1 S1                 0.0000
     32 ****        -2.0215  -1.0184   1.0260 H              1 S1                 0.0000
     33 ****        -2.5682   1.2106  -1.0006 H              1 S1                 0.0000
     34 ****        -0.1930  -0.4708  -1.2130 H              1 S1                 0.0000
     35 ****         1.6224   0.2731  -1.0655 H              1 S1                 0.0000
     36 ****         1.3622   3.9376  -1.0392 H              1 S1                 0.0000
     37 ****         3.3183   5.4189  -0.7501 H              1 S1                 0.0000
     38 ****         5.5773   4.3630  -0.1679 H              1 S1                 0.0000
     39 ****         5.9085  -0.2474  -0.8696 H              1 S1                 0.0000
     40 ****         5.9382   0.3613   0.7918 H              1 S1                 0.0000
     41 ****         5.0561  -2.3810  -0.1636 H              1 S1                 0.0000
     42 ****         6.1592  -2.0100   1.1659 H              1 S1                 0.0000
     43 ****         3.5529  -2.5216   1.7339 H              1 S1                 0.0000
     44 ****         4.3497  -1.1613   2.5244 H              1 S1                 0.0000
     45 ****         2.6129   0.0797   1.5493 H              1 S1                 0.0000
     46 ****         2.4051  -1.0810   0.2338 H              1 S1                 0.0000
     47 ****        -2.4341  -0.5486  -2.7220 H              1 S1                 0.0000
     48 ****        -2.1678  -1.7733  -1.5032 H              1 S1                 0.0000
     49 ****        -4.5230  -1.7903  -2.1901 H              1 S1                 0.0000
     50 ****        -4.7029  -0.0842  -1.8271 H              1 S1                 0.0000
     51 ****        -4.0556  -2.1893   0.0980 H              1 S1                 0.0000
     52 ****         5.7010   2.0788   0.0912 H              1 S1                 0.0000
     53 ****        -5.0853  -3.9589   0.3262 LP             1 S1                 0.0000
     54 ****        -7.0454  -2.6863   2.9989 LP             1 S1                 0.0000
     55 ****        -7.2803  -1.1892   2.1600 LP             1 S1                 0.0000
     56 ****        -1.3979   2.5438   0.0447 LP             1 S1                 0.0000
     57 ****         0.1850   3.2453   0.0924 LP             1 S1                 0.0000
     58 ****         3.7464   0.0103  -0.9898 LP             1 S1                 0.0000
@<TRIPOS>BOND
    1    1    2 1     
    2    1   26 1     
    3    2    3 2     
    4    2    4 1     
    5    4    5 1     
    6    4   27 1     
    7    4   28 1     
    8    5   25 1     
    9    5    6 1     
   10    5   51 1     
   11    6    7 1     
   12    6   29 1     
   13    6   30 1     
   14    7    8 1     
   15    7   31 1     
   16    7   32 1     
   17    8    9 1     
   18    8   24 1     
   19    8   33 1     
   20    9   10 am    
   21    9   34 1     
   22   10   11 2     
   23   10   12 am    
   24   12   13 1     
   25   12   35 1     
   26   13   18 ar    
   27   13   14 ar    
   28   14   15 ar    
   29   14   36 1     
   30   15   16 ar    
   31   15   37 1     
   32   16   17 ar    
   33   16   38 1     
   34   17   18 ar    
   35   17   52 1     
   36   18   19 1     
   37   19   23 1     
   38   19   20 1     
   39   20   21 1     
   40   20   39 1     
   41   20   40 1     
   42   21   22 1     
   43   21   41 1     
   44   21   42 1     
   45   22   23 1     
   46   22   43 1     
   47   22   44 1     
   48   23   45 1     
   49   23   46 1     
   50   24   25 1     
   51   24   47 1     
   52   24   48 1     
   53   25   49 1     
   54   25   50 1     
   55    1   53 1     
   56    3   54 1     
   57    3   55 1     
   58   11   56 1     
   59   11   57 1     
   60   19   58 1     
@<TRIPOS>SUBSTRUCTURE
      1 S1             1
@<TRIPOS>SET
LONE_PAIRS      STATIC     ATOMS    <user>   **** ""
6 53 54 55 56 57 58
DONOR_HYDROGENS      STATIC     ATOMS    <user>   **** ""
5 26 51 34 35 52
ATOM$BLUE        STATIC     ATOMS    COLORGROUP SYSTEM
6 53 54 55 56 57 58
ATOM$RED        STATIC     ATOMS    COLORGROUP SYSTEM
5 26 51 34 35 52
