AV-unprocessed.smi:1740|AV-procd|sdf|7008|dock9
  -GOLD-   22720 8223D 1   1.00000     0.00000
 Structure written by MMmdl.
 52 54  0  0  0  0  0  0  0  0  2 V2000
  144.5279  141.0143  155.2066 N   0  0  0  0  0  0  0  0  0  0  0  0
  145.7174  140.4764  155.4846 C   0  0  0  0  0  0  0  0  0  0  0  0
  146.1051  140.3037  156.6386 O   0  0  0  0  0  0  0  0  0  0  0  0
  146.5832  140.0588  154.2913 C   0  0  0  0  0  0  0  0  0  0  0  0
  145.8724  139.1640  153.3418 N   0  3  2  0  0  0  0  0  0  0  0  0
  145.2966  137.9581  153.9956 C   0  0  0  0  0  0  0  0  0  0  0  0
  144.4520  137.1383  153.0038 C   0  0  0  0  0  0  0  0  0  0  0  0
  145.2547  136.7472  151.7481 C   0  0  2  0  0  0  0  0  0  0  0  0
  146.2701  135.7389  152.0501 N   0  0  0  0  0  0  0  0  0  0  0  0
  146.0230  134.4620  152.3753 C   0  0  0  0  0  0  0  0  0  0  0  0
  144.8897  133.9908  152.4643 O   0  0  0  0  0  0  0  0  0  0  0  0
  147.1664  133.7846  152.5718 N   0  0  0  0  0  0  0  0  0  0  0  0
  147.3383  132.3979  152.8464 C   0  0  0  0  0  0  0  0  0  0  0  0
  146.5459  131.4075  152.2150 C   0  0  0  0  0  0  0  0  0  0  0  0
  146.7133  130.0587  152.5720 C   0  0  0  0  0  0  0  0  0  0  0  0
  147.6581  129.7456  153.5630 C   0  0  0  0  0  0  0  0  0  0  0  0
  148.4094  130.6765  154.1839 N   0  0  0  0  0  0  0  0  0  0  0  0
  148.2701  131.9806  153.8401 C   0  0  0  0  0  0  0  0  0  0  0  0
  149.0944  132.9109  154.5146 N   0  0  0  0  0  0  0  0  0  0  0  0
  150.2358  132.3949  155.2650 C   0  0  0  0  0  0  0  0  0  0  0  0
  150.3686  133.2743  156.5131 C   0  0  0  0  0  0  0  0  0  0  0  0
  149.6275  134.5532  156.1353 C   0  0  0  0  0  0  0  0  0  0  0  0
  148.5045  134.0267  155.2467 C   0  0  0  0  0  0  0  0  0  0  0  0
  145.9042  137.9991  151.1336 C   0  0  0  0  0  0  0  0  0  0  0  0
  146.7107  138.8021  152.1704 C   0  0  0  0  0  0  0  0  0  0  0  0
  143.9187  141.2989  155.9608 H   0  0  0  0  0  0  0  0  0  0  0  0
  144.2334  141.1307  154.2477 H   0  0  0  0  0  0  0  0  0  0  0  0
  146.8727  140.9787  153.7815 H   0  0  0  0  0  0  0  0  0  0  0  0
  147.5060  139.5861  154.6323 H   0  0  0  0  0  0  0  0  0  0  0  0
  146.1004  137.3437  154.4041 H   0  0  0  0  0  0  0  0  0  0  0  0
  144.6691  138.2511  154.8378 H   0  0  0  0  0  0  0  0  0  0  0  0
  144.0534  136.2501  153.4957 H   0  0  0  0  0  0  0  0  0  0  0  0
  143.5857  137.7293  152.7039 H   0  0  0  0  0  0  0  0  0  0  0  0
  144.5686  136.3290  151.0090 H   0  0  0  0  0  0  0  0  0  0  0  0
  147.2347  136.0312  151.9940 H   0  0  0  0  0  0  0  0  0  0  0  0
  148.0197  134.2918  152.3885 H   0  0  0  0  0  0  0  0  0  0  0  0
  145.7966  131.6595  151.4808 H   0  0  0  0  0  0  0  0  0  0  0  0
  146.1219  129.2842  152.1066 H   0  0  0  0  0  0  0  0  0  0  0  0
  147.8105  128.7218  153.8711 H   0  0  0  0  0  0  0  0  0  0  0  0
  150.1134  131.3437  155.5299 H   0  0  0  0  0  0  0  0  0  0  0  0
  151.1318  132.4871  154.6507 H   0  0  0  0  0  0  0  0  0  0  0  0
  149.8647  132.7957  157.3538 H   0  0  0  0  0  0  0  0  0  0  0  0
  151.4058  133.4507  156.7989 H   0  0  0  0  0  0  0  0  0  0  0  0
  149.2617  135.1079  156.9997 H   0  0  0  0  0  0  0  0  0  0  0  0
  150.2830  135.2094  155.5610 H   0  0  0  0  0  0  0  0  0  0  0  0
  148.1299  134.7939  154.5687 H   0  0  0  0  0  0  0  0  0  0  0  0
  147.6779  133.6874  155.8721 H   0  0  0  0  0  0  0  0  0  0  0  0
  146.5427  137.7211  150.2940 H   0  0  0  0  0  0  0  0  0  0  0  0
  145.1234  138.6386  150.7196 H   0  0  0  0  0  0  0  0  0  0  0  0
  147.0923  139.7078  151.6975 H   0  0  0  0  0  0  0  0  0  0  0  0
  147.5784  138.2311  152.5047 H   0  0  0  0  0  0  0  0  0  0  0  0
  145.0966  139.7016  152.9810 H   0  0  0  0  0  0  0  0  0  0  0  0
  1  2  1  0  0  0  0
  1 26  1  0  0  0  0
  1 27  1  0  0  0  0
  2  3  2  0  0  0  0
  2  4  1  0  0  0  0
  4  5  1  0  0  0  0
  4 28  1  0  0  0  0
  4 29  1  0  0  0  0
  5 25  1  0  0  0  0
  5  6  1  0  0  0  0
  5 52  1  0  0  0  0
  6  7  1  0  0  0  0
  6 30  1  0  0  0  0
  6 31  1  0  0  0  0
  7  8  1  0  0  0  0
  7 32  1  0  0  0  0
  7 33  1  0  0  0  0
  8  9  1  0  0  0  0
  8 24  1  0  0  0  0
  8 34  1  0  0  0  0
  9 10  1  0  0  0  0
  9 35  1  0  0  0  0
 10 11  2  0  0  0  0
 10 12  1  0  0  0  0
 12 13  1  0  0  0  0
 12 36  1  0  0  0  0
 13 18  1  0  0  0  0
 13 14  2  0  0  0  0
 14 15  1  0  0  0  0
 14 37  1  0  0  0  0
 15 16  2  0  0  0  0
 15 38  1  0  0  0  0
 16 17  1  0  0  0  0
 16 39  1  0  0  0  0
 17 18  2  0  0  0  0
 18 19  1  0  0  0  0
 19 23  1  0  0  0  0
 19 20  1  0  0  0  0
 20 21  1  0  0  0  0
 20 40  1  0  0  0  0
 20 41  1  0  0  0  0
 21 22  1  0  0  0  0
 21 42  1  0  0  0  0
 21 43  1  0  0  0  0
 22 23  1  0  0  0  0
 22 44  1  0  0  0  0
 22 45  1  0  0  0  0
 23 46  1  0  0  0  0
 23 47  1  0  0  0  0
 24 25  1  0  0  0  0
 24 48  1  0  0  0  0
 24 49  1  0  0  0  0
 25 50  1  0  0  0  0
 25 51  1  0  0  0  0
M  CHG  1   5   1
M  END
> <s_m_source_file>
AV-unprocessed.smi

> <i_m_source_file_index>
1740

> <i_lp_mmshare_version>
43012

> <i_f3d_flags>
0

> <s_epik_input>
W05IMl1DKD1PKVtDSDJdTjFbQ0gyXVtDSDJdW0NIXShbQ0gyXVtDSDJdMSlbTkhdQyg9TylbTkhdYzJbY0hdW2NIXVtjSF1uYzJOM1tDSDJdW0NIMl1bQ0gyXVtDSDJdMw==

> <s_epik_cmdline>
J2VwaWtfcHl0aG9uJywgJy1waCcsICc3LjAnLCAnLXRuJywgJzgnLCAnLW1hJywgJzIwMCcsICctbWV0YWxfYmluZGluZycsICctaW1hZScsICc8aW5maWxlLm1hZT4nLCAnLW9tYWUnLCAnPG91dGZpbGUubWFlPic=

> <r_lp_tautomer_probability>
1

> <r_epik_Ionization_Penalty>
0.91661

> <r_epik_Ionization_Penalty_Charging>
0.838844

> <r_epik_Ionization_Penalty_Neutral>
0.0777664

> <r_epik_State_Penalty>
0.927046

> <r_epik_Charging_Adjusted_Penalty>
1.76589

> <i_epik_Tot_Q>
1

> <i_epik_Tot_abs_Q>
1

> <r_epik_Metal_State_Penalty>
0.950555

> <b_epik_Metal_Only>
0

> <s_lp_Force_Field>
OPLS_2005

> <r_lp_Energy>
41.6121

> <b_lp_Chiralities_Consistent>
1

> <s_lp_Variant>
AV-unprocessed.smi:1740-3

> <Gold.Version>
5.8.1

> <Gold.Id.Protein>
6NUR|6NUR_protein|mol2

> <Gold.PLP.Fitness>
44.7593

> <Gold.PLP.PLP>
-31.9487

> <Gold.PLP.part.hbond>
-4.0000

> <Gold.PLP.part.metal>
0.0000

> <Gold.PLP.part.buried>
3.1237

> <Gold.PLP.part.nonpolar>
-31.7612

> <Gold.PLP.part.repulsive>
0.3109

> <Gold.PLP.ligand.clash>
0.0000

> <Gold.PLP.ligand.torsion>
0.6750

> <Gold.PLP.Chemscore.Hbond>
4.6032

> <Gold.PLP.Chemscore.CHOScore>
0.0000

> <Gold.PLP.Chemscore.Metal>
0.0000

> <Gold.Chemscore.Hbonds>
donor molecule, donor type, donor heavy atom, donor atom, acceptor molecule, acceptor atom, score
      L1  H     1    27       P1 10175  1.00
      L1  H     5    52       P1 10175  2.00
      L1  H     9    35       P1  7948  1.00
      L1  H    12    36       P1  7948  0.61

> <Gold.PLP.Chemscore.Internal.Correction>
0.3509

> <Gold.Rescore>
     Score         DG    S(hbond)    S(metal)    S(lipo)     H(rot)  DE(clash)    DE(int)     intcor
     16.14     -19.27       3.00        0.00      80.19       2.19       1.66       1.47       ----

> <Gold.Chemscore.Fitness>
16.1375

> <Gold.Chemscore.DG>
-19.2660

> <Gold.Chemscore.ZeroCoef>
-5.4800

> <Gold.Chemscore.Hbond>
2.9999

> <Gold.Chemscore.Metal>
0.0000

> <Gold.Chemscore.Lipo>
80.1936

> <Gold.Chemscore.Internal_Hbond>
0.0000

> <Gold.Chemscore.DEClash>
1.6618

> <Gold.Chemscore.DEInternal>
1.4667

> <Gold.Chemscore.Rot>
2.1939

> <Gold.Chemscore.Internal.Correction>
   9.000000E+99

> <Gold.Chemscore.Hbonds>
donor molecule, donor type, donor heavy atom, donor atom, acceptor molecule, acceptor atom, score
      L1  H     1    27       P1 10175  0.73
      L1  H     5    52       P1 10175  1.00
      L1  H     9    35       P1  7948  1.00
      L1  H    12    36       P1  7948  0.13

> <Gold.Chemscore.Hbond.Weighted>
-10.0197

> <Gold.Chemscore.Metal.Weighted>
-0.0000

> <Gold.Chemscore.Lipo.Weighted>
-9.3826

> <Gold.Chemscore.Internal_Hbond.Weighted>
0.0000

> <Gold.Chemscore.DEClash.Weighted>
1.6618

> <Gold.Chemscore.DEInternal.Weighted>
1.4667

> <Gold.Chemscore.Rot.Weighted>
5.6163

> <Gold.Chemscore.Internal.Correction.Weighted>
   9.000000E+99

> <Gold.Protein.RotatedTorsions>
[ 6907 6896 6895 6894 ] final   86.29 input  -60.11 | X-H torsion
[ 7974 7965 7964 7962 ] final -116.29 input  175.53 | X-H torsion
[ 8008 7997 7996 7995 ] final -146.38 input   59.86 | X-H torsion
[ 10167 10162 10161 10158 ] final  161.26 input  -65.29 | X-H torsion
[ 10718 10713 10712 10709 ] final   16.81 input   66.30 | X-H torsion
[ 10763 10752 10751 10750 ] final  -54.83 input  -60.55 | X-H torsion
[ 11005 11000 10999 10996 ] final  -33.79 input  -57.11 | X-H torsion

> <Gold.Protein.ActiveResidues>
 VAL166  LYS551  ARG553  GLY616  TRP617  ASP618  TYR619  PRO620  LYS621  CYS622 
 ASP623  PHE694  ASN695  SER759  ASP760  ASP761  ALA762  ILE779  LEU786  VAL792 
 PHE793  MET794  SER795  GLU796  ALA797  LYS798  CYS799  TRP800  GLU811  SER814 

> <Gold.Protein.RotatedAtoms>
  152.5391  134.2453  159.8877 H   0  0  0  0  0  0  0  0  0  0  0  0  # atno 6907 bound_to 6896
  151.2419  133.4388  159.2615 H   0  0  0  0  0  0  0  0  0  0  0  0  # atno 6908 bound_to 6896
  151.0619  134.9756  159.8321 H   0  0  0  0  0  0  0  0  0  0  0  0  # atno 6909 bound_to 6896
  145.0985  140.8536  143.3940 H   0  0  0  0  0  0  0  0  0  0  0  0  # atno 7974 bound_to 7965
  155.5585  140.0623  157.2834 H   0  0  0  0  0  0  0  0  0  0  0  0  # atno 8008 bound_to 7997
  154.4398  140.1890  156.0804 H   0  0  0  0  0  0  0  0  0  0  0  0  # atno 8009 bound_to 7997
  156.0464  140.3289  155.7305 H   0  0  0  0  0  0  0  0  0  0  0  0  # atno 8010 bound_to 7997
  139.4847  144.4554  151.8775 H   0  0  0  0  0  0  0  0  0  0  0  0  # atno 10167 bound_to 10162
  157.0731  130.6356  149.5810 H   0  0  0  0  0  0  0  0  0  0  0  0  # atno 10718 bound_to 10713
  154.1811  135.6443  153.5034 H   0  0  0  0  0  0  0  0  0  0  0  0  # atno 10763 bound_to 10752
  153.0059  135.5406  154.6513 H   0  0  0  0  0  0  0  0  0  0  0  0  # atno 10764 bound_to 10752
  154.5878  135.2931  155.0640 H   0  0  0  0  0  0  0  0  0  0  0  0  # atno 10765 bound_to 10752
  140.9664  133.7135  156.1451 H   0  0  0  0  0  0  0  0  0  0  0  0  # atno 11005 bound_to 11000
  145.0983  139.2840  143.5699 LP  0  0  0  0  0  0  0  0  0  0  0  0  # atno 17320 bound_to 7965
  146.3530  140.0542  142.8634 LP  0  0  0  0  0  0  0  0  0  0  0  0  # atno 17321 bound_to 7965
  140.4013  144.2489  150.5893 LP  0  0  0  0  0  0  0  0  0  0  0  0  # atno 17342 bound_to 10162
  140.5054  143.2305  151.8615 LP  0  0  0  0  0  0  0  0  0  0  0  0  # atno 17343 bound_to 10162
  155.9944  130.5008  150.7421 LP  0  0  0  0  0  0  0  0  0  0  0  0  # atno 17370 bound_to 10713
  157.4861  131.0907  151.0480 LP  0  0  0  0  0  0  0  0  0  0  0  0  # atno 17371 bound_to 10713
  140.7393  134.4167  157.5556 LP  0  0  0  0  0  0  0  0  0  0  0  0  # atno 17394 bound_to 11000
  139.8896  134.8826  156.2413 LP  0  0  0  0  0  0  0  0  0  0  0  0  # atno 17395 bound_to 11000

$$$$
