AV-unprocessed.smi:896|AV-procd|sdf|4078|dock10
  -GOLD-   22720 1563D 1   1.00000     0.00000
 Structure written by MMmdl.
 49 50  0  0  0  0  0  0  0  0  2 V2000
  151.0579  142.8311  157.3912 C   0  0  0  0  0  0  0  0  0  0  0  0
  151.6520  141.6998  156.7637 O   0  0  0  0  0  0  0  0  0  0  0  0
  150.8797  140.9492  155.9009 C   0  0  0  0  0  0  0  0  0  0  0  0
  149.7029  141.5192  155.3784 C   0  0  0  0  0  0  0  0  0  0  0  0
  148.9126  140.7586  154.4966 C   0  0  0  0  0  0  0  0  0  0  0  0
  149.3281  139.4498  154.1539 C   0  0  0  0  0  0  0  0  0  0  0  0
  148.5809  138.6020  153.2904 N   0  0  0  0  0  0  0  0  0  0  0  0
  147.2828  138.6988  152.9582 C   0  0  0  0  0  0  0  0  0  0  0  0
  146.5092  139.5685  153.3606 O   0  0  0  0  0  0  0  0  0  0  0  0
  146.9274  137.7346  152.0970 N   0  0  0  0  0  0  0  0  0  0  0  0
  145.5980  137.5867  151.5165 C   0  0  0  0  0  0  0  0  0  0  0  0
  145.3090  136.1196  151.1470 C   0  0  0  0  0  0  0  0  0  0  0  0
  145.3894  135.1370  152.3375 C   0  0  2  0  0  0  0  0  0  0  0  0
  145.0403  133.6952  151.9190 C   0  0  0  0  0  0  0  0  0  0  0  0
  143.5346  133.5153  151.6497 C   0  0  0  0  0  0  0  0  0  0  0  0
  142.7266  133.9226  152.8262 N   0  3  2  0  0  0  0  0  0  0  0  0
  141.2833  133.6676  152.6311 C   0  0  0  0  0  0  0  0  0  0  0  0
  143.0017  135.3207  153.2412 C   0  0  0  0  0  0  0  0  0  0  0  0
  144.4983  135.5262  153.5364 C   0  0  0  0  0  0  0  0  0  0  0  0
  150.5184  138.9612  154.7443 C   0  0  0  0  0  0  0  0  0  0  0  0
  151.0323  137.5629  154.4492 C   0  0  0  0  0  0  0  0  0  0  0  0
  151.2775  139.6908  155.5910 N   0  0  0  0  0  0  0  0  0  0  0  0
  151.7909  143.3106  158.0400 H   0  0  0  0  0  0  0  0  0  0  0  0
  150.2070  142.5433  158.0104 H   0  0  0  0  0  0  0  0  0  0  0  0
  150.7332  143.5699  156.6569 H   0  0  0  0  0  0  0  0  0  0  0  0
  149.4083  142.5215  155.6530 H   0  0  0  0  0  0  0  0  0  0  0  0
  147.9984  141.1844  154.1118 H   0  0  0  0  0  0  0  0  0  0  0  0
  149.1146  137.8951  152.8062 H   0  0  0  0  0  0  0  0  0  0  0  0
  147.6258  137.0608  151.8186 H   0  0  0  0  0  0  0  0  0  0  0  0
  144.8670  137.9395  152.2442 H   0  0  0  0  0  0  0  0  0  0  0  0
  145.5122  138.2400  150.6480 H   0  0  0  0  0  0  0  0  0  0  0  0
  144.3338  136.0481  150.6662 H   0  0  0  0  0  0  0  0  0  0  0  0
  146.0327  135.8133  150.3903 H   0  0  0  0  0  0  0  0  0  0  0  0
  146.4259  135.1349  152.6776 H   0  0  0  0  0  0  0  0  0  0  0  0
  145.6144  133.4054  151.0383 H   0  0  0  0  0  0  0  0  0  0  0  0
  145.3419  133.0096  152.7119 H   0  0  0  0  0  0  0  0  0  0  0  0
  143.2300  134.0928  150.7761 H   0  0  0  0  0  0  0  0  0  0  0  0
  143.3323  132.4688  151.4179 H   0  0  0  0  0  0  0  0  0  0  0  0
  140.8868  134.2714  151.8136 H   0  0  0  0  0  0  0  0  0  0  0  0
  140.7239  133.9073  153.5360 H   0  0  0  0  0  0  0  0  0  0  0  0
  141.1052  132.6173  152.3987 H   0  0  0  0  0  0  0  0  0  0  0  0
  142.6644  136.0104  152.4664 H   0  0  0  0  0  0  0  0  0  0  0  0
  142.4233  135.5516  154.1367 H   0  0  0  0  0  0  0  0  0  0  0  0
  144.7734  134.9111  154.3945 H   0  0  0  0  0  0  0  0  0  0  0  0
  144.6806  136.5543  153.8461 H   0  0  0  0  0  0  0  0  0  0  0  0
  151.1948  137.4360  153.3785 H   0  0  0  0  0  0  0  0  0  0  0  0
  150.3101  136.8162  154.7801 H   0  0  0  0  0  0  0  0  0  0  0  0
  151.9770  137.3665  154.9578 H   0  0  0  0  0  0  0  0  0  0  0  0
  143.0203  133.3336  153.5924 H   0  0  0  0  0  0  0  0  0  0  0  0
  1  2  1  0  0  0  0
  1 23  1  0  0  0  0
  1 24  1  0  0  0  0
  1 25  1  0  0  0  0
  2  3  1  0  0  0  0
  3 22  1  0  0  0  0
  3  4  2  0  0  0  0
  4  5  1  0  0  0  0
  4 26  1  0  0  0  0
  5  6  2  0  0  0  0
  5 27  1  0  0  0  0
  6  7  1  0  0  0  0
  6 20  1  0  0  0  0
  7  8  1  0  0  0  0
  7 28  1  0  0  0  0
  8  9  2  0  0  0  0
  8 10  1  0  0  0  0
 10 11  1  0  0  0  0
 10 29  1  0  0  0  0
 11 12  1  0  0  0  0
 11 30  1  0  0  0  0
 11 31  1  0  0  0  0
 12 13  1  0  0  0  0
 12 32  1  0  0  0  0
 12 33  1  0  0  0  0
 13 19  1  0  0  0  0
 13 14  1  0  0  0  0
 13 34  1  0  0  0  0
 14 15  1  0  0  0  0
 14 35  1  0  0  0  0
 14 36  1  0  0  0  0
 15 16  1  0  0  0  0
 15 37  1  0  0  0  0
 15 38  1  0  0  0  0
 16 17  1  0  0  0  0
 16 18  1  0  0  0  0
 16 49  1  0  0  0  0
 17 39  1  0  0  0  0
 17 40  1  0  0  0  0
 17 41  1  0  0  0  0
 18 19  1  0  0  0  0
 18 42  1  0  0  0  0
 18 43  1  0  0  0  0
 19 44  1  0  0  0  0
 19 45  1  0  0  0  0
 20 21  1  0  0  0  0
 20 22  2  0  0  0  0
 21 46  1  0  0  0  0
 21 47  1  0  0  0  0
 21 48  1  0  0  0  0
M  CHG  1  16   1
M  END
> <s_m_source_file>
AV-unprocessed.smi

> <i_m_source_file_index>
896

> <i_lp_mmshare_version>
43012

> <i_f3d_flags>
0

> <s_epik_input>
W0NIM11PYzFbY0hdW2NIXWMoYyhuMSlbQ0gzXSlbTkhdQyg9TylbTkhdW0NIMl1bQ0gyXVtDSF0yW0NIMl1bQ0gyXU4oW0NIM10pW0NIMl1bQ0gyXTI=

> <s_epik_cmdline>
J2VwaWtfcHl0aG9uJywgJy1waCcsICc3LjAnLCAnLXRuJywgJzgnLCAnLW1hJywgJzIwMCcsICctbWV0YWxfYmluZGluZycsICctaW1hZScsICc8aW5maWxlLm1hZT4nLCAnLW9tYWUnLCAnPG91dGZpbGUubWFlPic=

> <r_lp_tautomer_probability>
1

> <r_epik_Ionization_Penalty>
0.000968128

> <r_epik_Ionization_Penalty_Charging>
0.000718523

> <r_epik_Ionization_Penalty_Neutral>
0.000249604

> <r_epik_State_Penalty>
0.00045807

> <r_epik_Charging_Adjusted_Penalty>
0.00117659

> <i_epik_Tot_Q>
1

> <i_epik_Tot_abs_Q>
1

> <r_epik_Metal_State_Penalty>
-0

> <b_epik_Metal_Only>
0

> <s_lp_Force_Field>
OPLS_2005

> <r_lp_Energy>
21.0963

> <b_lp_Chiralities_Consistent>
1

> <s_lp_Variant>
AV-unprocessed.smi:896-2

> <Gold.Version>
5.8.1

> <Gold.Id.Protein>
6NUR|6NUR_protein|mol2

> <Gold.PLP.Fitness>
45.5654

> <Gold.PLP.PLP>
-35.2855

> <Gold.PLP.part.hbond>
-3.9136

> <Gold.PLP.part.metal>
0.0000

> <Gold.PLP.part.buried>
4.7351

> <Gold.PLP.part.nonpolar>
-36.9318

> <Gold.PLP.part.repulsive>
0.5760

> <Gold.PLP.ligand.clash>
0.0000

> <Gold.PLP.ligand.torsion>
0.5343

> <Gold.PLP.Chemscore.Hbond>
3.7680

> <Gold.PLP.Chemscore.CHOScore>
0.0000

> <Gold.PLP.Chemscore.Metal>
0.0000

> <Gold.Chemscore.Hbonds>
donor molecule, donor type, donor heavy atom, donor atom, acceptor molecule, acceptor atom, score
      L1  H     7    28       P1  7948  0.90
      L1  H    10    29       P1  7948  1.00
      L1  H    16    49       P1 10957  1.92

> <Gold.PLP.Chemscore.Internal.Correction>
0.0446

> <Gold.Rescore>
     Score         DG    S(hbond)    S(metal)    S(lipo)     H(rot)  DE(clash)    DE(int)     intcor
     16.48     -20.91       2.66        0.00      92.22       1.65       2.78       1.66       ----

> <Gold.Chemscore.Fitness>
16.4757

> <Gold.Chemscore.DG>
-20.9106

> <Gold.Chemscore.ZeroCoef>
-5.4800

> <Gold.Chemscore.Hbond>
2.6556

> <Gold.Chemscore.Metal>
0.0000

> <Gold.Chemscore.Lipo>
92.2235

> <Gold.Chemscore.Internal_Hbond>
0.0000

> <Gold.Chemscore.DEClash>
2.7793

> <Gold.Chemscore.DEInternal>
1.6557

> <Gold.Chemscore.Rot>
1.6521

> <Gold.Chemscore.Internal.Correction>
   9.000000E+99

> <Gold.Chemscore.Hbonds>
donor molecule, donor type, donor heavy atom, donor atom, acceptor molecule, acceptor atom, score
      L1  H     7    28       P1  7948  0.85
      L1  H    10    29       P1  7948  0.94
      L1  H    16    49       P1 10957  0.89

> <Gold.Chemscore.Hbond.Weighted>
-8.8698

> <Gold.Chemscore.Metal.Weighted>
-0.0000

> <Gold.Chemscore.Lipo.Weighted>
-10.7901

> <Gold.Chemscore.Internal_Hbond.Weighted>
0.0000

> <Gold.Chemscore.DEClash.Weighted>
2.7793

> <Gold.Chemscore.DEInternal.Weighted>
1.6557

> <Gold.Chemscore.Rot.Weighted>
4.2294

> <Gold.Chemscore.Internal.Correction.Weighted>
   9.000000E+99

> <Gold.Protein.RotatedTorsions>
[ 6907 6896 6895 6894 ] final  -28.35 input  -60.11 | X-H torsion
[ 7974 7965 7964 7962 ] final   50.09 input  175.53 | X-H torsion
[ 8008 7997 7996 7995 ] final  -19.82 input   59.86 | X-H torsion
[ 10167 10162 10161 10158 ] final   79.62 input  -65.29 | X-H torsion
[ 10718 10713 10712 10709 ] final   51.91 input   66.30 | X-H torsion
[ 10763 10752 10751 10750 ] final  108.93 input  -60.55 | X-H torsion
[ 11005 11000 10999 10996 ] final  -70.03 input  -57.11 | X-H torsion

> <Gold.Protein.ActiveResidues>
 VAL166  LYS551  ARG553  GLY616  TRP617  ASP618  TYR619  PRO620  LYS621  CYS622 
 ASP623  PHE694  ASN695  SER759  ASP760  ASP761  ALA762  ILE779  LEU786  VAL792 
 PHE793  MET794  SER795  GLU796  ALA797  LYS798  CYS799  TRP800  GLU811  SER814 

> <Gold.Protein.RotatedAtoms>
  151.1341  135.0146  159.8595 H   0  0  0  0  0  0  0  0  0  0  0  0  # atno 6907 bound_to 6896
  152.5451  134.1575  159.8554 H   0  0  0  0  0  0  0  0  0  0  0  0  # atno 6908 bound_to 6896
  151.1645  133.4778  159.2627 H   0  0  0  0  0  0  0  0  0  0  0  0  # atno 6909 bound_to 6896
  146.0046  139.4476  142.9994 H   0  0  0  0  0  0  0  0  0  0  0  0  # atno 7974 bound_to 7965
  154.4811  140.2078  155.9762 H   0  0  0  0  0  0  0  0  0  0  0  0  # atno 8008 bound_to 7997
  156.1166  140.3220  155.8117 H   0  0  0  0  0  0  0  0  0  0  0  0  # atno 8009 bound_to 7997
  155.4542  140.0519  157.2988 H   0  0  0  0  0  0  0  0  0  0  0  0  # atno 8010 bound_to 7997
  139.9584  144.5978  150.8095 H   0  0  0  0  0  0  0  0  0  0  0  0  # atno 10167 bound_to 10162
  157.5026  130.8447  149.8335 H   0  0  0  0  0  0  0  0  0  0  0  0  # atno 10718 bound_to 10713
  153.4276  135.3796  155.2150 H   0  0  0  0  0  0  0  0  0  0  0  0  # atno 10763 bound_to 10752
  154.8748  135.3832  154.4307 H   0  0  0  0  0  0  0  0  0  0  0  0  # atno 10764 bound_to 10752
  153.4836  135.7088  153.5987 H   0  0  0  0  0  0  0  0  0  0  0  0  # atno 10765 bound_to 10752
  141.1566  133.6779  156.6691 H   0  0  0  0  0  0  0  0  0  0  0  0  # atno 11005 bound_to 11000
  145.7435  140.9999  143.1288 LP  0  0  0  0  0  0  0  0  0  0  0  0  # atno 17320 bound_to 7965
  144.6931  139.9128  143.7464 LP  0  0  0  0  0  0  0  0  0  0  0  0  # atno 17321 bound_to 7965
  140.7561  143.3059  151.2964 LP  0  0  0  0  0  0  0  0  0  0  0  0  # atno 17342 bound_to 10162
  139.6573  144.0253  152.2668 LP  0  0  0  0  0  0  0  0  0  0  0  0  # atno 17343 bound_to 10162
  156.0238  130.3786  150.1882 LP  0  0  0  0  0  0  0  0  0  0  0  0  # atno 17370 bound_to 10713
  157.0072  130.9940  151.3375 LP  0  0  0  0  0  0  0  0  0  0  0  0  # atno 17371 bound_to 10713
  140.3189  134.8024  157.4236 LP  0  0  0  0  0  0  0  0  0  0  0  0  # atno 17394 bound_to 11000
  140.1114  134.5340  155.8263 LP  0  0  0  0  0  0  0  0  0  0  0  0  # atno 17395 bound_to 11000

$$$$
