#       Name:                AV-unprocessed.smi:1843
#       Creating user name   scv26
#       Creation time:       Fri Mar 27 09:21:20 2020


#       File generated by GOLD software.
#

@<TRIPOS>MOLECULE
AV-unprocessed.smi:1843
    43    45     1
SMALL
NO_CHARGES


@<TRIPOS>ATOM
      1 ****         0.6830   0.7160   0.2291 O.2            1 S1                 0.0000
      2 ****         0.0141  -0.2419   0.6237 C.2            1 S1                 0.0000
      3 ****         0.4896  -1.4492   1.0046 N.pl3          1 S1                -1.0000
      4 ****         1.8078  -1.7006   0.9462 C.2            1 S1                 0.0000
      5 ****         2.5984  -1.6535   2.0276 N.2            1 S1                 0.0000
      6 ****         3.9239  -1.9520   1.7459 N.2            1 S1                 0.0000
      7 ****         4.1147  -2.2269   0.4535 C.2            1 S1                 0.0000
      8 ****         5.4551  -2.5756  -0.1015 C.3            1 S1                 0.0000
      9 ****         6.5178  -1.5158  -0.2802 C.3            1 S1                 0.0000
     10 ****         5.8731  -2.1427  -1.4899 C.3            1 S1                 0.0000
     11 ****         2.6620  -2.1477  -0.5298 S.3            1 S1                 0.0000
     12 ****        -1.3207  -0.1428   0.6973 N.am           1 S1                 0.0000
     13 ****        -2.1203   1.0284   0.3420 C.3            1 S1                 0.0000
     14 ****        -2.3567   1.0257  -1.1856 C.3            1 S1                 0.0000
     15 ****        -3.3353   2.1224  -1.6288 C.3            1 S1                 0.0000
     16 ****        -4.6689   2.0014  -0.8805 C.3            1 S1                 0.0000
     17 ****        -4.4437   2.0667   0.6356 C.3            1 S1                 0.0000
     18 ****        -3.4593   0.9825   1.1147 C.3            1 S1                 0.0000
     19 ****        -3.2195   1.2070   2.4898 O.3            1 S1                 0.0000
     20 ****         5.7679  -3.5603   0.2398 H              1 S1                 0.0000
     21 ****         6.2504  -0.4872  -0.0457 H              1 S1                 0.0000
     22 ****         7.5455  -1.7936  -0.0560 H              1 S1                 0.0000
     23 ****         6.4704  -2.8399  -2.0736 H              1 S1                 0.0000
     24 ****         5.1878  -1.5227  -2.0643 H              1 S1                 0.0000
     25 ****        -1.8247  -0.9545   1.0228 H              1 S1                 0.0000
     26 ****        -1.5885   1.9423   0.6150 H              1 S1                 0.0000
     27 ****        -1.4095   1.1501  -1.7119 H              1 S1                 0.0000
     28 ****        -2.7509   0.0560  -1.4929 H              1 S1                 0.0000
     29 ****        -2.8954   3.1032  -1.4434 H              1 S1                 0.0000
     30 ****        -3.5042   2.0562  -2.7038 H              1 S1                 0.0000
     31 ****        -5.3442   2.7988  -1.1913 H              1 S1                 0.0000
     32 ****        -5.1561   1.0612  -1.1416 H              1 S1                 0.0000
     33 ****        -4.0592   3.0546   0.8952 H              1 S1                 0.0000
     34 ****        -5.3974   1.9619   1.1545 H              1 S1                 0.0000
     35 ****        -3.9221   0.0015   0.9958 H              1 S1                 0.0000
     36 ****        -2.5849   0.5727   2.7879 H              1 S1                 0.0000
     37 ****         1.6782   0.6395   0.1680 LP             1 S1                 0.0000
     38 ****         0.2302   1.5692  -0.0298 LP             1 S1                 0.0000
     39 ****        -0.1401  -2.1548   1.3297 LP             1 S1                 0.0000
     40 ****         2.2670  -1.4266   2.9434 LP             1 S1                 0.0000
     41 ****         4.6518  -1.9603   2.4315 LP             1 S1                 0.0000
     42 ****        -4.0709   1.1005   3.0033 LP             1 S1                 0.0000
     43 ****        -2.8625   2.1313   2.6243 LP             1 S1                 0.0000
@<TRIPOS>BOND
    1    1    2 2     
    2    2    3 1     
    3    2   12 am    
    4    3    4 1     
    5    4   11 1     
    6    4    5 2     
    7    5    6 1     
    8    6    7 2     
    9    7    8 1     
   10    7   11 1     
   11    8   10 1     
   12    8    9 1     
   13    8   20 1     
   14    9   10 1     
   15    9   21 1     
   16    9   22 1     
   17   10   23 1     
   18   10   24 1     
   19   12   13 1     
   20   12   25 1     
   21   13   18 1     
   22   13   14 1     
   23   13   26 1     
   24   14   15 1     
   25   14   27 1     
   26   14   28 1     
   27   15   16 1     
   28   15   29 1     
   29   15   30 1     
   30   16   17 1     
   31   16   31 1     
   32   16   32 1     
   33   17   18 1     
   34   17   33 1     
   35   17   34 1     
   36   18   19 1     
   37   18   35 1     
   38   19   36 1     
   39    1   37 1     
   40    1   38 1     
   41    3   39 1     
   42    5   40 1     
   43    6   41 1     
   44   19   42 1     
   45   19   43 1     
@<TRIPOS>SUBSTRUCTURE
      1 S1             1
@<TRIPOS>SET
LONE_PAIRS      STATIC     ATOMS    <user>   **** ""
7 37 38 39 40 41 42 43
DONOR_HYDROGENS      STATIC     ATOMS    <user>   **** ""
2 25 36
ATOM$BLUE        STATIC     ATOMS    COLORGROUP SYSTEM
7 37 38 39 40 41 42 43
ATOM$RED        STATIC     ATOMS    COLORGROUP SYSTEM
2 25 36
