AV-unprocessed.smi:1296|AV-procd|sdf|5413|dock3
  -GOLD-   22720 4573D 1   1.00000     0.00000
 Structure written by MMmdl.
 36 36  0  0  0  0  0  0  0  0  1 V2000
  146.5480  138.3216  151.9396 C   0  0  0  0  0  0  0  0  0  0  0  0
  147.2240  139.3442  152.8282 C   0  0  0  0  0  0  0  0  0  0  0  0
  146.6593  140.4347  153.2310 N   0  0  0  0  0  0  0  0  0  0  0  0
  147.3877  141.3070  154.0520 C   0  0  0  0  0  0  0  0  0  0  0  0
  146.6556  142.5654  154.4850 C   0  0  0  0  0  0  0  0  0  0  0  0
  148.6707  141.0315  154.4291 C   0  0  0  0  0  0  0  0  0  0  0  0
  149.4916  141.9618  155.3219 C   0  0  0  0  0  0  0  0  0  0  0  0
  149.9608  141.3810  156.6589 C   0  0  0  0  0  0  0  0  0  0  0  0
  149.6488  140.2377  156.9933 O   0  0  0  0  0  0  0  0  0  0  0  0
  150.7145  142.1880  157.4181 N   0  0  0  0  0  0  0  0  0  0  0  0
  151.2568  141.8253  158.7212 C   0  0  0  0  0  0  0  0  0  0  0  0
  152.2592  142.8776  159.2329 C   0  0  0  0  0  0  0  0  0  0  0  0
  152.7914  142.5456  160.6381 C   0  0  0  0  0  0  0  0  0  0  0  0
  151.6357  144.2808  159.2083 C   0  0  0  0  0  0  0  0  0  0  0  0
  149.3044  139.7819  153.9658 C   0  0  0  0  0  0  0  0  0  0  0  0
  150.4485  139.4323  154.2515 O   0  0  0  0  0  0  0  0  0  0  0  0
  148.5291  139.0026  153.1789 N   0  0  0  0  0  0  0  0  0  0  0  0
  148.9173  138.1361  152.8362 H   0  0  0  0  0  0  0  0  0  0  0  0
  145.6560  137.9304  152.4294 H   0  0  0  0  0  0  0  0  0  0  0  0
  147.2090  137.4836  151.7138 H   0  0  0  0  0  0  0  0  0  0  0  0
  146.2480  138.7824  150.9983 H   0  0  0  0  0  0  0  0  0  0  0  0
  147.1381  143.4501  154.0693 H   0  0  0  0  0  0  0  0  0  0  0  0
  146.6465  142.6517  155.5717 H   0  0  0  0  0  0  0  0  0  0  0  0
  145.6196  142.5582  154.1440 H   0  0  0  0  0  0  0  0  0  0  0  0
  150.3652  142.3303  154.7829 H   0  0  0  0  0  0  0  0  0  0  0  0
  148.8993  142.8529  155.5308 H   0  0  0  0  0  0  0  0  0  0  0  0
  150.9272  143.1124  157.0720 H   0  0  0  0  0  0  0  0  0  0  0  0
  150.4311  141.7244  159.4275 H   0  0  0  0  0  0  0  0  0  0  0  0
  151.7391  140.8486  158.6543 H   0  0  0  0  0  0  0  0  0  0  0  0
  153.1104  142.8891  158.5506 H   0  0  0  0  0  0  0  0  0  0  0  0
  151.9803  142.4944  161.3652 H   0  0  0  0  0  0  0  0  0  0  0  0
  153.4955  143.3049  160.9795 H   0  0  0  0  0  0  0  0  0  0  0  0
  153.3144  141.5893  160.6560 H   0  0  0  0  0  0  0  0  0  0  0  0
  150.7823  144.3472  159.8839 H   0  0  0  0  0  0  0  0  0  0  0  0
  151.2889  144.5404  158.2078 H   0  0  0  0  0  0  0  0  0  0  0  0
  152.3595  145.0383  159.5103 H   0  0  0  0  0  0  0  0  0  0  0  0
  1  2  1  0  0  0  0
  1 19  1  0  0  0  0
  1 20  1  0  0  0  0
  1 21  1  0  0  0  0
  2 17  1  0  0  0  0
  2  3  2  0  0  0  0
  3  4  1  0  0  0  0
  4  5  1  0  0  0  0
  4  6  2  0  0  0  0
  5 22  1  0  0  0  0
  5 23  1  0  0  0  0
  5 24  1  0  0  0  0
  6  7  1  0  0  0  0
  6 15  1  0  0  0  0
  7  8  1  0  0  0  0
  7 25  1  0  0  0  0
  7 26  1  0  0  0  0
  8  9  2  0  0  0  0
  8 10  1  0  0  0  0
 10 11  1  0  0  0  0
 10 27  1  0  0  0  0
 11 12  1  0  0  0  0
 11 28  1  0  0  0  0
 11 29  1  0  0  0  0
 12 13  1  0  0  0  0
 12 14  1  0  0  0  0
 12 30  1  0  0  0  0
 13 31  1  0  0  0  0
 13 32  1  0  0  0  0
 13 33  1  0  0  0  0
 14 34  1  0  0  0  0
 14 35  1  0  0  0  0
 14 36  1  0  0  0  0
 15 16  2  0  0  0  0
 15 17  1  0  0  0  0
 17 18  1  0  0  0  0
M  END
> <s_m_source_file>
AV-unprocessed.smi

> <i_m_source_file_index>
1296

> <i_lp_mmshare_version>
43012

> <i_f3d_flags>
0

> <s_epik_input>
W0NIM11jMW5jKFtDSDNdKWMoYyg9TylbbkhdMSlbQ0gyXUMoPU8pW05IXVtDSDJdW0NIXShbQ0gzXSlbQ0gzXQ==

> <s_epik_cmdline>
J2VwaWtfcHl0aG9uJywgJy1waCcsICc3LjAnLCAnLXRuJywgJzgnLCAnLW1hJywgJzIwMCcsICctbWV0YWxfYmluZGluZycsICctaW1hZScsICc8aW5maWxlLm1hZT4nLCAnLW9tYWUnLCAnPG91dGZpbGUubWFlPic=

> <r_lp_tautomer_probability>
0.839158

> <r_epik_Ionization_Penalty>
0.000395354

> <r_epik_Ionization_Penalty_Charging>
0.00036358

> <r_epik_Ionization_Penalty_Neutral>
3.17744e-05

> <r_epik_State_Penalty>
0.047122

> <r_epik_Charging_Adjusted_Penalty>
0.0474856

> <i_epik_Tot_Q>
0

> <i_epik_Tot_abs_Q>
0

> <r_epik_Metal_State_Penalty>
0.225273

> <b_epik_Metal_Only>
0

> <s_lp_Force_Field>
OPLS_2005

> <r_lp_Energy>
6.44868

> <b_lp_Chiralities_Consistent>
1

> <s_lp_Variant>
AV-unprocessed.smi:1296-1

> <Gold.Version>
5.8.1

> <Gold.Id.Protein>
6NUR|6NUR_protein|mol2

> <Gold.PLP.Fitness>
42.0216

> <Gold.PLP.PLP>
-36.1285

> <Gold.PLP.part.hbond>
-2.9299

> <Gold.PLP.part.metal>
0.0000

> <Gold.PLP.part.buried>
2.9705

> <Gold.PLP.part.nonpolar>
-36.2712

> <Gold.PLP.part.repulsive>
0.5108

> <Gold.PLP.ligand.clash>
0.0000

> <Gold.PLP.ligand.torsion>
0.0594

> <Gold.PLP.Chemscore.Hbond>
2.0000

> <Gold.PLP.Chemscore.CHOScore>
0.0000

> <Gold.PLP.Chemscore.Metal>
0.0000

> <Gold.Chemscore.Hbonds>
donor molecule, donor type, donor heavy atom, donor atom, acceptor molecule, acceptor atom, score
      L1  H    17    18       P1  7948  0.80
      P1  H  7989  7998       L1    16  1.00

> <Gold.PLP.Chemscore.Internal.Correction>
0.0120

> <Gold.Rescore>
     Score         DG    S(hbond)    S(metal)    S(lipo)     H(rot)  DE(clash)    DE(int)     intcor
     14.12     -16.34       1.76        0.00      80.31       1.73       2.08       0.14       ----

> <Gold.Chemscore.Fitness>
14.1199

> <Gold.Chemscore.DG>
-16.3400

> <Gold.Chemscore.ZeroCoef>
-5.4800

> <Gold.Chemscore.Hbond>
1.7637

> <Gold.Chemscore.Metal>
0.0000

> <Gold.Chemscore.Lipo>
80.3143

> <Gold.Chemscore.Internal_Hbond>
0.0000

> <Gold.Chemscore.DEClash>
2.0791

> <Gold.Chemscore.DEInternal>
0.1411

> <Gold.Chemscore.Rot>
1.7296

> <Gold.Chemscore.Internal.Correction>
   9.000000E+99

> <Gold.Chemscore.Hbonds>
donor molecule, donor type, donor heavy atom, donor atom, acceptor molecule, acceptor atom, score
      L1  H    17    18       P1  7948  0.78
      P1  H  7989  7998       L1    16  0.48

> <Gold.Chemscore.Hbond.Weighted>
-5.8909

> <Gold.Chemscore.Metal.Weighted>
-0.0000

> <Gold.Chemscore.Lipo.Weighted>
-9.3968

> <Gold.Chemscore.Internal_Hbond.Weighted>
0.0000

> <Gold.Chemscore.DEClash.Weighted>
2.0791

> <Gold.Chemscore.DEInternal.Weighted>
0.1411

> <Gold.Chemscore.Rot.Weighted>
4.4277

> <Gold.Chemscore.Internal.Correction.Weighted>
   9.000000E+99

> <Gold.Protein.RotatedTorsions>
[ 6907 6896 6895 6894 ] final  -52.86 input  -60.11 | X-H torsion
[ 7974 7965 7964 7962 ] final  149.75 input  175.53 | X-H torsion
[ 8008 7997 7996 7995 ] final  -67.03 input   59.86 | X-H torsion
[ 10167 10162 10161 10158 ] final   75.29 input  -65.29 | X-H torsion
[ 10718 10713 10712 10709 ] final  111.29 input   66.30 | X-H torsion
[ 10763 10752 10751 10750 ] final  109.99 input  -60.55 | X-H torsion
[ 11005 11000 10999 10996 ] final  -10.74 input  -57.11 | X-H torsion

> <Gold.Protein.ActiveResidues>
 VAL166  LYS551  ARG553  GLY616  TRP617  ASP618  TYR619  PRO620  LYS621  CYS622 
 ASP623  PHE694  ASN695  SER759  ASP760  ASP761  ALA762  ILE779  LEU786  VAL792 
 PHE793  MET794  SER795  GLU796  ALA797  LYS798  CYS799  TRP800  GLU811  SER814 

> <Gold.Protein.RotatedAtoms>
  150.8479  134.7794  159.6984 H   0  0  0  0  0  0  0  0  0  0  0  0  # atno 6907 bound_to 6896
  152.4551  134.5306  159.9819 H   0  0  0  0  0  0  0  0  0  0  0  0  # atno 6908 bound_to 6896
  151.5432  133.3391  159.2975 H   0  0  0  0  0  0  0  0  0  0  0  0  # atno 6909 bound_to 6896
  144.8415  139.6320  143.6014 H   0  0  0  0  0  0  0  0  0  0  0  0  # atno 7974 bound_to 7965
  154.4773  140.0901  156.7292 H   0  0  0  0  0  0  0  0  0  0  0  0  # atno 8008 bound_to 7997
  155.4563  140.3459  155.4289 H   0  0  0  0  0  0  0  0  0  0  0  0  # atno 8009 bound_to 7997
  156.1136  140.1454  156.9292 H   0  0  0  0  0  0  0  0  0  0  0  0  # atno 8010 bound_to 7997
  140.0046  144.5660  150.7709 H   0  0  0  0  0  0  0  0  0  0  0  0  # atno 10167 bound_to 10162
  157.6452  131.0948  150.6728 H   0  0  0  0  0  0  0  0  0  0  0  0  # atno 10718 bound_to 10713
  153.4426  135.3762  155.2237 H   0  0  0  0  0  0  0  0  0  0  0  0  # atno 10763 bound_to 10752
  154.8754  135.3866  154.4134 H   0  0  0  0  0  0  0  0  0  0  0  0  # atno 10764 bound_to 10752
  153.4682  135.7087  153.6073 H   0  0  0  0  0  0  0  0  0  0  0  0  # atno 10765 bound_to 10752
  140.7480  133.8616  155.9021 H   0  0  0  0  0  0  0  0  0  0  0  0  # atno 11005 bound_to 11000
  146.2706  139.6627  142.9298 LP  0  0  0  0  0  0  0  0  0  0  0  0  # atno 17320 bound_to 7965
  145.4684  141.0435  143.2712 LP  0  0  0  0  0  0  0  0  0  0  0  0  # atno 17321 bound_to 7965
  140.7405  143.2806  151.3610 LP  0  0  0  0  0  0  0  0  0  0  0  0  # atno 17342 bound_to 10162
  139.6248  144.0837  152.2424 LP  0  0  0  0  0  0  0  0  0  0  0  0  # atno 17343 bound_to 10162
  156.7046  130.4633  149.5563 LP  0  0  0  0  0  0  0  0  0  0  0  0  # atno 17370 bound_to 10713
  156.1772  130.6475  151.0908 LP  0  0  0  0  0  0  0  0  0  0  0  0  # atno 17371 bound_to 10713
  140.9777  134.1447  157.4522 LP  0  0  0  0  0  0  0  0  0  0  0  0  # atno 17394 bound_to 11000
  139.8793  135.0000  156.5986 LP  0  0  0  0  0  0  0  0  0  0  0  0  # atno 17395 bound_to 11000

$$$$
