#       Name:                AV-unprocessed.smi:342
#       Creating user name   scv26
#       Creation time:       Thu Mar 26 22:31:15 2020


#       File generated by GOLD software.
#

@<TRIPOS>MOLECULE
AV-unprocessed.smi:342
    47    49     1
SMALL
NO_CHARGES


@<TRIPOS>ATOM
      1 ****        -0.4068   1.5080   0.8039 O.3            1 S1                 0.0000
      2 ****        -0.0142   0.5457  -0.1550 C.3            1 S1                 0.0000
      3 ****        -0.6298   0.9259  -1.5171 C.3            1 S1                 0.0000
      4 ****        -2.0828   0.7796  -1.6199 N.3            1 S1                 0.0000
      5 ****        -2.5842   1.4161  -2.8336 C.3            1 S1                 0.0000
      6 ****        -4.1103   1.2790  -2.9690 C.3            1 S1                 0.0000
      7 ****        -4.4670  -0.0988  -2.9443 O.3            1 S1                 0.0000
      8 ****        -4.0388  -0.7531  -1.7548 C.3            1 S1                 0.0000
      9 ****        -2.5129  -0.6182  -1.6081 C.3            1 S1                 0.0000
     10 ****         1.5254   0.4901  -0.2292 C.3            1 S1                 0.0000
     11 ****         2.1423   0.1594   1.0498 N.pl3          1 S1                 0.0000
     12 ****         2.8751   0.9568   1.8715 C.2            1 S1                 0.0000
     13 ****         3.1846   2.3907   1.5395 C.3            1 S1                 0.0000
     14 ****         3.8506   2.9780   2.5350 F              1 S1                 0.0000
     15 ****         3.9417   2.4638   0.4446 F              1 S1                 0.0000
     16 ****         2.0661   3.0863   1.3357 F              1 S1                 0.0000
     17 ****         3.3224   0.3749   2.9869 N.2            1 S1                 0.0000
     18 ****         2.8429  -0.9145   2.8764 C.ar           1 S1                 0.0000
     19 ****         2.9801  -2.0222   3.7431 C.ar           1 S1                 0.0000
     20 ****         2.4002  -3.2642   3.4115 C.ar           1 S1                 0.0000
     21 ****         1.6782  -3.4161   2.2102 C.ar           1 S1                 0.0000
     22 ****         1.5293  -2.3247   1.3331 C.ar           1 S1                 0.0000
     23 ****         2.1064  -1.0855   1.6711 C.ar           1 S1                 0.0000
     24 ****        -0.1172   2.3589   0.5125 H              1 S1                 0.0000
     25 ****        -0.3774  -0.4255   0.1754 H              1 S1                 0.0000
     26 ****        -0.3541   1.9593  -1.7338 H              1 S1                 0.0000
     27 ****        -0.1606   0.3279  -2.3000 H              1 S1                 0.0000
     28 ****        -2.3189   2.4740  -2.8336 H              1 S1                 0.0000
     29 ****        -2.1046   0.9747  -3.7086 H              1 S1                 0.0000
     30 ****        -4.6199   1.8095  -2.1630 H              1 S1                 0.0000
     31 ****        -4.4489   1.7188  -3.9071 H              1 S1                 0.0000
     32 ****        -4.5490  -0.3233  -0.8913 H              1 S1                 0.0000
     33 ****        -4.3233  -1.8043  -1.8043 H              1 S1                 0.0000
     34 ****        -2.0243  -1.1627  -2.4176 H              1 S1                 0.0000
     35 ****        -2.2143  -1.1034  -0.6802 H              1 S1                 0.0000
     36 ****         1.8323  -0.2670  -0.9516 H              1 S1                 0.0000
     37 ****         1.9203   1.4351  -0.5991 H              1 S1                 0.0000
     38 ****         3.5339  -1.9162   4.6641 H              1 S1                 0.0000
     39 ****         2.5115  -4.1043   4.0812 H              1 S1                 0.0000
     40 ****         1.2385  -4.3711   1.9621 H              1 S1                 0.0000
     41 ****         0.9771  -2.4394   0.4124 H              1 S1                 0.0000
     42 ****         0.0111   1.2940   1.6868 LP             1 S1                 0.0000
     43 ****        -1.4025   1.5045   0.8968 LP             1 S1                 0.0000
     44 ****        -2.4633   1.2297  -0.8120 LP             1 S1                 0.0000
     45 ****        -4.0456  -0.5529  -3.7292 LP             1 S1                 0.0000
     46 ****        -5.4620  -0.1734  -3.0106 LP             1 S1                 0.0000
     47 ****         3.8702   0.7750   3.7217 LP             1 S1                 0.0000
@<TRIPOS>BOND
    1    1    2 1     
    2    1   24 1     
    3    2    3 1     
    4    2   10 1     
    5    2   25 1     
    6    3    4 1     
    7    3   26 1     
    8    3   27 1     
    9    4    9 1     
   10    4    5 1     
   11    5    6 1     
   12    5   28 1     
   13    5   29 1     
   14    6    7 1     
   15    6   30 1     
   16    6   31 1     
   17    7    8 1     
   18    8    9 1     
   19    8   32 1     
   20    8   33 1     
   21    9   34 1     
   22    9   35 1     
   23   10   11 1     
   24   10   36 1     
   25   10   37 1     
   26   11   23 1     
   27   11   12 1     
   28   12   13 1     
   29   12   17 2     
   30   13   14 1     
   31   13   15 1     
   32   13   16 1     
   33   17   18 1     
   34   18   23 ar    
   35   18   19 ar    
   36   19   20 ar    
   37   19   38 1     
   38   20   21 ar    
   39   20   39 1     
   40   21   22 ar    
   41   21   40 1     
   42   22   23 ar    
   43   22   41 1     
   44    1   42 1     
   45    1   43 1     
   46    4   44 1     
   47    7   45 1     
   48    7   46 1     
   49   17   47 1     
@<TRIPOS>SUBSTRUCTURE
      1 S1             1
@<TRIPOS>SET
LONE_PAIRS      STATIC     ATOMS    <user>   **** ""
6 42 43 44 45 46 47
DONOR_HYDROGENS      STATIC     ATOMS    <user>   **** ""
1 24
ATOM$BLUE        STATIC     ATOMS    COLORGROUP SYSTEM
6 42 43 44 45 46 47
ATOM$RED        STATIC     ATOMS    COLORGROUP SYSTEM
1 24
