#       Name:                AV-unprocessed.smi:55
#       Creating user name   scv26
#       Creation time:       Thu Mar 26 16:48:02 2020


#       File generated by GOLD software.
#

@<TRIPOS>MOLECULE
AV-unprocessed.smi:55
    41    42     1
SMALL
NO_CHARGES


@<TRIPOS>ATOM
      1 ****        -3.2591   1.7178  -0.0717 C.3            1 S1                 0.0000
      2 ****        -2.6493   0.3566   0.2140 C.2            1 S1                 0.0000
      3 ****        -1.3167   0.1775   0.3500 C.2            1 S1                 0.0000
      4 ****        -0.7642  -1.0649   0.6099 N.am           1 S1                 0.0000
      5 ****         0.7335  -1.2444   0.7490 C.3            1 S1                 0.0000
      6 ****         1.3468  -1.6555  -0.5919 C.3            1 S1                 0.0000
      7 ****         1.8215  -0.3238  -1.1346 C.3            1 S1                 0.0000
      8 ****         2.8783  -0.5019  -2.0554 O.3            1 S1                 0.0000
      9 ****         2.2704   0.3907   0.1425 C.3            1 S1                 0.0000
     10 ****         2.2737   1.9227   0.0237 C.3            1 S1                 0.0000
     11 ****         3.0452   2.4858   1.0628 O.3            1 S1                 0.0000
     12 ****         1.3167  -0.0270   1.1196 O.3            1 S1                 0.0000
     13 ****        -1.6119  -2.1989   0.7170 C.2            1 S1                 0.0000
     14 ****        -1.0895  -3.2961   0.9153 O.2            1 S1                 0.0000
     15 ****        -2.9584  -2.0271   0.5881 N.pl3          1 S1                -1.0000
     16 ****        -3.5280  -0.8116   0.3468 C.2            1 S1                 0.0000
     17 ****        -4.7455  -0.6700   0.2371 O.2            1 S1                 0.0000
     18 ****         0.8800  -1.9747   1.5461 H              1 S1                 0.0000
     19 ****         0.9941   0.2073  -1.6076 H              1 S1                 0.0000
     20 ****         3.2536   0.0177   0.4372 H              1 S1                 0.0000
     21 ****        -2.4912   2.4875  -0.1534 H              1 S1                 0.0000
     22 ****        -3.9410   2.0046   0.7294 H              1 S1                 0.0000
     23 ****        -3.8170   1.6965  -1.0083 H              1 S1                 0.0000
     24 ****        -0.6714   1.0354   0.2464 H              1 S1                 0.0000
     25 ****         2.1887  -2.3197  -0.3903 H              1 S1                 0.0000
     26 ****         0.6362  -2.1735  -1.2373 H              1 S1                 0.0000
     27 ****         2.5532  -0.9984  -2.7911 H              1 S1                 0.0000
     28 ****         2.7280   2.2242  -0.9204 H              1 S1                 0.0000
     29 ****         1.2627   2.3294   0.0397 H              1 S1                 0.0000
     30 ****         2.6609   2.2328   1.8885 H              1 S1                 0.0000
     31 ****         3.6275  -0.9987  -1.6175 LP             1 S1                 0.0000
     32 ****         3.2072   0.3892  -2.3683 LP             1 S1                 0.0000
     33 ****         3.0459   3.4825   0.9814 LP             1 S1                 0.0000
     34 ****         3.9843   2.1464   1.0087 LP             1 S1                 0.0000
     35 ****         1.7759  -0.1373   2.0010 LP             1 S1                 0.0000
     36 ****         0.6027   0.6685   1.2004 LP             1 S1                 0.0000
     37 ****        -0.0955  -3.3693   0.9961 LP             1 S1                 0.0000
     38 ****        -1.6593  -4.1140   0.9954 LP             1 S1                 0.0000
     39 ****        -3.5535  -2.8261   0.6741 LP             1 S1                 0.0000
     40 ****        -5.1295   0.2360   0.0588 LP             1 S1                 0.0000
     41 ****        -5.3509  -1.4609   0.3262 LP             1 S1                 0.0000
@<TRIPOS>BOND
    1    1    2 1     
    2    1   21 1     
    3    1   22 1     
    4    1   23 1     
    5    2   16 1     
    6    2    3 2     
    7    3    4 1     
    8    3   24 1     
    9    4    5 1     
   10    4   13 am    
   11    5   18 1     
   12    5   12 1     
   13    5    6 1     
   14    6    7 1     
   15    6   25 1     
   16    6   26 1     
   17    7   19 1     
   18    7    8 1     
   19    7    9 1     
   20    8   27 1     
   21    9   20 1     
   22    9   10 1     
   23    9   12 1     
   24   10   11 1     
   25   10   28 1     
   26   10   29 1     
   27   11   30 1     
   28   13   14 2     
   29   13   15 1     
   30   15   16 1     
   31   16   17 2     
   32    8   31 1     
   33    8   32 1     
   34   11   33 1     
   35   11   34 1     
   36   12   35 1     
   37   12   36 1     
   38   14   37 1     
   39   14   38 1     
   40   15   39 1     
   41   17   40 1     
   42   17   41 1     
@<TRIPOS>SUBSTRUCTURE
      1 S1             1
@<TRIPOS>SET
LONE_PAIRS      STATIC     ATOMS    <user>   **** ""
11 31 32 33 34 35 36 37 38 39 40 41
DONOR_HYDROGENS      STATIC     ATOMS    <user>   **** ""
2 27 30
ATOM$BLUE        STATIC     ATOMS    COLORGROUP SYSTEM
11 31 32 33 34 35 36 37 38 39 40 41
ATOM$RED        STATIC     ATOMS    COLORGROUP SYSTEM
2 27 30
