#       Name:                AV-unprocessed.smi:107
#       Creating user name   scv26
#       Creation time:       Thu Mar 26 18:01:22 2020


#       File generated by GOLD software.
#

@<TRIPOS>MOLECULE
AV-unprocessed.smi:107
    41    42     1
SMALL
NO_CHARGES


@<TRIPOS>ATOM
      1 ****        -3.5532   1.7585  -0.1288 C.3            1 S1                 0.0000
      2 ****        -2.8979   0.3881  -0.1732 C.2            1 S1                 0.0000
      3 ****        -1.5507   0.2244  -0.1387 C.2            1 S1                 0.0000
      4 ****        -0.9223  -1.0124  -0.1767 N.am           1 S1                 0.0000
      5 ****         0.5852  -1.1235  -0.1375 C.3            1 S1                 0.0000
      6 ****         1.1097  -0.9506   1.2918 C.3            1 S1                 0.0000
      7 ****         2.3618  -0.1238   1.0761 C.3            1 S1                 0.0000
      8 ****         3.4741  -0.9610   0.8201 O.3            1 S1                 0.0000
      9 ****         1.9789   0.7289  -0.1421 C.3            1 S1                 0.0000
     10 ****         3.1333   1.2968  -0.9859 C.3            1 S1                 0.0000
     11 ****         3.8834   2.2238  -0.2300 O.3            1 S1                 0.0000
     12 ****         1.1362  -0.1104  -0.9284 O.3            1 S1                 0.0000
     13 ****        -1.7065  -2.1836  -0.2338 C.2            1 S1                 0.0000
     14 ****        -1.2250  -3.3158  -0.2415 O.2            1 S1                 0.0000
     15 ****        -3.0898  -2.0165  -0.2732 N.am           1 S1                 0.0000
     16 ****        -3.7626  -0.7923  -0.2512 C.2            1 S1                 0.0000
     17 ****        -4.9917  -0.7737  -0.2932 O.2            1 S1                 0.0000
     18 ****        -3.6548  -2.8522  -0.3176 H              1 S1                 0.0000
     19 ****        -2.8143   2.5584  -0.0734 H              1 S1                 0.0000
     20 ****        -4.2024   1.8419   0.7435 H              1 S1                 0.0000
     21 ****        -4.1565   1.9220  -1.0225 H              1 S1                 0.0000
     22 ****        -0.9365   1.1096  -0.0733 H              1 S1                 0.0000
     23 ****         0.8687  -2.0759  -0.5876 H              1 S1                 0.0000
     24 ****         0.3884  -0.3836   1.8823 H              1 S1                 0.0000
     25 ****         1.2790  -1.9136   1.7751 H              1 S1                 0.0000
     26 ****         2.5921   0.4948   1.9440 H              1 S1                 0.0000
     27 ****         4.2305  -0.4149   0.6671 H              1 S1                 0.0000
     28 ****         1.3592   1.5570   0.2050 H              1 S1                 0.0000
     29 ****         3.7870   0.5071  -1.3565 H              1 S1                 0.0000
     30 ****         2.7341   1.8128  -1.8594 H              1 S1                 0.0000
     31 ****         4.5637   2.5800  -0.7811 H              1 S1                 0.0000
     32 ****         3.2947  -1.5232   0.0128 LP             1 S1                 0.0000
     33 ****         3.6393  -1.5533   1.6087 LP             1 S1                 0.0000
     34 ****         4.2936   1.7635   0.5573 LP             1 S1                 0.0000
     35 ****         3.2868   2.9606   0.0883 LP             1 S1                 0.0000
     36 ****         0.3988   0.4385  -1.3220 LP             1 S1                 0.0000
     37 ****         1.6744  -0.5221  -1.6638 LP             1 S1                 0.0000
     38 ****        -0.2331  -3.4375  -0.2063 LP             1 S1                 0.0000
     39 ****        -1.8256  -4.1143  -0.2829 LP             1 S1                 0.0000
     40 ****        -5.4795   0.0991  -0.2747 LP             1 S1                 0.0000
     41 ****        -5.5033  -1.6314  -0.3458 LP             1 S1                 0.0000
@<TRIPOS>BOND
    1    1    2 1     
    2    1   19 1     
    3    1   20 1     
    4    1   21 1     
    5    2   16 1     
    6    2    3 2     
    7    3    4 1     
    8    3   22 1     
    9    4    5 1     
   10    4   13 1     
   11    5   12 1     
   12    5    6 1     
   13    5   23 1     
   14    6    7 1     
   15    6   24 1     
   16    6   25 1     
   17    7    8 1     
   18    7    9 1     
   19    7   26 1     
   20    8   27 1     
   21    9   10 1     
   22    9   12 1     
   23    9   28 1     
   24   10   11 1     
   25   10   29 1     
   26   10   30 1     
   27   11   31 1     
   28   13   14 2     
   29   13   15 1     
   30   15   18 1     
   31   15   16 1     
   32   16   17 2     
   33    8   32 1     
   34    8   33 1     
   35   11   34 1     
   36   11   35 1     
   37   12   36 1     
   38   12   37 1     
   39   14   38 1     
   40   14   39 1     
   41   17   40 1     
   42   17   41 1     
@<TRIPOS>SUBSTRUCTURE
      1 S1             1
@<TRIPOS>SET
LONE_PAIRS      STATIC     ATOMS    <user>   **** ""
10 32 33 34 35 36 37 38 39 40 41
DONOR_HYDROGENS      STATIC     ATOMS    <user>   **** ""
3 27 31 18
ATOM$BLUE        STATIC     ATOMS    COLORGROUP SYSTEM
10 32 33 34 35 36 37 38 39 40 41
ATOM$RED        STATIC     ATOMS    COLORGROUP SYSTEM
3 27 31 18
