AV-unprocessed.smi:2154|AV-procd|sdf|8773|dock10
  -GOLD-   2272011553D 1   1.00000     0.00000
 Structure written by MMmdl.
 32 33  0  0  0  0  0  0  0  0  1 V2000
  151.7410  145.4521  159.9079 C   0  0  0  0  0  0  0  0  0  0  0  0
  152.2597  144.4902  158.8610 C   0  0  1  0  0  0  0  0  0  0  0  0
  152.9848  143.2278  159.2678 C   0  0  0  0  0  0  0  0  0  0  0  0
  151.6045  143.1419  158.6605 C   0  0  2  0  0  0  0  0  0  0  0  0
  151.4142  142.5622  157.2715 C   0  0  0  0  0  0  0  0  0  0  0  0
  150.0683  142.0837  156.9847 N   0  0  0  0  0  0  0  0  0  0  0  0
  149.7114  141.3979  155.8883 C   0  0  0  0  0  0  0  0  0  0  0  0
  150.5060  141.0893  154.9988 O   0  0  0  0  0  0  0  0  0  0  0  0
  148.2357  140.9823  155.8031 C   0  0  0  0  0  0  0  0  0  0  0  0
  147.8838  140.3641  154.5164 N   0  0  0  0  0  0  0  0  0  0  0  0
  146.9661  140.9750  153.6736 C   0  0  0  0  0  0  0  0  0  0  0  0
  146.5895  140.4570  152.4805 C   0  0  0  0  0  0  0  0  0  0  0  0
  147.1494  139.1931  152.0142 C   0  0  0  0  0  0  0  0  0  0  0  0
  146.8733  138.6451  150.9494 O   0  0  0  0  0  0  0  0  0  0  0  0
  148.0665  138.6080  152.8914 N   0  0  0  0  0  0  0  0  0  0  0  0
  148.4574  139.1353  154.1230 C   0  0  0  0  0  0  0  0  0  0  0  0
  149.2718  138.5340  154.8224 O   0  0  0  0  0  0  0  0  0  0  0  0
  148.4785  137.7294  152.6124 H   0  0  0  0  0  0  0  0  0  0  0  0
  151.3848  144.9138  160.7869 H   0  0  0  0  0  0  0  0  0  0  0  0
  150.9163  146.0374  159.5015 H   0  0  0  0  0  0  0  0  0  0  0  0
  152.5339  146.1340  160.2153 H   0  0  0  0  0  0  0  0  0  0  0  0
  152.6302  144.9828  157.9640 H   0  0  0  0  0  0  0  0  0  0  0  0
  153.8295  142.9172  158.6559 H   0  0  0  0  0  0  0  0  0  0  0  0
  153.0778  143.0153  160.3308 H   0  0  0  0  0  0  0  0  0  0  0  0
  150.8093  142.8804  159.3564 H   0  0  0  0  0  0  0  0  0  0  0  0
  151.6683  143.3198  156.5292 H   0  0  0  0  0  0  0  0  0  0  0  0
  152.1279  141.7487  157.1319 H   0  0  0  0  0  0  0  0  0  0  0  0
  149.3546  142.2908  157.6682 H   0  0  0  0  0  0  0  0  0  0  0  0
  148.0310  140.2911  156.6220 H   0  0  0  0  0  0  0  0  0  0  0  0
  147.5970  141.8481  155.9908 H   0  0  0  0  0  0  0  0  0  0  0  0
  146.5218  141.9112  153.9801 H   0  0  0  0  0  0  0  0  0  0  0  0
  145.8691  140.9802  151.8684 H   0  0  0  0  0  0  0  0  0  0  0  0
  1  2  1  0  0  0  0
  1 19  1  0  0  0  0
  1 20  1  0  0  0  0
  1 21  1  0  0  0  0
  2  4  1  0  0  0  0
  2  3  1  0  0  0  0
  2 22  1  0  0  0  0
  3  4  1  0  0  0  0
  3 23  1  0  0  0  0
  3 24  1  0  0  0  0
  4  5  1  0  0  0  0
  4 25  1  0  0  0  0
  5  6  1  0  0  0  0
  5 26  1  0  0  0  0
  5 27  1  0  0  0  0
  6  7  1  0  0  0  0
  6 28  1  0  0  0  0
  7  8  2  0  0  0  0
  7  9  1  0  0  0  0
  9 10  1  0  0  0  0
  9 29  1  0  0  0  0
  9 30  1  0  0  0  0
 10 16  1  0  0  0  0
 10 11  1  0  0  0  0
 11 12  2  0  0  0  0
 11 31  1  0  0  0  0
 12 13  1  0  0  0  0
 12 32  1  0  0  0  0
 13 14  2  0  0  0  0
 13 15  1  0  0  0  0
 15 18  1  0  0  0  0
 15 16  1  0  0  0  0
 16 17  2  0  0  0  0
M  END
> <s_m_source_file>
AV-unprocessed.smi

> <i_m_source_file_index>
2154

> <i_lp_mmshare_version>
43012

> <i_f3d_flags>
0

> <s_epik_input>
W0NIM11bQ0BASF0xW0NIMl1bQ0BIXTFbQ0gyXVtOSF1DKD1PKVtDSDJdbjJbY0hdW2NIXWMoPU8pW25IXWMyPU8=

> <s_epik_cmdline>
J2VwaWtfcHl0aG9uJywgJy1waCcsICc3LjAnLCAnLXRuJywgJzgnLCAnLW1hJywgJzIwMCcsICctbWV0YWxfYmluZGluZycsICctaW1hZScsICc8aW5maWxlLm1hZT4nLCAnLW9tYWUnLCAnPG91dGZpbGUubWFlPic=

> <r_lp_tautomer_probability>
0.999537

> <r_epik_Ionization_Penalty>
0.00305319

> <r_epik_Ionization_Penalty_Charging>
0.00305317

> <r_epik_Ionization_Penalty_Neutral>
2.06703e-08

> <r_epik_State_Penalty>
0.00214626

> <r_epik_Charging_Adjusted_Penalty>
0.00519944

> <i_epik_Tot_Q>
0

> <i_epik_Tot_abs_Q>
0

> <r_epik_Metal_State_Penalty>
0.361976

> <b_epik_Metal_Only>
0

> <s_lp_Force_Field>
OPLS_2005

> <r_lp_Energy>
14.6752

> <b_lp_Chiralities_Consistent>
1

> <s_lp_Variant>
AV-unprocessed.smi:2154-4

> <Gold.Version>
5.8.1

> <Gold.Id.Protein>
6NUR|6NUR_protein|mol2

> <Gold.PLP.Fitness>
41.1213

> <Gold.PLP.PLP>
-33.4661

> <Gold.PLP.part.hbond>
-4.8672

> <Gold.PLP.part.metal>
0.0000

> <Gold.PLP.part.buried>
-0.0460

> <Gold.PLP.part.nonpolar>
-30.4864

> <Gold.PLP.part.repulsive>
0.6609

> <Gold.PLP.ligand.clash>
0.0000

> <Gold.PLP.ligand.torsion>
0.5483

> <Gold.PLP.Chemscore.Hbond>
2.7360

> <Gold.PLP.Chemscore.CHOScore>
0.0000

> <Gold.PLP.Chemscore.Metal>
0.0000

> <Gold.Chemscore.Hbonds>
donor molecule, donor type, donor heavy atom, donor atom, acceptor molecule, acceptor atom, score
      L1  H    15    18       P1  7948  1.00
      P1  H  7954  7966       L1    14  0.96
      P1  H  7989  7998       L1     8  0.67

> <Gold.PLP.Chemscore.Internal.Correction>
0.5438

> <Gold.Rescore>
     Score         DG    S(hbond)    S(metal)    S(lipo)     H(rot)  DE(clash)    DE(int)     intcor
     15.75     -17.91       2.48        0.00      79.26       2.01       1.49       0.67       ----

> <Gold.Chemscore.Fitness>
15.7475

> <Gold.Chemscore.DG>
-17.9135

> <Gold.Chemscore.ZeroCoef>
-5.4800

> <Gold.Chemscore.Hbond>
2.4840

> <Gold.Chemscore.Metal>
0.0000

> <Gold.Chemscore.Lipo>
79.2596

> <Gold.Chemscore.Internal_Hbond>
0.0000

> <Gold.Chemscore.DEClash>
1.4937

> <Gold.Chemscore.DEInternal>
0.6723

> <Gold.Chemscore.Rot>
2.0065

> <Gold.Chemscore.Internal.Correction>
   9.000000E+99

> <Gold.Chemscore.Hbonds>
donor molecule, donor type, donor heavy atom, donor atom, acceptor molecule, acceptor atom, score
      L1  H    15    18       P1  7948  1.00
      P1  H  7954  7966       L1    14  0.91
      P1  H  7989  7998       L1     8  0.66

> <Gold.Chemscore.Hbond.Weighted>
-8.2967

> <Gold.Chemscore.Metal.Weighted>
-0.0000

> <Gold.Chemscore.Lipo.Weighted>
-9.2734

> <Gold.Chemscore.Internal_Hbond.Weighted>
0.0000

> <Gold.Chemscore.DEClash.Weighted>
1.4937

> <Gold.Chemscore.DEInternal.Weighted>
0.6723

> <Gold.Chemscore.Rot.Weighted>
5.1366

> <Gold.Chemscore.Internal.Correction.Weighted>
   9.000000E+99

> <Gold.Protein.RotatedTorsions>
[ 6907 6896 6895 6894 ] final  113.84 input  -60.11 | X-H torsion
[ 7974 7965 7964 7962 ] final   46.93 input  175.53 | X-H torsion
[ 8008 7997 7996 7995 ] final   42.75 input   59.86 | X-H torsion
[ 10167 10162 10161 10158 ] final -119.41 input  -65.29 | X-H torsion
[ 10718 10713 10712 10709 ] final  109.36 input   66.30 | X-H torsion
[ 10763 10752 10751 10750 ] final   11.82 input  -60.55 | X-H torsion
[ 11005 11000 10999 10996 ] final -124.30 input  -57.11 | X-H torsion

> <Gold.Protein.ActiveResidues>
 VAL166  LYS551  ARG553  GLY616  TRP617  ASP618  TYR619  PRO620  LYS621  CYS622 
 ASP623  PHE694  ASN695  SER759  ASP760  ASP761  ALA762  ILE779  LEU786  VAL792 
 PHE793  MET794  SER795  GLU796  ALA797  LYS798  CYS799  TRP800  GLU811  SER814 

> <Gold.Protein.RotatedAtoms>
  152.4837  133.8319  159.7107 H   0  0  0  0  0  0  0  0  0  0  0  0  # atno 6907 bound_to 6896
  150.8907  133.7238  159.2912 H   0  0  0  0  0  0  0  0  0  0  0  0  # atno 6908 bound_to 6896
  151.4712  135.1049  159.9804 H   0  0  0  0  0  0  0  0  0  0  0  0  # atno 6909 bound_to 6896
  146.0344  139.4803  142.9817 H   0  0  0  0  0  0  0  0  0  0  0  0  # atno 7974 bound_to 7965
  155.2913  140.3379  155.4252 H   0  0  0  0  0  0  0  0  0  0  0  0  # atno 8008 bound_to 7997
  156.2044  140.1745  156.7870 H   0  0  0  0  0  0  0  0  0  0  0  0  # atno 8009 bound_to 7997
  154.5602  140.0689  156.8790 H   0  0  0  0  0  0  0  0  0  0  0  0  # atno 8010 bound_to 7997
  140.0469  143.5098  152.2101 H   0  0  0  0  0  0  0  0  0  0  0  0  # atno 10167 bound_to 10162
  157.6545  131.0912  150.6442 H   0  0  0  0  0  0  0  0  0  0  0  0  # atno 10718 bound_to 10713
  153.1886  135.6839  153.8382 H   0  0  0  0  0  0  0  0  0  0  0  0  # atno 10763 bound_to 10752
  153.7689  135.3199  155.3350 H   0  0  0  0  0  0  0  0  0  0  0  0  # atno 10764 bound_to 10752
  154.8104  135.4721  154.0598 H   0  0  0  0  0  0  0  0  0  0  0  0  # atno 10765 bound_to 10752
  140.9852  134.0617  157.3719 H   0  0  0  0  0  0  0  0  0  0  0  0  # atno 11005 bound_to 11000
  145.6987  141.0142  143.1516 LP  0  0  0  0  0  0  0  0  0  0  0  0  # atno 17320 bound_to 7965
  144.7045  139.8619  143.7434 LP  0  0  0  0  0  0  0  0  0  0  0  0  # atno 17321 bound_to 7965
  139.5977  144.7572  151.3245 LP  0  0  0  0  0  0  0  0  0  0  0  0  # atno 17342 bound_to 10162
  140.7234  143.7071  150.7799 LP  0  0  0  0  0  0  0  0  0  0  0  0  # atno 17343 bound_to 10162
  156.6750  130.4550  149.5645 LP  0  0  0  0  0  0  0  0  0  0  0  0  # atno 17370 bound_to 10713
  156.1970  130.6596  151.1125 LP  0  0  0  0  0  0  0  0  0  0  0  0  # atno 17371 bound_to 10713
  139.8967  135.0147  156.7066 LP  0  0  0  0  0  0  0  0  0  0  0  0  # atno 17394 bound_to 11000
  140.7125  133.9211  155.8094 LP  0  0  0  0  0  0  0  0  0  0  0  0  # atno 17395 bound_to 11000

$$$$
