AV-unprocessed.smi:985|AV-procd|sdf|4318|dock6
  -GOLD-   22720 2223D 1   1.00000     0.00000
 Structure written by MMmdl.
 26 27  0  0  0  0  0  0  0  0  2 V2000
  150.5595  137.4998  159.1836 C   0  0  0  0  0  0  0  0  0  0  0  0
  151.3597  138.6941  158.7911 C   0  0  0  0  0  0  0  0  0  0  0  0
  151.0097  139.9728  158.9073 N   0  0  0  0  0  0  0  0  0  0  0  0
  152.1122  140.5940  158.4020 C   0  0  0  0  0  0  0  0  0  0  0  0
  152.2349  142.0837  158.2999 C   0  0  2  0  0  0  0  0  0  0  0  0
  152.2682  142.7608  159.6832 C   0  0  0  0  0  0  0  0  0  0  0  0
  152.3820  144.2856  159.5312 C   0  0  0  0  0  0  0  0  0  0  0  0
  151.2705  144.8334  158.6201 C   0  0  0  0  0  0  0  0  0  0  0  0
  151.2971  144.1637  157.3015 N   0  3  0  0  0  0  0  0  0  0  0  0
  151.1459  142.6943  157.3943 C   0  0  0  0  0  0  0  0  0  0  0  0
  153.0874  139.7932  157.9886 N   0  0  0  0  0  0  0  0  0  0  0  0
  152.5869  138.5094  158.2495 O   0  0  0  0  0  0  0  0  0  0  0  0
  149.5963  137.8047  159.5939 H   0  0  0  0  0  0  0  0  0  0  0  0
  151.0947  136.9230  159.9380 H   0  0  0  0  0  0  0  0  0  0  0  0
  150.3849  136.8650  158.3148 H   0  0  0  0  0  0  0  0  0  0  0  0
  153.1946  142.2949  157.8238 H   0  0  0  0  0  0  0  0  0  0  0  0
  151.3606  142.5198  160.2386 H   0  0  0  0  0  0  0  0  0  0  0  0
  153.1044  142.3810  160.2715 H   0  0  0  0  0  0  0  0  0  0  0  0
  152.3314  144.7624  160.5104 H   0  0  0  0  0  0  0  0  0  0  0  0
  153.3568  144.5408  159.1133 H   0  0  0  0  0  0  0  0  0  0  0  0
  150.2928  144.6851  159.0808 H   0  0  0  0  0  0  0  0  0  0  0  0
  151.3953  145.9068  158.4759 H   0  0  0  0  0  0  0  0  0  0  0  0
  150.5510  144.5343  156.7302 H   0  0  0  0  0  0  0  0  0  0  0  0
  151.2027  142.2707  156.3909 H   0  0  0  0  0  0  0  0  0  0  0  0
  150.1518  142.4655  157.7815 H   0  0  0  0  0  0  0  0  0  0  0  0
  152.1803  144.3686  156.8563 H   0  0  0  0  0  0  0  0  0  0  0  0
  1  2  1  0  0  0  0
  1 13  1  0  0  0  0
  1 14  1  0  0  0  0
  1 15  1  0  0  0  0
  2 12  1  0  0  0  0
  2  3  2  0  0  0  0
  3  4  1  0  0  0  0
  4  5  1  0  0  0  0
  4 11  2  0  0  0  0
  5 10  1  0  0  0  0
  5  6  1  0  0  0  0
  5 16  1  0  0  0  0
  6  7  1  0  0  0  0
  6 17  1  0  0  0  0
  6 18  1  0  0  0  0
  7  8  1  0  0  0  0
  7 19  1  0  0  0  0
  7 20  1  0  0  0  0
  8  9  1  0  0  0  0
  8 21  1  0  0  0  0
  8 22  1  0  0  0  0
  9 10  1  0  0  0  0
  9 23  1  0  0  0  0
  9 26  1  0  0  0  0
 10 24  1  0  0  0  0
 10 25  1  0  0  0  0
 11 12  1  0  0  0  0
M  CHG  1   9   1
M  END
> <s_m_source_file>
AV-unprocessed.smi

> <i_m_source_file_index>
985

> <i_lp_mmshare_version>
43012

> <i_f3d_flags>
0

> <s_epik_input>
W0NIM11jMW5jKG5vMSlbQ0BASF0yW0NIMl1bQ0gyXVtDSDJdW05IXVtDSDJdMg==

> <s_epik_cmdline>
J2VwaWtfcHl0aG9uJywgJy1waCcsICc3LjAnLCAnLXRuJywgJzgnLCAnLW1hJywgJzIwMCcsICctbWV0YWxfYmluZGluZycsICctaW1hZScsICc8aW5maWxlLm1hZT4nLCAnLW9tYWUnLCAnPG91dGZpbGUubWFlPic=

> <r_lp_tautomer_probability>
1

> <r_epik_Ionization_Penalty>
0.000532935

> <r_epik_Ionization_Penalty_Charging>
0.000532935

> <r_epik_Ionization_Penalty_Neutral>
3.88228e-13

> <r_epik_State_Penalty>
0.000332992

> <r_epik_Charging_Adjusted_Penalty>
0.000865928

> <i_epik_Tot_Q>
1

> <i_epik_Tot_abs_Q>
1

> <r_epik_Metal_State_Penalty>
-0

> <b_epik_Metal_Only>
0

> <s_lp_Force_Field>
OPLS_2005

> <r_lp_Energy>
6.62541

> <b_lp_Chiralities_Consistent>
1

> <s_lp_Variant>
AV-unprocessed.smi:985-1

> <Gold.Version>
5.8.1

> <Gold.Id.Protein>
6NUR|6NUR_protein|mol2

> <Gold.PLP.Fitness>
33.5135

> <Gold.PLP.PLP>
-24.5322

> <Gold.PLP.part.hbond>
-2.0000

> <Gold.PLP.part.metal>
0.0000

> <Gold.PLP.part.buried>
-4.1913

> <Gold.PLP.part.nonpolar>
-18.0494

> <Gold.PLP.part.repulsive>
0.0253

> <Gold.PLP.ligand.clash>
0.0000

> <Gold.PLP.ligand.torsion>
0.0310

> <Gold.PLP.Chemscore.Hbond>
3.0000

> <Gold.PLP.Chemscore.CHOScore>
0.0000

> <Gold.PLP.Chemscore.Metal>
0.0000

> <Gold.Chemscore.Hbonds>
donor molecule, donor type, donor heavy atom, donor atom, acceptor molecule, acceptor atom, score
      L1  H     9    23       P1  8028  2.00
      P1  H  7997  8010       L1    11  1.00

> <Gold.PLP.Chemscore.Internal.Correction>
0.0432

> <Gold.Rescore>
     Score         DG    S(hbond)    S(metal)    S(lipo)     H(rot)  DE(clash)    DE(int)     intcor
     16.38     -16.41       1.99        0.00      58.42       1.00       0.01       0.02       ----

> <Gold.Chemscore.Fitness>
16.3790

> <Gold.Chemscore.DG>
-16.4114

> <Gold.Chemscore.ZeroCoef>
-5.4800

> <Gold.Chemscore.Hbond>
1.9927

> <Gold.Chemscore.Metal>
0.0000

> <Gold.Chemscore.Lipo>
58.4245

> <Gold.Chemscore.Internal_Hbond>
0.0000

> <Gold.Chemscore.DEClash>
0.0108

> <Gold.Chemscore.DEInternal>
0.0217

> <Gold.Chemscore.Rot>
1.0000

> <Gold.Chemscore.Internal.Correction>
   9.000000E+99

> <Gold.Chemscore.Hbonds>
donor molecule, donor type, donor heavy atom, donor atom, acceptor molecule, acceptor atom, score
      L1  H     9    23       P1  8028  0.93
      P1  H  7997  8010       L1    11  0.99

> <Gold.Chemscore.Hbond.Weighted>
-6.6558

> <Gold.Chemscore.Metal.Weighted>
-0.0000

> <Gold.Chemscore.Lipo.Weighted>
-6.8357

> <Gold.Chemscore.Internal_Hbond.Weighted>
0.0000

> <Gold.Chemscore.DEClash.Weighted>
0.0108

> <Gold.Chemscore.DEInternal.Weighted>
0.0217

> <Gold.Chemscore.Rot.Weighted>
2.5600

> <Gold.Chemscore.Internal.Correction.Weighted>
   9.000000E+99

> <Gold.Protein.RotatedTorsions>
[ 6907 6896 6895 6894 ] final  -78.58 input  -60.11 | X-H torsion
[ 7974 7965 7964 7962 ] final  147.58 input  175.53 | X-H torsion
[ 8008 7997 7996 7995 ] final   43.10 input   59.86 | X-H torsion
[ 10167 10162 10161 10158 ] final  -56.73 input  -65.29 | X-H torsion
[ 10718 10713 10712 10709 ] final   70.20 input   66.30 | X-H torsion
[ 10763 10752 10751 10750 ] final  -24.99 input  -60.55 | X-H torsion
[ 11005 11000 10999 10996 ] final -145.74 input  -57.11 | X-H torsion

> <Gold.Protein.ActiveResidues>
 VAL166  LYS551  ARG553  GLY616  TRP617  ASP618  TYR619  PRO620  LYS621  CYS622 
 ASP623  PHE694  ASN695  SER759  ASP760  ASP761  ALA762  ILE779  LEU786  VAL792 
 PHE793  MET794  SER795  GLU796  ALA797  LYS798  CYS799  TRP800  GLU811  SER814 

> <Gold.Protein.RotatedAtoms>
  150.6969  134.4250  159.5222 H   0  0  0  0  0  0  0  0  0  0  0  0  # atno 6907 bound_to 6896
  152.1987  134.8605  160.0519 H   0  0  0  0  0  0  0  0  0  0  0  0  # atno 6908 bound_to 6896
  151.9533  133.3638  159.4045 H   0  0  0  0  0  0  0  0  0  0  0  0  # atno 6909 bound_to 6896
  144.8580  139.6047  143.5943 H   0  0  0  0  0  0  0  0  0  0  0  0  # atno 7974 bound_to 7965
  155.2971  140.3382  155.4249 H   0  0  0  0  0  0  0  0  0  0  0  0  # atno 8008 bound_to 7997
  156.2019  140.1736  156.7921 H   0  0  0  0  0  0  0  0  0  0  0  0  # atno 8009 bound_to 7997
  154.5570  140.0694  156.8743 H   0  0  0  0  0  0  0  0  0  0  0  0  # atno 8010 bound_to 7997
  140.6300  143.2455  151.5265 H   0  0  0  0  0  0  0  0  0  0  0  0  # atno 10167 bound_to 10162
  157.6387  130.9465  150.0619 H   0  0  0  0  0  0  0  0  0  0  0  0  # atno 10718 bound_to 10713
  153.6927  135.6961  153.5085 H   0  0  0  0  0  0  0  0  0  0  0  0  # atno 10763 bound_to 10752
  153.2401  135.4309  155.0688 H   0  0  0  0  0  0  0  0  0  0  0  0  # atno 10764 bound_to 10752
  154.8368  135.3505  154.6468 H   0  0  0  0  0  0  0  0  0  0  0  0  # atno 10765 bound_to 10752
  140.7891  134.2989  157.5019 H   0  0  0  0  0  0  0  0  0  0  0  0  # atno 11005 bound_to 11000
  146.2838  139.6949  142.9210 LP  0  0  0  0  0  0  0  0  0  0  0  0  # atno 17320 bound_to 7965
  145.4368  141.0419  143.2880 LP  0  0  0  0  0  0  0  0  0  0  0  0  # atno 17321 bound_to 7965
  139.5515  144.2383  152.1539 LP  0  0  0  0  0  0  0  0  0  0  0  0  # atno 17342 bound_to 10162
  140.1624  144.5013  150.6625 LP  0  0  0  0  0  0  0  0  0  0  0  0  # atno 17343 bound_to 10162
  156.1649  130.3645  149.9247 LP  0  0  0  0  0  0  0  0  0  0  0  0  # atno 17370 bound_to 10713
  156.7236  130.9016  151.3620 LP  0  0  0  0  0  0  0  0  0  0  0  0  # atno 17371 bound_to 10713
  139.8733  134.9364  156.3659 LP  0  0  0  0  0  0  0  0  0  0  0  0  # atno 17394 bound_to 11000
  140.9407  133.7516  156.0143 LP  0  0  0  0  0  0  0  0  0  0  0  0  # atno 17395 bound_to 11000

$$$$
