#       Name:                AV-unprocessed.smi:1190
#       Creating user name   scv26
#       Creation time:       Fri Mar 27 03:57:43 2020


#       File generated by GOLD software.
#

@<TRIPOS>MOLECULE
AV-unprocessed.smi:1190
    51    52     1
SMALL
NO_CHARGES


@<TRIPOS>ATOM
      1 ****        -5.3124   5.4721  -0.1791 C.3            1 S1                 0.0000
      2 ****        -5.4565   4.2516   0.5392 O.3            1 S1                 0.0000
      3 ****        -4.3538   3.4318   0.6651 C.ar           1 S1                 0.0000
      4 ****        -4.4894   2.2256   1.3802 C.ar           1 S1                 0.0000
      5 ****        -3.3676   1.3858   1.5109 C.ar           1 S1                 0.0000
      6 ****        -2.1437   1.7742   0.9298 C.ar           1 S1                 0.0000
      7 ****        -1.0381   0.8913   1.0685 N.am           1 S1                 0.0000
      8 ****         0.2667   1.1270   0.8486 C.2            1 S1                 0.0000
      9 ****         0.7500   2.2037   0.5000 O.2            1 S1                 0.0000
     10 ****         0.9957   0.0240   1.0679 N.am           1 S1                 0.0000
     11 ****         2.4416  -0.0941   0.8889 C.3            1 S1                 0.0000
     12 ****         2.8129  -0.8428  -0.4183 C.3            1 S1                 0.0000
     13 ****         2.5060   0.0845  -1.6162 C.3            1 S1                 0.0000
     14 ****         2.2000  -2.1843  -0.5379 N.3            1 S1                 0.0000
     15 ****         2.5751  -2.8669  -1.7798 C.3            1 S1                 0.0000
     16 ****         1.9479  -4.2670  -1.8964 C.3            1 S1                 0.0000
     17 ****         2.3216  -5.0535  -0.7726 O.3            1 S1                 0.0000
     18 ****         1.9180  -4.4615   0.4552 C.3            1 S1                 0.0000
     19 ****         2.5428  -3.0615   0.5857 C.3            1 S1                 0.0000
     20 ****        -2.1122   3.0011   0.2216 C.ar           1 S1                 0.0000
     21 ****        -3.1844   3.8117   0.0939 N.ar           1 S1                 0.0000
     22 ****        -6.2689   5.9941  -0.1997 H              1 S1                 0.0000
     23 ****        -5.0110   5.2956  -1.2126 H              1 S1                 0.0000
     24 ****        -4.5859   6.1309   0.2986 H              1 S1                 0.0000
     25 ****        -5.4369   1.9489   1.8189 H              1 S1                 0.0000
     26 ****        -3.4489   0.4549   2.0532 H              1 S1                 0.0000
     27 ****        -1.2663  -0.0310   1.4094 H              1 S1                 0.0000
     28 ****         0.5097  -0.8142   1.3512 H              1 S1                 0.0000
     29 ****         2.9168   0.8881   0.9047 H              1 S1                 0.0000
     30 ****         2.8518  -0.6045   1.7595 H              1 S1                 0.0000
     31 ****         3.8963  -0.9707  -0.4002 H              1 S1                 0.0000
     32 ****         2.8699   1.0966  -1.4361 H              1 S1                 0.0000
     33 ****         1.4347   0.1500  -1.8082 H              1 S1                 0.0000
     34 ****         2.9916  -0.2539  -2.5309 H              1 S1                 0.0000
     35 ****         2.2519  -2.2907  -2.6456 H              1 S1                 0.0000
     36 ****         3.6611  -2.9506  -1.8430 H              1 S1                 0.0000
     37 ****         0.8606  -4.1989  -1.9579 H              1 S1                 0.0000
     38 ****         2.2897  -4.7608  -2.8060 H              1 S1                 0.0000
     39 ****         0.8293  -4.4042   0.5001 H              1 S1                 0.0000
     40 ****         2.2396  -5.0978   1.2799 H              1 S1                 0.0000
     41 ****         3.6270  -3.1555   0.6641 H              1 S1                 0.0000
     42 ****         2.1945  -2.6355   1.5250 H              1 S1                 0.0000
     43 ****        -1.2256   3.3551  -0.2793 H              1 S1                 0.0000
     44 ****        -6.1692   3.7207   0.0806 LP             1 S1                 0.0000
     45 ****        -5.7581   4.4860   1.4634 LP             1 S1                 0.0000
     46 ****         0.1561   2.9956   0.3573 LP             1 S1                 0.0000
     47 ****         1.7365   2.2868   0.3594 LP             1 S1                 0.0000
     48 ****         1.2148  -2.0127  -0.5379 LP             1 S1                 0.0000
     49 ****         3.3162  -5.1572  -0.7685 LP             1 S1                 0.0000
     50 ****         1.8929  -5.9534  -0.8525 LP             1 S1                 0.0000
     51 ****        -3.1175   4.6726  -0.4105 LP             1 S1                 0.0000
@<TRIPOS>BOND
    1    1    2 1     
    2    1   22 1     
    3    1   23 1     
    4    1   24 1     
    5    2    3 1     
    6    3   21 ar    
    7    3    4 ar    
    8    4    5 ar    
    9    4   25 1     
   10    5    6 ar    
   11    5   26 1     
   12    6    7 1     
   13    6   20 ar    
   14    7    8 am    
   15    7   27 1     
   16    8    9 2     
   17    8   10 am    
   18   10   11 1     
   19   10   28 1     
   20   11   12 1     
   21   11   29 1     
   22   11   30 1     
   23   12   13 1     
   24   12   14 1     
   25   12   31 1     
   26   13   32 1     
   27   13   33 1     
   28   13   34 1     
   29   14   19 1     
   30   14   15 1     
   31   15   16 1     
   32   15   35 1     
   33   15   36 1     
   34   16   17 1     
   35   16   37 1     
   36   16   38 1     
   37   17   18 1     
   38   18   19 1     
   39   18   39 1     
   40   18   40 1     
   41   19   41 1     
   42   19   42 1     
   43   20   21 ar    
   44   20   43 1     
   45    2   44 1     
   46    2   45 1     
   47    9   46 1     
   48    9   47 1     
   49   14   48 1     
   50   17   49 1     
   51   17   50 1     
   52   21   51 1     
@<TRIPOS>SUBSTRUCTURE
      1 S1             1
@<TRIPOS>SET
LONE_PAIRS      STATIC     ATOMS    <user>   **** ""
8 44 45 46 47 48 49 50 51
DONOR_HYDROGENS      STATIC     ATOMS    <user>   **** ""
2 27 28
ATOM$BLUE        STATIC     ATOMS    COLORGROUP SYSTEM
8 44 45 46 47 48 49 50 51
ATOM$RED        STATIC     ATOMS    COLORGROUP SYSTEM
2 27 28
