AV-unprocessed.smi:684|AV-procd|sdf|3332|dock7
  -GOLD-   22720 0303D 1   1.00000     0.00000
 Structure written by MMmdl.
 40 41  0  0  0  0  0  0  0  0  1 V2000
  151.3244  129.4661  155.4386 C   0  0  0  0  0  0  0  0  0  0  0  0
  149.8520  129.4037  155.0163 C   0  0  0  0  0  0  0  0  0  0  0  0
  149.3274  130.7218  154.7043 N   0  0  0  0  0  0  0  0  0  0  0  0
  150.0496  131.8095  155.0500 N   0  0  0  0  0  0  0  0  0  0  0  0
  149.3108  132.8304  154.6438 C   0  0  0  0  0  0  0  0  0  0  0  0
  149.6380  134.2040  154.7748 N   0  0  0  0  0  0  0  0  0  0  0  0
  150.4770  134.7662  155.6617 C   0  0  0  0  0  0  0  0  0  0  0  0
  151.1055  134.1572  156.5281 O   0  0  0  0  0  0  0  0  0  0  0  0
  150.5434  136.0949  155.4909 N   0  0  0  0  0  0  0  0  0  0  0  0
  151.3569  137.0136  156.2829 C   0  0  0  0  0  0  0  0  0  0  0  0
  150.8391  138.4657  156.2118 C   0  0  0  0  0  0  0  0  0  0  0  0
  151.2172  139.2385  157.4840 C   0  0  0  0  0  0  0  0  0  0  0  0
  149.3226  138.5480  155.9652 C   0  0  0  0  0  0  0  0  0  0  0  0
  148.0941  132.4308  154.0287 C   0  0  0  0  0  0  0  0  0  0  0  0
  148.1340  131.0652  154.0898 C   0  0  0  0  0  0  0  0  0  0  0  0
  147.1482  130.0461  153.6157 C   0  0  0  0  0  0  0  0  0  0  0  0
  147.4728  129.1030  152.4815 C   0  0  0  0  0  0  0  0  0  0  0  0
  146.4507  130.2002  152.2867 C   0  0  0  0  0  0  0  0  0  0  0  0
  151.7033  128.4710  155.6716 H   0  0  0  0  0  0  0  0  0  0  0  0
  151.4553  130.0880  156.3245 H   0  0  0  0  0  0  0  0  0  0  0  0
  151.9447  129.8808  154.6433 H   0  0  0  0  0  0  0  0  0  0  0  0
  149.7387  128.7629  154.1404 H   0  0  0  0  0  0  0  0  0  0  0  0
  149.2498  128.9573  155.8078 H   0  0  0  0  0  0  0  0  0  0  0  0
  149.1838  134.8261  154.1231 H   0  0  0  0  0  0  0  0  0  0  0  0
  149.9878  136.5051  154.7547 H   0  0  0  0  0  0  0  0  0  0  0  0
  151.4249  136.6849  157.3215 H   0  0  0  0  0  0  0  0  0  0  0  0
  152.3718  136.9675  155.8867 H   0  0  0  0  0  0  0  0  0  0  0  0
  151.3361  138.9582  155.3747 H   0  0  0  0  0  0  0  0  0  0  0  0
  150.7469  138.8030  158.3662 H   0  0  0  0  0  0  0  0  0  0  0  0
  150.9024  140.2805  157.4192 H   0  0  0  0  0  0  0  0  0  0  0  0
  152.2958  139.2319  157.6437 H   0  0  0  0  0  0  0  0  0  0  0  0
  148.7667  138.0283  156.7462 H   0  0  0  0  0  0  0  0  0  0  0  0
  149.0454  138.1062  155.0082 H   0  0  0  0  0  0  0  0  0  0  0  0
  148.9836  139.5843  155.9497 H   0  0  0  0  0  0  0  0  0  0  0  0
  147.3120  133.0470  153.6106 H   0  0  0  0  0  0  0  0  0  0  0  0
  146.5702  129.6408  154.4440 H   0  0  0  0  0  0  0  0  0  0  0  0
  148.4292  129.2181  151.9752 H   0  0  0  0  0  0  0  0  0  0  0  0
  147.1057  128.0816  152.5573 H   0  0  0  0  0  0  0  0  0  0  0  0
  145.4029  129.9119  152.2349 H   0  0  0  0  0  0  0  0  0  0  0  0
  146.7346  131.0448  151.6616 H   0  0  0  0  0  0  0  0  0  0  0  0
  1  2  1  0  0  0  0
  1 19  1  0  0  0  0
  1 20  1  0  0  0  0
  1 21  1  0  0  0  0
  2  3  1  0  0  0  0
  2 22  1  0  0  0  0
  2 23  1  0  0  0  0
  3 15  1  0  0  0  0
  3  4  1  0  0  0  0
  4  5  2  0  0  0  0
  5  6  1  0  0  0  0
  5 14  1  0  0  0  0
  6  7  1  0  0  0  0
  6 24  1  0  0  0  0
  7  8  2  0  0  0  0
  7  9  1  0  0  0  0
  9 10  1  0  0  0  0
  9 25  1  0  0  0  0
 10 11  1  0  0  0  0
 10 26  1  0  0  0  0
 10 27  1  0  0  0  0
 11 12  1  0  0  0  0
 11 13  1  0  0  0  0
 11 28  1  0  0  0  0
 12 29  1  0  0  0  0
 12 30  1  0  0  0  0
 12 31  1  0  0  0  0
 13 32  1  0  0  0  0
 13 33  1  0  0  0  0
 13 34  1  0  0  0  0
 14 15  2  0  0  0  0
 14 35  1  0  0  0  0
 15 16  1  0  0  0  0
 16 18  1  0  0  0  0
 16 17  1  0  0  0  0
 16 36  1  0  0  0  0
 17 18  1  0  0  0  0
 17 37  1  0  0  0  0
 17 38  1  0  0  0  0
 18 39  1  0  0  0  0
 18 40  1  0  0  0  0
M  END
> <s_m_source_file>
AV-unprocessed.smi

> <i_m_source_file_index>
684

> <i_lp_mmshare_version>
43012

> <i_f3d_flags>
0

> <s_epik_input>
W0NIMl0xW0NIMl1bQ0hdMWMyW2NIXWMobm4yW0NIMl1bQ0gzXSlbTkhdQyg9TylbTkhdW0NIMl1bQ0hdKFtDSDNdKVtDSDNd

> <s_epik_cmdline>
J2VwaWtfcHl0aG9uJywgJy1waCcsICc3LjAnLCAnLXRuJywgJzgnLCAnLW1hJywgJzIwMCcsICctbWV0YWxfYmluZGluZycsICctaW1hZScsICc8aW5maWxlLm1hZT4nLCAnLW9tYWUnLCAnPG91dGZpbGUubWFlPic=

> <r_lp_tautomer_probability>
1

> <r_epik_Ionization_Penalty>
4.15598e-05

> <r_epik_Ionization_Penalty_Charging>
0

> <r_epik_Ionization_Penalty_Neutral>
4.15598e-05

> <r_epik_State_Penalty>
-0

> <r_epik_Charging_Adjusted_Penalty>
0

> <i_epik_Tot_Q>
0

> <i_epik_Tot_abs_Q>
0

> <r_epik_Metal_State_Penalty>
-0

> <b_epik_Metal_Only>
0

> <s_lp_Force_Field>
OPLS_2005

> <r_lp_Energy>
10.212

> <b_lp_Chiralities_Consistent>
1

> <s_lp_Variant>
AV-unprocessed.smi:684-1

> <Gold.Version>
5.8.1

> <Gold.Id.Protein>
6NUR|6NUR_protein|mol2

> <Gold.PLP.Fitness>
39.4655

> <Gold.PLP.PLP>
-33.1522

> <Gold.PLP.part.hbond>
-4.5400

> <Gold.PLP.part.metal>
0.0000

> <Gold.PLP.part.buried>
1.3617

> <Gold.PLP.part.nonpolar>
-29.6395

> <Gold.PLP.part.repulsive>
0.1976

> <Gold.PLP.ligand.clash>
0.0000

> <Gold.PLP.ligand.torsion>
1.0508

> <Gold.PLP.Chemscore.Hbond>
2.7527

> <Gold.PLP.Chemscore.CHOScore>
0.0000

> <Gold.PLP.Chemscore.Metal>
0.0000

> <Gold.PLP.Chemscore.Internal.Correction>
0.1566

> <Gold.Rescore>
     Score         DG    S(hbond)    S(metal)    S(lipo)     H(rot)  DE(clash)    DE(int)     intcor
     12.92     -14.51       1.93        0.00      53.78       1.45       0.06       1.53       ----

> <Gold.Chemscore.Fitness>
12.9163

> <Gold.Chemscore.DG>
-14.5100

> <Gold.Chemscore.ZeroCoef>
-5.4800

> <Gold.Chemscore.Hbond>
1.9275

> <Gold.Chemscore.Metal>
0.0000

> <Gold.Chemscore.Lipo>
53.7775

> <Gold.Chemscore.Internal_Hbond>
0.0000

> <Gold.Chemscore.DEClash>
0.0646

> <Gold.Chemscore.DEInternal>
1.5291

> <Gold.Chemscore.Rot>
1.4452

> <Gold.Chemscore.Internal.Correction>
   9.000000E+99

> <Gold.Chemscore.Hbond.Weighted>
-6.4378

> <Gold.Chemscore.Metal.Weighted>
-0.0000

> <Gold.Chemscore.Lipo.Weighted>
-6.2920

> <Gold.Chemscore.Internal_Hbond.Weighted>
0.0000

> <Gold.Chemscore.DEClash.Weighted>
0.0646

> <Gold.Chemscore.DEInternal.Weighted>
1.5291

> <Gold.Chemscore.Rot.Weighted>
3.6998

> <Gold.Chemscore.Internal.Correction.Weighted>
   9.000000E+99

> <Gold.Protein.RotatedTorsions>
[ 6907 6896 6895 6894 ] final   -8.27 input  -60.11 | X-H torsion
[ 7974 7965 7964 7962 ] final  134.68 input  175.53 | X-H torsion
[ 8008 7997 7996 7995 ] final  127.92 input   59.86 | X-H torsion
[ 10167 10162 10161 10158 ] final  -88.46 input  -65.29 | X-H torsion
[ 10718 10713 10712 10709 ] final   -8.48 input   66.30 | X-H torsion
[ 10763 10752 10751 10750 ] final   78.83 input  -60.55 | X-H torsion
[ 11005 11000 10999 10996 ] final -162.38 input  -57.11 | X-H torsion

> <Gold.Protein.ActiveResidues>
 VAL166  LYS551  ARG553  GLY616  TRP617  ASP618  TYR619  PRO620  LYS621  CYS622 
 ASP623  PHE694  ASN695  SER759  ASP760  ASP761  ALA762  ILE779  LEU786  VAL792 
 PHE793  MET794  SER795  GLU796  ALA797  LYS798  CYS799  TRP800  GLU811  SER814 

> <Gold.Protein.RotatedAtoms>
  151.4363  135.1015  159.9656 H   0  0  0  0  0  0  0  0  0  0  0  0  # atno 6907 bound_to 6896
  152.4938  133.8570  159.7241 H   0  0  0  0  0  0  0  0  0  0  0  0  # atno 6908 bound_to 6896
  150.9119  133.6928  159.2880 H   0  0  0  0  0  0  0  0  0  0  0  0  # atno 6909 bound_to 6896
  144.9740  139.4575  143.5419 H   0  0  0  0  0  0  0  0  0  0  0  0  # atno 7974 bound_to 7965
  156.2903  140.2657  156.2352 H   0  0  0  0  0  0  0  0  0  0  0  0  # atno 8008 bound_to 7997
  155.0032  140.0387  157.2387 H   0  0  0  0  0  0  0  0  0  0  0  0  # atno 8009 bound_to 7997
  154.7583  140.2756  155.6240 H   0  0  0  0  0  0  0  0  0  0  0  0  # atno 8010 bound_to 7997
  140.3745  143.2778  151.9460 H   0  0  0  0  0  0  0  0  0  0  0  0  # atno 10167 bound_to 10162
  156.7020  130.5096  149.5915 H   0  0  0  0  0  0  0  0  0  0  0  0  # atno 10718 bound_to 10713
  153.0905  135.4862  154.8680 H   0  0  0  0  0  0  0  0  0  0  0  0  # atno 10763 bound_to 10752
  154.7263  135.3050  154.8967 H   0  0  0  0  0  0  0  0  0  0  0  0  # atno 10764 bound_to 10752
  153.9616  135.6811  153.4798 H   0  0  0  0  0  0  0  0  0  0  0  0  # atno 10765 bound_to 10752
  140.6099  134.4860  157.5214 H   0  0  0  0  0  0  0  0  0  0  0  0  # atno 11005 bound_to 11000
  146.3390  139.8970  142.8800 LP  0  0  0  0  0  0  0  0  0  0  0  0  # atno 17320 bound_to 7965
  145.2518  141.0046  143.3877 LP  0  0  0  0  0  0  0  0  0  0  0  0  # atno 17321 bound_to 7965
  139.4800  144.5876  151.7827 LP  0  0  0  0  0  0  0  0  0  0  0  0  # atno 17342 bound_to 10162
  140.5000  144.1183  150.5969 LP  0  0  0  0  0  0  0  0  0  0  0  0  # atno 17343 bound_to 10162
  156.1722  130.6444  151.0851 LP  0  0  0  0  0  0  0  0  0  0  0  0  # atno 17370 bound_to 10713
  157.6969  131.0790  150.6940 LP  0  0  0  0  0  0  0  0  0  0  0  0  # atno 17371 bound_to 10713
  139.9196  134.8175  156.1253 LP  0  0  0  0  0  0  0  0  0  0  0  0  # atno 17394 bound_to 11000
  141.0815  133.6752  156.2346 LP  0  0  0  0  0  0  0  0  0  0  0  0  # atno 17395 bound_to 11000

$$$$
