AV-unprocessed.smi:490|AV-procd|sdf|2706|dock9
  -GOLD-   2262023143D 1   1.00000     0.00000
 Structure written by MMmdl.
 50 52  0  0  0  0  0  0  0  0  2 V2000
  153.7596  142.4674  163.2943 C   0  0  0  0  0  0  0  0  0  0  0  0
  153.1009  142.9225  162.0033 C   0  0  0  0  0  0  0  0  0  0  0  0
  152.5127  144.2026  161.9513 C   0  0  0  0  0  0  0  0  0  0  0  0
  151.8897  144.6526  160.7743 C   0  0  0  0  0  0  0  0  0  0  0  0
  151.8543  143.8298  159.6320 C   0  0  0  0  0  0  0  0  0  0  0  0
  151.1694  144.3310  158.3738 C   0  0  0  0  0  0  0  0  0  0  0  0
  152.4559  142.5500  159.6688 C   0  0  0  0  0  0  0  0  0  0  0  0
  152.4235  141.7532  158.5533 O   0  0  0  0  0  0  0  0  0  0  0  0
  151.1404  141.2105  158.2776 C   0  0  0  0  0  0  0  0  0  0  0  0
  151.2861  140.1183  157.2079 C   0  0  1  0  0  0  0  0  0  0  0  0
  150.2297  139.1922  157.3659 O   0  0  0  0  0  0  0  0  0  0  0  0
  151.2403  140.7010  155.7817 C   0  0  0  0  0  0  0  0  0  0  0  0
  150.3222  139.9673  154.8944 N   0  0  0  0  0  0  0  0  0  0  0  0
  150.4691  138.7513  154.2922 C   0  0  0  0  0  0  0  0  0  0  0  0
  151.6395  137.8293  154.3979 C   0  0  0  0  0  0  0  0  0  0  0  0
  151.3044  136.4981  154.0740 O   0  0  0  0  0  0  0  0  0  0  0  0
  149.3346  138.5161  153.5747 N   0  3  0  0  0  0  0  0  0  0  0  0
  148.4525  139.5873  153.7198 C   0  0  0  0  0  0  0  0  0  0  0  0
  147.1844  139.7998  153.1873 C   0  0  0  0  0  0  0  0  0  0  0  0
  146.5440  141.0058  153.5396 C   0  0  0  0  0  0  0  0  0  0  0  0
  147.1634  141.9439  154.3908 C   0  0  0  0  0  0  0  0  0  0  0  0
  148.4499  141.7175  154.9236 C   0  0  0  0  0  0  0  0  0  0  0  0
  149.0784  140.5236  154.5684 C   0  0  0  0  0  0  0  0  0  0  0  0
  153.0669  142.0848  160.8605 C   0  0  0  0  0  0  0  0  0  0  0  0
  153.6869  140.6945  160.9118 C   0  0  0  0  0  0  0  0  0  0  0  0
  153.8200  143.2817  164.0173 H   0  0  0  0  0  0  0  0  0  0  0  0
  154.7740  142.1139  163.1076 H   0  0  0  0  0  0  0  0  0  0  0  0
  153.1874  141.6579  163.7480 H   0  0  0  0  0  0  0  0  0  0  0  0
  152.5320  144.8462  162.8188 H   0  0  0  0  0  0  0  0  0  0  0  0
  151.4381  145.6337  160.7526 H   0  0  0  0  0  0  0  0  0  0  0  0
  150.6447  143.5223  157.8644 H   0  0  0  0  0  0  0  0  0  0  0  0
  151.9033  144.7524  157.6868 H   0  0  0  0  0  0  0  0  0  0  0  0
  150.4385  145.1053  158.6086 H   0  0  0  0  0  0  0  0  0  0  0  0
  150.6646  140.8217  159.1794 H   0  0  0  0  0  0  0  0  0  0  0  0
  150.4995  142.0086  157.8988 H   0  0  0  0  0  0  0  0  0  0  0  0
  152.2346  139.5989  157.3488 H   0  0  0  0  0  0  0  0  0  0  0  0
  150.5909  138.3836  157.6967 H   0  0  0  0  0  0  0  0  0  0  0  0
  150.9706  141.7572  155.7934 H   0  0  0  0  0  0  0  0  0  0  0  0
  152.2309  140.6529  155.3292 H   0  0  0  0  0  0  0  0  0  0  0  0
  152.4295  138.1690  153.7278 H   0  0  0  0  0  0  0  0  0  0  0  0
  152.0450  137.8605  155.4091 H   0  0  0  0  0  0  0  0  0  0  0  0
  151.1160  136.4510  153.1490 H   0  0  0  0  0  0  0  0  0  0  0  0
  146.7066  139.0809  152.5379 H   0  0  0  0  0  0  0  0  0  0  0  0
  145.5572  141.2144  153.1522 H   0  0  0  0  0  0  0  0  0  0  0  0
  146.6408  142.8553  154.6425 H   0  0  0  0  0  0  0  0  0  0  0  0
  148.9097  142.4404  155.5806 H   0  0  0  0  0  0  0  0  0  0  0  0
  153.3936  140.0772  160.0631 H   0  0  0  0  0  0  0  0  0  0  0  0
  153.3762  140.1652  161.8126 H   0  0  0  0  0  0  0  0  0  0  0  0
  154.7746  140.7686  160.9139 H   0  0  0  0  0  0  0  0  0  0  0  0
  149.1759  137.6780  153.0308 H   0  0  0  0  0  0  0  0  0  0  0  0
  1  2  1  0  0  0  0
  1 26  1  0  0  0  0
  1 27  1  0  0  0  0
  1 28  1  0  0  0  0
  2 24  1  0  0  0  0
  2  3  2  0  0  0  0
  3  4  1  0  0  0  0
  3 29  1  0  0  0  0
  4  5  2  0  0  0  0
  4 30  1  0  0  0  0
  5  6  1  0  0  0  0
  5  7  1  0  0  0  0
  6 31  1  0  0  0  0
  6 32  1  0  0  0  0
  6 33  1  0  0  0  0
  7  8  1  0  0  0  0
  7 24  2  0  0  0  0
  8  9  1  0  0  0  0
  9 10  1  0  0  0  0
  9 34  1  0  0  0  0
  9 35  1  0  0  0  0
 10 11  1  0  0  0  0
 10 12  1  0  0  0  0
 10 36  1  0  0  0  0
 11 37  1  0  0  0  0
 12 13  1  0  0  0  0
 12 38  1  0  0  0  0
 12 39  1  0  0  0  0
 13 23  1  0  0  0  0
 13 14  1  0  0  0  0
 14 15  1  0  0  0  0
 14 17  2  0  0  0  0
 15 16  1  0  0  0  0
 15 40  1  0  0  0  0
 15 41  1  0  0  0  0
 16 42  1  0  0  0  0
 17 18  1  0  0  0  0
 17 50  1  0  0  0  0
 18 23  2  0  0  0  0
 18 19  1  0  0  0  0
 19 20  2  0  0  0  0
 19 43  1  0  0  0  0
 20 21  1  0  0  0  0
 20 44  1  0  0  0  0
 21 22  2  0  0  0  0
 21 45  1  0  0  0  0
 22 23  1  0  0  0  0
 22 46  1  0  0  0  0
 24 25  1  0  0  0  0
 25 47  1  0  0  0  0
 25 48  1  0  0  0  0
 25 49  1  0  0  0  0
M  CHG  1  17   1
M  END
> <s_m_source_file>
AV-unprocessed.smi

> <i_m_source_file_index>
490

> <i_lp_mmshare_version>
43012

> <i_f3d_flags>
0

> <s_epik_input>
W0NIM11jMVtjSF1bY0hdYyhbQ0gzXSljKGMxW0NIM10pT1tDSDJdW0NASF0oW09IXSlbQ0gyXW4oYyhuMilbQ0gyXVtPSF0pYyhjMjMpW2NIXVtjSF1bY0hdW2NIXTM=

> <s_epik_cmdline>
J2VwaWtfcHl0aG9uJywgJy1waCcsICc3LjAnLCAnLXRuJywgJzgnLCAnLW1hJywgJzIwMCcsICctbWV0YWxfYmluZGluZycsICctaW1hZScsICc8aW5maWxlLm1hZT4nLCAnLW9tYWUnLCAnPG91dGZpbGUubWFlPic=

> <r_lp_tautomer_probability>
1

> <r_epik_Ionization_Penalty>
1.43125

> <r_epik_Ionization_Penalty_Charging>
1.43039

> <r_epik_Ionization_Penalty_Neutral>
0.000858184

> <r_epik_State_Penalty>
1.51493

> <r_epik_Charging_Adjusted_Penalty>
2.94531

> <i_epik_Tot_Q>
1

> <i_epik_Tot_abs_Q>
1

> <r_epik_Metal_State_Penalty>
5.5599

> <b_epik_Metal_Only>
0

> <s_lp_Force_Field>
OPLS_2005

> <r_lp_Energy>
24.5509

> <b_lp_Chiralities_Consistent>
1

> <s_lp_Variant>
AV-unprocessed.smi:490-4

> <Gold.Version>
5.8.1

> <Gold.Id.Protein>
6NUR|6NUR_protein|mol2

> <Gold.PLP.Fitness>
71.6341

> <Gold.PLP.PLP>
-62.7975

> <Gold.PLP.part.hbond>
-4.4635

> <Gold.PLP.part.metal>
0.0000

> <Gold.PLP.part.buried>
0.1545

> <Gold.PLP.part.nonpolar>
-57.9289

> <Gold.PLP.part.repulsive>
0.0667

> <Gold.PLP.ligand.clash>
0.0000

> <Gold.PLP.ligand.torsion>
1.6590

> <Gold.PLP.Chemscore.Hbond>
4.0000

> <Gold.PLP.Chemscore.CHOScore>
0.0000

> <Gold.PLP.Chemscore.Metal>
0.0000

> <Gold.Chemscore.Hbonds>
donor molecule, donor type, donor heavy atom, donor atom, acceptor molecule, acceptor atom, score
      L1  H    16    42       P1  7949  1.00
      L1  H    17    50       P1  7948  2.00
      P1  H 10752 10763       L1    16  1.00

> <Gold.PLP.Chemscore.Internal.Correction>
0.1545

> <Gold.Rescore>
     Score         DG    S(hbond)    S(metal)    S(lipo)     H(rot)  DE(clash)    DE(int)     intcor
     23.02     -26.01       2.60        0.00     167.16       3.02       1.22       1.77       ----

> <Gold.Chemscore.Fitness>
23.0232

> <Gold.Chemscore.DG>
-26.0083

> <Gold.Chemscore.ZeroCoef>
-5.4800

> <Gold.Chemscore.Hbond>
2.6038

> <Gold.Chemscore.Metal>
0.0000

> <Gold.Chemscore.Lipo>
167.1593

> <Gold.Chemscore.Internal_Hbond>
0.0000

> <Gold.Chemscore.DEClash>
1.2161

> <Gold.Chemscore.DEInternal>
1.7690

> <Gold.Chemscore.Rot>
3.0180

> <Gold.Chemscore.Internal.Correction>
   9.000000E+99

> <Gold.Chemscore.Hbonds>
donor molecule, donor type, donor heavy atom, donor atom, acceptor molecule, acceptor atom, score
      L1  H    16    42       P1  7949  0.40
      L1  H    17    50       P1  7948  0.99
      P1  H 10752 10763       L1    16  0.22

> <Gold.Chemscore.Hbond.Weighted>
-8.6967

> <Gold.Chemscore.Metal.Weighted>
-0.0000

> <Gold.Chemscore.Lipo.Weighted>
-19.5576

> <Gold.Chemscore.Internal_Hbond.Weighted>
0.0000

> <Gold.Chemscore.DEClash.Weighted>
1.2161

> <Gold.Chemscore.DEInternal.Weighted>
1.7690

> <Gold.Chemscore.Rot.Weighted>
7.7260

> <Gold.Chemscore.Internal.Correction.Weighted>
   9.000000E+99

> <Gold.Protein.RotatedTorsions>
[ 6907 6896 6895 6894 ] final   -4.37 input  -60.11 | X-H torsion
[ 7974 7965 7964 7962 ] final    7.63 input  175.53 | X-H torsion
[ 8008 7997 7996 7995 ] final  -43.23 input   59.86 | X-H torsion
[ 10167 10162 10161 10158 ] final  120.69 input  -65.29 | X-H torsion
[ 10718 10713 10712 10709 ] final    1.81 input   66.30 | X-H torsion
[ 10763 10752 10751 10750 ] final   53.30 input  -60.55 | X-H torsion
[ 11005 11000 10999 10996 ] final -158.66 input  -57.11 | X-H torsion

> <Gold.Protein.ActiveResidues>
 VAL166  LYS551  ARG553  GLY616  TRP617  ASP618  TYR619  PRO620  LYS621  CYS622 
 ASP623  PHE694  ASN695  SER759  ASP760  ASP761  ALA762  ILE779  LEU786  VAL792 
 PHE793  MET794  SER795  GLU796  ALA797  LYS798  CYS799  TRP800  GLU811  SER814 

> <Gold.Protein.RotatedAtoms>
  151.4988  135.1061  159.9822 H   0  0  0  0  0  0  0  0  0  0  0  0  # atno 6907 bound_to 6896
  152.4710  133.8027  159.6972 H   0  0  0  0  0  0  0  0  0  0  0  0  # atno 6908 bound_to 6896
  150.8720  133.7429  159.2984 H   0  0  0  0  0  0  0  0  0  0  0  0  # atno 6909 bound_to 6896
  146.2425  140.0054  142.8412 H   0  0  0  0  0  0  0  0  0  0  0  0  # atno 7974 bound_to 7965
  154.3997  140.1453  156.3485 H   0  0  0  0  0  0  0  0  0  0  0  0  # atno 8008 bound_to 7997
  155.8290  140.3466  155.5540 H   0  0  0  0  0  0  0  0  0  0  0  0  # atno 8009 bound_to 7997
  155.8208  140.0897  157.1841 H   0  0  0  0  0  0  0  0  0  0  0  0  # atno 8010 bound_to 7997
  139.5966  144.7043  151.3162 H   0  0  0  0  0  0  0  0  0  0  0  0  # atno 10167 bound_to 10162
  156.8537  130.5562  149.5668 H   0  0  0  0  0  0  0  0  0  0  0  0  # atno 10718 bound_to 10713
  152.9794  135.5783  154.4719 H   0  0  0  0  0  0  0  0  0  0  0  0  # atno 10763 bound_to 10752
  154.4281  135.2773  155.1933 H   0  0  0  0  0  0  0  0  0  0  0  0  # atno 10764 bound_to 10752
  154.3653  135.6179  153.5765 H   0  0  0  0  0  0  0  0  0  0  0  0  # atno 10765 bound_to 10752
  140.6512  134.4448  157.5235 H   0  0  0  0  0  0  0  0  0  0  0  0  # atno 11005 bound_to 11000
  145.1376  140.9553  143.4507 LP  0  0  0  0  0  0  0  0  0  0  0  0  # atno 17320 bound_to 7965
  145.0326  139.3327  143.6017 LP  0  0  0  0  0  0  0  0  0  0  0  0  # atno 17321 bound_to 7965
  140.7217  143.7118  150.7763 LP  0  0  0  0  0  0  0  0  0  0  0  0  # atno 17342 bound_to 10162
  140.0686  143.5084  152.2591 LP  0  0  0  0  0  0  0  0  0  0  0  0  # atno 17343 bound_to 10162
  156.0814  130.5823  150.9570 LP  0  0  0  0  0  0  0  0  0  0  0  0  # atno 17370 bound_to 10713
  157.6289  131.0923  150.8480 LP  0  0  0  0  0  0  0  0  0  0  0  0  # atno 17371 bound_to 10713
  139.9045  134.8480  156.1760 LP  0  0  0  0  0  0  0  0  0  0  0  0  # atno 17394 bound_to 11000
  141.0535  133.6877  156.1817 LP  0  0  0  0  0  0  0  0  0  0  0  0  # atno 17395 bound_to 11000

$$$$
