AV-unprocessed.smi:1839|AV-procd|sdf|7485|dock6
  -GOLD-   22720 9183D 1   1.00000     0.00000
 Structure written by MMmdl.
 46 47  0  0  0  0  0  0  0  0  1 V2000
  151.9035  145.1585  159.5624 C   0  0  0  0  0  0  0  0  0  0  0  0
  152.1951  143.7583  159.8702 N   0  0  0  0  0  0  0  0  0  0  0  0
  152.5964  143.5212  161.2623 C   0  0  0  0  0  0  0  0  0  0  0  0
  151.8218  142.7763  159.0120 C   0  0  0  0  0  0  0  0  0  0  0  0
  150.9599  142.9555  158.1492 O   0  0  0  0  0  0  0  0  0  0  0  0
  152.4231  141.5748  159.1830 N   0  0  0  0  0  0  0  0  0  0  0  0
  153.8661  141.4359  159.4264 C   0  0  0  0  0  0  0  0  0  0  0  0
  154.1073  140.3490  160.4881 C   0  0  0  0  0  0  0  0  0  0  0  0
  153.4624  139.0183  160.0646 C   0  0  0  0  0  0  0  0  0  0  0  0
  151.9781  139.2086  159.6800 C   0  0  2  0  0  0  0  0  0  0  0  0
  151.3702  137.9031  159.1504 C   0  0  0  0  0  0  0  0  0  0  0  0
  152.0958  136.9483  158.8706 O   0  0  0  0  0  0  0  0  0  0  0  0
  150.0355  137.8766  159.0131 N   0  0  0  0  0  0  0  0  0  0  0  0
  149.2666  136.7400  158.5195 C   0  0  0  0  0  0  0  0  0  0  0  0
  147.8248  136.7528  159.0555 C   0  0  0  0  0  0  0  0  0  0  0  0
  147.7181  136.1110  160.4257 C   0  0  0  0  0  0  0  0  0  0  0  0
  147.7099  134.7065  160.5636 C   0  0  0  0  0  0  0  0  0  0  0  0
  147.6196  134.1597  161.8583 C   0  0  0  0  0  0  0  0  0  0  0  0
  147.5421  135.0338  162.9598 C   0  0  0  0  0  0  0  0  0  0  0  0
  147.5603  136.4217  162.7163 C   0  0  0  0  0  0  0  0  0  0  0  0
  147.6475  136.9564  161.4790 N   0  0  0  0  0  0  0  0  0  0  0  0
  151.8371  140.3434  158.6407 C   0  0  0  0  0  0  0  0  0  0  0  0
  152.0666  145.3791  158.5063 H   0  0  0  0  0  0  0  0  0  0  0  0
  152.5473  145.8300  160.1321 H   0  0  0  0  0  0  0  0  0  0  0  0
  150.8666  145.3942  159.8052 H   0  0  0  0  0  0  0  0  0  0  0  0
  152.2043  142.5802  161.6510 H   0  0  0  0  0  0  0  0  0  0  0  0
  152.2232  144.3078  161.9194 H   0  0  0  0  0  0  0  0  0  0  0  0
  153.6826  143.5060  161.3512 H   0  0  0  0  0  0  0  0  0  0  0  0
  154.3577  141.1581  158.4927 H   0  0  0  0  0  0  0  0  0  0  0  0
  154.3319  142.3718  159.7362 H   0  0  0  0  0  0  0  0  0  0  0  0
  155.1772  140.2108  160.6466 H   0  0  0  0  0  0  0  0  0  0  0  0
  153.6921  140.6687  161.4442 H   0  0  0  0  0  0  0  0  0  0  0  0
  154.0184  138.6129  159.2176 H   0  0  0  0  0  0  0  0  0  0  0  0
  153.5555  138.2901  160.8711 H   0  0  0  0  0  0  0  0  0  0  0  0
  151.4320  139.5038  160.5782 H   0  0  0  0  0  0  0  0  0  0  0  0
  149.5153  138.7042  159.2659 H   0  0  0  0  0  0  0  0  0  0  0  0
  149.2686  136.7340  157.4283 H   0  0  0  0  0  0  0  0  0  0  0  0
  149.7738  135.8281  158.8358 H   0  0  0  0  0  0  0  0  0  0  0  0
  147.4566  137.7782  159.1143 H   0  0  0  0  0  0  0  0  0  0  0  0
  147.1602  136.2292  158.3670 H   0  0  0  0  0  0  0  0  0  0  0  0
  147.7740  134.0628  159.6985 H   0  0  0  0  0  0  0  0  0  0  0  0
  147.6109  133.0896  162.0039 H   0  0  0  0  0  0  0  0  0  0  0  0
  147.4710  134.6501  163.9667 H   0  0  0  0  0  0  0  0  0  0  0  0
  147.5037  137.1208  163.5375 H   0  0  0  0  0  0  0  0  0  0  0  0
  150.7805  140.4795  158.4006 H   0  0  0  0  0  0  0  0  0  0  0  0
  152.3382  140.0859  157.7058 H   0  0  0  0  0  0  0  0  0  0  0  0
  1  2  1  0  0  0  0
  1 23  1  0  0  0  0
  1 24  1  0  0  0  0
  1 25  1  0  0  0  0
  2  3  1  0  0  0  0
  2  4  1  0  0  0  0
  3 26  1  0  0  0  0
  3 27  1  0  0  0  0
  3 28  1  0  0  0  0
  4  5  2  0  0  0  0
  4  6  1  0  0  0  0
  6 22  1  0  0  0  0
  6  7  1  0  0  0  0
  7  8  1  0  0  0  0
  7 29  1  0  0  0  0
  7 30  1  0  0  0  0
  8  9  1  0  0  0  0
  8 31  1  0  0  0  0
  8 32  1  0  0  0  0
  9 10  1  0  0  0  0
  9 33  1  0  0  0  0
  9 34  1  0  0  0  0
 10 11  1  0  0  0  0
 10 22  1  0  0  0  0
 10 35  1  0  0  0  0
 11 12  2  0  0  0  0
 11 13  1  0  0  0  0
 13 14  1  0  0  0  0
 13 36  1  0  0  0  0
 14 15  1  0  0  0  0
 14 37  1  0  0  0  0
 14 38  1  0  0  0  0
 15 16  1  0  0  0  0
 15 39  1  0  0  0  0
 15 40  1  0  0  0  0
 16 21  1  0  0  0  0
 16 17  2  0  0  0  0
 17 18  1  0  0  0  0
 17 41  1  0  0  0  0
 18 19  2  0  0  0  0
 18 42  1  0  0  0  0
 19 20  1  0  0  0  0
 19 43  1  0  0  0  0
 20 21  2  0  0  0  0
 20 44  1  0  0  0  0
 22 45  1  0  0  0  0
 22 46  1  0  0  0  0
M  END
> <s_m_source_file>
AV-unprocessed.smi

> <i_m_source_file_index>
1839

> <i_lp_mmshare_version>
43012

> <i_f3d_flags>
0

> <s_epik_input>
W0NIM11OKFtDSDNdKUMoPU8pTjFbQ0gyXVtDSDJdW0NIMl1bQ0BIXShbQ0gyXTEpQyg9TylbTkhdW0NIMl1bQ0gyXWMyW2NIXVtjSF1bY0hdW2NIXW4y

> <s_epik_cmdline>
J2VwaWtfcHl0aG9uJywgJy1waCcsICc3LjAnLCAnLXRuJywgJzgnLCAnLW1hJywgJzIwMCcsICctbWV0YWxfYmluZGluZycsICctaW1hZScsICc8aW5maWxlLm1hZT4nLCAnLW9tYWUnLCAnPG91dGZpbGUubWFlPic=

> <r_epik_Ionization_Penalty>
0.0268631

> <r_epik_Ionization_Penalty_Charging>
0

> <r_epik_Ionization_Penalty_Neutral>
0.0268631

> <r_epik_State_Penalty>
0.0219025

> <r_epik_Charging_Adjusted_Penalty>
0.0219025

> <i_epik_Tot_Q>
0

> <i_epik_Tot_abs_Q>
0

> <r_epik_Metal_State_Penalty>
0.0209511

> <b_epik_Metal_Only>
0

> <s_lp_Force_Field>
OPLS_2005

> <r_lp_Energy>
47.8256

> <b_lp_Chiralities_Consistent>
1

> <s_lp_Variant>
AV-unprocessed.smi:1839-2

> <Gold.Version>
5.8.1

> <Gold.Id.Protein>
6NUR|6NUR_protein|mol2

> <Gold.PLP.Fitness>
53.7931

> <Gold.PLP.PLP>
-47.9463

> <Gold.PLP.part.hbond>
-3.0000

> <Gold.PLP.part.metal>
0.0000

> <Gold.PLP.part.buried>
-6.9777

> <Gold.PLP.part.nonpolar>
-40.0199

> <Gold.PLP.part.repulsive>
0.3010

> <Gold.PLP.ligand.clash>
0.0000

> <Gold.PLP.ligand.torsion>
1.4961

> <Gold.PLP.Chemscore.Hbond>
2.5064

> <Gold.PLP.Chemscore.CHOScore>
0.0000

> <Gold.PLP.Chemscore.Metal>
0.0000

> <Gold.Chemscore.Hbonds>
donor molecule, donor type, donor heavy atom, donor atom, acceptor molecule, acceptor atom, score
      P1  H  6896  6909       L1    12  0.63
      P1  H  6931  6943       L1    21  0.80
      P1  H  6934  6947       L1    21  0.52

> <Gold.PLP.Chemscore.Internal.Correction>
1.3197

> <Gold.Rescore>
     Score         DG    S(hbond)    S(metal)    S(lipo)     H(rot)  DE(clash)    DE(int)     intcor
     16.61     -19.19       1.71        0.00     101.48       1.52       0.22       2.36       ----

> <Gold.Chemscore.Fitness>
16.6123

> <Gold.Chemscore.DG>
-19.1932

> <Gold.Chemscore.ZeroCoef>
-5.4800

> <Gold.Chemscore.Hbond>
1.7123

> <Gold.Chemscore.Metal>
0.0000

> <Gold.Chemscore.Lipo>
101.4836

> <Gold.Chemscore.Internal_Hbond>
0.0000

> <Gold.Chemscore.DEClash>
0.2193

> <Gold.Chemscore.DEInternal>
2.3616

> <Gold.Chemscore.Rot>
1.5155

> <Gold.Chemscore.Internal.Correction>
   9.000000E+99

> <Gold.Chemscore.Hbonds>
donor molecule, donor type, donor heavy atom, donor atom, acceptor molecule, acceptor atom, score
      P1  H  6896  6909       L1    12  0.53
      P1  H  6931  6943       L1    21  0.11
      P1  H  6934  6947       L1    21  0.46

> <Gold.Chemscore.Hbond.Weighted>
-5.7192

> <Gold.Chemscore.Metal.Weighted>
-0.0000

> <Gold.Chemscore.Lipo.Weighted>
-11.8736

> <Gold.Chemscore.Internal_Hbond.Weighted>
0.0000

> <Gold.Chemscore.DEClash.Weighted>
0.2193

> <Gold.Chemscore.DEInternal.Weighted>
2.3616

> <Gold.Chemscore.Rot.Weighted>
3.8796

> <Gold.Chemscore.Internal.Correction.Weighted>
   9.000000E+99

> <Gold.Protein.RotatedTorsions>
[ 6907 6896 6895 6894 ] final  125.83 input  -60.11 | X-H torsion
[ 7974 7965 7964 7962 ] final   39.95 input  175.53 | X-H torsion
[ 8008 7997 7996 7995 ] final  103.37 input   59.86 | X-H torsion
[ 10167 10162 10161 10158 ] final   45.63 input  -65.29 | X-H torsion
[ 10718 10713 10712 10709 ] final  -51.88 input   66.30 | X-H torsion
[ 10763 10752 10751 10750 ] final    9.55 input  -60.55 | X-H torsion
[ 11005 11000 10999 10996 ] final -108.55 input  -57.11 | X-H torsion

> <Gold.Protein.ActiveResidues>
 VAL166  LYS551  ARG553  GLY616  TRP617  ASP618  TYR619  PRO620  LYS621  CYS622 
 ASP623  PHE694  ASN695  SER759  ASP760  ASP761  ALA762  ILE779  LEU786  VAL792 
 PHE793  MET794  SER795  GLU796  ALA797  LYS798  CYS799  TRP800  GLU811  SER814 

> <Gold.Protein.RotatedAtoms>
  152.3957  133.6744  159.6274 H   0  0  0  0  0  0  0  0  0  0  0  0  # atno 6907 bound_to 6896
  150.7857  133.8877  159.3313 H   0  0  0  0  0  0  0  0  0  0  0  0  # atno 6908 bound_to 6896
  151.6654  135.0985  160.0239 H   0  0  0  0  0  0  0  0  0  0  0  0  # atno 6909 bound_to 6896
  146.0944  139.5591  142.9455 H   0  0  0  0  0  0  0  0  0  0  0  0  # atno 7974 bound_to 7965
  156.1477  140.3166  155.8597 H   0  0  0  0  0  0  0  0  0  0  0  0  # atno 8008 bound_to 7997
  155.4031  140.0501  157.3053 H   0  0  0  0  0  0  0  0  0  0  0  0  # atno 8009 bound_to 7997
  154.5031  140.2137  155.9318 H   0  0  0  0  0  0  0  0  0  0  0  0  # atno 8010 bound_to 7997
  140.3222  144.2691  150.6181 H   0  0  0  0  0  0  0  0  0  0  0  0  # atno 10167 bound_to 10162
  156.1670  130.4149  149.9704 H   0  0  0  0  0  0  0  0  0  0  0  0  # atno 10718 bound_to 10713
  153.2128  135.6871  153.8093 H   0  0  0  0  0  0  0  0  0  0  0  0  # atno 10763 bound_to 10752
  153.7319  135.3251  155.3288 H   0  0  0  0  0  0  0  0  0  0  0  0  # atno 10764 bound_to 10752
  154.8231  135.4638  154.0943 H   0  0  0  0  0  0  0  0  0  0  0  0  # atno 10765 bound_to 10752
  141.0895  133.9079  157.2107 H   0  0  0  0  0  0  0  0  0  0  0  0  # atno 11005 bound_to 11000
  145.5977  141.0360  143.2035 LP  0  0  0  0  0  0  0  0  0  0  0  0  # atno 17320 bound_to 7965
  144.7384  139.7519  143.7320 LP  0  0  0  0  0  0  0  0  0  0  0  0  # atno 17321 bound_to 7965
  140.5473  143.2212  151.7986 LP  0  0  0  0  0  0  0  0  0  0  0  0  # atno 17342 bound_to 10162
  139.4872  144.4522  151.9640 LP  0  0  0  0  0  0  0  0  0  0  0  0  # atno 17343 bound_to 10162
  156.7516  130.9117  151.3637 LP  0  0  0  0  0  0  0  0  0  0  0  0  # atno 17370 bound_to 10713
  157.6775  130.9108  150.0187 LP  0  0  0  0  0  0  0  0  0  0  0  0  # atno 17371 bound_to 10713
  139.9719  135.0126  156.9533 LP  0  0  0  0  0  0  0  0  0  0  0  0  # atno 17394 bound_to 11000
  140.5284  134.0838  155.7309 LP  0  0  0  0  0  0  0  0  0  0  0  0  # atno 17395 bound_to 11000

$$$$
