AV-unprocessed.smi:1410|AV-procd|sdf|5729|dock2
  -GOLD-   22720 5363D 1   1.00000     0.00000
 Structure written by MMmdl.
 39 40  0  0  0  0  0  0  0  0  1 V2000
  146.2569  131.5975  150.3743 N   0  0  0  0  0  0  0  0  0  0  0  0
  145.2785  131.2009  151.1918 C   0  0  0  0  0  0  0  0  0  0  0  0
  145.3179  130.1285  151.7911 O   0  0  0  0  0  0  0  0  0  0  0  0
  144.0857  132.1485  151.3698 C   0  0  0  0  0  0  0  0  0  0  0  0
  144.4556  133.5430  151.7032 N   0  0  0  0  0  0  0  0  0  0  0  0
  143.3128  134.2082  152.3381 C   0  0  0  0  0  0  0  0  0  0  0  0
  143.7037  135.6166  152.8190 C   0  0  0  0  0  0  0  0  0  0  0  0
  144.2125  136.4764  151.6539 C   0  0  0  0  0  0  0  0  0  0  0  0
  144.6819  137.7654  152.1533 N   0  0  0  0  0  0  0  0  0  0  0  0
  145.8736  137.9836  152.7278 C   0  0  0  0  0  0  0  0  0  0  0  0
  146.7153  137.1014  152.8974 O   0  0  0  0  0  0  0  0  0  0  0  0
  146.0037  139.2686  153.1015 N   0  0  0  0  0  0  0  0  0  0  0  0
  147.1074  139.9058  153.7317 C   0  0  0  0  0  0  0  0  0  0  0  0
  147.0385  141.3019  153.9194 C   0  0  0  0  0  0  0  0  0  0  0  0
  148.1262  141.9607  154.5268 C   0  0  0  0  0  0  0  0  0  0  0  0
  149.2445  141.3249  154.9344 N   0  0  0  0  0  0  0  0  0  0  0  0
  149.3153  139.9908  154.7413 C   0  0  0  0  0  0  0  0  0  0  0  0
  148.2849  139.2366  154.1448 C   0  0  0  0  0  0  0  0  0  0  0  0
  145.3426  135.7219  150.9346 C   0  0  0  0  0  0  0  0  0  0  0  0
  144.8993  134.3059  150.5269 C   0  0  0  0  0  0  0  0  0  0  0  0
  147.0612  131.0038  150.2331 H   0  0  0  0  0  0  0  0  0  0  0  0
  146.1922  132.4884  149.9037 H   0  0  0  0  0  0  0  0  0  0  0  0
  143.4673  132.1372  150.4699 H   0  0  0  0  0  0  0  0  0  0  0  0
  143.4707  131.7362  152.1713 H   0  0  0  0  0  0  0  0  0  0  0  0
  142.4719  134.2652  151.6443 H   0  0  0  0  0  0  0  0  0  0  0  0
  142.9763  133.6254  153.1965 H   0  0  0  0  0  0  0  0  0  0  0  0
  142.8451  136.0964  153.2900 H   0  0  0  0  0  0  0  0  0  0  0  0
  144.4735  135.5348  153.5884 H   0  0  0  0  0  0  0  0  0  0  0  0
  143.3870  136.6362  150.9573 H   0  0  0  0  0  0  0  0  0  0  0  0
  144.0483  138.5459  152.0589 H   0  0  0  0  0  0  0  0  0  0  0  0
  145.1917  139.8524  152.9643 H   0  0  0  0  0  0  0  0  0  0  0  0
  146.1680  141.8619  153.6100 H   0  0  0  0  0  0  0  0  0  0  0  0
  148.0974  143.0283  154.6870 H   0  0  0  0  0  0  0  0  0  0  0  0
  150.2252  139.5086  155.0667 H   0  0  0  0  0  0  0  0  0  0  0  0
  148.4247  138.1756  154.0078 H   0  0  0  0  0  0  0  0  0  0  0  0
  145.6590  136.2739  150.0488 H   0  0  0  0  0  0  0  0  0  0  0  0
  146.2170  135.6534  151.5837 H   0  0  0  0  0  0  0  0  0  0  0  0
  145.7437  133.8177  150.0407 H   0  0  0  0  0  0  0  0  0  0  0  0
  144.0974  134.3587  149.7885 H   0  0  0  0  0  0  0  0  0  0  0  0
  1  2  1  0  0  0  0
  1 21  1  0  0  0  0
  1 22  1  0  0  0  0
  2  3  2  0  0  0  0
  2  4  1  0  0  0  0
  4  5  1  0  0  0  0
  4 23  1  0  0  0  0
  4 24  1  0  0  0  0
  5 20  1  0  0  0  0
  5  6  1  0  0  0  0
  6  7  1  0  0  0  0
  6 25  1  0  0  0  0
  6 26  1  0  0  0  0
  7  8  1  0  0  0  0
  7 27  1  0  0  0  0
  7 28  1  0  0  0  0
  8  9  1  0  0  0  0
  8 19  1  0  0  0  0
  8 29  1  0  0  0  0
  9 10  1  0  0  0  0
  9 30  1  0  0  0  0
 10 11  2  0  0  0  0
 10 12  1  0  0  0  0
 12 13  1  0  0  0  0
 12 31  1  0  0  0  0
 13 18  1  0  0  0  0
 13 14  2  0  0  0  0
 14 15  1  0  0  0  0
 14 32  1  0  0  0  0
 15 16  2  0  0  0  0
 15 33  1  0  0  0  0
 16 17  1  0  0  0  0
 17 18  2  0  0  0  0
 17 34  1  0  0  0  0
 18 35  1  0  0  0  0
 19 20  1  0  0  0  0
 19 36  1  0  0  0  0
 19 37  1  0  0  0  0
 20 38  1  0  0  0  0
 20 39  1  0  0  0  0
M  END
> <s_m_source_file>
AV-unprocessed.smi

> <i_m_source_file_index>
1410

> <i_lp_mmshare_version>
43012

> <i_f3d_flags>
0

> <s_epik_input>
W05IMl1DKD1PKVtDSDJdTjFbQ0gyXVtDSDJdW0NIXShbQ0gyXVtDSDJdMSlbTkhdQyg9TylbTkhdYzJbY0hdW2NIXW5bY0hdW2NIXTI=

> <s_epik_cmdline>
J2VwaWtfcHl0aG9uJywgJy1waCcsICc3LjAnLCAnLXRuJywgJzgnLCAnLW1hJywgJzIwMCcsICctbWV0YWxfYmluZGluZycsICctaW1hZScsICc8aW5maWxlLm1hZT4nLCAnLW9tYWUnLCAnPG91dGZpbGUubWFlPic=

> <r_epik_Ionization_Penalty>
0.286942

> <r_epik_Ionization_Penalty_Charging>
0

> <r_epik_Ionization_Penalty_Neutral>
0.286942

> <r_epik_State_Penalty>
0.264061

> <r_epik_Charging_Adjusted_Penalty>
0.264061

> <i_epik_Tot_Q>
0

> <i_epik_Tot_abs_Q>
0

> <r_epik_Metal_State_Penalty>
0.256326

> <b_epik_Metal_Only>
0

> <s_lp_Force_Field>
OPLS_2005

> <r_lp_Energy>
16.89

> <b_lp_Chiralities_Consistent>
1

> <s_lp_Variant>
AV-unprocessed.smi:1410-1

> <Gold.Version>
5.8.1

> <Gold.Id.Protein>
6NUR|6NUR_protein|mol2

> <Gold.PLP.Fitness>
42.0969

> <Gold.PLP.PLP>
-31.4654

> <Gold.PLP.part.hbond>
-4.5589

> <Gold.PLP.part.metal>
0.0000

> <Gold.PLP.part.buried>
-1.5180

> <Gold.PLP.part.nonpolar>
-29.1097

> <Gold.PLP.part.repulsive>
4.5184

> <Gold.PLP.ligand.clash>
0.0000

> <Gold.PLP.ligand.torsion>
0.5477

> <Gold.PLP.Chemscore.Hbond>
2.9040

> <Gold.PLP.Chemscore.CHOScore>
1.0000

> <Gold.PLP.Chemscore.Metal>
0.0000

> <Gold.Chemscore.Hbonds>
donor molecule, donor type, donor heavy atom, donor atom, acceptor molecule, acceptor atom, score
      L1  H     1    21       P1 10747  0.96
      L1  H     9    30       P1 10175  0.98
      L1  H    12    31       P1 10175  1.00
      L1  C    15    33       P1  8028  1.00

> <Gold.PLP.Chemscore.Internal.Correction>
0.0148

> <Gold.Rescore>
     Score         DG    S(hbond)    S(metal)    S(lipo)     H(rot)  DE(clash)    DE(int)     intcor
     11.55     -17.85       2.84        0.00      67.20       1.94       3.30       3.01       ----

> <Gold.Chemscore.Fitness>
11.5462

> <Gold.Chemscore.DG>
-17.8539

> <Gold.Chemscore.ZeroCoef>
-5.4800

> <Gold.Chemscore.Hbond>
2.8369

> <Gold.Chemscore.Metal>
0.0000

> <Gold.Chemscore.Lipo>
67.1975

> <Gold.Chemscore.Internal_Hbond>
0.0000

> <Gold.Chemscore.DEClash>
3.2999

> <Gold.Chemscore.DEInternal>
3.0078

> <Gold.Chemscore.Rot>
1.9389

> <Gold.Chemscore.Internal.Correction>
   9.000000E+99

> <Gold.Chemscore.Hbonds>
donor molecule, donor type, donor heavy atom, donor atom, acceptor molecule, acceptor atom, score
      L1  H     1    21       P1 10747  0.92
      L1  H     9    30       P1 10175  0.92
      L1  H    12    31       P1 10175  1.00

> <Gold.Chemscore.Hbond.Weighted>
-9.4754

> <Gold.Chemscore.Metal.Weighted>
-0.0000

> <Gold.Chemscore.Lipo.Weighted>
-7.8621

> <Gold.Chemscore.Internal_Hbond.Weighted>
0.0000

> <Gold.Chemscore.DEClash.Weighted>
3.2999

> <Gold.Chemscore.DEInternal.Weighted>
3.0078

> <Gold.Chemscore.Rot.Weighted>
4.9636

> <Gold.Chemscore.Internal.Correction.Weighted>
   9.000000E+99

> <Gold.Protein.RotatedTorsions>
[ 6907 6896 6895 6894 ] final -127.67 input  -60.11 | X-H torsion
[ 7974 7965 7964 7962 ] final  103.62 input  175.53 | X-H torsion
[ 8008 7997 7996 7995 ] final  -53.98 input   59.86 | X-H torsion
[ 10167 10162 10161 10158 ] final  -47.42 input  -65.29 | X-H torsion
[ 10718 10713 10712 10709 ] final -111.80 input   66.30 | X-H torsion
[ 10763 10752 10751 10750 ] final  123.59 input  -60.55 | X-H torsion
[ 11005 11000 10999 10996 ] final  110.71 input  -57.11 | X-H torsion

> <Gold.Protein.ActiveResidues>
 VAL166  LYS551  ARG553  GLY616  TRP617  ASP618  TYR619  PRO620  LYS621  CYS622 
 ASP623  PHE694  ASN695  SER759  ASP760  ASP761  ALA762  ILE779  LEU786  VAL792 
 PHE793  MET794  SER795  GLU796  ALA797  LYS798  CYS799  TRP800  GLU811  SER814 

> <Gold.Protein.RotatedAtoms>
  150.9098  133.7012  159.2857 H   0  0  0  0  0  0  0  0  0  0  0  0  # atno 6907 bound_to 6896
  151.4503  135.1028  159.9705 H   0  0  0  0  0  0  0  0  0  0  0  0  # atno 6908 bound_to 6896
  152.4923  133.8485  159.7244 H   0  0  0  0  0  0  0  0  0  0  0  0  # atno 6909 bound_to 6896
  145.3435  139.2456  143.3596 H   0  0  0  0  0  0  0  0  0  0  0  0  # atno 7974 bound_to 7965
  154.4149  140.1187  156.5241 H   0  0  0  0  0  0  0  0  0  0  0  0  # atno 8008 bound_to 7997
  155.6672  140.3496  155.4785 H   0  0  0  0  0  0  0  0  0  0  0  0  # atno 8009 bound_to 7997
  155.9663  140.1133  157.0841 H   0  0  0  0  0  0  0  0  0  0  0  0  # atno 8010 bound_to 7997
  140.6776  143.2785  151.3924 H   0  0  0  0  0  0  0  0  0  0  0  0  # atno 10167 bound_to 10162
  156.0668  130.5886  150.8422 H   0  0  0  0  0  0  0  0  0  0  0  0  # atno 10718 bound_to 10713
  153.6479  135.3368  155.3091 H   0  0  0  0  0  0  0  0  0  0  0  0  # atno 10763 bound_to 10752
  154.8544  135.4334  154.1935 H   0  0  0  0  0  0  0  0  0  0  0  0  # atno 10764 bound_to 10752
  153.2871  135.7014  153.7404 H   0  0  0  0  0  0  0  0  0  0  0  0  # atno 10765 bound_to 10752
  139.8887  134.9490  156.6320 H   0  0  0  0  0  0  0  0  0  0  0  0  # atno 11005 bound_to 11000
  146.2998  140.4037  142.8708 LP  0  0  0  0  0  0  0  0  0  0  0  0  # atno 17320 bound_to 7965
  144.8772  140.7352  143.6009 LP  0  0  0  0  0  0  0  0  0  0  0  0  # atno 17321 bound_to 7965
  139.6077  144.1162  152.2266 LP  0  0  0  0  0  0  0  0  0  0  0  0  # atno 17342 bound_to 10162
  140.0567  144.5890  150.7294 LP  0  0  0  0  0  0  0  0  0  0  0  0  # atno 17343 bound_to 10162
  157.5715  131.0946  150.9411 LP  0  0  0  0  0  0  0  0  0  0  0  0  # atno 17370 bound_to 10713
  156.9626  130.5461  149.5286 LP  0  0  0  0  0  0  0  0  0  0  0  0  # atno 17371 bound_to 10713
  140.7659  133.8778  155.8454 LP  0  0  0  0  0  0  0  0  0  0  0  0  # atno 17394 bound_to 11000
  140.9883  134.1313  157.4432 LP  0  0  0  0  0  0  0  0  0  0  0  0  # atno 17395 bound_to 11000

$$$$
