AV-unprocessed.smi:75|AV-procd|sdf|765|dock1
  -GOLD-   2262017103D 1   1.00000     0.00000
 Structure written by MMmdl.
 51 54  0  0  0  0  0  0  0  0  1 V2000
  152.7524  138.2800  159.4831 N   0  0  0  0  0  0  0  0  0  0  0  0
  152.4387  139.0932  158.4718 C   0  0  0  0  0  0  0  0  0  0  0  0
  152.9574  138.9763  157.3635 O   0  0  0  0  0  0  0  0  0  0  0  0
  151.3987  140.1856  158.7723 C   0  0  0  0  0  0  0  0  0  0  0  0
  151.8214  141.6556  158.4850 C   0  0  2  0  0  0  0  0  0  0  0  0
  153.0160  142.0940  159.3639 C   0  0  0  0  0  0  0  0  0  0  0  0
  153.4084  143.4193  159.0250 O   0  0  0  0  0  0  0  0  0  0  0  0
  152.3647  144.3557  159.2634 C   0  0  0  0  0  0  0  0  0  0  0  0
  151.1619  144.0095  158.3735 C   0  0  0  0  0  0  0  0  0  0  0  0
  150.7340  142.6359  158.6100 N   0  0  0  0  0  0  0  0  0  0  0  0
  149.5853  142.3640  157.9505 C   0  0  0  0  0  0  0  0  0  0  0  0
  149.7001  141.9285  156.6719 N   0  0  0  0  0  0  0  0  0  0  0  0
  148.6047  141.6438  155.9621 C   0  0  0  0  0  0  0  0  0  0  0  0
  147.3250  141.7185  156.3344 N   0  0  0  0  0  0  0  0  0  0  0  0
  147.2063  142.1454  157.6250 C   0  0  0  0  0  0  0  0  0  0  0  0
  148.2769  142.4836  158.5003 C   0  0  0  0  0  0  0  0  0  0  0  0
  147.7736  142.8609  159.7391 N   0  0  0  0  0  0  0  0  0  0  0  0
  146.4803  142.7555  159.6035 C   0  0  0  0  0  0  0  0  0  0  0  0
  146.0505  142.3410  158.3624 N   0  0  0  0  0  0  0  0  0  0  0  0
  144.6916  142.1286  157.9519 C   0  0  0  0  0  0  0  0  0  0  0  0
  143.8252  141.0412  158.5945 C   0  0  0  0  0  0  0  0  0  0  0  0
  143.1244  140.8135  157.2338 C   0  0  0  0  0  0  0  0  0  0  0  0
  142.8323  139.3567  156.8228 C   0  0  0  0  0  0  0  0  0  0  0  0
  142.4681  139.2405  155.4614 O   0  0  0  0  0  0  0  0  0  0  0  0
  141.8289  141.6177  157.0156 C   0  0  0  0  0  0  0  0  0  0  0  0
  141.3329  141.4598  155.7017 O   0  0  0  0  0  0  0  0  0  0  0  0
  144.3809  141.4638  156.6094 C   0  0  0  0  0  0  0  0  0  0  0  0
  153.4318  137.5465  159.3417 H   0  0  0  0  0  0  0  0  0  0  0  0
  152.3139  138.4006  160.3844 H   0  0  0  0  0  0  0  0  0  0  0  0
  150.5023  139.9665  158.1905 H   0  0  0  0  0  0  0  0  0  0  0  0
  151.0973  140.0794  159.8148 H   0  0  0  0  0  0  0  0  0  0  0  0
  152.1729  141.6919  157.4538 H   0  0  0  0  0  0  0  0  0  0  0  0
  152.7771  142.0468  160.4271 H   0  0  0  0  0  0  0  0  0  0  0  0
  153.8655  141.4303  159.2017 H   0  0  0  0  0  0  0  0  0  0  0  0
  152.0849  144.3498  160.3182 H   0  0  0  0  0  0  0  0  0  0  0  0
  152.7259  145.3580  159.0336 H   0  0  0  0  0  0  0  0  0  0  0  0
  150.3410  144.6979  158.5794 H   0  0  0  0  0  0  0  0  0  0  0  0
  151.4301  144.1330  157.3232 H   0  0  0  0  0  0  0  0  0  0  0  0
  148.7785  141.3079  154.9504 H   0  0  0  0  0  0  0  0  0  0  0  0
  145.8004  142.9760  160.4137 H   0  0  0  0  0  0  0  0  0  0  0  0
  144.1848  143.0924  158.0213 H   0  0  0  0  0  0  0  0  0  0  0  0
  144.4050  140.1820  158.9335 H   0  0  0  0  0  0  0  0  0  0  0  0
  143.1764  141.4034  159.3923 H   0  0  0  0  0  0  0  0  0  0  0  0
  143.7018  138.7193  156.9846 H   0  0  0  0  0  0  0  0  0  0  0  0
  142.0217  138.9408  157.4221 H   0  0  0  0  0  0  0  0  0  0  0  0
  142.6623  140.0577  155.0281 H   0  0  0  0  0  0  0  0  0  0  0  0
  141.0460  141.3039  157.7064 H   0  0  0  0  0  0  0  0  0  0  0  0
  141.9913  142.6799  157.2024 H   0  0  0  0  0  0  0  0  0  0  0  0
  142.0484  141.2047  155.1394 H   0  0  0  0  0  0  0  0  0  0  0  0
  144.1786  142.1653  155.7995 H   0  0  0  0  0  0  0  0  0  0  0  0
  145.1491  140.7474  156.3145 H   0  0  0  0  0  0  0  0  0  0  0  0
  1  2  1  0  0  0  0
  1 28  1  0  0  0  0
  1 29  1  0  0  0  0
  2  3  2  0  0  0  0
  2  4  1  0  0  0  0
  4  5  1  0  0  0  0
  4 30  1  0  0  0  0
  4 31  1  0  0  0  0
  5 10  1  0  0  0  0
  5  6  1  0  0  0  0
  5 32  1  0  0  0  0
  6  7  1  0  0  0  0
  6 33  1  0  0  0  0
  6 34  1  0  0  0  0
  7  8  1  0  0  0  0
  8  9  1  0  0  0  0
  8 35  1  0  0  0  0
  8 36  1  0  0  0  0
  9 10  1  0  0  0  0
  9 37  1  0  0  0  0
  9 38  1  0  0  0  0
 10 11  1  0  0  0  0
 11 16  1  0  0  0  0
 11 12  2  0  0  0  0
 12 13  1  0  0  0  0
 13 14  2  0  0  0  0
 13 39  1  0  0  0  0
 14 15  1  0  0  0  0
 15 19  1  0  0  0  0
 15 16  2  0  0  0  0
 16 17  1  0  0  0  0
 17 18  2  0  0  0  0
 18 19  1  0  0  0  0
 18 40  1  0  0  0  0
 19 20  1  0  0  0  0
 20 27  1  0  0  0  0
 20 21  1  0  0  0  0
 20 41  1  0  0  0  0
 21 22  1  0  0  0  0
 21 42  1  0  0  0  0
 21 43  1  0  0  0  0
 22 23  1  0  0  0  0
 22 25  1  0  0  0  0
 22 27  1  0  0  0  0
 23 24  1  0  0  0  0
 23 44  1  0  0  0  0
 23 45  1  0  0  0  0
 24 46  1  0  0  0  0
 25 26  1  0  0  0  0
 25 47  1  0  0  0  0
 25 48  1  0  0  0  0
 26 49  1  0  0  0  0
 27 50  1  0  0  0  0
 27 51  1  0  0  0  0
M  END
> <s_m_source_file>
AV-unprocessed.smi

> <i_m_source_file_index>
75

> <i_lp_mmshare_version>
43012

> <i_f3d_flags>
0

> <s_epik_input>
W05IMl1DKD1PKVtDSDJdW0NAQEhdMVtDSDJdT1tDSDJdW0NIMl1OMWMobltjSF1uMiljKGMyMyluW2NIXW4zW0NIXShbQ0gyXTQpW0NIMl1DNChbQ0gyXVtPSF0pW0NIMl1bT0hd

> <s_epik_cmdline>
J2VwaWtfcHl0aG9uJywgJy1waCcsICc3LjAnLCAnLXRuJywgJzgnLCAnLW1hJywgJzIwMCcsICctbWV0YWxfYmluZGluZycsICctaW1hZScsICc8aW5maWxlLm1hZT4nLCAnLW9tYWUnLCAnPG91dGZpbGUubWFlPic=

> <r_lp_tautomer_probability>
1

> <r_epik_Ionization_Penalty>
5.29078e-05

> <r_epik_Ionization_Penalty_Charging>
0

> <r_epik_Ionization_Penalty_Neutral>
5.29078e-05

> <r_epik_State_Penalty>
-0

> <r_epik_Charging_Adjusted_Penalty>
0

> <i_epik_Tot_Q>
0

> <i_epik_Tot_abs_Q>
0

> <r_epik_Metal_State_Penalty>
-0

> <b_epik_Metal_Only>
0

> <s_lp_Force_Field>
OPLS_2005

> <r_lp_Energy>
38.8238

> <b_lp_Chiralities_Consistent>
1

> <s_lp_Variant>
AV-unprocessed.smi:75-1

> <Gold.Version>
5.8.1

> <Gold.Id.Protein>
6NUR|6NUR_protein|mol2

> <Gold.PLP.Fitness>
41.4041

> <Gold.PLP.PLP>
-33.1255

> <Gold.PLP.part.hbond>
-5.1638

> <Gold.PLP.part.metal>
0.0000

> <Gold.PLP.part.buried>
-5.8925

> <Gold.PLP.part.nonpolar>
-22.9263

> <Gold.PLP.part.repulsive>
0.4720

> <Gold.PLP.ligand.clash>
0.0000

> <Gold.PLP.ligand.torsion>
0.8265

> <Gold.PLP.Chemscore.Hbond>
3.0761

> <Gold.PLP.Chemscore.CHOScore>
0.0000

> <Gold.PLP.Chemscore.Metal>
0.0000

> <Gold.Chemscore.Hbonds>
donor molecule, donor type, donor heavy atom, donor atom, acceptor molecule, acceptor atom, score
      P1  H  6933  6944       L1    17  0.70
      P1  H  7997  8010       L1     3  1.00

> <Gold.PLP.Chemscore.Internal.Correction>
0.7033

> <Gold.Rescore>
     Score         DG    S(hbond)    S(metal)    S(lipo)     H(rot)  DE(clash)    DE(int)     intcor
      7.92     -10.21       3.04        0.00      54.98       4.63       0.11       2.17       ----

> <Gold.Chemscore.Fitness>
7.9215

> <Gold.Chemscore.DG>
-10.2088

> <Gold.Chemscore.ZeroCoef>
-5.4800

> <Gold.Chemscore.Hbond>
3.0355

> <Gold.Chemscore.Metal>
0.0000

> <Gold.Chemscore.Lipo>
54.9840

> <Gold.Chemscore.Internal_Hbond>
0.0000

> <Gold.Chemscore.DEClash>
0.1129

> <Gold.Chemscore.DEInternal>
2.1744

> <Gold.Chemscore.Rot>
4.6261

> <Gold.Chemscore.Internal.Correction>
   9.000000E+99

> <Gold.Chemscore.Hbonds>
donor molecule, donor type, donor heavy atom, donor atom, acceptor molecule, acceptor atom, score
      P1  H  6933  6944       L1    17  0.66
      P1  H  7997  8010       L1     3  0.99

> <Gold.Chemscore.Hbond.Weighted>
-10.1386

> <Gold.Chemscore.Metal.Weighted>
-0.0000

> <Gold.Chemscore.Lipo.Weighted>
-6.4331

> <Gold.Chemscore.Internal_Hbond.Weighted>
0.0000

> <Gold.Chemscore.DEClash.Weighted>
0.1129

> <Gold.Chemscore.DEInternal.Weighted>
2.1744

> <Gold.Chemscore.Rot.Weighted>
11.8429

> <Gold.Chemscore.Internal.Correction.Weighted>
   9.000000E+99

> <Gold.Protein.RotatedTorsions>
[ 6907 6896 6895 6894 ] final   35.89 input  -60.11 | X-H torsion
[ 7974 7965 7964 7962 ] final   95.04 input  175.53 | X-H torsion
[ 8008 7997 7996 7995 ] final   58.72 input   59.86 | X-H torsion
[ 10167 10162 10161 10158 ] final  114.63 input  -65.29 | X-H torsion
[ 10718 10713 10712 10709 ] final    5.65 input   66.30 | X-H torsion
[ 10763 10752 10751 10750 ] final   81.59 input  -60.55 | X-H torsion
[ 11005 11000 10999 10996 ] final -174.94 input  -57.11 | X-H torsion

> <Gold.Protein.ActiveResidues>
 VAL166  LYS551  ARG553  GLY616  TRP617  ASP618  TYR619  PRO620  LYS621  CYS622 
 ASP623  PHE694  ASN695  SER759  ASP760  ASP761  ALA762  ILE779  LEU786  VAL792 
 PHE793  MET794  SER795  GLU796  ALA797  LYS798  CYS799  TRP800  GLU811  SER814 

> <Gold.Protein.RotatedAtoms>
  152.1223  134.9196  160.0562 H   0  0  0  0  0  0  0  0  0  0  0  0  # atno 6907 bound_to 6896
  152.0332  133.3941  159.4314 H   0  0  0  0  0  0  0  0  0  0  0  0  # atno 6908 bound_to 6896
  150.6850  134.3418  159.4915 H   0  0  0  0  0  0  0  0  0  0  0  0  # atno 6909 bound_to 6896
  145.4574  139.2289  143.3006 H   0  0  0  0  0  0  0  0  0  0  0  0  # atno 7974 bound_to 7965
  155.5546  140.3487  155.4476 H   0  0  0  0  0  0  0  0  0  0  0  0  # atno 8008 bound_to 7997
  156.0559  140.1328  157.0023 H   0  0  0  0  0  0  0  0  0  0  0  0  # atno 8009 bound_to 7997
  154.4456  140.0995  156.6429 H   0  0  0  0  0  0  0  0  0  0  0  0  # atno 8010 bound_to 7997
  139.6374  144.7121  151.2306 H   0  0  0  0  0  0  0  0  0  0  0  0  # atno 10167 bound_to 10162
  156.9105  130.5754  149.5647 H   0  0  0  0  0  0  0  0  0  0  0  0  # atno 10718 bound_to 10713
  153.1130  135.4760  154.9067 H   0  0  0  0  0  0  0  0  0  0  0  0  # atno 10763 bound_to 10752
  154.7499  135.3103  154.8578 H   0  0  0  0  0  0  0  0  0  0  0  0  # atno 10764 bound_to 10752
  153.9162  135.6860  153.4803 H   0  0  0  0  0  0  0  0  0  0  0  0  # atno 10765 bound_to 10752
  140.4689  134.6184  157.4874 H   0  0  0  0  0  0  0  0  0  0  0  0  # atno 11005 bound_to 11000
  146.2470  140.5340  142.8909 LP  0  0  0  0  0  0  0  0  0  0  0  0  # atno 17320 bound_to 7965
  144.8023  140.6236  143.6470 LP  0  0  0  0  0  0  0  0  0  0  0  0  # atno 17321 bound_to 7965
  140.7473  143.6371  150.8369 LP  0  0  0  0  0  0  0  0  0  0  0  0  # atno 17342 bound_to 10162
  140.0004  143.5750  152.2877 LP  0  0  0  0  0  0  0  0  0  0  0  0  # atno 17343 bound_to 10162
  156.0538  130.5603  150.9047 LP  0  0  0  0  0  0  0  0  0  0  0  0  # atno 17370 bound_to 10713
  157.5970  131.0942  150.9024 LP  0  0  0  0  0  0  0  0  0  0  0  0  # atno 17371 bound_to 10713
  139.9898  134.7004  155.9710 LP  0  0  0  0  0  0  0  0  0  0  0  0  # atno 17394 bound_to 11000
  141.1586  133.6540  156.4244 LP  0  0  0  0  0  0  0  0  0  0  0  0  # atno 17395 bound_to 11000

$$$$
