AV-unprocessed.smi:3303|AV-procd|sdf|12683|dock2
  -GOLD-   2272019 23D 1   1.00000     0.00000
 Structure written by MMmdl.
 44 45  0  0  0  0  0  0  0  0  2 V2000
  149.6767  138.8738  153.9588 C   0  0  0  0  0  0  0  0  0  0  0  0
  148.5769  139.8208  154.4703 C   0  0  2  0  0  0  0  0  0  0  0  0
  147.2915  139.6316  153.6322 C   0  0  0  0  0  0  0  0  0  0  0  0
  146.1977  140.5471  154.0467 N   0  3  1  0  0  0  0  0  0  0  0  0
  145.5621  140.1455  155.3274 C   0  0  0  0  0  0  0  0  0  0  0  0
  146.6198  141.9742  153.9582 C   0  0  1  0  0  0  0  0  0  0  0  0
  145.4755  142.9578  154.2583 C   0  0  0  0  0  0  0  0  0  0  0  0
  147.8675  142.2408  154.8224 C   0  0  0  0  0  0  0  0  0  0  0  0
  149.0287  141.3007  154.4459 C   0  0  1  0  0  0  0  0  0  0  0  0
  150.0930  141.5024  155.4218 N   0  0  0  0  0  0  0  0  0  0  0  0
  149.6498  141.1708  156.7671 C   0  0  0  0  0  0  0  0  0  0  0  0
  150.8674  141.0384  157.6919 C   0  0  0  0  0  0  0  0  0  0  0  0
  151.1979  142.3410  158.3955 C   0  0  0  0  0  0  0  0  0  0  0  0
  152.3842  142.4727  159.1484 C   0  0  0  0  0  0  0  0  0  0  0  0
  152.6433  143.7032  159.7826 C   0  0  0  0  0  0  0  0  0  0  0  0
  151.7103  144.7484  159.6422 C   0  0  0  0  0  0  0  0  0  0  0  0
  150.5550  144.5160  158.8695 C   0  0  0  0  0  0  0  0  0  0  0  0
  150.2974  143.3403  158.2566 N   0  0  0  0  0  0  0  0  0  0  0  0
  149.9643  139.1168  152.9354 H   0  0  0  0  0  0  0  0  0  0  0  0
  149.3386  137.8372  153.9717 H   0  0  0  0  0  0  0  0  0  0  0  0
  150.5730  138.9281  154.5771 H   0  0  0  0  0  0  0  0  0  0  0  0
  148.3556  139.5404  155.5012 H   0  0  0  0  0  0  0  0  0  0  0  0
  147.5108  139.8176  152.5797 H   0  0  0  0  0  0  0  0  0  0  0  0
  146.9463  138.5985  153.6897 H   0  0  0  0  0  0  0  0  0  0  0  0
  146.2227  140.3002  156.1803 H   0  0  0  0  0  0  0  0  0  0  0  0
  145.2918  139.0895  155.3027 H   0  0  0  0  0  0  0  0  0  0  0  0
  144.6414  140.7007  155.5043 H   0  0  0  0  0  0  0  0  0  0  0  0
  146.9021  142.1422  152.9174 H   0  0  0  0  0  0  0  0  0  0  0  0
  145.7778  143.9803  154.0307 H   0  0  0  0  0  0  0  0  0  0  0  0
  145.1821  142.9369  155.3080 H   0  0  0  0  0  0  0  0  0  0  0  0
  144.5945  142.7353  153.6553 H   0  0  0  0  0  0  0  0  0  0  0  0
  148.1842  143.2773  154.6959 H   0  0  0  0  0  0  0  0  0  0  0  0
  147.6170  142.1301  155.8785 H   0  0  0  0  0  0  0  0  0  0  0  0
  149.3677  141.5495  153.4384 H   0  0  0  0  0  0  0  0  0  0  0  0
  150.8960  140.9395  155.1798 H   0  0  0  0  0  0  0  0  0  0  0  0
  148.9832  141.9517  157.1360 H   0  0  0  0  0  0  0  0  0  0  0  0
  149.0867  140.2368  156.7486 H   0  0  0  0  0  0  0  0  0  0  0  0
  150.6883  140.2639  158.4390 H   0  0  0  0  0  0  0  0  0  0  0  0
  151.7398  140.7173  157.1202 H   0  0  0  0  0  0  0  0  0  0  0  0
  153.0808  141.6521  159.2390 H   0  0  0  0  0  0  0  0  0  0  0  0
  153.5414  143.8426  160.3659 H   0  0  0  0  0  0  0  0  0  0  0  0
  151.8763  145.7052  160.1150 H   0  0  0  0  0  0  0  0  0  0  0  0
  149.8183  145.2950  158.7402 H   0  0  0  0  0  0  0  0  0  0  0  0
  145.4737  140.4321  153.3517 H   0  0  0  0  0  0  0  0  0  0  0  0
  1  2  1  0  0  0  0
  1 19  1  0  0  0  0
  1 20  1  0  0  0  0
  1 21  1  0  0  0  0
  2  9  1  0  0  0  0
  2  3  1  0  0  0  0
  2 22  1  0  0  0  0
  3  4  1  0  0  0  0
  3 23  1  0  0  0  0
  3 24  1  0  0  0  0
  4  5  1  0  0  0  0
  4  6  1  0  0  0  0
  4 44  1  0  0  0  0
  5 25  1  0  0  0  0
  5 26  1  0  0  0  0
  5 27  1  0  0  0  0
  6  7  1  0  0  0  0
  6  8  1  0  0  0  0
  6 28  1  0  0  0  0
  7 29  1  0  0  0  0
  7 30  1  0  0  0  0
  7 31  1  0  0  0  0
  8  9  1  0  0  0  0
  8 32  1  0  0  0  0
  8 33  1  0  0  0  0
  9 10  1  0  0  0  0
  9 34  1  0  0  0  0
 10 11  1  0  0  0  0
 10 35  1  0  0  0  0
 11 12  1  0  0  0  0
 11 36  1  0  0  0  0
 11 37  1  0  0  0  0
 12 13  1  0  0  0  0
 12 38  1  0  0  0  0
 12 39  1  0  0  0  0
 13 18  1  0  0  0  0
 13 14  2  0  0  0  0
 14 15  1  0  0  0  0
 14 40  1  0  0  0  0
 15 16  2  0  0  0  0
 15 41  1  0  0  0  0
 16 17  1  0  0  0  0
 16 42  1  0  0  0  0
 17 18  2  0  0  0  0
 17 43  1  0  0  0  0
M  CHG  1   4   1
M  END
> <s_m_source_file>
AV-unprocessed.smi

> <i_m_source_file_index>
3303

> <i_lp_mmshare_version>
43012

> <i_f3d_flags>
0

> <s_epik_input>
W0NIM11bQ0BASF0xW0NIMl1OKFtDSDNdKVtDQEBIXShbQ0gzXSlbQ0gyXVtDQEhdMVtOSF1bQ0gyXVtDSDJdYzJbY0hdW2NIXVtjSF1bY0hdbjI=

> <s_epik_cmdline>
J2VwaWtfcHl0aG9uJywgJy1waCcsICc3LjAnLCAnLXRuJywgJzgnLCAnLW1hJywgJzIwMCcsICctbWV0YWxfYmluZGluZycsICctaW1hZScsICc8aW5maWxlLm1hZT4nLCAnLW9tYWUnLCAnPG91dGZpbGUubWFlPic=

> <r_epik_Ionization_Penalty>
2.31085

> <r_epik_Ionization_Penalty_Charging>
0.000313057

> <r_epik_Ionization_Penalty_Neutral>
2.31054

> <r_epik_State_Penalty>
2.4087

> <r_epik_Charging_Adjusted_Penalty>
2.40902

> <i_epik_Tot_Q>
1

> <i_epik_Tot_abs_Q>
1

> <r_epik_Metal_State_Penalty>
2.30979

> <b_epik_Metal_Only>
0

> <s_lp_Force_Field>
OPLS_2005

> <r_lp_Energy>
25.8109

> <b_lp_Chiralities_Consistent>
1

> <s_lp_Variant>
AV-unprocessed.smi:3303-27

> <Gold.Version>
5.8.1

> <Gold.Id.Protein>
6NUR|6NUR_protein|mol2

> <Gold.PLP.Fitness>
47.4956

> <Gold.PLP.PLP>
-39.1254

> <Gold.PLP.part.hbond>
-1.8247

> <Gold.PLP.part.metal>
0.0000

> <Gold.PLP.part.buried>
-1.7993

> <Gold.PLP.part.nonpolar>
-36.4519

> <Gold.PLP.part.repulsive>
0.3925

> <Gold.PLP.ligand.clash>
0.0000

> <Gold.PLP.ligand.torsion>
0.3355

> <Gold.PLP.Chemscore.Hbond>
2.0000

> <Gold.PLP.Chemscore.CHOScore>
1.0000

> <Gold.PLP.Chemscore.Metal>
0.0000

> <Gold.Chemscore.Hbonds>
donor molecule, donor type, donor heavy atom, donor atom, acceptor molecule, acceptor atom, score
      L1  H     4    44       P1 10175  2.00
      L1  C    17    43       P1  8029  1.00

> <Gold.PLP.Chemscore.Internal.Correction>
0.0413

> <Gold.Rescore>
     Score         DG    S(hbond)    S(metal)    S(lipo)     H(rot)  DE(clash)    DE(int)     intcor
     17.56     -18.23       0.99        0.00     109.64       1.33       0.23       0.44       ----

> <Gold.Chemscore.Fitness>
17.5572

> <Gold.Chemscore.DG>
-18.2254

> <Gold.Chemscore.ZeroCoef>
-5.4800

> <Gold.Chemscore.Hbond>
0.9926

> <Gold.Chemscore.Metal>
0.0000

> <Gold.Chemscore.Lipo>
109.6382

> <Gold.Chemscore.Internal_Hbond>
0.0000

> <Gold.Chemscore.DEClash>
0.2256

> <Gold.Chemscore.DEInternal>
0.4426

> <Gold.Chemscore.Rot>
1.3272

> <Gold.Chemscore.Internal.Correction>
   9.000000E+99

> <Gold.Chemscore.Hbonds>
donor molecule, donor type, donor heavy atom, donor atom, acceptor molecule, acceptor atom, score
      L1  H     4    44       P1 10175  0.94

> <Gold.Chemscore.Hbond.Weighted>
-3.3153

> <Gold.Chemscore.Metal.Weighted>
-0.0000

> <Gold.Chemscore.Lipo.Weighted>
-12.8277

> <Gold.Chemscore.Internal_Hbond.Weighted>
0.0000

> <Gold.Chemscore.DEClash.Weighted>
0.2256

> <Gold.Chemscore.DEInternal.Weighted>
0.4426

> <Gold.Chemscore.Rot.Weighted>
3.3976

> <Gold.Chemscore.Internal.Correction.Weighted>
   9.000000E+99

> <Gold.Protein.RotatedTorsions>
[ 6907 6896 6895 6894 ] final   87.34 input  -60.11 | X-H torsion
[ 7974 7965 7964 7962 ] final  156.30 input  175.53 | X-H torsion
[ 8008 7997 7996 7995 ] final   19.26 input   59.86 | X-H torsion
[ 10167 10162 10161 10158 ] final  -50.83 input  -65.29 | X-H torsion
[ 10718 10713 10712 10709 ] final  159.51 input   66.30 | X-H torsion
[ 10763 10752 10751 10750 ] final   64.93 input  -60.55 | X-H torsion
[ 11005 11000 10999 10996 ] final   48.27 input  -57.11 | X-H torsion

> <Gold.Protein.ActiveResidues>
 VAL166  LYS551  ARG553  GLY616  TRP617  ASP618  TYR619  PRO620  LYS621  CYS622 
 ASP623  PHE694  ASN695  SER759  ASP760  ASP761  ALA762  ILE779  LEU786  VAL792 
 PHE793  MET794  SER795  GLU796  ALA797  LYS798  CYS799  TRP800  GLU811  SER814 

> <Gold.Protein.RotatedAtoms>
  152.5409  134.2291  159.8817 H   0  0  0  0  0  0  0  0  0  0  0  0  # atno 6907 bound_to 6896
  151.2264  133.4467  159.2610 H   0  0  0  0  0  0  0  0  0  0  0  0  # atno 6908 bound_to 6896
  151.0757  134.9840  159.8387 H   0  0  0  0  0  0  0  0  0  0  0  0  # atno 6909 bound_to 6896
  144.7971  139.7185  143.6197 H   0  0  0  0  0  0  0  0  0  0  0  0  # atno 7974 bound_to 7965
  154.9182  140.3023  155.5230 H   0  0  0  0  0  0  0  0  0  0  0  0  # atno 8008 bound_to 7997
  156.3011  140.2376  156.4165 H   0  0  0  0  0  0  0  0  0  0  0  0  # atno 8009 bound_to 7997
  154.8357  140.0416  157.1496 H   0  0  0  0  0  0  0  0  0  0  0  0  # atno 8010 bound_to 7997
  140.6618  143.2642  151.4416 H   0  0  0  0  0  0  0  0  0  0  0  0  # atno 10167 bound_to 10162
  157.1631  131.0592  151.2222 H   0  0  0  0  0  0  0  0  0  0  0  0  # atno 10718 bound_to 10713
  153.0075  135.5375  154.6587 H   0  0  0  0  0  0  0  0  0  0  0  0  # atno 10763 bound_to 10752
  154.5801  135.2849  155.0743 H   0  0  0  0  0  0  0  0  0  0  0  0  # atno 10764 bound_to 10752
  154.1876  135.6505  153.5103 H   0  0  0  0  0  0  0  0  0  0  0  0  # atno 10765 bound_to 10752
  140.1205  134.4835  155.8601 H   0  0  0  0  0  0  0  0  0  0  0  0  # atno 11005 bound_to 11000
  146.2243  139.5693  142.9598 LP  0  0  0  0  0  0  0  0  0  0  0  0  # atno 17320 bound_to 7965
  145.5645  141.0401  143.2208 LP  0  0  0  0  0  0  0  0  0  0  0  0  # atno 17321 bound_to 7965
  139.5854  144.1616  152.2022 LP  0  0  0  0  0  0  0  0  0  0  0  0  # atno 17342 bound_to 10162
  140.0954  144.5585  150.7026 LP  0  0  0  0  0  0  0  0  0  0  0  0  # atno 17343 bound_to 10162
  157.4113  130.7387  149.6841 LP  0  0  0  0  0  0  0  0  0  0  0  0  # atno 17370 bound_to 10713
  155.9750  130.4094  150.3879 LP  0  0  0  0  0  0  0  0  0  0  0  0  # atno 17371 bound_to 10713
  141.2150  133.6759  156.6880 LP  0  0  0  0  0  0  0  0  0  0  0  0  # atno 17394 bound_to 11000
  140.2971  134.8194  157.4066 LP  0  0  0  0  0  0  0  0  0  0  0  0  # atno 17395 bound_to 11000

$$$$
