AV-unprocessed.smi:1247|AV-procd|sdf|5248|dock9
  -GOLD-   22720 4363D 1   1.00000     0.00000
 Structure written by MMmdl.
 47 48  0  0  0  0  0  0  0  0  2 V2000
  152.2904  141.5507  158.8201 C   0  0  0  0  0  0  0  0  0  0  0  0
  151.8763  140.9270  157.5199 C   0  0  0  0  0  0  0  0  0  0  0  0
  150.7384  141.2391  156.7206 C   0  0  0  0  0  0  0  0  0  0  0  0
  150.8625  140.3733  155.6684 C   0  0  0  0  0  0  0  0  0  0  0  0
  150.0513  140.2194  154.5879 N   0  0  0  0  0  0  0  0  0  0  0  0
  148.7075  140.1952  154.5445 C   0  0  0  0  0  0  0  0  0  0  0  0
  147.9581  140.3098  155.5147 O   0  0  0  0  0  0  0  0  0  0  0  0
  148.2625  140.0266  153.2908 N   0  0  0  0  0  0  0  0  0  0  0  0
  146.8550  139.9784  152.9117 C   0  0  0  0  0  0  0  0  0  0  0  0
  146.4405  138.5694  152.4456 C   0  0  0  0  0  0  0  0  0  0  0  0
  145.1357  138.1512  153.0156 N   0  3  1  0  0  0  0  0  0  0  0  0
  144.7335  136.7941  152.5797 C   0  0  0  0  0  0  0  0  0  0  0  0
  143.3307  136.4517  153.1129 C   0  0  1  0  0  0  0  0  0  0  0  0
  142.9126  135.0213  152.7551 C   0  0  0  0  0  0  0  0  0  0  0  0
  143.3222  136.5680  154.5332 O   0  0  0  0  0  0  0  0  0  0  0  0
  143.6941  137.8525  155.0325 C   0  0  2  0  0  0  0  0  0  0  0  0
  142.6088  138.9141  154.7796 C   0  0  0  0  0  0  0  0  0  0  0  0
  145.0826  138.2516  154.4953 C   0  0  0  0  0  0  0  0  0  0  0  0
  151.9986  139.6150  155.8481 N   0  0  0  0  0  0  0  0  0  0  0  0
  152.5519  138.5680  155.0112 C   0  0  0  0  0  0  0  0  0  0  0  0
  152.6205  139.9591  156.9966 N   0  0  0  0  0  0  0  0  0  0  0  0
  151.5990  142.3401  159.1160 H   0  0  0  0  0  0  0  0  0  0  0  0
  153.2844  141.9921  158.7452 H   0  0  0  0  0  0  0  0  0  0  0  0
  152.3116  140.8115  159.6210 H   0  0  0  0  0  0  0  0  0  0  0  0
  149.9741  141.9779  156.9079 H   0  0  0  0  0  0  0  0  0  0  0  0
  150.5288  140.1119  153.7051 H   0  0  0  0  0  0  0  0  0  0  0  0
  148.9415  139.9399  152.5484 H   0  0  0  0  0  0  0  0  0  0  0  0
  146.2481  140.3176  153.7516 H   0  0  0  0  0  0  0  0  0  0  0  0
  146.6960  140.6964  152.1067 H   0  0  0  0  0  0  0  0  0  0  0  0
  146.3710  138.5820  151.3568 H   0  0  0  0  0  0  0  0  0  0  0  0
  147.2020  137.8289  152.6952 H   0  0  0  0  0  0  0  0  0  0  0  0
  144.7309  136.7418  151.4901 H   0  0  0  0  0  0  0  0  0  0  0  0
  145.4648  136.0653  152.9340 H   0  0  0  0  0  0  0  0  0  0  0  0
  142.5978  137.1348  152.6828 H   0  0  0  0  0  0  0  0  0  0  0  0
  142.8906  134.8768  151.6747 H   0  0  0  0  0  0  0  0  0  0  0  0
  141.9169  134.7988  153.1394 H   0  0  0  0  0  0  0  0  0  0  0  0
  143.6027  134.2901  153.1773 H   0  0  0  0  0  0  0  0  0  0  0  0
  143.7772  137.7413  156.1141 H   0  0  0  0  0  0  0  0  0  0  0  0
  142.8515  139.8443  155.2939 H   0  0  0  0  0  0  0  0  0  0  0  0
  141.6414  138.5761  155.1518 H   0  0  0  0  0  0  0  0  0  0  0  0
  142.4971  139.1497  153.7216 H   0  0  0  0  0  0  0  0  0  0  0  0
  145.8398  137.5923  154.9228 H   0  0  0  0  0  0  0  0  0  0  0  0
  145.3262  139.2607  154.8263 H   0  0  0  0  0  0  0  0  0  0  0  0
  152.5449  138.8862  153.9682 H   0  0  0  0  0  0  0  0  0  0  0  0
  151.9514  137.6638  155.1135 H   0  0  0  0  0  0  0  0  0  0  0  0
  153.5796  138.3476  155.3031 H   0  0  0  0  0  0  0  0  0  0  0  0
  144.4410  138.7850  152.6468 H   0  0  0  0  0  0  0  0  0  0  0  0
  1  2  1  0  0  0  0
  1 22  1  0  0  0  0
  1 23  1  0  0  0  0
  1 24  1  0  0  0  0
  2 21  2  0  0  0  0
  2  3  1  0  0  0  0
  3  4  2  0  0  0  0
  3 25  1  0  0  0  0
  4  5  1  0  0  0  0
  4 19  1  0  0  0  0
  5  6  1  0  0  0  0
  5 26  1  0  0  0  0
  6  7  2  0  0  0  0
  6  8  1  0  0  0  0
  8  9  1  0  0  0  0
  8 27  1  0  0  0  0
  9 10  1  0  0  0  0
  9 28  1  0  0  0  0
  9 29  1  0  0  0  0
 10 11  1  0  0  0  0
 10 30  1  0  0  0  0
 10 31  1  0  0  0  0
 11 18  1  0  0  0  0
 11 12  1  0  0  0  0
 11 47  1  0  0  0  0
 12 13  1  0  0  0  0
 12 32  1  0  0  0  0
 12 33  1  0  0  0  0
 13 14  1  0  0  0  0
 13 15  1  0  0  0  0
 13 34  1  0  0  0  0
 14 35  1  0  0  0  0
 14 36  1  0  0  0  0
 14 37  1  0  0  0  0
 15 16  1  0  0  0  0
 16 17  1  0  0  0  0
 16 18  1  0  0  0  0
 16 38  1  0  0  0  0
 17 39  1  0  0  0  0
 17 40  1  0  0  0  0
 17 41  1  0  0  0  0
 18 42  1  0  0  0  0
 18 43  1  0  0  0  0
 19 20  1  0  0  0  0
 19 21  1  0  0  0  0
 20 44  1  0  0  0  0
 20 45  1  0  0  0  0
 20 46  1  0  0  0  0
M  CHG  1  11   1
M  END
> <s_m_source_file>
AV-unprocessed.smi

> <i_m_source_file_index>
1247

> <i_lp_mmshare_version>
43012

> <i_f3d_flags>
0

> <s_epik_input>
W0NIM11jMVtjSF1jKG4objEpW0NIM10pW05IXUMoPU8pW05IXVtDSDJdW0NIMl1OMltDSDJdW0NAQEhdKFtDSDNdKU9bQ0BASF0oW0NIM10pW0NIMl0y

> <s_epik_cmdline>
J2VwaWtfcHl0aG9uJywgJy1waCcsICc3LjAnLCAnLXRuJywgJzgnLCAnLW1hJywgJzIwMCcsICctbWV0YWxfYmluZGluZycsICctaW1hZScsICc8aW5maWxlLm1hZT4nLCAnLW9tYWUnLCAnPG91dGZpbGUubWFlPic=

> <r_lp_tautomer_probability>
1

> <r_epik_Ionization_Penalty>
0.663902

> <r_epik_Ionization_Penalty_Charging>
0.663826

> <r_epik_Ionization_Penalty_Neutral>
7.65444e-05

> <r_epik_State_Penalty>
0.683414

> <r_epik_Charging_Adjusted_Penalty>
1.34724

> <i_epik_Tot_Q>
1

> <i_epik_Tot_abs_Q>
1

> <r_epik_Metal_State_Penalty>
0.683419

> <b_epik_Metal_Only>
0

> <s_lp_Force_Field>
OPLS_2005

> <r_lp_Energy>
18.4757

> <b_lp_Chiralities_Consistent>
1

> <s_lp_Variant>
AV-unprocessed.smi:1247-6

> <Gold.Version>
5.8.1

> <Gold.Id.Protein>
6NUR|6NUR_protein|mol2

> <Gold.PLP.Fitness>
43.6251

> <Gold.PLP.PLP>
-33.0857

> <Gold.PLP.part.hbond>
-2.9234

> <Gold.PLP.part.metal>
0.0000

> <Gold.PLP.part.buried>
-3.0573

> <Gold.PLP.part.nonpolar>
-27.9625

> <Gold.PLP.part.repulsive>
1.6561

> <Gold.PLP.ligand.clash>
0.0000

> <Gold.PLP.ligand.torsion>
0.7048

> <Gold.PLP.Chemscore.Hbond>
3.9750

> <Gold.PLP.Chemscore.CHOScore>
0.0000

> <Gold.PLP.Chemscore.Metal>
0.0000

> <Gold.Chemscore.Hbonds>
donor molecule, donor type, donor heavy atom, donor atom, acceptor molecule, acceptor atom, score
      L1  H     8    27       P1  7957  1.00
      L1  H    11    47       P1 10175  2.00
      P1  H  7997  8010       L1    21  1.00

> <Gold.PLP.Chemscore.Internal.Correction>
0.0240

> <Gold.Rescore>
     Score         DG    S(hbond)    S(metal)    S(lipo)     H(rot)  DE(clash)    DE(int)     intcor
     17.20     -18.70       2.89        0.00      63.73       1.52       0.80       0.70       ----

> <Gold.Chemscore.Fitness>
17.1952

> <Gold.Chemscore.DG>
-18.6981

> <Gold.Chemscore.ZeroCoef>
-5.4800

> <Gold.Chemscore.Hbond>
2.8916

> <Gold.Chemscore.Metal>
0.0000

> <Gold.Chemscore.Lipo>
63.7325

> <Gold.Chemscore.Internal_Hbond>
0.0000

> <Gold.Chemscore.DEClash>
0.8021

> <Gold.Chemscore.DEInternal>
0.7008

> <Gold.Chemscore.Rot>
1.5221

> <Gold.Chemscore.Internal.Correction>
   9.000000E+99

> <Gold.Chemscore.Hbonds>
donor molecule, donor type, donor heavy atom, donor atom, acceptor molecule, acceptor atom, score
      L1  H     8    27       P1  7957  0.94
      L1  H    11    47       P1 10175  0.98
      P1  H  7997  8010       L1    21  0.25

> <Gold.Chemscore.Hbond.Weighted>
-9.6581

> <Gold.Chemscore.Metal.Weighted>
-0.0000

> <Gold.Chemscore.Lipo.Weighted>
-7.4567

> <Gold.Chemscore.Internal_Hbond.Weighted>
0.0000

> <Gold.Chemscore.DEClash.Weighted>
0.8021

> <Gold.Chemscore.DEInternal.Weighted>
0.7008

> <Gold.Chemscore.Rot.Weighted>
3.8967

> <Gold.Chemscore.Internal.Correction.Weighted>
   9.000000E+99

> <Gold.Protein.RotatedTorsions>
[ 6907 6896 6895 6894 ] final  -13.84 input  -60.11 | X-H torsion
[ 7974 7965 7964 7962 ] final   63.59 input  175.53 | X-H torsion
[ 8008 7997 7996 7995 ] final   75.91 input   59.86 | X-H torsion
[ 10167 10162 10161 10158 ] final -123.29 input  -65.29 | X-H torsion
[ 10718 10713 10712 10709 ] final  166.37 input   66.30 | X-H torsion
[ 10763 10752 10751 10750 ] final -170.13 input  -60.55 | X-H torsion
[ 11005 11000 10999 10996 ] final  101.88 input  -57.11 | X-H torsion

> <Gold.Protein.ActiveResidues>
 VAL166  LYS551  ARG553  GLY616  TRP617  ASP618  TYR619  PRO620  LYS621  CYS622 
 ASP623  PHE694  ASN695  SER759  ASP760  ASP761  ALA762  ILE779  LEU786  VAL792 
 PHE793  MET794  SER795  GLU796  ALA797  LYS798  CYS799  TRP800  GLU811  SER814 

> <Gold.Protein.RotatedAtoms>
  151.3487  135.0880  159.9395 H   0  0  0  0  0  0  0  0  0  0  0  0  # atno 6907 bound_to 6896
  152.5193  133.9374  159.7620 H   0  0  0  0  0  0  0  0  0  0  0  0  # atno 6908 bound_to 6896
  150.9745  133.6255  159.2762 H   0  0  0  0  0  0  0  0  0  0  0  0  # atno 6909 bound_to 6896
  145.8601  139.3309  143.0824 H   0  0  0  0  0  0  0  0  0  0  0  0  # atno 7974 bound_to 7965
  155.8197  140.3470  155.5507 H   0  0  0  0  0  0  0  0  0  0  0  0  # atno 8008 bound_to 7997
  155.8355  140.0933  157.1787 H   0  0  0  0  0  0  0  0  0  0  0  0  # atno 8009 bound_to 7997
  154.4004  140.1404  156.3652 H   0  0  0  0  0  0  0  0  0  0  0  0  # atno 8010 bound_to 7997
  140.0051  143.5500  152.2287 H   0  0  0  0  0  0  0  0  0  0  0  0  # atno 10167 bound_to 10162
  157.0668  131.0355  151.2626 H   0  0  0  0  0  0  0  0  0  0  0  0  # atno 10718 bound_to 10713
  154.6448  135.2903  155.0059 H   0  0  0  0  0  0  0  0  0  0  0  0  # atno 10763 bound_to 10752
  154.1173  135.6553  153.4900 H   0  0  0  0  0  0  0  0  0  0  0  0  # atno 10764 bound_to 10752
  153.0345  135.5279  154.7331 H   0  0  0  0  0  0  0  0  0  0  0  0  # atno 10765 bound_to 10752
  139.8775  134.9201  156.4973 H   0  0  0  0  0  0  0  0  0  0  0  0  # atno 11005 bound_to 11000
  145.9258  140.9083  143.0381 LP  0  0  0  0  0  0  0  0  0  0  0  0  # atno 17320 bound_to 7965
  144.6727  140.1351  143.7441 LP  0  0  0  0  0  0  0  0  0  0  0  0  # atno 17321 bound_to 7965
  139.6244  144.7635  151.2669 LP  0  0  0  0  0  0  0  0  0  0  0  0  # atno 17342 bound_to 10162
  140.7404  143.6590  150.8181 LP  0  0  0  0  0  0  0  0  0  0  0  0  # atno 17343 bound_to 10162
  157.4910  130.7822  149.7508 LP  0  0  0  0  0  0  0  0  0  0  0  0  # atno 17370 bound_to 10713
  155.9962  130.3907  150.2788 LP  0  0  0  0  0  0  0  0  0  0  0  0  # atno 17371 bound_to 10713
  140.8615  133.8056  155.9270 LP  0  0  0  0  0  0  0  0  0  0  0  0  # atno 17394 bound_to 11000
  140.9045  134.2337  157.5022 LP  0  0  0  0  0  0  0  0  0  0  0  0  # atno 17395 bound_to 11000

$$$$
