AV-unprocessed.smi:1464|AV-procd|sdf|5942|dock8
  -GOLD-   22720 6 23D 1   1.00000     0.00000
 Structure written by MMmdl.
 40 41  0  0  0  0  0  0  0  0  2 V2000
  152.4565  141.3954  159.9152 C   0  0  0  0  0  0  0  0  0  0  0  0
  151.5711  140.7226  158.8511 C   0  0  1  0  0  0  0  0  0  0  0  0
  151.4552  141.6373  157.6138 C   0  0  0  0  0  0  0  0  0  0  0  0
  150.5719  141.0237  156.5190 C   0  0  0  0  0  0  0  0  0  0  0  0
  151.0870  139.6349  156.1140 C   0  0  0  0  0  0  0  0  0  0  0  0
  151.1964  138.6911  157.3279 C   0  0  2  0  0  0  0  0  0  0  0  0
  149.8723  138.3649  157.8488 N   0  0  0  0  0  0  0  0  0  0  0  0
  149.5149  137.2534  158.5113 C   0  0  0  0  0  0  0  0  0  0  0  0
  150.3033  136.3458  158.7748 O   0  0  0  0  0  0  0  0  0  0  0  0
  148.0413  137.1295  158.9385 C   0  0  0  0  0  0  0  0  0  0  0  0
  147.8369  136.3961  160.1999 N   0  0  0  0  0  0  0  0  0  0  0  0
  147.9144  137.2367  161.3918 N   0  5  0  0  0  0  0  0  0  0  0  0
  147.6369  136.6916  162.6058 C   0  0  0  0  0  0  0  0  0  0  0  0
  147.6425  137.3449  163.6465 O   0  0  0  0  0  0  0  0  0  0  0  0
  147.3257  135.2729  162.6636 C   0  0  0  0  0  0  0  0  0  0  0  0
  147.2890  134.5147  161.5502 C   0  0  0  0  0  0  0  0  0  0  0  0
  147.5440  135.0642  160.2242 C   0  0  0  0  0  0  0  0  0  0  0  0
  147.4798  134.3843  159.2003 O   0  0  0  0  0  0  0  0  0  0  0  0
  152.0776  139.3089  158.4450 C   0  0  2  0  0  0  0  0  0  0  0  0
  152.2061  138.3490  159.6460 C   0  0  0  0  0  0  0  0  0  0  0  0
  153.4923  141.4676  159.5828 H   0  0  0  0  0  0  0  0  0  0  0  0
  152.4421  140.8478  160.8571 H   0  0  0  0  0  0  0  0  0  0  0  0
  152.1069  142.4050  160.1327 H   0  0  0  0  0  0  0  0  0  0  0  0
  150.5734  140.6196  159.2812 H   0  0  0  0  0  0  0  0  0  0  0  0
  151.0466  142.6058  157.9039 H   0  0  0  0  0  0  0  0  0  0  0  0
  152.4487  141.8329  157.2077 H   0  0  0  0  0  0  0  0  0  0  0  0
  149.5426  140.9514  156.8732 H   0  0  0  0  0  0  0  0  0  0  0  0
  150.5511  141.6790  155.6482 H   0  0  0  0  0  0  0  0  0  0  0  0
  150.4369  139.2035  155.3519 H   0  0  0  0  0  0  0  0  0  0  0  0
  152.0684  139.7381  155.6498 H   0  0  0  0  0  0  0  0  0  0  0  0
  151.6681  137.7641  156.9972 H   0  0  0  0  0  0  0  0  0  0  0  0
  149.1492  139.0540  157.6966 H   0  0  0  0  0  0  0  0  0  0  0  0
  147.6100  138.1294  159.0091 H   0  0  0  0  0  0  0  0  0  0  0  0
  147.4976  136.6364  158.1308 H   0  0  0  0  0  0  0  0  0  0  0  0
  147.1238  134.8159  163.6213 H   0  0  0  0  0  0  0  0  0  0  0  0
  147.0559  133.4642  161.6409 H   0  0  0  0  0  0  0  0  0  0  0  0
  153.0790  139.4271  158.0285 H   0  0  0  0  0  0  0  0  0  0  0  0
  151.2728  138.2758  160.2061 H   0  0  0  0  0  0  0  0  0  0  0  0
  152.9835  138.6721  160.3376 H   0  0  0  0  0  0  0  0  0  0  0  0
  152.4740  137.3448  159.3166 H   0  0  0  0  0  0  0  0  0  0  0  0
  1  2  1  0  0  0  0
  1 21  1  0  0  0  0
  1 22  1  0  0  0  0
  1 23  1  0  0  0  0
  2 19  1  0  0  0  0
  2  3  1  0  0  0  0
  2 24  1  0  0  0  0
  3  4  1  0  0  0  0
  3 25  1  0  0  0  0
  3 26  1  0  0  0  0
  4  5  1  0  0  0  0
  4 27  1  0  0  0  0
  4 28  1  0  0  0  0
  5  6  1  0  0  0  0
  5 29  1  0  0  0  0
  5 30  1  0  0  0  0
  6  7  1  0  0  0  0
  6 19  1  0  0  0  0
  6 31  1  0  0  0  0
  7  8  1  0  0  0  0
  7 32  1  0  0  0  0
  8  9  2  0  0  0  0
  8 10  1  0  0  0  0
 10 33  1  0  0  0  0
 10 34  1  0  0  0  0
 10 11  1  0  0  0  0
 11 12  1  0  0  0  0
 11 17  1  0  0  0  0
 12 13  1  0  0  0  0
 13 14  2  0  0  0  0
 13 15  1  0  0  0  0
 15 35  1  0  0  0  0
 15 16  2  0  0  0  0
 16 36  1  0  0  0  0
 16 17  1  0  0  0  0
 17 18  2  0  0  0  0
 19 20  1  0  0  0  0
 19 37  1  0  0  0  0
 20 38  1  0  0  0  0
 20 39  1  0  0  0  0
 20 40  1  0  0  0  0
M  CHG  1  12  -1
M  END
> <s_m_source_file>
AV-unprocessed.smi

> <i_m_source_file_index>
1464

> <i_lp_mmshare_version>
43012

> <i_f3d_flags>
0

> <s_epik_input>
W0NIM11bQ0BASF0xW0NIMl1bQ0gyXVtDSDJdW0NASF0oW0NASF0xW0NIM10pW05IXUMoPU8pW0NIMl1uMltuSF1jKD1PKVtjSF1bY0hdYzI9Tw==

> <s_epik_cmdline>
J2VwaWtfcHl0aG9uJywgJy1waCcsICc3LjAnLCAnLXRuJywgJzgnLCAnLW1hJywgJzIwMCcsICctbWV0YWxfYmluZGluZycsICctaW1hZScsICc8aW5maWxlLm1hZT4nLCAnLW9tYWUnLCAnPG91dGZpbGUubWFlPic=

> <r_lp_tautomer_probability>
1

> <r_epik_Ionization_Penalty>
0.101366

> <r_epik_Ionization_Penalty_Charging>
0.101366

> <r_epik_Ionization_Penalty_Neutral>
1.90469e-08

> <r_epik_State_Penalty>
0.035861

> <r_epik_Charging_Adjusted_Penalty>
0.137227

> <i_epik_Tot_Q>
-1

> <i_epik_Tot_abs_Q>
1

> <r_epik_Metal_State_Penalty>
0.035861

> <b_epik_Metal_Only>
0

> <s_lp_Force_Field>
OPLS_2005

> <r_lp_Energy>
23.814

> <b_lp_Chiralities_Consistent>
1

> <s_lp_Variant>
AV-unprocessed.smi:1464-8

> <Gold.Version>
5.8.1

> <Gold.Id.Protein>
6NUR|6NUR_protein|mol2

> <Gold.PLP.Fitness>
44.7720

> <Gold.PLP.PLP>
-34.5773

> <Gold.PLP.part.hbond>
-3.9266

> <Gold.PLP.part.metal>
0.0000

> <Gold.PLP.part.buried>
-3.3121

> <Gold.PLP.part.nonpolar>
-27.9709

> <Gold.PLP.part.repulsive>
0.1243

> <Gold.PLP.ligand.clash>
0.0000

> <Gold.PLP.ligand.torsion>
1.0749

> <Gold.PLP.Chemscore.Hbond>
4.1104

> <Gold.PLP.Chemscore.CHOScore>
0.0000

> <Gold.PLP.Chemscore.Metal>
0.0000

> <Gold.Chemscore.Hbonds>
donor molecule, donor type, donor heavy atom, donor atom, acceptor molecule, acceptor atom, score
      P1  H  6896  6907       L1     9  1.00
      P1  H  6931  6943       L1    12  1.60
      P1  H  6934  6947       L1    12  1.38

> <Gold.PLP.Chemscore.Internal.Correction>
0.0132

> <Gold.Rescore>
     Score         DG    S(hbond)    S(metal)    S(lipo)     H(rot)  DE(clash)    DE(int)     intcor
     13.76     -15.22       1.85        0.00      66.55       1.64       0.37       1.09       ----

> <Gold.Chemscore.Fitness>
13.7641

> <Gold.Chemscore.DG>
-15.2249

> <Gold.Chemscore.ZeroCoef>
-5.4800

> <Gold.Chemscore.Hbond>
1.8461

> <Gold.Chemscore.Metal>
0.0000

> <Gold.Chemscore.Lipo>
66.5548

> <Gold.Chemscore.Internal_Hbond>
0.0000

> <Gold.Chemscore.DEClash>
0.3708

> <Gold.Chemscore.DEInternal>
1.0900

> <Gold.Chemscore.Rot>
1.6438

> <Gold.Chemscore.Internal.Correction>
   9.000000E+99

> <Gold.Chemscore.Hbonds>
donor molecule, donor type, donor heavy atom, donor atom, acceptor molecule, acceptor atom, score
      P1  H  6896  6907       L1     9  0.99
      P1  H  6931  6943       L1    12  0.11
      P1  H  6934  6947       L1    12  0.46

> <Gold.Chemscore.Hbond.Weighted>
-6.1660

> <Gold.Chemscore.Metal.Weighted>
-0.0000

> <Gold.Chemscore.Lipo.Weighted>
-7.7869

> <Gold.Chemscore.Internal_Hbond.Weighted>
0.0000

> <Gold.Chemscore.DEClash.Weighted>
0.3708

> <Gold.Chemscore.DEInternal.Weighted>
1.0900

> <Gold.Chemscore.Rot.Weighted>
4.2080

> <Gold.Chemscore.Internal.Correction.Weighted>
   9.000000E+99

> <Gold.Protein.RotatedTorsions>
[ 6907 6896 6895 6894 ] final  -45.90 input  -60.11 | X-H torsion
[ 7974 7965 7964 7962 ] final   76.98 input  175.53 | X-H torsion
[ 8008 7997 7996 7995 ] final   94.36 input   59.86 | X-H torsion
[ 10167 10162 10161 10158 ] final  -31.40 input  -65.29 | X-H torsion
[ 10718 10713 10712 10709 ] final   21.01 input   66.30 | X-H torsion
[ 10763 10752 10751 10750 ] final   21.57 input  -60.55 | X-H torsion
[ 11005 11000 10999 10996 ] final  120.89 input  -57.11 | X-H torsion

> <Gold.Protein.ActiveResidues>
 VAL166  LYS551  ARG553  GLY616  TRP617  ASP618  TYR619  PRO620  LYS621  CYS622 
 ASP623  PHE694  ASN695  SER759  ASP760  ASP761  ALA762  ILE779  LEU786  VAL792 
 PHE793  MET794  SER795  GLU796  ALA797  LYS798  CYS799  TRP800  GLU811  SER814 

> <Gold.Protein.RotatedAtoms>
  150.9170  134.8588  159.7463 H   0  0  0  0  0  0  0  0  0  0  0  0  # atno 6907 bound_to 6896
  152.4973  134.4274  159.9511 H   0  0  0  0  0  0  0  0  0  0  0  0  # atno 6908 bound_to 6896
  151.4311  133.3630  159.2804 H   0  0  0  0  0  0  0  0  0  0  0  0  # atno 6909 bound_to 6896
  145.6959  139.2567  143.1733 H   0  0  0  0  0  0  0  0  0  0  0  0  # atno 7974 bound_to 7965
  156.0570  140.3301  155.7417 H   0  0  0  0  0  0  0  0  0  0  0  0  # atno 8008 bound_to 7997
  155.5513  140.0610  157.2867 H   0  0  0  0  0  0  0  0  0  0  0  0  # atno 8009 bound_to 7997
  154.4463  140.1893  156.0678 H   0  0  0  0  0  0  0  0  0  0  0  0  # atno 8010 bound_to 7997
  140.7236  143.3774  151.1665 H   0  0  0  0  0  0  0  0  0  0  0  0  # atno 10167 bound_to 10162
  157.1324  130.6597  149.5956 H   0  0  0  0  0  0  0  0  0  0  0  0  # atno 10718 bound_to 10713
  153.0985  135.6666  153.9718 H   0  0  0  0  0  0  0  0  0  0  0  0  # atno 10763 bound_to 10752
  153.9295  135.3005  155.3447 H   0  0  0  0  0  0  0  0  0  0  0  0  # atno 10764 bound_to 10752
  154.7405  135.5082  153.9189 H   0  0  0  0  0  0  0  0  0  0  0  0  # atno 10765 bound_to 10752
  139.9203  134.9637  156.7875 H   0  0  0  0  0  0  0  0  0  0  0  0  # atno 11005 bound_to 11000
  146.0841  140.7731  142.9627 LP  0  0  0  0  0  0  0  0  0  0  0  0  # atno 17320 bound_to 7965
  144.6983  140.3535  143.7177 LP  0  0  0  0  0  0  0  0  0  0  0  0  # atno 17321 bound_to 7965
  139.7356  143.9004  152.3034 LP  0  0  0  0  0  0  0  0  0  0  0  0  # atno 17342 bound_to 10162
  139.8808  144.7019  150.8880 LP  0  0  0  0  0  0  0  0  0  0  0  0  # atno 17343 bound_to 10162
  155.9805  130.4806  150.6776 LP  0  0  0  0  0  0  0  0  0  0  0  0  # atno 17370 bound_to 10713
  157.4380  131.0857  151.0972 LP  0  0  0  0  0  0  0  0  0  0  0  0  # atno 17371 bound_to 10713
  140.6494  133.9745  155.7747 LP  0  0  0  0  0  0  0  0  0  0  0  0  # atno 17394 bound_to 11000
  141.0718  134.0194  157.3515 LP  0  0  0  0  0  0  0  0  0  0  0  0  # atno 17395 bound_to 11000

$$$$
