AV-unprocessed.smi:1766|AV-procd|sdf|7135|dock4
  -GOLD-   22720 8373D 1   1.00000     0.00000
 Structure written by MMmdl.
 39 41  0  0  0  0  0  0  0  0  1 V2000
  150.4304  137.5993  156.3806 N   0  0  0  0  0  0  0  0  0  0  0  0
  151.3739  137.8266  155.4624 C   0  0  0  0  0  0  0  0  0  0  0  0
  152.0407  136.9196  154.9690 O   0  0  0  0  0  0  0  0  0  0  0  0
  151.5925  139.2782  155.0247 C   0  0  0  0  0  0  0  0  0  0  0  0
  151.7933  140.1280  156.2487 C   0  0  0  0  0  0  0  0  0  0  0  0
  152.5603  139.7223  157.2634 N   0  0  0  0  0  0  0  0  0  0  0  0
  152.4650  140.7699  158.1578 C   0  0  0  0  0  0  0  0  0  0  0  0
  153.0532  140.9477  159.4306 C   0  0  0  0  0  0  0  0  0  0  0  0
  152.8054  142.1205  160.1738 C   0  0  0  0  0  0  0  0  0  0  0  0
  151.9681  143.1300  159.6560 C   0  0  0  0  0  0  0  0  0  0  0  0
  151.3725  142.9726  158.3898 C   0  0  0  0  0  0  0  0  0  0  0  0
  151.6234  141.8002  157.6522 C   0  0  0  0  0  0  0  0  0  0  0  0
  151.2030  141.3416  156.4080 N   0  0  0  0  0  0  0  0  0  0  0  0
  150.3124  142.0515  155.4987 C   0  0  0  0  0  0  0  0  0  0  0  0
  149.2237  141.1380  154.9011 C   0  0  2  0  0  0  0  0  0  0  0  0
  149.5137  140.8589  153.5449 O   0  0  0  0  0  0  0  0  0  0  0  0
  147.8392  141.7416  155.0767 C   0  0  0  0  0  0  0  0  0  0  0  0
  147.2869  141.8800  156.3682 C   0  0  0  0  0  0  0  0  0  0  0  0
  146.0066  142.4430  156.5364 C   0  0  0  0  0  0  0  0  0  0  0  0
  145.2726  142.8735  155.4146 C   0  0  0  0  0  0  0  0  0  0  0  0
  144.0418  143.4141  155.5769 F   0  0  0  0  0  0  0  0  0  0  0  0
  145.8205  142.7427  154.1241 C   0  0  0  0  0  0  0  0  0  0  0  0
  147.1003  142.1793  153.9552 C   0  0  0  0  0  0  0  0  0  0  0  0
  150.2613  136.6578  156.7039 H   0  0  0  0  0  0  0  0  0  0  0  0
  149.8964  138.3702  156.7555 H   0  0  0  0  0  0  0  0  0  0  0  0
  152.4473  139.3551  154.3528 H   0  0  0  0  0  0  0  0  0  0  0  0
  150.7235  139.6352  154.4700 H   0  0  0  0  0  0  0  0  0  0  0  0
  153.6956  140.1802  159.8360 H   0  0  0  0  0  0  0  0  0  0  0  0
  153.2596  142.2456  161.1456 H   0  0  0  0  0  0  0  0  0  0  0  0
  151.7832  144.0251  160.2318 H   0  0  0  0  0  0  0  0  0  0  0  0
  150.7298  143.7432  157.9902 H   0  0  0  0  0  0  0  0  0  0  0  0
  149.8461  142.8653  156.0553 H   0  0  0  0  0  0  0  0  0  0  0  0
  150.8925  142.5268  154.7091 H   0  0  0  0  0  0  0  0  0  0  0  0
  149.2470  140.1810  155.4241 H   0  0  0  0  0  0  0  0  0  0  0  0
  149.0416  140.0804  153.2917 H   0  0  0  0  0  0  0  0  0  0  0  0
  147.8426  141.5559  157.2359 H   0  0  0  0  0  0  0  0  0  0  0  0
  145.5878  142.5455  157.5266 H   0  0  0  0  0  0  0  0  0  0  0  0
  145.2598  143.0757  153.2632 H   0  0  0  0  0  0  0  0  0  0  0  0
  147.5147  142.0858  152.9619 H   0  0  0  0  0  0  0  0  0  0  0  0
  1  2  1  0  0  0  0
  1 24  1  0  0  0  0
  1 25  1  0  0  0  0
  2  3  2  0  0  0  0
  2  4  1  0  0  0  0
  4  5  1  0  0  0  0
  4 26  1  0  0  0  0
  4 27  1  0  0  0  0
  5 13  1  0  0  0  0
  5  6  2  0  0  0  0
  6  7  1  0  0  0  0
  7 12  2  0  0  0  0
  7  8  1  0  0  0  0
  8  9  2  0  0  0  0
  8 28  1  0  0  0  0
  9 10  1  0  0  0  0
  9 29  1  0  0  0  0
 10 11  2  0  0  0  0
 10 30  1  0  0  0  0
 11 12  1  0  0  0  0
 11 31  1  0  0  0  0
 12 13  1  0  0  0  0
 13 14  1  0  0  0  0
 14 15  1  0  0  0  0
 14 32  1  0  0  0  0
 14 33  1  0  0  0  0
 15 16  1  0  0  0  0
 15 17  1  0  0  0  0
 15 34  1  0  0  0  0
 16 35  1  0  0  0  0
 17 23  1  0  0  0  0
 17 18  2  0  0  0  0
 18 19  1  0  0  0  0
 18 36  1  0  0  0  0
 19 20  2  0  0  0  0
 19 37  1  0  0  0  0
 20 21  1  0  0  0  0
 20 22  1  0  0  0  0
 22 23  2  0  0  0  0
 22 38  1  0  0  0  0
 23 39  1  0  0  0  0
M  END
> <s_m_source_file>
AV-unprocessed.smi

> <i_m_source_file_index>
1766

> <i_lp_mmshare_version>
43012

> <i_f3d_flags>
0

> <s_epik_input>
W2NIXTFbY0hdW2NIXVtjSF1jKGMxMiluKGMobjIpW0NIMl1DKD1PKVtOSDJdKVtDSDJdW0NASF0oW09IXSljM1tjSF1bY0hdYyhGKVtjSF1bY0hdMw==

> <s_epik_cmdline>
J2VwaWtfcHl0aG9uJywgJy1waCcsICc3LjAnLCAnLXRuJywgJzgnLCAnLW1hJywgJzIwMCcsICctbWV0YWxfYmluZGluZycsICctaW1hZScsICc8aW5maWxlLm1hZT4nLCAnLW9tYWUnLCAnPG91dGZpbGUubWFlPic=

> <r_epik_Ionization_Penalty>
0.0366901

> <r_epik_Ionization_Penalty_Charging>
0

> <r_epik_Ionization_Penalty_Neutral>
0.0366901

> <r_epik_State_Penalty>
0.0306642

> <r_epik_Charging_Adjusted_Penalty>
0.0306642

> <i_epik_Tot_Q>
0

> <i_epik_Tot_abs_Q>
0

> <r_epik_Metal_State_Penalty>
0.028853

> <b_epik_Metal_Only>
0

> <s_lp_Force_Field>
OPLS_2005

> <r_lp_Energy>
12.4574

> <b_lp_Chiralities_Consistent>
1

> <s_lp_Variant>
AV-unprocessed.smi:1766-1

> <Gold.Version>
5.8.1

> <Gold.Id.Protein>
6NUR|6NUR_protein|mol2

> <Gold.PLP.Fitness>
54.3111

> <Gold.PLP.PLP>
-47.0422

> <Gold.PLP.part.hbond>
-4.9452

> <Gold.PLP.part.metal>
0.0000

> <Gold.PLP.part.buried>
-3.9171

> <Gold.PLP.part.nonpolar>
-37.2276

> <Gold.PLP.part.repulsive>
0.1136

> <Gold.PLP.ligand.clash>
0.0000

> <Gold.PLP.ligand.torsion>
1.3199

> <Gold.PLP.Chemscore.Hbond>
3.2646

> <Gold.PLP.Chemscore.CHOScore>
0.0000

> <Gold.PLP.Chemscore.Metal>
0.0000

> <Gold.Chemscore.Hbonds>
donor molecule, donor type, donor heavy atom, donor atom, acceptor molecule, acceptor atom, score
      P1  H  7989  7998       L1    16  0.29
      P1  H  7997  8008       L1     6  0.95
      P1  H  8011  8017       L1    16  1.00
      P1  H 10752 10765       L1     3  0.99

> <Gold.PLP.Chemscore.Internal.Correction>
0.1148

> <Gold.Rescore>
     Score         DG    S(hbond)    S(metal)    S(lipo)     H(rot)  DE(clash)    DE(int)     intcor
     13.40     -17.03       2.04        0.00     105.93       2.99       1.49       2.14       ----

> <Gold.Chemscore.Fitness>
13.3984

> <Gold.Chemscore.DG>
-17.0306

> <Gold.Chemscore.ZeroCoef>
-5.4800

> <Gold.Chemscore.Hbond>
2.0365

> <Gold.Chemscore.Metal>
0.0000

> <Gold.Chemscore.Lipo>
105.9305

> <Gold.Chemscore.Internal_Hbond>
0.0000

> <Gold.Chemscore.DEClash>
1.4916

> <Gold.Chemscore.DEInternal>
2.1406

> <Gold.Chemscore.Rot>
2.9864

> <Gold.Chemscore.Internal.Correction>
   9.000000E+99

> <Gold.Chemscore.Hbonds>
donor molecule, donor type, donor heavy atom, donor atom, acceptor molecule, acceptor atom, score
      L1  H    16    35       P1  7957  0.02
      P1  H  7989  7998       L1    16  0.12
      P1  H  7997  8008       L1     6  0.05
      P1  H  8011  8017       L1    16  0.91
      P1  H 10752 10765       L1     3  0.94

> <Gold.Chemscore.Hbond.Weighted>
-6.8018

> <Gold.Chemscore.Metal.Weighted>
-0.0000

> <Gold.Chemscore.Lipo.Weighted>
-12.3939

> <Gold.Chemscore.Internal_Hbond.Weighted>
0.0000

> <Gold.Chemscore.DEClash.Weighted>
1.4916

> <Gold.Chemscore.DEInternal.Weighted>
2.1406

> <Gold.Chemscore.Rot.Weighted>
7.6451

> <Gold.Chemscore.Internal.Correction.Weighted>
   9.000000E+99

> <Gold.Protein.RotatedTorsions>
[ 6907 6896 6895 6894 ] final  154.40 input  -60.11 | X-H torsion
[ 7974 7965 7964 7962 ] final -114.79 input  175.53 | X-H torsion
[ 8008 7997 7996 7995 ] final  -49.82 input   59.86 | X-H torsion
[ 10167 10162 10161 10158 ] final  -98.73 input  -65.29 | X-H torsion
[ 10718 10713 10712 10709 ] final   98.92 input   66.30 | X-H torsion
[ 10763 10752 10751 10750 ] final -179.06 input  -60.55 | X-H torsion
[ 11005 11000 10999 10996 ] final   26.62 input  -57.11 | X-H torsion

> <Gold.Protein.ActiveResidues>
 VAL166  LYS551  ARG553  GLY616  TRP617  ASP618  TYR619  PRO620  LYS621  CYS622 
 ASP623  PHE694  ASN695  SER759  ASP760  ASP761  ALA762  ILE779  LEU786  VAL792 
 PHE793  MET794  SER795  GLU796  ALA797  LYS798  CYS799  TRP800  GLU811  SER814 

> <Gold.Protein.RotatedAtoms>
  152.0590  133.4053  159.4409 H   0  0  0  0  0  0  0  0  0  0  0  0  # atno 6907 bound_to 6896
  150.6867  134.3222  159.4800 H   0  0  0  0  0  0  0  0  0  0  0  0  # atno 6908 bound_to 6896
  152.1040  134.9321  160.0619 H   0  0  0  0  0  0  0  0  0  0  0  0  # atno 6909 bound_to 6896
  145.1160  140.8641  143.3842 H   0  0  0  0  0  0  0  0  0  0  0  0  # atno 7974 bound_to 7965
  154.4050  140.1287  156.4564 H   0  0  0  0  0  0  0  0  0  0  0  0  # atno 8008 bound_to 7997
  155.7316  140.3491  155.5042 H   0  0  0  0  0  0  0  0  0  0  0  0  # atno 8009 bound_to 7997
  155.9122  140.1038  157.1260 H   0  0  0  0  0  0  0  0  0  0  0  0  # atno 8010 bound_to 7997
  140.2699  143.3351  152.0545 H   0  0  0  0  0  0  0  0  0  0  0  0  # atno 10167 bound_to 10162
  157.6886  131.0654  150.4869 H   0  0  0  0  0  0  0  0  0  0  0  0  # atno 10718 bound_to 10713
  154.5399  135.2805  155.1105 H   0  0  0  0  0  0  0  0  0  0  0  0  # atno 10763 bound_to 10752
  154.2592  135.6325  153.5272 H   0  0  0  0  0  0  0  0  0  0  0  0  # atno 10764 bound_to 10752
  152.9976  135.5601  154.5935 H   0  0  0  0  0  0  0  0  0  0  0  0  # atno 10765 bound_to 10752
  140.3350  134.2396  155.7697 H   0  0  0  0  0  0  0  0  0  0  0  0  # atno 11005 bound_to 11000
  145.0793  139.2972  143.5792 LP  0  0  0  0  0  0  0  0  0  0  0  0  # atno 17320 bound_to 7965
  146.3524  140.0294  142.8652 LP  0  0  0  0  0  0  0  0  0  0  0  0  # atno 17321 bound_to 7965
  139.4992  144.6663  151.6348 LP  0  0  0  0  0  0  0  0  0  0  0  0  # atno 17342 bound_to 10162
  140.5898  143.9799  150.6318 LP  0  0  0  0  0  0  0  0  0  0  0  0  # atno 17343 bound_to 10162
  156.5198  130.4159  149.6257 LP  0  0  0  0  0  0  0  0  0  0  0  0  # atno 17370 bound_to 10713
  156.3165  130.7257  151.2160 LP  0  0  0  0  0  0  0  0  0  0  0  0  # atno 17371 bound_to 10713
  141.2053  133.7862  157.0238 LP  0  0  0  0  0  0  0  0  0  0  0  0  # atno 17394 bound_to 11000
  140.0828  134.9638  157.1652 LP  0  0  0  0  0  0  0  0  0  0  0  0  # atno 17395 bound_to 11000

$$$$
