#       Name:                AV-unprocessed.smi:658
#       Creating user name   scv26
#       Creation time:       Fri Mar 27 00:17:38 2020


#       File generated by GOLD software.
#

@<TRIPOS>MOLECULE
AV-unprocessed.smi:658
    40    40     1
SMALL
NO_CHARGES


@<TRIPOS>ATOM
      1 ****        -1.6538  -0.3995  -1.6935 C.3            1 S1                 0.0000
      2 ****        -1.1429  -0.2607  -0.2437 C.3            1 S1                 0.0000
      3 ****         0.3382  -0.2854  -0.2187 N.4            1 S1                 1.0000
      4 ****         1.0015   0.9707  -0.6274 C.3            1 S1                 0.0000
      5 ****         2.5252   0.8479  -0.5056 C.3            1 S1                 0.0000
      6 ****         3.2535   2.1326  -0.9240 C.3            1 S1                 0.0000
      7 ****         5.0784   1.9814  -0.7017 S.o2           1 S1                 0.0000
      8 ****         5.2680   2.3243   0.9725 N.3            1 S1                 0.0000
      9 ****         5.4777   0.5815  -0.9116 O.2            1 S1                 0.0000
     10 ****         5.7302   3.0710  -1.4430 O.2            1 S1                 0.0000
     11 ****        -1.7010  -1.3608   0.6992 C.3            1 S1                 0.0000
     12 ****        -1.3065  -1.1336   2.1717 C.3            1 S1                 0.0000
     13 ****        -3.1479  -1.5027   0.5895 N.pl3          1 S1                 0.0000
     14 ****        -3.8708  -2.6127   0.2024 C.2            1 S1                 0.0000
     15 ****        -5.1934  -2.2775   0.2540 C.2            1 S1                 0.0000
     16 ****        -5.1829  -0.9246   0.6939 C.2            1 S1                 0.0000
     17 ****        -3.9588  -0.4642   0.8953 N.2            1 S1                 0.0000
     18 ****        -2.7395  -0.3233  -1.7504 H              1 S1                 0.0000
     19 ****        -1.3672  -1.3602  -2.1224 H              1 S1                 0.0000
     20 ****        -1.2577   0.3826  -2.3401 H              1 S1                 0.0000
     21 ****        -1.4711   0.7063   0.1413 H              1 S1                 0.0000
     22 ****         0.6208  -0.4723   0.7329 H              1 S1                 0.0000
     23 ****         0.7355   1.2159  -1.6556 H              1 S1                 0.0000
     24 ****         0.6450   1.7868   0.0025 H              1 S1                 0.0000
     25 ****         2.7896   0.6028   0.5240 H              1 S1                 0.0000
     26 ****         2.8712   0.0169  -1.1215 H              1 S1                 0.0000
     27 ****         3.0673   2.3364  -1.9790 H              1 S1                 0.0000
     28 ****         2.9089   2.9987  -0.3584 H              1 S1                 0.0000
     29 ****         5.7591   3.2006   1.1492 H              1 S1                 0.0000
     30 ****         5.6026   1.5255   1.5111 H              1 S1                 0.0000
     31 ****        -1.2726  -2.3152   0.3883 H              1 S1                 0.0000
     32 ****        -0.2251  -1.1553   2.3073 H              1 S1                 0.0000
     33 ****        -1.7264  -1.9098   2.8123 H              1 S1                 0.0000
     34 ****        -1.6666  -0.1719   2.5391 H              1 S1                 0.0000
     35 ****        -3.3904  -3.5391  -0.0764 H              1 S1                 0.0000
     36 ****        -6.0403  -2.9037   0.0156 H              1 S1                 0.0000
     37 ****        -6.0222  -0.2685   0.8721 H              1 S1                 0.0000
     38 ****         0.6634  -1.0425  -0.8027 H              1 S1                 0.0000
     39 ****         4.3486   2.4867   1.3306 LP             1 S1                 0.0000
     40 ****        -3.6924   0.4487   1.2048 LP             1 S1                 0.0000
@<TRIPOS>BOND
    1    1    2 1     
    2    1   18 1     
    3    1   19 1     
    4    1   20 1     
    5    2    3 1     
    6    2   11 1     
    7    2   21 1     
    8    3    4 1     
    9    3   22 1     
   10    3   38 1     
   11    4    5 1     
   12    4   23 1     
   13    4   24 1     
   14    5    6 1     
   15    5   25 1     
   16    5   26 1     
   17    6    7 1     
   18    6   27 1     
   19    6   28 1     
   20    7    8 1     
   21    7    9 2     
   22    7   10 2     
   23    8   29 1     
   24    8   30 1     
   25   11   12 1     
   26   11   13 1     
   27   11   31 1     
   28   12   32 1     
   29   12   33 1     
   30   12   34 1     
   31   13   17 1     
   32   13   14 1     
   33   14   15 2     
   34   14   35 1     
   35   15   16 1     
   36   15   36 1     
   37   16   17 2     
   38   16   37 1     
   39    8   39 1     
   40   17   40 1     
@<TRIPOS>SUBSTRUCTURE
      1 S1             1
@<TRIPOS>SET
LONE_PAIRS      STATIC     ATOMS    <user>   **** ""
4 39 9 10 40
DONOR_HYDROGENS      STATIC     ATOMS    <user>   **** ""
4 22 38 29 30
ATOM$BLUE        STATIC     ATOMS    COLORGROUP SYSTEM
4 39 9 10 40
ATOM$RED        STATIC     ATOMS    COLORGROUP SYSTEM
4 22 38 29 30
