AV-unprocessed.smi:3029|AV-procd|sdf|11532|dock10
  -GOLD-   2272016483D 1   1.00000     0.00000
 Structure written by MMmdl.
 41 42  0  0  0  0  0  0  0  0  3 V2000
  152.5646  139.4225  156.1844 O   0  0  0  0  0  0  0  0  0  0  0  0
  151.5282  139.8350  155.6633 C   0  0  0  0  0  0  0  0  0  0  0  0
  150.7539  139.0156  154.7253 C   0  0  0  0  0  0  0  0  0  0  0  0
  149.6242  139.4727  154.1504 C   0  0  0  0  0  0  0  0  0  0  0  0
  149.1357  140.8053  154.4469 C   0  0  0  0  0  0  0  0  0  0  0  0
  147.9284  141.3094  153.8305 N   0  3  0  0  0  0  0  0  0  0  0  0
  147.3076  140.5857  153.0575 O   0  0  0  0  0  0  0  0  0  0  0  0
  147.5612  142.4484  154.1004 O   0  5  0  0  0  0  0  0  0  0  0  0
  149.8475  141.5549  155.3109 C   0  0  0  0  0  0  0  0  0  0  0  0
  151.0287  141.0834  155.9154 N   0  0  0  0  0  0  0  0  0  0  0  0
  151.7192  142.0135  156.8226 C   0  0  0  0  0  0  0  0  0  0  0  0
  150.9575  142.1983  158.1478 C   0  0  0  0  0  0  0  0  0  0  0  0
  151.5451  141.3686  159.1897 N   0  0  0  0  0  0  0  0  0  0  0  0
  152.4132  142.1208  160.0875 C   0  0  1  0  0  0  0  0  0  0  0  0
  151.5821  143.2691  160.7057 C   0  0  0  0  0  0  0  0  0  0  0  0
  152.3692  144.0434  161.7691 C   0  0  0  0  0  0  0  0  0  0  0  0
  152.8702  143.0966  162.8636 C   0  0  0  0  0  0  0  0  0  0  0  0
  153.7327  141.9805  162.2604 C   0  0  0  0  0  0  0  0  0  0  0  0
  152.9840  141.1671  161.1776 C   0  0  2  0  0  0  0  0  0  0  0  0
  153.9175  140.0681  160.6046 C   0  0  0  0  0  0  0  0  0  0  0  0
  155.1244  140.5693  160.3390 F   0  0  0  0  0  0  0  0  0  0  0  0
  154.0528  139.0815  161.4912 F   0  0  0  0  0  0  0  0  0  0  0  0
  153.4233  139.5323  159.4887 F   0  0  0  0  0  0  0  0  0  0  0  0
  151.1009  138.0204  154.4894 H   0  0  0  0  0  0  0  0  0  0  0  0
  149.0888  138.8319  153.4651 H   0  0  0  0  0  0  0  0  0  0  0  0
  149.5737  142.5610  155.5951 H   0  0  0  0  0  0  0  0  0  0  0  0
  152.7106  141.6127  157.0391 H   0  0  0  0  0  0  0  0  0  0  0  0
  151.9093  142.9820  156.3568 H   0  0  0  0  0  0  0  0  0  0  0  0
  150.9730  143.2468  158.4486 H   0  0  0  0  0  0  0  0  0  0  0  0
  149.9136  141.9198  158.0065 H   0  0  0  0  0  0  0  0  0  0  0  0
  150.8301  140.8795  159.7097 H   0  0  0  0  0  0  0  0  0  0  0  0
  153.2513  142.5380  159.5274 H   0  0  0  0  0  0  0  0  0  0  0  0
  151.2554  143.9657  159.9337 H   0  0  0  0  0  0  0  0  0  0  0  0
  150.6748  142.8671  161.1597 H   0  0  0  0  0  0  0  0  0  0  0  0
  153.2143  144.5528  161.3046 H   0  0  0  0  0  0  0  0  0  0  0  0
  151.7403  144.8193  162.2066 H   0  0  0  0  0  0  0  0  0  0  0  0
  153.4471  143.6544  163.6020 H   0  0  0  0  0  0  0  0  0  0  0  0
  152.0225  142.6621  163.3950 H   0  0  0  0  0  0  0  0  0  0  0  0
  154.6350  142.4187  161.8322 H   0  0  0  0  0  0  0  0  0  0  0  0
  154.0654  141.3211  163.0620 H   0  0  0  0  0  0  0  0  0  0  0  0
  152.1452  140.6697  161.6681 H   0  0  0  0  0  0  0  0  0  0  0  0
  1  2  2  0  0  0  0
  2 10  1  0  0  0  0
  2  3  1  0  0  0  0
  3  4  2  0  0  0  0
  3 24  1  0  0  0  0
  4  5  1  0  0  0  0
  4 25  1  0  0  0  0
  5  6  1  0  0  0  0
  5  9  2  0  0  0  0
  6  7  2  0  0  0  0
  6  8  1  0  0  0  0
  9 10  1  0  0  0  0
  9 26  1  0  0  0  0
 10 11  1  0  0  0  0
 11 12  1  0  0  0  0
 11 27  1  0  0  0  0
 11 28  1  0  0  0  0
 12 13  1  0  0  0  0
 12 29  1  0  0  0  0
 12 30  1  0  0  0  0
 13 14  1  0  0  0  0
 13 31  1  0  0  0  0
 14 19  1  0  0  0  0
 14 15  1  0  0  0  0
 14 32  1  0  0  0  0
 15 16  1  0  0  0  0
 15 33  1  0  0  0  0
 15 34  1  0  0  0  0
 16 17  1  0  0  0  0
 16 35  1  0  0  0  0
 16 36  1  0  0  0  0
 17 18  1  0  0  0  0
 17 37  1  0  0  0  0
 17 38  1  0  0  0  0
 18 19  1  0  0  0  0
 18 39  1  0  0  0  0
 18 40  1  0  0  0  0
 19 20  1  0  0  0  0
 19 41  1  0  0  0  0
 20 21  1  0  0  0  0
 20 22  1  0  0  0  0
 20 23  1  0  0  0  0
M  CHG  1   6   1
M  CHG  1   8  -1
M  END
> <s_m_source_file>
AV-unprocessed.smi

> <i_m_source_file_index>
3029

> <i_lp_mmshare_version>
43012

> <i_f3d_flags>
0

> <s_epik_input>
Tz1jMVtjSF1bY0hdYyhbTitdKD1PKVtPLV0pW2NIXW4xW0NIMl1bQ0gyXVtOSF1bQ0BASF0yW0NIMl1bQ0gyXVtDSDJdW0NIMl1bQ0BIXTJDKEYpKEYpRg==

> <s_epik_cmdline>
J2VwaWtfcHl0aG9uJywgJy1waCcsICc3LjAnLCAnLXRuJywgJzgnLCAnLW1hJywgJzIwMCcsICctbWV0YWxfYmluZGluZycsICctaW1hZScsICc8aW5maWxlLm1hZT4nLCAnLW9tYWUnLCAnPG91dGZpbGUubWFlPic=

> <r_lp_tautomer_probability>
1

> <r_epik_Ionization_Penalty>
1.65565

> <r_epik_Ionization_Penalty_Charging>
3.32684e-10

> <r_epik_Ionization_Penalty_Neutral>
1.65565

> <r_epik_State_Penalty>
1.75811

> <r_epik_Charging_Adjusted_Penalty>
1.75811

> <i_epik_Tot_Q>
0

> <i_epik_Tot_abs_Q>
2

> <r_epik_Metal_State_Penalty>
1.75811

> <b_epik_Metal_Only>
0

> <s_lp_Force_Field>
OPLS_2005

> <r_lp_Energy>
36.7279

> <b_lp_Chiralities_Consistent>
1

> <s_lp_Variant>
AV-unprocessed.smi:3029-8

> <Gold.Version>
5.8.1

> <Gold.Id.Protein>
6NUR|6NUR_protein|mol2

> <Gold.PLP.Fitness>
52.3241

> <Gold.PLP.PLP>
-48.3709

> <Gold.PLP.part.hbond>
-1.0000

> <Gold.PLP.part.metal>
0.0000

> <Gold.PLP.part.buried>
-3.1309

> <Gold.PLP.part.nonpolar>
-42.9079

> <Gold.PLP.part.repulsive>
0.4397

> <Gold.PLP.ligand.clash>
0.0000

> <Gold.PLP.ligand.torsion>
1.0556

> <Gold.PLP.Chemscore.Hbond>
1.0000

> <Gold.PLP.Chemscore.CHOScore>
1.0000

> <Gold.PLP.Chemscore.Metal>
0.0000

> <Gold.Chemscore.Hbonds>
donor molecule, donor type, donor heavy atom, donor atom, acceptor molecule, acceptor atom, score
      P1  H  7997  8010       L1     1  1.00
      L1  C     9    26       P1  8028  1.00

> <Gold.PLP.Chemscore.Internal.Correction>
0.0643

> <Gold.Rescore>
     Score         DG    S(hbond)    S(metal)    S(lipo)     H(rot)  DE(clash)    DE(int)     intcor
     14.17     -18.00       1.00        0.00     119.15       1.86       1.49       2.34       ----

> <Gold.Chemscore.Fitness>
14.1684

> <Gold.Chemscore.DG>
-17.9994

> <Gold.Chemscore.ZeroCoef>
-5.4800

> <Gold.Chemscore.Hbond>
0.9988

> <Gold.Chemscore.Metal>
0.0000

> <Gold.Chemscore.Lipo>
119.1530

> <Gold.Chemscore.Internal_Hbond>
0.0000

> <Gold.Chemscore.DEClash>
1.4880

> <Gold.Chemscore.DEInternal>
2.3430

> <Gold.Chemscore.Rot>
1.8584

> <Gold.Chemscore.Internal.Correction>
   9.000000E+99

> <Gold.Chemscore.Hbonds>
donor molecule, donor type, donor heavy atom, donor atom, acceptor molecule, acceptor atom, score
      P1  H  7997  8010       L1     1  1.00

> <Gold.Chemscore.Hbond.Weighted>
-3.3360

> <Gold.Chemscore.Metal.Weighted>
-0.0000

> <Gold.Chemscore.Lipo.Weighted>
-13.9409

> <Gold.Chemscore.Internal_Hbond.Weighted>
0.0000

> <Gold.Chemscore.DEClash.Weighted>
1.4880

> <Gold.Chemscore.DEInternal.Weighted>
2.3430

> <Gold.Chemscore.Rot.Weighted>
4.7576

> <Gold.Chemscore.Internal.Correction.Weighted>
   9.000000E+99

> <Gold.Protein.RotatedTorsions>
[ 6907 6896 6895 6894 ] final  -13.75 input  -60.11 | X-H torsion
[ 7974 7965 7964 7962 ] final -134.84 input  175.53 | X-H torsion
[ 8008 7997 7996 7995 ] final   81.48 input   59.86 | X-H torsion
[ 10167 10162 10161 10158 ] final   31.10 input  -65.29 | X-H torsion
[ 10718 10713 10712 10709 ] final  -89.07 input   66.30 | X-H torsion
[ 10763 10752 10751 10750 ] final  -66.69 input  -60.55 | X-H torsion
[ 11005 11000 10999 10996 ] final  -87.05 input  -57.11 | X-H torsion

> <Gold.Protein.ActiveResidues>
 VAL166  LYS551  ARG553  GLY616  TRP617  ASP618  TYR619  PRO620  LYS621  CYS622 
 ASP623  PHE694  ASN695  SER759  ASP760  ASP761  ALA762  ILE779  LEU786  VAL792 
 PHE793  MET794  SER795  GLU796  ALA797  LYS798  CYS799  TRP800  GLU811  SER814 

> <Gold.Protein.RotatedAtoms>
  151.3501  135.0882  159.9399 H   0  0  0  0  0  0  0  0  0  0  0  0  # atno 6907 bound_to 6896
  152.5189  133.9361  159.7614 H   0  0  0  0  0  0  0  0  0  0  0  0  # atno 6908 bound_to 6896
  150.9734  133.6266  159.2763 H   0  0  0  0  0  0  0  0  0  0  0  0  # atno 6909 bound_to 6896
  144.9067  140.6842  143.5051 H   0  0  0  0  0  0  0  0  0  0  0  0  # atno 7974 bound_to 7965
  155.8977  140.3435  155.6003 H   0  0  0  0  0  0  0  0  0  0  0  0  # atno 8008 bound_to 7997
  155.7536  140.0823  157.2208 H   0  0  0  0  0  0  0  0  0  0  0  0  # atno 8009 bound_to 7997
  154.4040  140.1548  156.2740 H   0  0  0  0  0  0  0  0  0  0  0  0  # atno 8010 bound_to 7997
  140.4619  144.0894  150.6215 H   0  0  0  0  0  0  0  0  0  0  0  0  # atno 10167 bound_to 10162
  155.9984  130.4859  150.5116 H   0  0  0  0  0  0  0  0  0  0  0  0  # atno 10718 bound_to 10713
  154.3635  135.6111  153.5703 H   0  0  0  0  0  0  0  0  0  0  0  0  # atno 10763 bound_to 10752
  152.9792  135.5821  154.4605 H   0  0  0  0  0  0  0  0  0  0  0  0  # atno 10764 bound_to 10752
  154.4347  135.2848  155.1866 H   0  0  0  0  0  0  0  0  0  0  0  0  # atno 10765 bound_to 10752
  141.1622  133.7489  156.9250 H   0  0  0  0  0  0  0  0  0  0  0  0  # atno 11005 bound_to 11000
  145.3523  139.1703  143.4428 LP  0  0  0  0  0  0  0  0  0  0  0  0  # atno 17320 bound_to 7965
  146.3137  140.3577  142.8662 LP  0  0  0  0  0  0  0  0  0  0  0  0  # atno 17321 bound_to 7965
  140.4083  143.2669  151.9863 LP  0  0  0  0  0  0  0  0  0  0  0  0  # atno 17342 bound_to 10162
  139.4807  144.5937  151.7727 LP  0  0  0  0  0  0  0  0  0  0  0  0  # atno 17343 bound_to 10162
  157.3088  131.0659  151.2016 LP  0  0  0  0  0  0  0  0  0  0  0  0  # atno 17370 bound_to 10713
  157.2969  130.6824  149.6143 LP  0  0  0  0  0  0  0  0  0  0  0  0  # atno 17371 bound_to 10713
  140.1426  134.9284  157.2486 LP  0  0  0  0  0  0  0  0  0  0  0  0  # atno 17394 bound_to 11000
  140.2819  134.3340  155.7340 LP  0  0  0  0  0  0  0  0  0  0  0  0  # atno 17395 bound_to 11000

$$$$
