AV-unprocessed.smi:2167|AV-procd|sdf|8816|dock9
  -GOLD-   2272012 03D 1   1.00000     0.00000
 Structure written by MMmdl.
 41 42  0  0  0  0  0  0  0  0  1 V2000
  153.8587  143.8458  163.9472 C   0  0  0  0  0  0  0  0  0  0  0  0
  154.8104  143.0249  164.8293 C   0  0  0  0  0  0  0  0  0  0  0  0
  156.0790  143.7933  165.2264 C   0  0  0  0  0  0  0  0  0  0  0  0
  155.1265  141.6924  164.2265 C   0  0  0  0  0  0  0  0  0  0  0  0
  154.5816  141.2440  163.0916 N   0  0  0  0  0  0  0  0  0  0  0  0
  155.0450  139.9738  162.7328 C   0  0  0  0  0  0  0  0  0  0  0  0
  154.5433  139.3180  161.4797 C   0  0  0  0  0  0  0  0  0  0  0  0
  154.1758  140.3779  160.4408 C   0  0  0  0  0  0  0  0  0  0  0  0
  154.5539  140.2561  159.2757 O   0  0  0  0  0  0  0  0  0  0  0  0
  153.4361  141.4116  160.8758 N   0  0  0  0  0  0  0  0  0  0  0  0
  152.9688  142.5301  160.0541 C   0  0  2  0  0  0  0  0  0  0  0  0
  152.2297  143.5167  160.9872 C   0  0  0  0  0  0  0  0  0  0  0  0
  152.1521  144.9514  160.4365 C   0  0  0  0  0  0  0  0  0  0  0  0
  151.3219  145.1110  159.1536 C   0  0  0  0  0  0  0  0  0  0  0  0
  151.8802  144.3283  157.9526 C   0  0  0  0  0  0  0  0  0  0  0  0
  151.5679  142.9072  158.0300 N   0  0  0  0  0  0  0  0  0  0  0  0
  151.9927  142.0380  158.9596 C   0  0  0  0  0  0  0  0  0  0  0  0
  151.6058  140.8696  158.9402 O   0  0  0  0  0  0  0  0  0  0  0  0
  155.9502  139.4576  163.6266 C   0  0  0  0  0  0  0  0  0  0  0  0
  156.2606  140.5535  164.9446 S   0  0  0  0  0  0  0  0  0  0  0  0
  152.9308  143.3036  163.7617 H   0  0  0  0  0  0  0  0  0  0  0  0
  154.3103  144.0738  162.9811 H   0  0  0  0  0  0  0  0  0  0  0  0
  153.5990  144.7914  164.4236 H   0  0  0  0  0  0  0  0  0  0  0  0
  154.2719  142.8220  165.7560 H   0  0  0  0  0  0  0  0  0  0  0  0
  156.6884  143.2124  165.9193 H   0  0  0  0  0  0  0  0  0  0  0  0
  155.8308  144.7358  165.7150 H   0  0  0  0  0  0  0  0  0  0  0  0
  156.6929  144.0227  164.3546 H   0  0  0  0  0  0  0  0  0  0  0  0
  155.3031  138.6552  161.0634 H   0  0  0  0  0  0  0  0  0  0  0  0
  153.6721  138.6946  161.6860 H   0  0  0  0  0  0  0  0  0  0  0  0
  153.1715  141.4235  161.8501 H   0  0  0  0  0  0  0  0  0  0  0  0
  153.8307  143.0188  159.5964 H   0  0  0  0  0  0  0  0  0  0  0  0
  151.2305  143.1515  161.2313 H   0  0  0  0  0  0  0  0  0  0  0  0
  152.7600  143.5697  161.9398 H   0  0  0  0  0  0  0  0  0  0  0  0
  151.7245  145.5949  161.2061 H   0  0  0  0  0  0  0  0  0  0  0  0
  153.1614  145.3275  160.2641 H   0  0  0  0  0  0  0  0  0  0  0  0
  150.2844  144.8289  159.3375 H   0  0  0  0  0  0  0  0  0  0  0  0
  151.3014  146.1699  158.8944 H   0  0  0  0  0  0  0  0  0  0  0  0
  151.4252  144.7059  157.0368 H   0  0  0  0  0  0  0  0  0  0  0  0
  152.9552  144.4796  157.8457 H   0  0  0  0  0  0  0  0  0  0  0  0
  150.9419  142.5502  157.3226 H   0  0  0  0  0  0  0  0  0  0  0  0
  156.4550  138.5036  163.5860 H   0  0  0  0  0  0  0  0  0  0  0  0
  1  2  1  0  0  0  0
  1 21  1  0  0  0  0
  1 22  1  0  0  0  0
  1 23  1  0  0  0  0
  2  3  1  0  0  0  0
  2  4  1  0  0  0  0
  2 24  1  0  0  0  0
  3 25  1  0  0  0  0
  3 26  1  0  0  0  0
  3 27  1  0  0  0  0
  4 20  1  0  0  0  0
  4  5  2  0  0  0  0
  5  6  1  0  0  0  0
  6  7  1  0  0  0  0
  6 19  2  0  0  0  0
  7  8  1  0  0  0  0
  7 28  1  0  0  0  0
  7 29  1  0  0  0  0
  8  9  2  0  0  0  0
  8 10  1  0  0  0  0
 10 11  1  0  0  0  0
 10 30  1  0  0  0  0
 11 17  1  0  0  0  0
 11 12  1  0  0  0  0
 11 31  1  0  0  0  0
 12 13  1  0  0  0  0
 12 32  1  0  0  0  0
 12 33  1  0  0  0  0
 13 14  1  0  0  0  0
 13 34  1  0  0  0  0
 13 35  1  0  0  0  0
 14 15  1  0  0  0  0
 14 36  1  0  0  0  0
 14 37  1  0  0  0  0
 15 16  1  0  0  0  0
 15 38  1  0  0  0  0
 15 39  1  0  0  0  0
 16 17  1  0  0  0  0
 16 40  1  0  0  0  0
 17 18  2  0  0  0  0
 19 20  1  0  0  0  0
 19 41  1  0  0  0  0
M  END
> <s_m_source_file>
AV-unprocessed.smi

> <i_m_source_file_index>
2167

> <i_lp_mmshare_version>
43012

> <i_f3d_flags>
0

> <s_epik_input>
W0NIM11bQ0hdKFtDSDNdKWMxbmMoW2NIXXMxKVtDSDJdQyg9TylbTkhdW0NAQEhdMltDSDJdW0NIMl1bQ0gyXVtDSDJdW05IXUMyPU8=

> <s_epik_cmdline>
J2VwaWtfcHl0aG9uJywgJy1waCcsICc3LjAnLCAnLXRuJywgJzgnLCAnLW1hJywgJzIwMCcsICctbWV0YWxfYmluZGluZycsICctaW1hZScsICc8aW5maWxlLm1hZT4nLCAnLW9tYWUnLCAnPG91dGZpbGUubWFlPic=

> <r_lp_tautomer_probability>
1

> <r_epik_Ionization_Penalty>
3.1619e-05

> <r_epik_Ionization_Penalty_Charging>
0

> <r_epik_Ionization_Penalty_Neutral>
3.1619e-05

> <r_epik_State_Penalty>
-0

> <r_epik_Charging_Adjusted_Penalty>
0

> <i_epik_Tot_Q>
0

> <i_epik_Tot_abs_Q>
0

> <r_epik_Metal_State_Penalty>
-0

> <b_epik_Metal_Only>
0

> <s_lp_Force_Field>
OPLS_2005

> <r_lp_Energy>
2.42102

> <b_lp_Chiralities_Consistent>
1

> <s_lp_Variant>
AV-unprocessed.smi:2167-1

> <Gold.Version>
5.8.1

> <Gold.Id.Protein>
6NUR|6NUR_protein|mol2

> <Gold.PLP.Fitness>
44.5671

> <Gold.PLP.PLP>
-43.4143

> <Gold.PLP.part.hbond>
-2.0000

> <Gold.PLP.part.metal>
0.0000

> <Gold.PLP.part.buried>
-2.0536

> <Gold.PLP.part.nonpolar>
-39.3656

> <Gold.PLP.part.repulsive>
0.0751

> <Gold.PLP.ligand.clash>
0.0000

> <Gold.PLP.ligand.torsion>
0.6860

> <Gold.PLP.Chemscore.Hbond>
0.8160

> <Gold.PLP.Chemscore.CHOScore>
0.0000

> <Gold.PLP.Chemscore.Metal>
0.0000

> <Gold.Chemscore.Hbonds>
donor molecule, donor type, donor heavy atom, donor atom, acceptor molecule, acceptor atom, score
      P1  H  7997  8008       L1     9  0.81

> <Gold.PLP.Chemscore.Internal.Correction>
0.0769

> <Gold.Rescore>
     Score         DG    S(hbond)    S(metal)    S(lipo)     H(rot)  DE(clash)    DE(int)     intcor
     17.92     -18.86       0.89        0.00     123.35       1.57       0.17       0.77       ----

> <Gold.Chemscore.Fitness>
17.9228

> <Gold.Chemscore.DG>
-18.8571

> <Gold.Chemscore.ZeroCoef>
-5.4800

> <Gold.Chemscore.Hbond>
0.8899

> <Gold.Chemscore.Metal>
0.0000

> <Gold.Chemscore.Lipo>
123.3541

> <Gold.Chemscore.Internal_Hbond>
0.0000

> <Gold.Chemscore.DEClash>
0.1687

> <Gold.Chemscore.DEInternal>
0.7656

> <Gold.Chemscore.Rot>
1.5733

> <Gold.Chemscore.Internal.Correction>
   9.000000E+99

> <Gold.Chemscore.Hbonds>
donor molecule, donor type, donor heavy atom, donor atom, acceptor molecule, acceptor atom, score
      P1  H  7997  8008       L1     9  0.76

> <Gold.Chemscore.Hbond.Weighted>
-2.9722

> <Gold.Chemscore.Metal.Weighted>
-0.0000

> <Gold.Chemscore.Lipo.Weighted>
-14.4324

> <Gold.Chemscore.Internal_Hbond.Weighted>
0.0000

> <Gold.Chemscore.DEClash.Weighted>
0.1687

> <Gold.Chemscore.DEInternal.Weighted>
0.7656

> <Gold.Chemscore.Rot.Weighted>
4.0276

> <Gold.Chemscore.Internal.Correction.Weighted>
   9.000000E+99

> <Gold.Protein.RotatedTorsions>
[ 6907 6896 6895 6894 ] final  104.74 input  -60.11 | X-H torsion
[ 7974 7965 7964 7962 ] final -135.94 input  175.53 | X-H torsion
[ 8008 7997 7996 7995 ] final -129.45 input   59.86 | X-H torsion
[ 10167 10162 10161 10158 ] final  111.88 input  -65.29 | X-H torsion
[ 10718 10713 10712 10709 ] final  -45.72 input   66.30 | X-H torsion
[ 10763 10752 10751 10750 ] final  -88.90 input  -60.55 | X-H torsion
[ 11005 11000 10999 10996 ] final -127.66 input  -57.11 | X-H torsion

> <Gold.Protein.ActiveResidues>
 VAL166  LYS551  ARG553  GLY616  TRP617  ASP618  TYR619  PRO620  LYS621  CYS622 
 ASP623  PHE694  ASN695  SER759  ASP760  ASP761  ALA762  ILE779  LEU786  VAL792 
 PHE793  MET794  SER795  GLU796  ALA797  LYS798  CYS799  TRP800  GLU811  SER814 

> <Gold.Protein.RotatedAtoms>
  152.5254  133.9632  159.7726 H   0  0  0  0  0  0  0  0  0  0  0  0  # atno 6907 bound_to 6896
  150.9919  133.6133  159.2714 H   0  0  0  0  0  0  0  0  0  0  0  0  # atno 6908 bound_to 6896
  151.3273  135.0839  159.9380 H   0  0  0  0  0  0  0  0  0  0  0  0  # atno 6909 bound_to 6896
  144.8970  140.6720  143.5109 H   0  0  0  0  0  0  0  0  0  0  0  0  # atno 7974 bound_to 7965
  155.2793  140.0443  157.3014 H   0  0  0  0  0  0  0  0  0  0  0  0  # atno 8008 bound_to 7997
  154.5606  140.2345  155.8309 H   0  0  0  0  0  0  0  0  0  0  0  0  # atno 8009 bound_to 7997
  156.2044  140.3016  155.9602 H   0  0  0  0  0  0  0  0  0  0  0  0  # atno 8010 bound_to 7997
  139.6578  144.7129  151.1924 H   0  0  0  0  0  0  0  0  0  0  0  0  # atno 10167 bound_to 10162
  156.2255  130.4169  149.8939 H   0  0  0  0  0  0  0  0  0  0  0  0  # atno 10718 bound_to 10713
  154.6495  135.5360  153.7885 H   0  0  0  0  0  0  0  0  0  0  0  0  # atno 10763 bound_to 10752
  153.0378  135.6479  154.1038 H   0  0  0  0  0  0  0  0  0  0  0  0  # atno 10764 bound_to 10752
  154.0956  135.2937  155.3242 H   0  0  0  0  0  0  0  0  0  0  0  0  # atno 10765 bound_to 10752
  140.9580  134.0974  157.3996 H   0  0  0  0  0  0  0  0  0  0  0  0  # atno 11005 bound_to 11000
  145.3683  139.1665  143.4346 LP  0  0  0  0  0  0  0  0  0  0  0  0  # atno 17320 bound_to 7965
  146.3087  140.3752  142.8678 LP  0  0  0  0  0  0  0  0  0  0  0  0  # atno 17321 bound_to 7965
  140.7567  143.6044  150.8667 LP  0  0  0  0  0  0  0  0  0  0  0  0  # atno 17342 bound_to 10162
  139.9699  143.6069  152.2977 LP  0  0  0  0  0  0  0  0  0  0  0  0  # atno 17343 bound_to 10162
  156.6571  130.8767  151.3541 LP  0  0  0  0  0  0  0  0  0  0  0  0  # atno 17370 bound_to 10713
  157.7108  130.9438  150.1084 LP  0  0  0  0  0  0  0  0  0  0  0  0  # atno 17371 bound_to 10713
  139.8869  135.0085  156.6525 LP  0  0  0  0  0  0  0  0  0  0  0  0  # atno 17394 bound_to 11000
  140.7508  133.8899  155.8345 LP  0  0  0  0  0  0  0  0  0  0  0  0  # atno 17395 bound_to 11000

$$$$
