AV-unprocessed.smi:2779|AV-procd|sdf|10711|dock1
  -GOLD-   2272015143D 1   1.00000     0.00000
 Structure written by MMmdl.
 38 39  0  0  0  0  0  0  0  0  1 V2000
  147.5560  137.3209  162.1994 O   0  0  0  0  0  0  0  0  0  0  0  0
  147.6758  136.2093  161.6850 C   0  0  0  0  0  0  0  0  0  0  0  0
  147.3947  134.9636  162.3942 C   0  0  0  0  0  0  0  0  0  0  0  0
  147.5237  133.7606  161.7948 C   0  0  0  0  0  0  0  0  0  0  0  0
  147.9545  133.6941  160.4081 C   0  0  0  0  0  0  0  0  0  0  0  0
  148.1235  132.4010  159.6490 C   0  0  0  0  0  0  0  0  0  0  0  0
  146.9481  131.8032  159.4512 F   0  0  0  0  0  0  0  0  0  0  0  0
  148.6835  132.6367  158.4622 F   0  0  0  0  0  0  0  0  0  0  0  0
  148.9119  131.5693  160.3307 F   0  0  0  0  0  0  0  0  0  0  0  0
  148.2095  134.7942  159.7760 N   0  0  0  0  0  0  0  0  0  0  0  0
  148.0768  136.0261  160.3930 N   0  0  0  0  0  0  0  0  0  0  0  0
  148.3928  137.1656  159.5232 C   0  0  0  0  0  0  0  0  0  0  0  0
  149.2214  136.7402  158.2918 C   0  0  2  0  0  0  0  0  0  0  0  0
  150.3035  135.9198  158.6849 O   0  0  0  0  0  0  0  0  0  0  0  0
  149.7948  137.9313  157.5063 C   0  0  0  0  0  0  0  0  0  0  0  0
  150.4165  138.8502  158.3915 O   0  0  0  0  0  0  0  0  0  0  0  0
  151.5908  139.4303  157.8468 C   0  0  0  0  0  0  0  0  0  0  0  0
  152.1202  140.5641  158.7049 C   0  0  0  0  0  0  0  0  0  0  0  0
  151.4797  141.8221  158.7009 C   0  0  0  0  0  0  0  0  0  0  0  0
  151.9602  142.8644  159.5173 C   0  0  0  0  0  0  0  0  0  0  0  0
  153.0792  142.6523  160.3458 C   0  0  0  0  0  0  0  0  0  0  0  0
  153.7154  141.3961  160.3600 C   0  0  0  0  0  0  0  0  0  0  0  0
  153.2350  140.3532  159.5438 C   0  0  0  0  0  0  0  0  0  0  0  0
  148.6052  136.1571  157.6065 H   0  0  0  0  0  0  0  0  0  0  0  0
  147.0741  135.0081  163.4248 H   0  0  0  0  0  0  0  0  0  0  0  0
  147.3089  132.8528  162.3386 H   0  0  0  0  0  0  0  0  0  0  0  0
  147.4597  137.6275  159.1950 H   0  0  0  0  0  0  0  0  0  0  0  0
  148.9124  137.9478  160.0807 H   0  0  0  0  0  0  0  0  0  0  0  0
  150.8146  135.7111  157.9179 H   0  0  0  0  0  0  0  0  0  0  0  0
  150.4969  137.5869  156.7447 H   0  0  0  0  0  0  0  0  0  0  0  0
  148.9822  138.4402  156.9854 H   0  0  0  0  0  0  0  0  0  0  0  0
  152.3746  138.6762  157.7616 H   0  0  0  0  0  0  0  0  0  0  0  0
  151.3825  139.8004  156.8416 H   0  0  0  0  0  0  0  0  0  0  0  0
  150.6167  141.9919  158.0738 H   0  0  0  0  0  0  0  0  0  0  0  0
  151.4682  143.8258  159.5103 H   0  0  0  0  0  0  0  0  0  0  0  0
  153.4466  143.4516  160.9726 H   0  0  0  0  0  0  0  0  0  0  0  0
  154.5703  141.2314  160.9992 H   0  0  0  0  0  0  0  0  0  0  0  0
  153.7254  139.3910  159.5648 H   0  0  0  0  0  0  0  0  0  0  0  0
  1  2  2  0  0  0  0
  2 11  1  0  0  0  0
  2  3  1  0  0  0  0
  3  4  2  0  0  0  0
  3 25  1  0  0  0  0
  4  5  1  0  0  0  0
  4 26  1  0  0  0  0
  5  6  1  0  0  0  0
  5 10  2  0  0  0  0
  6  7  1  0  0  0  0
  6  8  1  0  0  0  0
  6  9  1  0  0  0  0
 10 11  1  0  0  0  0
 11 12  1  0  0  0  0
 12 13  1  0  0  0  0
 12 27  1  0  0  0  0
 12 28  1  0  0  0  0
 13 24  1  0  0  0  0
 13 14  1  0  0  0  0
 13 15  1  0  0  0  0
 14 29  1  0  0  0  0
 15 16  1  0  0  0  0
 15 30  1  0  0  0  0
 15 31  1  0  0  0  0
 16 17  1  0  0  0  0
 17 18  1  0  0  0  0
 17 32  1  0  0  0  0
 17 33  1  0  0  0  0
 18 23  1  0  0  0  0
 18 19  2  0  0  0  0
 19 20  1  0  0  0  0
 19 34  1  0  0  0  0
 20 21  2  0  0  0  0
 20 35  1  0  0  0  0
 21 22  1  0  0  0  0
 21 36  1  0  0  0  0
 22 23  2  0  0  0  0
 22 37  1  0  0  0  0
 23 38  1  0  0  0  0
M  END
> <s_m_source_file>
AV-unprocessed.smi

> <i_m_source_file_index>
2779

> <i_lp_mmshare_version>
43012

> <i_f3d_flags>
0

> <s_epik_input>
Tz1jMVtjSF1bY0hdYyhDKEYpKEYpRilubjFbQ0gyXVtDQEhdKFtPSF0pW0NIMl1PW0NIMl1jMltjSF1bY0hdW2NIXVtjSF1bY0hdMg==

> <s_epik_cmdline>
J2VwaWtfcHl0aG9uJywgJy1waCcsICc3LjAnLCAnLXRuJywgJzgnLCAnLW1hJywgJzIwMCcsICctbWV0YWxfYmluZGluZycsICctaW1hZScsICc8aW5maWxlLm1hZT4nLCAnLW9tYWUnLCAnPG91dGZpbGUubWFlPic=

> <r_lp_tautomer_probability>
1

> <r_epik_Ionization_Penalty>
6.7226e-08

> <r_epik_Ionization_Penalty_Charging>
6.11342e-09

> <r_epik_Ionization_Penalty_Neutral>
6.11126e-08

> <r_epik_State_Penalty>
-0

> <r_epik_Charging_Adjusted_Penalty>
6.11342e-09

> <i_epik_Tot_Q>
0

> <i_epik_Tot_abs_Q>
0

> <r_epik_Metal_State_Penalty>
-0

> <b_epik_Metal_Only>
0

> <s_lp_Force_Field>
OPLS_2005

> <r_lp_Energy>
33.7736

> <b_lp_Chiralities_Consistent>
1

> <s_lp_Variant>
AV-unprocessed.smi:2779-1

> <Gold.Version>
5.8.1

> <Gold.Id.Protein>
6NUR|6NUR_protein|mol2

> <Gold.PLP.Fitness>
46.6419

> <Gold.PLP.PLP>
-41.6042

> <Gold.PLP.part.hbond>
-2.9339

> <Gold.PLP.part.metal>
0.0000

> <Gold.PLP.part.buried>
-4.6585

> <Gold.PLP.part.nonpolar>
-33.0695

> <Gold.PLP.part.repulsive>
0.0000

> <Gold.PLP.ligand.clash>
0.0000

> <Gold.PLP.ligand.torsion>
1.0552

> <Gold.PLP.Chemscore.Hbond>
2.3194

> <Gold.PLP.Chemscore.CHOScore>
0.0000

> <Gold.PLP.Chemscore.Metal>
0.0000

> <Gold.Chemscore.Hbonds>
donor molecule, donor type, donor heavy atom, donor atom, acceptor molecule, acceptor atom, score
      P1  H  6896  6908       L1    14  1.00
      P1  H  6931  6943       L1     1  0.85
      P1  H  6934  6947       L1     1  0.41

> <Gold.PLP.Chemscore.Internal.Correction>
0.1898

> <Gold.Rescore>
     Score         DG    S(hbond)    S(metal)    S(lipo)     H(rot)  DE(clash)    DE(int)     intcor
     15.44     -16.21       2.23        0.00      89.47       2.80       0.04       0.73       ----

> <Gold.Chemscore.Fitness>
15.4438

> <Gold.Chemscore.DG>
-16.2146

> <Gold.Chemscore.ZeroCoef>
-5.4800

> <Gold.Chemscore.Hbond>
2.2274

> <Gold.Chemscore.Metal>
0.0000

> <Gold.Chemscore.Lipo>
89.4749

> <Gold.Chemscore.Internal_Hbond>
0.0000

> <Gold.Chemscore.DEClash>
0.0372

> <Gold.Chemscore.DEInternal>
0.7336

> <Gold.Chemscore.Rot>
2.8022

> <Gold.Chemscore.Internal.Correction>
   9.000000E+99

> <Gold.Chemscore.Hbonds>
donor molecule, donor type, donor heavy atom, donor atom, acceptor molecule, acceptor atom, score
      P1  H  6896  6908       L1    14  0.23
      P1  H  6931  6943       L1     1  0.62
      P1  H  6934  6947       L1     1  0.40

> <Gold.Chemscore.Hbond.Weighted>
-7.4396

> <Gold.Chemscore.Metal.Weighted>
-0.0000

> <Gold.Chemscore.Lipo.Weighted>
-10.4686

> <Gold.Chemscore.Internal_Hbond.Weighted>
0.0000

> <Gold.Chemscore.DEClash.Weighted>
0.0372

> <Gold.Chemscore.DEInternal.Weighted>
0.7336

> <Gold.Chemscore.Rot.Weighted>
7.1736

> <Gold.Chemscore.Internal.Correction.Weighted>
   9.000000E+99

> <Gold.Protein.RotatedTorsions>
[ 6907 6896 6895 6894 ] final -170.62 input  -60.11 | X-H torsion
[ 7974 7965 7964 7962 ] final -143.22 input  175.53 | X-H torsion
[ 8008 7997 7996 7995 ] final  -36.25 input   59.86 | X-H torsion
[ 10167 10162 10161 10158 ] final  -36.29 input  -65.29 | X-H torsion
[ 10718 10713 10712 10709 ] final  -53.93 input   66.30 | X-H torsion
[ 10763 10752 10751 10750 ] final   38.35 input  -60.55 | X-H torsion
[ 11005 11000 10999 10996 ] final  -67.67 input  -57.11 | X-H torsion

> <Gold.Protein.ActiveResidues>
 VAL166  LYS551  ARG553  GLY616  TRP617  ASP618  TYR619  PRO620  LYS621  CYS622 
 ASP623  PHE694  ASN695  SER759  ASP760  ASP761  ALA762  ILE779  LEU786  VAL792 
 PHE793  MET794  SER795  GLU796  ALA797  LYS798  CYS799  TRP800  GLU811  SER814 

> <Gold.Protein.RotatedAtoms>
  151.5106  133.3485  159.2884 H   0  0  0  0  0  0  0  0  0  0  0  0  # atno 6907 bound_to 6896
  150.8714  134.8091  159.7169 H   0  0  0  0  0  0  0  0  0  0  0  0  # atno 6908 bound_to 6896
  152.4701  134.4991  159.9771 H   0  0  0  0  0  0  0  0  0  0  0  0  # atno 6909 bound_to 6896
  144.8385  140.5861  143.5468 H   0  0  0  0  0  0  0  0  0  0  0  0  # atno 7974 bound_to 7965
  154.4077  140.1636  156.2343 H   0  0  0  0  0  0  0  0  0  0  0  0  # atno 8008 bound_to 7997
  155.9256  140.3418  155.6185 H   0  0  0  0  0  0  0  0  0  0  0  0  # atno 8009 bound_to 7997
  155.7169  140.0763  157.2338 H   0  0  0  0  0  0  0  0  0  0  0  0  # atno 8010 bound_to 7997
  140.7146  143.3419  151.2340 H   0  0  0  0  0  0  0  0  0  0  0  0  # atno 10167 bound_to 10162
  156.1493  130.4152  149.9971 H   0  0  0  0  0  0  0  0  0  0  0  0  # atno 10718 bound_to 10713
  153.0004  135.6252  154.2291 H   0  0  0  0  0  0  0  0  0  0  0  0  # atno 10763 bound_to 10752
  154.2033  135.2803  155.2985 H   0  0  0  0  0  0  0  0  0  0  0  0  # atno 10764 bound_to 10752
  154.5666  135.5689  153.7115 H   0  0  0  0  0  0  0  0  0  0  0  0  # atno 10765 bound_to 10752
  141.1514  133.6724  156.6328 H   0  0  0  0  0  0  0  0  0  0  0  0  # atno 11005 bound_to 11000
  145.4743  139.1500  143.3797 LP  0  0  0  0  0  0  0  0  0  0  0  0  # atno 17320 bound_to 7965
  146.2681  140.4878  142.8826 LP  0  0  0  0  0  0  0  0  0  0  0  0  # atno 17321 bound_to 7965
  139.6928  143.9663  152.2868 LP  0  0  0  0  0  0  0  0  0  0  0  0  # atno 17342 bound_to 10162
  139.9330  144.6729  150.8343 LP  0  0  0  0  0  0  0  0  0  0  0  0  # atno 17343 bound_to 10162
  156.7833  130.9229  151.3646 LP  0  0  0  0  0  0  0  0  0  0  0  0  # atno 17370 bound_to 10713
  157.6643  130.8994  149.9899 LP  0  0  0  0  0  0  0  0  0  0  0  0  # atno 17371 bound_to 10713
  140.3453  134.7814  157.4428 LP  0  0  0  0  0  0  0  0  0  0  0  0  # atno 17394 bound_to 11000
  140.0904  134.5608  155.8449 LP  0  0  0  0  0  0  0  0  0  0  0  0  # atno 17395 bound_to 11000

$$$$
