AV-unprocessed.smi:2346|AV-procd|sdf|9367|dock10
  -GOLD-   2272012593D 1   1.00000     0.00000
 Structure written by MMmdl.
 45 47  0  0  0  0  0  0  0  0  2 V2000
  148.3481  133.4949  157.3726 C   0  0  0  0  0  0  0  0  0  0  0  0
  148.7891  134.7942  157.7381 O   0  0  0  0  0  0  0  0  0  0  0  0
  148.5633  135.2242  159.0297 C   0  0  0  0  0  0  0  0  0  0  0  0
  147.8829  134.4531  160.0063 C   0  0  0  0  0  0  0  0  0  0  0  0
  147.6883  134.9558  161.3075 C   0  0  0  0  0  0  0  0  0  0  0  0
  146.9879  134.1582  162.3002 C   0  0  0  0  0  0  0  0  0  0  0  0
  146.4304  133.5236  163.0908 N   0  0  0  0  0  0  0  0  0  0  0  0
  148.1723  136.2332  161.6439 C   0  0  0  0  0  0  0  0  0  0  0  0
  148.8495  137.0047  160.6825 C   0  0  0  0  0  0  0  0  0  0  0  0
  149.0508  136.5072  159.3704 C   0  0  0  0  0  0  0  0  0  0  0  0
  149.7057  137.2082  158.3789 O   0  0  0  0  0  0  0  0  0  0  0  0
  149.9538  138.5920  158.5779 C   0  0  0  0  0  0  0  0  0  0  0  0
  150.9015  139.0758  157.4744 C   0  0  0  0  0  0  0  0  0  0  0  0
  150.8844  140.5390  157.3442 N   0  0  0  0  0  0  0  0  0  0  0  0
  150.2142  141.3404  156.4655 C   0  0  0  0  0  0  0  0  0  0  0  0
  149.2723  140.9010  155.3861 C   0  0  2  0  0  0  0  0  0  0  0  0
  149.8444  139.7324  154.5697 C   0  0  0  0  0  0  0  0  0  0  0  0
  148.9632  141.9587  154.5049 O   0  0  0  0  0  0  0  0  0  0  0  0
  150.5235  142.6299  156.7854 N   0  3  0  0  0  0  0  0  0  0  0  0
  151.4214  142.6526  157.8526 C   0  0  0  0  0  0  0  0  0  0  0  0
  152.0251  143.7184  158.5125 C   0  0  0  0  0  0  0  0  0  0  0  0
  152.9031  143.3936  159.5673 C   0  0  0  0  0  0  0  0  0  0  0  0
  153.1514  142.0536  159.9295 C   0  0  0  0  0  0  0  0  0  0  0  0
  152.5303  140.9814  159.2547 C   0  0  0  0  0  0  0  0  0  0  0  0
  151.6624  141.3115  158.2139 C   0  0  0  0  0  0  0  0  0  0  0  0
  148.6016  133.3107  156.3286 H   0  0  0  0  0  0  0  0  0  0  0  0
  147.2660  133.3986  157.4704 H   0  0  0  0  0  0  0  0  0  0  0  0
  148.8361  132.7244  157.9710 H   0  0  0  0  0  0  0  0  0  0  0  0
  147.5012  133.4699  159.7747 H   0  0  0  0  0  0  0  0  0  0  0  0
  148.0275  136.6292  162.6390 H   0  0  0  0  0  0  0  0  0  0  0  0
  149.2046  137.9798  160.9791 H   0  0  0  0  0  0  0  0  0  0  0  0
  149.0198  139.1547  158.5398 H   0  0  0  0  0  0  0  0  0  0  0  0
  150.4136  138.7556  159.5540 H   0  0  0  0  0  0  0  0  0  0  0  0
  151.9250  138.7720  157.6958 H   0  0  0  0  0  0  0  0  0  0  0  0
  150.6514  138.6254  156.5135 H   0  0  0  0  0  0  0  0  0  0  0  0
  148.3402  140.5711  155.8450 H   0  0  0  0  0  0  0  0  0  0  0  0
  150.0706  138.8805  155.2120 H   0  0  0  0  0  0  0  0  0  0  0  0
  150.7616  140.0128  154.0509 H   0  0  0  0  0  0  0  0  0  0  0  0
  149.1309  139.3947  153.8173 H   0  0  0  0  0  0  0  0  0  0  0  0
  148.8681  142.7522  155.0098 H   0  0  0  0  0  0  0  0  0  0  0  0
  151.8369  144.7455  158.2359 H   0  0  0  0  0  0  0  0  0  0  0  0
  153.3963  144.1881  160.1087 H   0  0  0  0  0  0  0  0  0  0  0  0
  153.8315  141.8432  160.7422 H   0  0  0  0  0  0  0  0  0  0  0  0
  152.7285  139.9590  159.5405 H   0  0  0  0  0  0  0  0  0  0  0  0
  150.1463  143.4342  156.3009 H   0  0  0  0  0  0  0  0  0  0  0  0
  1  2  1  0  0  0  0
  1 26  1  0  0  0  0
  1 27  1  0  0  0  0
  1 28  1  0  0  0  0
  2  3  1  0  0  0  0
  3 10  1  0  0  0  0
  3  4  2  0  0  0  0
  4  5  1  0  0  0  0
  4 29  1  0  0  0  0
  5  6  1  0  0  0  0
  5  8  2  0  0  0  0
  6  7  3  0  0  0  0
  8  9  1  0  0  0  0
  8 30  1  0  0  0  0
  9 10  2  0  0  0  0
  9 31  1  0  0  0  0
 10 11  1  0  0  0  0
 11 12  1  0  0  0  0
 12 13  1  0  0  0  0
 12 32  1  0  0  0  0
 12 33  1  0  0  0  0
 13 14  1  0  0  0  0
 13 34  1  0  0  0  0
 13 35  1  0  0  0  0
 14 25  1  0  0  0  0
 14 15  1  0  0  0  0
 15 16  1  0  0  0  0
 15 19  2  0  0  0  0
 16 17  1  0  0  0  0
 16 18  1  0  0  0  0
 16 36  1  0  0  0  0
 17 37  1  0  0  0  0
 17 38  1  0  0  0  0
 17 39  1  0  0  0  0
 18 40  1  0  0  0  0
 19 20  1  0  0  0  0
 19 45  1  0  0  0  0
 20 25  2  0  0  0  0
 20 21  1  0  0  0  0
 21 22  2  0  0  0  0
 21 41  1  0  0  0  0
 22 23  1  0  0  0  0
 22 42  1  0  0  0  0
 23 24  2  0  0  0  0
 23 43  1  0  0  0  0
 24 25  1  0  0  0  0
 24 44  1  0  0  0  0
M  CHG  1  19   1
M  END
> <s_m_source_file>
AV-unprocessed.smi

> <i_m_source_file_index>
2346

> <i_lp_mmshare_version>
43012

> <i_f3d_flags>
0

> <s_epik_input>
W0NIM11PYzFbY0hdYyhDI04pW2NIXVtjSF1jMU9bQ0gyXVtDSDJdbihjKG4yKVtDQEhdKFtDSDNdKVtPSF0pYyhjMjMpW2NIXVtjSF1bY0hdW2NIXTM=

> <s_epik_cmdline>
J2VwaWtfcHl0aG9uJywgJy1waCcsICc3LjAnLCAnLXRuJywgJzgnLCAnLW1hJywgJzIwMCcsICctbWV0YWxfYmluZGluZycsICctaW1hZScsICc8aW5maWxlLm1hZT4nLCAnLW9tYWUnLCAnPG91dGZpbGUubWFlPic=

> <r_epik_Ionization_Penalty>
1.58928

> <r_epik_Ionization_Penalty_Charging>
1.58925

> <r_epik_Ionization_Penalty_Neutral>
2.92192e-05

> <r_epik_State_Penalty>
1.68649

> <r_epik_Charging_Adjusted_Penalty>
3.27574

> <i_epik_Tot_Q>
1

> <i_epik_Tot_abs_Q>
1

> <r_epik_Metal_State_Penalty>
5.74385

> <b_epik_Metal_Only>
0

> <s_lp_Force_Field>
OPLS_2005

> <r_lp_Energy>
24.6554

> <b_lp_Chiralities_Consistent>
1

> <s_lp_Variant>
AV-unprocessed.smi:2346-3

> <Gold.Version>
5.8.1

> <Gold.Id.Protein>
6NUR|6NUR_protein|mol2

> <Gold.PLP.Fitness>
52.4477

> <Gold.PLP.PLP>
-44.4437

> <Gold.PLP.part.hbond>
-3.9462

> <Gold.PLP.part.metal>
0.0000

> <Gold.PLP.part.buried>
-0.5713

> <Gold.PLP.part.nonpolar>
-39.6791

> <Gold.PLP.part.repulsive>
0.0891

> <Gold.PLP.ligand.clash>
0.0000

> <Gold.PLP.ligand.torsion>
0.8923

> <Gold.PLP.Chemscore.Hbond>
3.2267

> <Gold.PLP.Chemscore.CHOScore>
0.0000

> <Gold.PLP.Chemscore.Metal>
0.0000

> <Gold.Chemscore.Hbonds>
donor molecule, donor type, donor heavy atom, donor atom, acceptor molecule, acceptor atom, score
      L1  H    18    40       P1  8028  0.93
      L1  H    19    45       P1  8028  2.00
      P1  H  8011  8017       L1    18  0.07

> <Gold.PLP.Chemscore.Internal.Correction>
0.1086

> <Gold.Rescore>
     Score         DG    S(hbond)    S(metal)    S(lipo)     H(rot)  DE(clash)    DE(int)     intcor
     17.45     -19.52       2.12        0.00     117.49       2.65       1.27       0.80       ----

> <Gold.Chemscore.Fitness>
17.4470

> <Gold.Chemscore.DG>
-19.5208

> <Gold.Chemscore.ZeroCoef>
-5.4800

> <Gold.Chemscore.Hbond>
2.1168

> <Gold.Chemscore.Metal>
0.0000

> <Gold.Chemscore.Lipo>
117.4889

> <Gold.Chemscore.Internal_Hbond>
0.0000

> <Gold.Chemscore.DEClash>
1.2737

> <Gold.Chemscore.DEInternal>
0.8001

> <Gold.Chemscore.Rot>
2.6467

> <Gold.Chemscore.Internal.Correction>
   9.000000E+99

> <Gold.Chemscore.Hbonds>
donor molecule, donor type, donor heavy atom, donor atom, acceptor molecule, acceptor atom, score
      L1  H    18    40       P1  8028  0.88
      L1  H    19    45       P1  8028  0.99
      P1  H  8011  8017       L1    18  0.05

> <Gold.Chemscore.Hbond.Weighted>
-7.0702

> <Gold.Chemscore.Metal.Weighted>
-0.0000

> <Gold.Chemscore.Lipo.Weighted>
-13.7462

> <Gold.Chemscore.Internal_Hbond.Weighted>
0.0000

> <Gold.Chemscore.DEClash.Weighted>
1.2737

> <Gold.Chemscore.DEInternal.Weighted>
0.8001

> <Gold.Chemscore.Rot.Weighted>
6.7756

> <Gold.Chemscore.Internal.Correction.Weighted>
   9.000000E+99

> <Gold.Protein.RotatedTorsions>
[ 6907 6896 6895 6894 ] final    0.63 input  -60.11 | X-H torsion
[ 7974 7965 7964 7962 ] final -118.61 input  175.53 | X-H torsion
[ 8008 7997 7996 7995 ] final  -92.12 input   59.86 | X-H torsion
[ 10167 10162 10161 10158 ] final -166.62 input  -65.29 | X-H torsion
[ 10718 10713 10712 10709 ] final  131.05 input   66.30 | X-H torsion
[ 10763 10752 10751 10750 ] final  153.86 input  -60.55 | X-H torsion
[ 11005 11000 10999 10996 ] final  -70.95 input  -57.11 | X-H torsion

> <Gold.Protein.ActiveResidues>
 VAL166  LYS551  ARG553  GLY616  TRP617  ASP618  TYR619  PRO620  LYS621  CYS622 
 ASP623  PHE694  ASN695  SER759  ASP760  ASP761  ALA762  ILE779  LEU786  VAL792 
 PHE793  MET794  SER795  GLU796  ALA797  LYS798  CYS799  TRP800  GLU811  SER814 

> <Gold.Protein.RotatedAtoms>
  151.5796  135.1059  160.0013 H   0  0  0  0  0  0  0  0  0  0  0  0  # atno 6907 bound_to 6896
  152.4360  133.7358  159.6624 H   0  0  0  0  0  0  0  0  0  0  0  0  # atno 6908 bound_to 6896
  150.8258  133.8104  159.3142 H   0  0  0  0  0  0  0  0  0  0  0  0  # atno 6909 bound_to 6896
  145.0719  140.8365  143.4090 H   0  0  0  0  0  0  0  0  0  0  0  0  # atno 7974 bound_to 7965
  154.7192  140.0512  157.0623 H   0  0  0  0  0  0  0  0  0  0  0  0  # atno 8008 bound_to 7997
  155.0451  140.3173  155.4692 H   0  0  0  0  0  0  0  0  0  0  0  0  # atno 8009 bound_to 7997
  156.2811  140.2126  156.5575 H   0  0  0  0  0  0  0  0  0  0  0  0  # atno 8010 bound_to 7997
  139.6103  144.0828  152.1835 H   0  0  0  0  0  0  0  0  0  0  0  0  # atno 10167 bound_to 10162
  157.5004  131.1094  150.9434 H   0  0  0  0  0  0  0  0  0  0  0  0  # atno 10718 bound_to 10713
  154.1431  135.2819  155.3155 H   0  0  0  0  0  0  0  0  0  0  0  0  # atno 10763 bound_to 10752
  154.6273  135.5447  153.7644 H   0  0  0  0  0  0  0  0  0  0  0  0  # atno 10764 bound_to 10752
  153.0244  135.6454  154.1577 H   0  0  0  0  0  0  0  0  0  0  0  0  # atno 10765 bound_to 10752
  141.1583  133.6804  156.6831 H   0  0  0  0  0  0  0  0  0  0  0  0  # atno 11005 bound_to 11000
  145.1282  139.2649  143.5553 LP  0  0  0  0  0  0  0  0  0  0  0  0  # atno 17320 bound_to 7965
  146.3529  140.0925  142.8612 LP  0  0  0  0  0  0  0  0  0  0  0  0  # atno 17321 bound_to 7965
  140.0445  144.5981  150.7384 LP  0  0  0  0  0  0  0  0  0  0  0  0  # atno 17342 bound_to 10162
  140.7314  143.2694  151.3937 LP  0  0  0  0  0  0  0  0  0  0  0  0  # atno 17343 bound_to 10162
  157.0107  130.5635  149.5320 LP  0  0  0  0  0  0  0  0  0  0  0  0  # atno 17370 bound_to 10713
  156.0226  130.5320  150.8317 LP  0  0  0  0  0  0  0  0  0  0  0  0  # atno 17371 bound_to 10713
  140.3087  134.8104  157.4158 LP  0  0  0  0  0  0  0  0  0  0  0  0  # atno 17394 bound_to 11000
  140.1198  134.5235  155.8194 LP  0  0  0  0  0  0  0  0  0  0  0  0  # atno 17395 bound_to 11000

$$$$
