AV-unprocessed.smi:1185|AV-procd|sdf|4974|dock4
  -GOLD-   22720 3563D 1   1.00000     0.00000
 Structure written by MMmdl.
 38 40  0  0  0  0  0  0  0  0  1 V2000
  152.3208  138.6844  158.9011 O   0  0  0  0  0  0  0  0  0  0  0  0
  152.1290  139.8870  159.0845 C   0  0  0  0  0  0  0  0  0  0  0  0
  152.8309  140.6756  160.1086 C   0  0  0  0  0  0  0  0  0  0  0  0
  153.8526  139.9590  160.9874 C   0  0  0  0  0  0  0  0  0  0  0  0
  155.0301  139.8340  160.3735 F   0  0  0  0  0  0  0  0  0  0  0  0
  154.0518  140.6358  162.1189 F   0  0  0  0  0  0  0  0  0  0  0  0
  153.4259  138.7356  161.3029 F   0  0  0  0  0  0  0  0  0  0  0  0
  152.5727  141.9995  160.2420 C   0  0  0  0  0  0  0  0  0  0  0  0
  151.5992  142.6449  159.3845 C   0  0  0  0  0  0  0  0  0  0  0  0
  151.2773  144.1088  159.4679 C   0  0  0  0  0  0  0  0  0  0  0  0
  151.4897  145.0361  158.2933 C   0  0  0  0  0  0  0  0  0  0  0  0
  152.3610  145.1617  159.5209 C   0  0  0  0  0  0  0  0  0  0  0  0
  150.9752  141.9486  158.4958 N   0  0  0  0  0  0  0  0  0  0  0  0
  151.2441  140.6038  158.3313 N   0  0  0  0  0  0  0  0  0  0  0  0
  150.5205  139.9795  157.2153 C   0  0  0  0  0  0  0  0  0  0  0  0
  150.7111  140.7442  155.8846 C   0  0  1  0  0  0  0  0  0  0  0  0
  151.8153  140.1826  155.2041 O   0  0  0  0  0  0  0  0  0  0  0  0
  149.4486  140.7596  155.0272 C   0  0  0  0  0  0  0  0  0  0  0  0
  148.8244  141.9863  154.7084 C   0  0  0  0  0  0  0  0  0  0  0  0
  147.6767  142.0120  153.8934 C   0  0  0  0  0  0  0  0  0  0  0  0
  147.1452  140.8106  153.3881 C   0  0  0  0  0  0  0  0  0  0  0  0
  147.7645  139.5847  153.6969 C   0  0  0  0  0  0  0  0  0  0  0  0
  148.9124  139.5565  154.5125 C   0  0  0  0  0  0  0  0  0  0  0  0
  149.5013  138.3677  154.7866 F   0  0  0  0  0  0  0  0  0  0  0  0
  153.0807  142.5968  160.9842 H   0  0  0  0  0  0  0  0  0  0  0  0
  150.3933  144.2766  160.0802 H   0  0  0  0  0  0  0  0  0  0  0  0
  151.9470  144.6256  157.3951 H   0  0  0  0  0  0  0  0  0  0  0  0
  150.7441  145.8101  158.1238 H   0  0  0  0  0  0  0  0  0  0  0  0
  152.1954  146.0199  160.1688 H   0  0  0  0  0  0  0  0  0  0  0  0
  153.3968  144.8403  159.4289 H   0  0  0  0  0  0  0  0  0  0  0  0
  150.8332  138.9400  157.1004 H   0  0  0  0  0  0  0  0  0  0  0  0
  149.4566  139.9321  157.4565 H   0  0  0  0  0  0  0  0  0  0  0  0
  150.9922  141.7731  156.1096 H   0  0  0  0  0  0  0  0  0  0  0  0
  151.7383  139.2412  155.2358 H   0  0  0  0  0  0  0  0  0  0  0  0
  149.2301  142.9150  155.0819 H   0  0  0  0  0  0  0  0  0  0  0  0
  147.2064  142.9540  153.6529 H   0  0  0  0  0  0  0  0  0  0  0  0
  146.2666  140.8297  152.7604 H   0  0  0  0  0  0  0  0  0  0  0  0
  147.3607  138.6633  153.3039 H   0  0  0  0  0  0  0  0  0  0  0  0
  1  2  2  0  0  0  0
  2 14  1  0  0  0  0
  2  3  1  0  0  0  0
  3  4  1  0  0  0  0
  3  8  2  0  0  0  0
  4  5  1  0  0  0  0
  4  6  1  0  0  0  0
  4  7  1  0  0  0  0
  8  9  1  0  0  0  0
  8 25  1  0  0  0  0
  9 10  1  0  0  0  0
  9 13  2  0  0  0  0
 10 12  1  0  0  0  0
 10 11  1  0  0  0  0
 10 26  1  0  0  0  0
 11 12  1  0  0  0  0
 11 27  1  0  0  0  0
 11 28  1  0  0  0  0
 12 29  1  0  0  0  0
 12 30  1  0  0  0  0
 13 14  1  0  0  0  0
 14 15  1  0  0  0  0
 15 16  1  0  0  0  0
 15 31  1  0  0  0  0
 15 32  1  0  0  0  0
 16 17  1  0  0  0  0
 16 18  1  0  0  0  0
 16 33  1  0  0  0  0
 17 34  1  0  0  0  0
 18 23  1  0  0  0  0
 18 19  2  0  0  0  0
 19 20  1  0  0  0  0
 19 35  1  0  0  0  0
 20 21  2  0  0  0  0
 20 36  1  0  0  0  0
 21 22  1  0  0  0  0
 21 37  1  0  0  0  0
 22 23  2  0  0  0  0
 22 38  1  0  0  0  0
 23 24  1  0  0  0  0
M  END
> <s_m_source_file>
AV-unprocessed.smi

> <i_m_source_file_index>
1185

> <i_lp_mmshare_version>
43012

> <i_f3d_flags>
0

> <s_epik_input>
Tz1jMWMoQyhGKShGKUYpW2NIXWMoW0NIXTJbQ0gyXVtDSDJdMilubjFbQ0gyXVtDQEhdKFtPSF0pYzNbY0hdW2NIXVtjSF1bY0hdYzNG

> <s_epik_cmdline>
J2VwaWtfcHl0aG9uJywgJy1waCcsICc3LjAnLCAnLXRuJywgJzgnLCAnLW1hJywgJzIwMCcsICctbWV0YWxfYmluZGluZycsICctaW1hZScsICc8aW5maWxlLm1hZT4nLCAnLW9tYWUnLCAnPG91dGZpbGUubWFlPic=

> <r_lp_tautomer_probability>
1

> <r_epik_Ionization_Penalty>
7.26807e-08

> <r_epik_Ionization_Penalty_Charging>
9.677e-10

> <r_epik_Ionization_Penalty_Neutral>
7.1713e-08

> <r_epik_State_Penalty>
-0

> <r_epik_Charging_Adjusted_Penalty>
9.677e-10

> <i_epik_Tot_Q>
0

> <i_epik_Tot_abs_Q>
0

> <r_epik_Metal_State_Penalty>
-0

> <b_epik_Metal_Only>
0

> <s_lp_Force_Field>
OPLS_2005

> <r_lp_Energy>
30.0942

> <b_lp_Chiralities_Consistent>
1

> <s_lp_Variant>
AV-unprocessed.smi:1185-2

> <Gold.Version>
5.8.1

> <Gold.Id.Protein>
6NUR|6NUR_protein|mol2

> <Gold.PLP.Fitness>
52.5624

> <Gold.PLP.PLP>
-52.6832

> <Gold.PLP.part.hbond>
-1.0000

> <Gold.PLP.part.metal>
0.0000

> <Gold.PLP.part.buried>
-4.5250

> <Gold.PLP.part.nonpolar>
-47.3800

> <Gold.PLP.part.repulsive>
0.0215

> <Gold.PLP.ligand.clash>
0.0000

> <Gold.PLP.ligand.torsion>
1.5652

> <Gold.PLP.Chemscore.Hbond>
0.7840

> <Gold.PLP.Chemscore.CHOScore>
0.0000

> <Gold.PLP.Chemscore.Metal>
0.0000

> <Gold.Chemscore.Hbonds>
donor molecule, donor type, donor heavy atom, donor atom, acceptor molecule, acceptor atom, score
      P1  H  7989  7998       L1    17  0.86

> <Gold.PLP.Chemscore.Internal.Correction>
0.6577

> <Gold.Rescore>
     Score         DG    S(hbond)    S(metal)    S(lipo)     H(rot)  DE(clash)    DE(int)     intcor
     11.31     -15.83       0.86        0.00     112.14       2.20       0.02       4.50       ----

> <Gold.Chemscore.Fitness>
11.3115

> <Gold.Chemscore.DG>
-15.8285

> <Gold.Chemscore.ZeroCoef>
-5.4800

> <Gold.Chemscore.Hbond>
0.8564

> <Gold.Chemscore.Metal>
0.0000

> <Gold.Chemscore.Lipo>
112.1441

> <Gold.Chemscore.Internal_Hbond>
0.0000

> <Gold.Chemscore.DEClash>
0.0209

> <Gold.Chemscore.DEInternal>
4.4960

> <Gold.Chemscore.Rot>
2.2003

> <Gold.Chemscore.Internal.Correction>
   9.000000E+99

> <Gold.Chemscore.Hbonds>
donor molecule, donor type, donor heavy atom, donor atom, acceptor molecule, acceptor atom, score
      P1  H  7989  7998       L1    17  0.30

> <Gold.Chemscore.Hbond.Weighted>
-2.8604

> <Gold.Chemscore.Metal.Weighted>
-0.0000

> <Gold.Chemscore.Lipo.Weighted>
-13.1209

> <Gold.Chemscore.Internal_Hbond.Weighted>
0.0000

> <Gold.Chemscore.DEClash.Weighted>
0.0209

> <Gold.Chemscore.DEInternal.Weighted>
4.4960

> <Gold.Chemscore.Rot.Weighted>
5.6328

> <Gold.Chemscore.Internal.Correction.Weighted>
   9.000000E+99

> <Gold.Protein.RotatedTorsions>
[ 6907 6896 6895 6894 ] final   32.81 input  -60.11 | X-H torsion
[ 7974 7965 7964 7962 ] final  -87.17 input  175.53 | X-H torsion
[ 8008 7997 7996 7995 ] final   99.60 input   59.86 | X-H torsion
[ 10167 10162 10161 10158 ] final   59.20 input  -65.29 | X-H torsion
[ 10718 10713 10712 10709 ] final   19.86 input   66.30 | X-H torsion
[ 10763 10752 10751 10750 ] final -132.10 input  -60.55 | X-H torsion
[ 11005 11000 10999 10996 ] final  -40.76 input  -57.11 | X-H torsion

> <Gold.Protein.ActiveResidues>
 VAL166  LYS551  ARG553  GLY616  TRP617  ASP618  TYR619  PRO620  LYS621  CYS622 
 ASP623  PHE694  ASN695  SER759  ASP760  ASP761  ALA762  ILE779  LEU786  VAL792 
 PHE793  MET794  SER795  GLU796  ALA797  LYS798  CYS799  TRP800  GLU811  SER814 

> <Gold.Protein.RotatedAtoms>
  152.0797  134.9479  160.0573 H   0  0  0  0  0  0  0  0  0  0  0  0  # atno 6907 bound_to 6896
  152.0772  133.4130  159.4493 H   0  0  0  0  0  0  0  0  0  0  0  0  # atno 6908 bound_to 6896
  150.6836  134.2943  159.4723 H   0  0  0  0  0  0  0  0  0  0  0  0  # atno 6909 bound_to 6896
  145.4702  140.9560  143.1921 H   0  0  0  0  0  0  0  0  0  0  0  0  # atno 7974 bound_to 7965
  156.1121  140.3226  155.8087 H   0  0  0  0  0  0  0  0  0  0  0  0  # atno 8008 bound_to 7997
  155.4655  140.0542  157.3003 H   0  0  0  0  0  0  0  0  0  0  0  0  # atno 8009 bound_to 7997
  154.4767  140.2035  155.9875 H   0  0  0  0  0  0  0  0  0  0  0  0  # atno 8010 bound_to 7997
  140.1790  144.4201  150.6624 H   0  0  0  0  0  0  0  0  0  0  0  0  # atno 10167 bound_to 10162
  157.1164  130.6531  149.5911 H   0  0  0  0  0  0  0  0  0  0  0  0  # atno 10718 bound_to 10713
  154.8746  135.3809  154.4354 H   0  0  0  0  0  0  0  0  0  0  0  0  # atno 10763 bound_to 10752
  153.5044  135.7030  153.5819 H   0  0  0  0  0  0  0  0  0  0  0  0  # atno 10764 bound_to 10752
  153.4137  135.3918  155.2033 H   0  0  0  0  0  0  0  0  0  0  0  0  # atno 10765 bound_to 10752
  141.0198  133.6868  156.2365 H   0  0  0  0  0  0  0  0  0  0  0  0  # atno 11005 bound_to 11000
  144.7950  139.6252  143.7097 LP  0  0  0  0  0  0  0  0  0  0  0  0  # atno 17320 bound_to 7965
  146.2401  139.5984  142.9497 LP  0  0  0  0  0  0  0  0  0  0  0  0  # atno 17321 bound_to 7965
  140.6532  143.2230  151.6029 LP  0  0  0  0  0  0  0  0  0  0  0  0  # atno 17342 bound_to 10162
  139.5304  144.2932  152.1135 LP  0  0  0  0  0  0  0  0  0  0  0  0  # atno 17343 bound_to 10162
  155.9838  130.4860  150.6953 LP  0  0  0  0  0  0  0  0  0  0  0  0  # atno 17370 bound_to 10713
  157.4514  131.0873  151.0841 LP  0  0  0  0  0  0  0  0  0  0  0  0  # atno 17371 bound_to 10713
  140.6593  134.4984  157.5582 LP  0  0  0  0  0  0  0  0  0  0  0  0  # atno 17394 bound_to 11000
  139.9139  134.8287  156.1433 LP  0  0  0  0  0  0  0  0  0  0  0  0  # atno 17395 bound_to 11000

$$$$
