#       Name:                AV-unprocessed.smi:898
#       Creating user name   scv26
#       Creation time:       Fri Mar 27 01:57:25 2020


#       File generated by GOLD software.
#

@<TRIPOS>MOLECULE
AV-unprocessed.smi:898
    38    40     1
SMALL
NO_CHARGES


@<TRIPOS>ATOM
      1 ****         0.3882   0.8470   0.0286 O.2            1 S1                 0.0000
      2 ****        -0.2333  -0.0360  -0.5672 C.2            1 S1                 0.0000
      3 ****         0.2930  -1.1526  -1.1199 N.pl3          1 S1                -1.0000
      4 ****         1.6130  -1.3861  -1.0348 C.2            1 S1                 0.0000
      5 ****         2.4543  -1.1352  -2.0477 N.2            1 S1                 0.0000
      6 ****         3.7721  -1.4525  -1.7519 N.2            1 S1                 0.0000
      7 ****         3.9070  -1.9461  -0.5188 C.2            1 S1                 0.0000
      8 ****         5.2288  -2.3603   0.0361 C.3            1 S1                 0.0000
      9 ****         5.5668  -2.1790   1.5001 C.3            1 S1                 0.0000
     10 ****         6.2462  -1.3259   0.4594 C.3            1 S1                 0.0000
     11 ****         2.4056  -2.0690   0.3844 S.3            1 S1                 0.0000
     12 ****        -1.5635   0.0584  -0.7074 N.am           1 S1                 0.0000
     13 ****        -2.4107   1.1359  -0.2025 C.3            1 S1                 0.0000
     14 ****        -3.7035   1.1935  -1.0389 C.3            1 S1                 0.0000
     15 ****        -4.6337   2.3426  -0.6176 C.3            1 S1                 0.0000
     16 ****        -5.0917   2.2175   0.8421 C.3            1 S1                 0.0000
     17 ****        -3.6827   2.2932   1.9802 S.3            1 S1                 0.0000
     18 ****        -2.7088   0.9242   1.2950 C.3            1 S1                 0.0000
     19 ****         5.5900  -3.2583  -0.4613 H              1 S1                 0.0000
     20 ****         4.8356  -1.6913   2.1418 H              1 S1                 0.0000
     21 ****         6.1599  -2.9561   1.9776 H              1 S1                 0.0000
     22 ****         7.2920  -1.5331   0.2423 H              1 S1                 0.0000
     23 ****         5.9555  -0.2787   0.4012 H              1 S1                 0.0000
     24 ****        -2.0270  -0.6885  -1.2034 H              1 S1                 0.0000
     25 ****        -1.8820   2.0827  -0.3284 H              1 S1                 0.0000
     26 ****        -3.4483   1.3152  -2.0924 H              1 S1                 0.0000
     27 ****        -4.2381   0.2454  -0.9629 H              1 S1                 0.0000
     28 ****        -4.1313   3.2992  -0.7663 H              1 S1                 0.0000
     29 ****        -5.5086   2.3528  -1.2682 H              1 S1                 0.0000
     30 ****        -5.7849   3.0212   1.0909 H              1 S1                 0.0000
     31 ****        -5.6228   1.2775   0.9953 H              1 S1                 0.0000
     32 ****        -3.2528  -0.0084   1.4484 H              1 S1                 0.0000
     33 ****        -1.7828   0.8500   1.8660 H              1 S1                 0.0000
     34 ****         1.3794   0.7735   0.1385 LP             1 S1                 0.0000
     35 ****        -0.0991   1.6365   0.4018 LP             1 S1                 0.0000
     36 ****        -0.3007  -1.8043  -1.5919 LP             1 S1                 0.0000
     37 ****         2.1620  -0.7580  -2.9265 LP             1 S1                 0.0000
     38 ****         4.5328  -1.3261  -2.3886 LP             1 S1                 0.0000
@<TRIPOS>BOND
    1    1    2 2     
    2    2    3 1     
    3    2   12 am    
    4    3    4 1     
    5    4   11 1     
    6    4    5 2     
    7    5    6 1     
    8    6    7 2     
    9    7    8 1     
   10    7   11 1     
   11    8   10 1     
   12    8    9 1     
   13    8   19 1     
   14    9   10 1     
   15    9   20 1     
   16    9   21 1     
   17   10   22 1     
   18   10   23 1     
   19   12   13 1     
   20   12   24 1     
   21   13   18 1     
   22   13   14 1     
   23   13   25 1     
   24   14   15 1     
   25   14   26 1     
   26   14   27 1     
   27   15   16 1     
   28   15   28 1     
   29   15   29 1     
   30   16   17 1     
   31   16   30 1     
   32   16   31 1     
   33   17   18 1     
   34   18   32 1     
   35   18   33 1     
   36    1   34 1     
   37    1   35 1     
   38    3   36 1     
   39    5   37 1     
   40    6   38 1     
@<TRIPOS>SUBSTRUCTURE
      1 S1             1
@<TRIPOS>SET
LONE_PAIRS      STATIC     ATOMS    <user>   **** ""
5 34 35 36 37 38
DONOR_HYDROGENS      STATIC     ATOMS    <user>   **** ""
1 24
ATOM$BLUE        STATIC     ATOMS    COLORGROUP SYSTEM
5 34 35 36 37 38
ATOM$RED        STATIC     ATOMS    COLORGROUP SYSTEM
1 24
