#       Name:                AV-unprocessed.smi:2021
#       Creating user name   scv26
#       Creation time:       Fri Mar 27 10:43:35 2020


#       File generated by GOLD software.
#

@<TRIPOS>MOLECULE
AV-unprocessed.smi:2021
    48    49     1
SMALL
NO_CHARGES


@<TRIPOS>ATOM
      1 ****        -3.6064   1.9048  -2.5957 C.3            1 S1                 0.0000
      2 ****        -2.0751   2.0170  -2.5507 C.3            1 S1                 0.0000
      3 ****        -1.5430   2.6107  -3.8659 C.3            1 S1                 0.0000
      4 ****        -1.4408   0.6445  -2.2363 C.3            1 S1                 0.0000
      5 ****         0.0357   0.7087  -2.0590 N.4            1 S1                 1.0000
      6 ****         0.7183  -0.5861  -2.2992 C.3            1 S1                 0.0000
      7 ****         0.5728  -1.5233  -1.0877 C.3            1 S1                 0.0000
      8 ****         1.0850  -0.8726   0.0664 O.3            1 S1                 0.0000
      9 ****         0.3605   0.3080   0.3984 C.3            1 S1                 0.0000
     10 ****         0.9278   0.8924   1.7036 C.3            1 S1                 0.0000
     11 ****         0.6463   0.0278   2.8447 N.am           1 S1                 0.0000
     12 ****         1.4193  -0.9763   3.2813 C.2            1 S1                 0.0000
     13 ****         2.4876  -1.2228   2.7168 O.2            1 S1                 0.0000
     14 ****         0.9042  -1.6347   4.3437 N.pl3          1 S1                -1.0000
     15 ****         1.5724  -2.6698   4.8795 C.2            1 S1                 0.0000
     16 ****         1.2759  -3.9456   4.5845 N.2            1 S1                 0.0000
     17 ****         2.0855  -4.8609   5.2437 N.2            1 S1                 0.0000
     18 ****         2.9710  -4.2486   6.0295 C.2            1 S1                 0.0000
     19 ****         2.8915  -2.4994   6.0413 S.3            1 S1                 0.0000
     20 ****         0.4888   1.3046  -0.7750 C.3            1 S1                 0.0000
     21 ****        -3.9325   1.2283  -3.3867 H              1 S1                 0.0000
     22 ****        -4.0674   2.8759  -2.7789 H              1 S1                 0.0000
     23 ****        -4.0017   1.5283  -1.6518 H              1 S1                 0.0000
     24 ****        -1.8378   2.7149  -1.7486 H              1 S1                 0.0000
     25 ****        -1.7550   1.9561  -4.7120 H              1 S1                 0.0000
     26 ****        -0.4649   2.7680  -3.8278 H              1 S1                 0.0000
     27 ****        -2.0025   3.5780  -4.0723 H              1 S1                 0.0000
     28 ****        -1.9040   0.2060  -1.3525 H              1 S1                 0.0000
     29 ****        -1.6744  -0.0308  -3.0608 H              1 S1                 0.0000
     30 ****         0.3437  -1.0606  -3.2067 H              1 S1                 0.0000
     31 ****         1.7768  -0.3881  -2.4735 H              1 S1                 0.0000
     32 ****        -0.4665  -1.8154  -0.9306 H              1 S1                 0.0000
     33 ****         1.1382  -2.4405  -1.2531 H              1 S1                 0.0000
     34 ****        -0.6882   0.0559   0.5624 H              1 S1                 0.0000
     35 ****         1.9980   1.0851   1.6116 H              1 S1                 0.0000
     36 ****         0.4601   1.8559   1.9070 H              1 S1                 0.0000
     37 ****        -0.2163   0.1939   3.3421 H              1 S1                 0.0000
     38 ****         3.6720  -4.8303   6.6091 H              1 S1                 0.0000
     39 ****         1.5356   1.5891  -0.8906 H              1 S1                 0.0000
     40 ****        -0.0496   2.2258  -0.5572 H              1 S1                 0.0000
     41 ****         0.3573   1.3260  -2.7911 H              1 S1                 0.0000
     42 ****         2.0392  -0.6256  -0.1025 LP             1 S1                 0.0000
     43 ****         1.0363  -1.5058   0.8388 LP             1 S1                 0.0000
     44 ****         2.7774  -0.6735   1.9330 LP             1 S1                 0.0000
     45 ****         3.0642  -1.9720   3.0427 LP             1 S1                 0.0000
     46 ****         0.0266  -1.3515   4.7304 LP             1 S1                 0.0000
     47 ****         0.5461  -4.2098   3.9540 LP             1 S1                 0.0000
     48 ****         2.0135  -5.8531   5.1418 LP             1 S1                 0.0000
@<TRIPOS>BOND
    1    1    2 1     
    2    1   21 1     
    3    1   22 1     
    4    1   23 1     
    5    2    3 1     
    6    2    4 1     
    7    2   24 1     
    8    3   25 1     
    9    3   26 1     
   10    3   27 1     
   11    4    5 1     
   12    4   28 1     
   13    4   29 1     
   14    5   20 1     
   15    5    6 1     
   16    5   41 1     
   17    6    7 1     
   18    6   30 1     
   19    6   31 1     
   20    7    8 1     
   21    7   32 1     
   22    7   33 1     
   23    8    9 1     
   24    9   10 1     
   25    9   20 1     
   26    9   34 1     
   27   10   11 1     
   28   10   35 1     
   29   10   36 1     
   30   11   12 am    
   31   11   37 1     
   32   12   13 2     
   33   12   14 1     
   34   14   15 1     
   35   15   19 1     
   36   15   16 2     
   37   16   17 1     
   38   17   18 2     
   39   18   19 1     
   40   18   38 1     
   41   20   39 1     
   42   20   40 1     
   43    8   42 1     
   44    8   43 1     
   45   13   44 1     
   46   13   45 1     
   47   14   46 1     
   48   16   47 1     
   49   17   48 1     
@<TRIPOS>SUBSTRUCTURE
      1 S1             1
@<TRIPOS>SET
LONE_PAIRS      STATIC     ATOMS    <user>   **** ""
7 42 43 44 45 46 47 48
DONOR_HYDROGENS      STATIC     ATOMS    <user>   **** ""
2 41 37
ATOM$BLUE        STATIC     ATOMS    COLORGROUP SYSTEM
7 42 43 44 45 46 47 48
ATOM$RED        STATIC     ATOMS    COLORGROUP SYSTEM
2 41 37
