AV-unprocessed.smi:1950|AV-procd|sdf|7879|dock8
  -GOLD-   2272010 33D 1   1.00000     0.00000
 Structure written by MMmdl.
 33 34  0  0  0  0  0  0  0  0  1 V2000
  143.8160  132.9284  148.6979 C   0  0  0  0  0  0  0  0  0  0  0  0
  144.7222  132.3993  149.8118 C   0  0  0  0  0  0  0  0  0  0  0  0
  145.5236  131.5079  149.5311 O   0  0  0  0  0  0  0  0  0  0  0  0
  144.6205  132.9277  151.0552 N   0  0  0  0  0  0  0  0  0  0  0  0
  145.5148  132.5483  152.1549 C   0  0  0  0  0  0  0  0  0  0  0  0
  146.4628  133.7248  152.4507 C   0  0  0  0  0  0  0  0  0  0  0  0
  145.6774  135.0192  152.7551 C   0  0  0  0  0  0  0  0  0  0  0  0
  146.5978  136.1517  152.8130 N   0  0  0  0  0  0  0  0  0  0  0  0
  146.3360  137.3528  153.3493 C   0  0  0  0  0  0  0  0  0  0  0  0
  145.2598  137.6495  153.8686 O   0  0  0  0  0  0  0  0  0  0  0  0
  147.3969  138.1717  153.2390 N   0  0  0  0  0  0  0  0  0  0  0  0
  147.5250  139.5131  153.6873 C   0  0  0  0  0  0  0  0  0  0  0  0
  146.5001  140.3775  153.7540 N   0  0  0  0  0  0  0  0  0  0  0  0
  146.8987  141.6206  154.2280 N   0  0  0  0  0  0  0  0  0  0  0  0
  148.2068  141.6453  154.4990 C   0  0  0  0  0  0  0  0  0  0  0  0
  149.0795  140.1515  154.2030 S   0  0  0  0  0  0  0  0  0  0  0  0
  144.5887  135.2874  151.6932 C   0  0  0  0  0  0  0  0  0  0  0  0
  143.7341  134.0332  151.4387 C   0  0  0  0  0  0  0  0  0  0  0  0
  143.9597  134.0001  148.5577 H   0  0  0  0  0  0  0  0  0  0  0  0
  142.7678  132.7374  148.9283 H   0  0  0  0  0  0  0  0  0  0  0  0
  144.0437  132.4372  147.7514 H   0  0  0  0  0  0  0  0  0  0  0  0
  144.9214  132.3123  153.0393 H   0  0  0  0  0  0  0  0  0  0  0  0
  146.0938  131.6496  151.9386 H   0  0  0  0  0  0  0  0  0  0  0  0
  147.1144  133.4767  153.2895 H   0  0  0  0  0  0  0  0  0  0  0  0
  147.1144  133.8807  151.5894 H   0  0  0  0  0  0  0  0  0  0  0  0
  145.1751  134.8825  153.7147 H   0  0  0  0  0  0  0  0  0  0  0  0
  147.5125  136.0057  152.4117 H   0  0  0  0  0  0  0  0  0  0  0  0
  148.2111  137.7894  152.7814 H   0  0  0  0  0  0  0  0  0  0  0  0
  148.6610  142.5496  154.8760 H   0  0  0  0  0  0  0  0  0  0  0  0
  143.9520  136.1137  152.0116 H   0  0  0  0  0  0  0  0  0  0  0  0
  145.0526  135.5977  150.7553 H   0  0  0  0  0  0  0  0  0  0  0  0
  142.9633  134.2516  150.7011 H   0  0  0  0  0  0  0  0  0  0  0  0
  143.1955  133.7612  152.3478 H   0  0  0  0  0  0  0  0  0  0  0  0
  1  2  1  0  0  0  0
  1 19  1  0  0  0  0
  1 20  1  0  0  0  0
  1 21  1  0  0  0  0
  2  3  2  0  0  0  0
  2  4  1  0  0  0  0
  4 18  1  0  0  0  0
  4  5  1  0  0  0  0
  5  6  1  0  0  0  0
  5 22  1  0  0  0  0
  5 23  1  0  0  0  0
  6  7  1  0  0  0  0
  6 24  1  0  0  0  0
  6 25  1  0  0  0  0
  7  8  1  0  0  0  0
  7 17  1  0  0  0  0
  7 26  1  0  0  0  0
  8  9  1  0  0  0  0
  8 27  1  0  0  0  0
  9 10  2  0  0  0  0
  9 11  1  0  0  0  0
 11 12  1  0  0  0  0
 11 28  1  0  0  0  0
 12 16  1  0  0  0  0
 12 13  2  0  0  0  0
 13 14  1  0  0  0  0
 14 15  2  0  0  0  0
 15 16  1  0  0  0  0
 15 29  1  0  0  0  0
 17 18  1  0  0  0  0
 17 30  1  0  0  0  0
 17 31  1  0  0  0  0
 18 32  1  0  0  0  0
 18 33  1  0  0  0  0
M  END
> <s_m_source_file>
AV-unprocessed.smi

> <i_m_source_file_index>
1950

> <i_lp_mmshare_version>
43012

> <i_f3d_flags>
0

> <s_epik_input>
W0NIM11DKD1PKU4xW0NIMl1bQ0gyXVtDSF0oW0NIMl1bQ0gyXTEpW05IXUMoPU8pW05IXWMybm5bY0hdczI=

> <s_epik_cmdline>
J2VwaWtfcHl0aG9uJywgJy1waCcsICc3LjAnLCAnLXRuJywgJzgnLCAnLW1hJywgJzIwMCcsICctbWV0YWxfYmluZGluZycsICctaW1hZScsICc8aW5maWxlLm1hZT4nLCAnLW9tYWUnLCAnPG91dGZpbGUubWFlPic=

> <r_lp_tautomer_probability>
1

> <r_epik_Ionization_Penalty>
0.00190949

> <r_epik_Ionization_Penalty_Charging>
0

> <r_epik_Ionization_Penalty_Neutral>
0.00190949

> <r_epik_State_Penalty>
-0

> <r_epik_Charging_Adjusted_Penalty>
0

> <i_epik_Tot_Q>
0

> <i_epik_Tot_abs_Q>
0

> <r_epik_Metal_State_Penalty>
0.336167

> <b_epik_Metal_Only>
0

> <s_lp_Force_Field>
OPLS_2005

> <r_lp_Energy>
22.3171

> <b_lp_Chiralities_Consistent>
1

> <s_lp_Variant>
AV-unprocessed.smi:1950-1

> <Gold.Version>
5.8.1

> <Gold.Id.Protein>
6NUR|6NUR_protein|mol2

> <Gold.PLP.Fitness>
34.7359

> <Gold.PLP.PLP>
-26.7218

> <Gold.PLP.part.hbond>
-2.4447

> <Gold.PLP.part.metal>
0.0000

> <Gold.PLP.part.buried>
-2.6608

> <Gold.PLP.part.nonpolar>
-23.2266

> <Gold.PLP.part.repulsive>
0.7834

> <Gold.PLP.ligand.clash>
0.0000

> <Gold.PLP.ligand.torsion>
0.3936

> <Gold.PLP.Chemscore.Hbond>
1.9280

> <Gold.PLP.Chemscore.CHOScore>
1.0000

> <Gold.PLP.Chemscore.Metal>
0.0000

> <Gold.Chemscore.Hbonds>
donor molecule, donor type, donor heavy atom, donor atom, acceptor molecule, acceptor atom, score
      L1  H     8    27       P1  7948  1.00
      L1  H    11    28       P1  7948  0.93
      L1  C    15    29       P1  8028  1.00

> <Gold.PLP.Chemscore.Internal.Correction>
0.0173

> <Gold.Rescore>
     Score         DG    S(hbond)    S(metal)    S(lipo)     H(rot)  DE(clash)    DE(int)     intcor
     13.52     -15.11       1.92        0.00      49.30       1.00       0.13       1.46       ----

> <Gold.Chemscore.Fitness>
13.5170

> <Gold.Chemscore.DG>
-15.1104

> <Gold.Chemscore.ZeroCoef>
-5.4800

> <Gold.Chemscore.Hbond>
1.9227

> <Gold.Chemscore.Metal>
0.0000

> <Gold.Chemscore.Lipo>
49.3043

> <Gold.Chemscore.Internal_Hbond>
0.0000

> <Gold.Chemscore.DEClash>
0.1290

> <Gold.Chemscore.DEInternal>
1.4644

> <Gold.Chemscore.Rot>
1.0000

> <Gold.Chemscore.Internal.Correction>
   9.000000E+99

> <Gold.Chemscore.Hbonds>
donor molecule, donor type, donor heavy atom, donor atom, acceptor molecule, acceptor atom, score
      L1  H     8    27       P1  7948  0.94
      L1  H    11    28       P1  7948  0.89

> <Gold.Chemscore.Hbond.Weighted>
-6.4218

> <Gold.Chemscore.Metal.Weighted>
-0.0000

> <Gold.Chemscore.Lipo.Weighted>
-5.7686

> <Gold.Chemscore.Internal_Hbond.Weighted>
0.0000

> <Gold.Chemscore.DEClash.Weighted>
0.1290

> <Gold.Chemscore.DEInternal.Weighted>
1.4644

> <Gold.Chemscore.Rot.Weighted>
2.5600

> <Gold.Chemscore.Internal.Correction.Weighted>
   9.000000E+99

> <Gold.Protein.RotatedTorsions>
[ 6907 6896 6895 6894 ] final -178.33 input  -60.11 | X-H torsion
[ 7974 7965 7964 7962 ] final  -21.95 input  175.53 | X-H torsion
[ 8008 7997 7996 7995 ] final -151.01 input   59.86 | X-H torsion
[ 10167 10162 10161 10158 ] final  101.81 input  -65.29 | X-H torsion
[ 10718 10713 10712 10709 ] final  -97.40 input   66.30 | X-H torsion
[ 10763 10752 10751 10750 ] final   26.41 input  -60.55 | X-H torsion
[ 11005 11000 10999 10996 ] final   72.36 input  -57.11 | X-H torsion

> <Gold.Protein.ActiveResidues>
 VAL166  LYS551  ARG553  GLY616  TRP617  ASP618  TYR619  PRO620  LYS621  CYS622 
 ASP623  PHE694  ASN695  SER759  ASP760  ASP761  ALA762  ILE779  LEU786  VAL792 
 PHE793  MET794  SER795  GLU796  ALA797  LYS798  CYS799  TRP800  GLU811  SER814 

> <Gold.Protein.RotatedAtoms>
  151.6355  133.3329  159.3118 H   0  0  0  0  0  0  0  0  0  0  0  0  # atno 6907 bound_to 6896
  150.8034  134.7148  159.6633 H   0  0  0  0  0  0  0  0  0  0  0  0  # atno 6908 bound_to 6896
  152.4128  134.6098  160.0074 H   0  0  0  0  0  0  0  0  0  0  0  0  # atno 6909 bound_to 6896
  146.1704  140.4412  142.8535 H   0  0  0  0  0  0  0  0  0  0  0  0  # atno 7974 bound_to 7965
  155.6326  140.0693  157.2644 H   0  0  0  0  0  0  0  0  0  0  0  0  # atno 8008 bound_to 7997
  154.4202  140.1764  156.1537 H   0  0  0  0  0  0  0  0  0  0  0  0  # atno 8009 bound_to 7997
  155.9920  140.3344  155.6766 H   0  0  0  0  0  0  0  0  0  0  0  0  # atno 8010 bound_to 7997
  139.7405  144.7012  151.0583 H   0  0  0  0  0  0  0  0  0  0  0  0  # atno 10167 bound_to 10162
  156.0083  130.5193  150.6369 H   0  0  0  0  0  0  0  0  0  0  0  0  # atno 10718 bound_to 10713
  153.0625  135.6561  154.0431 H   0  0  0  0  0  0  0  0  0  0  0  0  # atno 10763 bound_to 10752
  154.0095  135.2929  155.3395 H   0  0  0  0  0  0  0  0  0  0  0  0  # atno 10764 bound_to 10752
  154.6969  135.5260  153.8539 H   0  0  0  0  0  0  0  0  0  0  0  0  # atno 10765 bound_to 10752
  139.9495  134.7252  156.0897 H   0  0  0  0  0  0  0  0  0  0  0  0  # atno 11005 bound_to 11000
  144.8154  140.6458  143.6388 LP  0  0  0  0  0  0  0  0  0  0  0  0  # atno 17320 bound_to 7965
  145.4356  139.1543  143.3998 LP  0  0  0  0  0  0  0  0  0  0  0  0  # atno 17321 bound_to 7965
  140.7785  143.4930  150.9868 LP  0  0  0  0  0  0  0  0  0  0  0  0  # atno 17342 bound_to 10162
  139.8619  143.7304  152.3173 LP  0  0  0  0  0  0  0  0  0  0  0  0  # atno 17343 bound_to 10162
  157.4157  131.0830  151.1179 LP  0  0  0  0  0  0  0  0  0  0  0  0  # atno 17370 bound_to 10713
  157.1797  130.6304  149.5667 LP  0  0  0  0  0  0  0  0  0  0  0  0  # atno 17371 bound_to 10713
  141.1154  133.6629  156.3081 LP  0  0  0  0  0  0  0  0  0  0  0  0  # atno 17394 bound_to 11000
  140.5753  134.5799  157.5467 LP  0  0  0  0  0  0  0  0  0  0  0  0  # atno 17395 bound_to 11000

$$$$
