AV-unprocessed.smi:850|AV-procd|sdf|3947|dock2
  -GOLD-   22720 1413D 1   1.00000     0.00000
 Structure written by MMmdl.
 40 42  0  0  0  0  0  0  0  0  1 V2000
  153.6700  140.8104  160.7472 C   0  0  0  0  0  0  0  0  0  0  0  0
  152.9093  141.4909  159.7062 N   0  0  0  0  0  0  0  0  0  0  0  0
  152.5770  141.0048  158.4875 C   0  0  0  0  0  0  0  0  0  0  0  0
  152.8654  139.8923  158.0468 O   0  0  0  0  0  0  0  0  0  0  0  0
  151.8738  141.9596  157.8329 N   0  0  0  0  0  0  0  0  0  0  0  0
  151.3145  141.8571  156.4862 C   0  0  0  0  0  0  0  0  0  0  0  0
  150.5101  140.5550  156.2979 C   0  0  2  0  0  0  0  0  0  0  0  0
  150.7632  140.0514  155.0017 O   0  0  0  0  0  0  0  0  0  0  0  0
  148.9962  140.7903  156.4085 C   0  0  0  0  0  0  0  0  0  0  0  0
  148.5213  141.2997  155.1690 O   0  0  0  0  0  0  0  0  0  0  0  0
  147.2963  141.9303  155.1470 C   0  0  0  0  0  0  0  0  0  0  0  0
  146.8820  142.4785  153.9154 C   0  0  0  0  0  0  0  0  0  0  0  0
  145.6433  143.1381  153.8001 C   0  0  0  0  0  0  0  0  0  0  0  0
  144.8028  143.2569  154.9220 C   0  0  0  0  0  0  0  0  0  0  0  0
  145.2039  142.7159  156.1575 C   0  0  0  0  0  0  0  0  0  0  0  0
  146.4434  142.0565  156.2730 C   0  0  0  0  0  0  0  0  0  0  0  0
  151.7594  143.0905  158.6543 C   0  0  0  0  0  0  0  0  0  0  0  0
  151.1416  144.3352  158.4395 C   0  0  0  0  0  0  0  0  0  0  0  0
  151.2081  145.2796  159.4907 C   0  0  0  0  0  0  0  0  0  0  0  0
  151.8741  144.9710  160.7054 C   0  0  0  0  0  0  0  0  0  0  0  0
  152.4899  143.7114  160.8941 C   0  0  0  0  0  0  0  0  0  0  0  0
  152.4094  142.7929  159.8335 C   0  0  0  0  0  0  0  0  0  0  0  0
  153.9865  139.8127  160.4400 H   0  0  0  0  0  0  0  0  0  0  0  0
  153.0659  140.7092  161.6491 H   0  0  0  0  0  0  0  0  0  0  0  0
  154.5626  141.3845  160.9965 H   0  0  0  0  0  0  0  0  0  0  0  0
  150.6599  142.7177  156.3382 H   0  0  0  0  0  0  0  0  0  0  0  0
  152.0924  141.9535  155.7280 H   0  0  0  0  0  0  0  0  0  0  0  0
  150.8057  139.8017  157.0296 H   0  0  0  0  0  0  0  0  0  0  0  0
  150.5012  139.1438  154.9772 H   0  0  0  0  0  0  0  0  0  0  0  0
  148.4910  139.8577  156.6665 H   0  0  0  0  0  0  0  0  0  0  0  0
  148.7911  141.5173  157.1965 H   0  0  0  0  0  0  0  0  0  0  0  0
  147.5210  142.3908  153.0490 H   0  0  0  0  0  0  0  0  0  0  0  0
  145.3386  143.5527  152.8504 H   0  0  0  0  0  0  0  0  0  0  0  0
  143.8523  143.7626  154.8349 H   0  0  0  0  0  0  0  0  0  0  0  0
  144.5600  142.8067  157.0198 H   0  0  0  0  0  0  0  0  0  0  0  0
  146.7168  141.6560  157.2374 H   0  0  0  0  0  0  0  0  0  0  0  0
  150.6374  144.5670  157.5131 H   0  0  0  0  0  0  0  0  0  0  0  0
  150.7460  146.2480  159.3672 H   0  0  0  0  0  0  0  0  0  0  0  0
  151.9120  145.7070  161.4951 H   0  0  0  0  0  0  0  0  0  0  0  0
  153.0000  143.4687  161.8146 H   0  0  0  0  0  0  0  0  0  0  0  0
  1  2  1  0  0  0  0
  1 23  1  0  0  0  0
  1 24  1  0  0  0  0
  1 25  1  0  0  0  0
  2 22  1  0  0  0  0
  2  3  1  0  0  0  0
  3  4  2  0  0  0  0
  3  5  1  0  0  0  0
  5  6  1  0  0  0  0
  5 17  1  0  0  0  0
  6  7  1  0  0  0  0
  6 26  1  0  0  0  0
  6 27  1  0  0  0  0
  7  8  1  0  0  0  0
  7  9  1  0  0  0  0
  7 28  1  0  0  0  0
  8 29  1  0  0  0  0
  9 10  1  0  0  0  0
  9 30  1  0  0  0  0
  9 31  1  0  0  0  0
 10 11  1  0  0  0  0
 11 16  1  0  0  0  0
 11 12  2  0  0  0  0
 12 13  1  0  0  0  0
 12 32  1  0  0  0  0
 13 14  2  0  0  0  0
 13 33  1  0  0  0  0
 14 15  1  0  0  0  0
 14 34  1  0  0  0  0
 15 16  2  0  0  0  0
 15 35  1  0  0  0  0
 16 36  1  0  0  0  0
 17 22  2  0  0  0  0
 17 18  1  0  0  0  0
 18 19  2  0  0  0  0
 18 37  1  0  0  0  0
 19 20  1  0  0  0  0
 19 38  1  0  0  0  0
 20 21  2  0  0  0  0
 20 39  1  0  0  0  0
 21 22  1  0  0  0  0
 21 40  1  0  0  0  0
M  END
> <s_m_source_file>
AV-unprocessed.smi

> <i_m_source_file_index>
850

> <i_lp_mmshare_version>
43012

> <i_f3d_flags>
0

> <s_epik_input>
W2NIXTFbY0hdW2NIXVtjSF1jKGMxMiluKFtDSDNdKWMoPU8pbjJbQ0gyXVtDQEhdKFtPSF0pW0NIMl1PYzNbY0hdW2NIXVtjSF1bY0hdW2NIXTM=

> <s_epik_cmdline>
J2VwaWtfcHl0aG9uJywgJy1waCcsICc3LjAnLCAnLXRuJywgJzgnLCAnLW1hJywgJzIwMCcsICctbWV0YWxfYmluZGluZycsICctaW1hZScsICc8aW5maWxlLm1hZT4nLCAnLW9tYWUnLCAnPG91dGZpbGUubWFlPic=

> <r_lp_tautomer_probability>
1

> <r_epik_Ionization_Penalty>
2.40205e-06

> <r_epik_Ionization_Penalty_Charging>
2.75209e-09

> <r_epik_Ionization_Penalty_Neutral>
2.3993e-06

> <r_epik_State_Penalty>
-0

> <r_epik_Charging_Adjusted_Penalty>
2.75209e-09

> <i_epik_Tot_Q>
0

> <i_epik_Tot_abs_Q>
0

> <r_epik_Metal_State_Penalty>
-0

> <b_epik_Metal_Only>
0

> <s_lp_Force_Field>
OPLS_2005

> <r_lp_Energy>
46.059

> <b_lp_Chiralities_Consistent>
1

> <s_lp_Variant>
AV-unprocessed.smi:850-1

> <Gold.Version>
5.8.1

> <Gold.Id.Protein>
6NUR|6NUR_protein|mol2

> <Gold.PLP.Fitness>
54.1219

> <Gold.PLP.PLP>
-49.9707

> <Gold.PLP.part.hbond>
-2.0000

> <Gold.PLP.part.metal>
0.0000

> <Gold.PLP.part.buried>
-8.0048

> <Gold.PLP.part.nonpolar>
-39.9926

> <Gold.PLP.part.repulsive>
0.1170

> <Gold.PLP.ligand.clash>
0.0000

> <Gold.PLP.ligand.torsion>
0.9540

> <Gold.PLP.Chemscore.Hbond>
2.0000

> <Gold.PLP.Chemscore.CHOScore>
0.0000

> <Gold.PLP.Chemscore.Metal>
0.0000

> <Gold.Chemscore.Hbonds>
donor molecule, donor type, donor heavy atom, donor atom, acceptor molecule, acceptor atom, score
      P1  H  7989  7998       L1     8  1.00
      P1  H  7997  8009       L1     4  1.00

> <Gold.PLP.Chemscore.Internal.Correction>
0.0591

> <Gold.Rescore>
     Score         DG    S(hbond)    S(metal)    S(lipo)     H(rot)  DE(clash)    DE(int)     intcor
     19.44     -20.81       1.91        0.00     122.87       2.12       0.38       0.99       ----

> <Gold.Chemscore.Fitness>
19.4404

> <Gold.Chemscore.DG>
-20.8137

> <Gold.Chemscore.ZeroCoef>
-5.4800

> <Gold.Chemscore.Hbond>
1.9105

> <Gold.Chemscore.Metal>
0.0000

> <Gold.Chemscore.Lipo>
122.8696

> <Gold.Chemscore.Internal_Hbond>
0.0000

> <Gold.Chemscore.DEClash>
0.3842

> <Gold.Chemscore.DEInternal>
0.9891

> <Gold.Chemscore.Rot>
2.1184

> <Gold.Chemscore.Internal.Correction>
   9.000000E+99

> <Gold.Chemscore.Hbonds>
donor molecule, donor type, donor heavy atom, donor atom, acceptor molecule, acceptor atom, score
      P1  H  7989  7998       L1     8  0.98
      P1  H  7997  8009       L1     4  0.65

> <Gold.Chemscore.Hbond.Weighted>
-6.3811

> <Gold.Chemscore.Metal.Weighted>
-0.0000

> <Gold.Chemscore.Lipo.Weighted>
-14.3757

> <Gold.Chemscore.Internal_Hbond.Weighted>
0.0000

> <Gold.Chemscore.DEClash.Weighted>
0.3842

> <Gold.Chemscore.DEInternal.Weighted>
0.9891

> <Gold.Chemscore.Rot.Weighted>
5.4231

> <Gold.Chemscore.Internal.Correction.Weighted>
   9.000000E+99

> <Gold.Protein.RotatedTorsions>
[ 6907 6896 6895 6894 ] final  137.27 input  -60.11 | X-H torsion
[ 7974 7965 7964 7962 ] final    2.54 input  175.53 | X-H torsion
[ 8008 7997 7996 7995 ] final  170.61 input   59.86 | X-H torsion
[ 10167 10162 10161 10158 ] final   57.20 input  -65.29 | X-H torsion
[ 10718 10713 10712 10709 ] final   91.80 input   66.30 | X-H torsion
[ 10763 10752 10751 10750 ] final  -75.44 input  -60.55 | X-H torsion
[ 11005 11000 10999 10996 ] final   -0.25 input  -57.11 | X-H torsion

> <Gold.Protein.ActiveResidues>
 VAL166  LYS551  ARG553  GLY616  TRP617  ASP618  TYR619  PRO620  LYS621  CYS622 
 ASP623  PHE694  ASN695  SER759  ASP760  ASP761  ALA762  ILE779  LEU786  VAL792 
 PHE793  MET794  SER795  GLU796  ALA797  LYS798  CYS799  TRP800  GLU811  SER814 

> <Gold.Protein.RotatedAtoms>
  152.2800  133.5462  159.5491 H   0  0  0  0  0  0  0  0  0  0  0  0  # atno 6907 bound_to 6896
  150.7192  134.0577  159.3829 H   0  0  0  0  0  0  0  0  0  0  0  0  # atno 6908 bound_to 6896
  151.8488  135.0565  160.0507 H   0  0  0  0  0  0  0  0  0  0  0  0  # atno 6909 bound_to 6896
  146.2444  140.0821  142.8356 H   0  0  0  0  0  0  0  0  0  0  0  0  # atno 7974 bound_to 7965
  156.1349  140.1533  156.9009 H   0  0  0  0  0  0  0  0  0  0  0  0  # atno 8008 bound_to 7997
  154.4939  140.0843  156.7694 H   0  0  0  0  0  0  0  0  0  0  0  0  # atno 8009 bound_to 7997
  155.4186  140.3422  155.4271 H   0  0  0  0  0  0  0  0  0  0  0  0  # atno 8010 bound_to 7997
  140.2006  144.3992  150.6531 H   0  0  0  0  0  0  0  0  0  0  0  0  # atno 10167 bound_to 10162
  157.6960  131.0420  150.3784 H   0  0  0  0  0  0  0  0  0  0  0  0  # atno 10718 bound_to 10713
  154.4866  135.5831  153.6428 H   0  0  0  0  0  0  0  0  0  0  0  0  # atno 10763 bound_to 10752
  152.9855  135.6102  154.3178 H   0  0  0  0  0  0  0  0  0  0  0  0  # atno 10764 bound_to 10752
  154.3074  135.2845  155.2561 H   0  0  0  0  0  0  0  0  0  0  0  0  # atno 10765 bound_to 10752
  140.6342  133.9547  155.8291 H   0  0  0  0  0  0  0  0  0  0  0  0  # atno 11005 bound_to 11000
  145.0724  140.9165  143.4874 LP  0  0  0  0  0  0  0  0  0  0  0  0  # atno 17320 bound_to 7965
  145.0957  139.2858  143.5712 LP  0  0  0  0  0  0  0  0  0  0  0  0  # atno 17321 bound_to 7965
  140.6393  143.2200  151.6325 LP  0  0  0  0  0  0  0  0  0  0  0  0  # atno 17342 bound_to 10162
  139.5219  144.3179  152.0936 LP  0  0  0  0  0  0  0  0  0  0  0  0  # atno 17343 bound_to 10162
  156.4201  130.3951  149.6831 LP  0  0  0  0  0  0  0  0  0  0  0  0  # atno 17370 bound_to 10713
  156.4085  130.7710  151.2722 LP  0  0  0  0  0  0  0  0  0  0  0  0  # atno 17371 bound_to 10713
  141.0653  134.0286  157.3602 LP  0  0  0  0  0  0  0  0  0  0  0  0  # atno 17394 bound_to 11000
  139.9104  135.0189  156.7668 LP  0  0  0  0  0  0  0  0  0  0  0  0  # atno 17395 bound_to 11000

$$$$
