#       Name:                AV-unprocessed.smi:506
#       Creating user name   scv26
#       Creation time:       Thu Mar 26 23:21:43 2020


#       File generated by GOLD software.
#

@<TRIPOS>MOLECULE
AV-unprocessed.smi:506
    47    49     1
SMALL
NO_CHARGES


@<TRIPOS>ATOM
      1 ****        -1.9443   6.2196  -0.9787 C.3            1 S1                 0.0000
      2 ****        -2.6463   4.9911  -0.8579 O.3            1 S1                 0.0000
      3 ****        -1.9168   3.8219  -0.8847 C.ar           1 S1                 0.0000
      4 ****        -2.6341   2.6154  -0.7659 C.ar           1 S1                 0.0000
      5 ****        -1.9672   1.3761  -0.7840 C.ar           1 S1                 0.0000
      6 ****        -0.5668   1.3134  -0.9195 C.ar           1 S1                 0.0000
      7 ****         0.0050   0.0602  -0.9259 O.3            1 S1                 0.0000
      8 ****         1.4211  -0.0376  -1.0009 C.3            1 S1                 0.0000
      9 ****         1.8308  -1.5156  -0.9306 C.3            1 S1                 0.0000
     10 ****         1.3621  -2.1560   0.2902 N.pl3          1 S1                 0.0000
     11 ****         1.9981  -2.2519   1.4848 C.2            1 S1                 0.0000
     12 ****         3.3615  -1.6751   1.7128 C.3            1 S1                 0.0000
     13 ****         4.3910  -2.4882   1.1918 O.3            1 S1                 0.0000
     14 ****         1.3338  -2.8946   2.4461 N.2            1 S1                 0.0000
     15 ****         0.1548  -3.2457   1.8179 C.ar           1 S1                 0.0000
     16 ****        -0.9725  -3.9448   2.3056 C.ar           1 S1                 0.0000
     17 ****        -2.0808  -4.1858   1.4673 C.ar           1 S1                 0.0000
     18 ****        -2.0778  -3.7328   0.1322 C.ar           1 S1                 0.0000
     19 ****        -0.9639  -3.0361  -0.3743 C.ar           1 S1                 0.0000
     20 ****         0.1400  -2.7978   0.4666 C.ar           1 S1                 0.0000
     21 ****         0.1595   2.5232  -1.0407 C.ar           1 S1                 0.0000
     22 ****        -0.5081   3.7636  -1.0234 C.ar           1 S1                 0.0000
     23 ****        -2.6551   7.0451  -0.9406 H              1 S1                 0.0000
     24 ****        -1.4146   6.2842  -1.9301 H              1 S1                 0.0000
     25 ****        -1.2360   6.3565  -0.1604 H              1 S1                 0.0000
     26 ****        -3.7086   2.6395  -0.6596 H              1 S1                 0.0000
     27 ****        -2.5371   0.4630  -0.6909 H              1 S1                 0.0000
     28 ****         1.7796   0.3945  -1.9362 H              1 S1                 0.0000
     29 ****         1.8809   0.5112  -0.1777 H              1 S1                 0.0000
     30 ****         1.4211  -2.0561  -1.7844 H              1 S1                 0.0000
     31 ****         2.9138  -1.6146  -1.0000 H              1 S1                 0.0000
     32 ****         3.4235  -0.6819   1.2688 H              1 S1                 0.0000
     33 ****         3.5251  -1.5494   2.7837 H              1 S1                 0.0000
     34 ****         5.2215  -2.0824   1.3873 H              1 S1                 0.0000
     35 ****        -0.9852  -4.2950   3.3270 H              1 S1                 0.0000
     36 ****        -2.9376  -4.7198   1.8511 H              1 S1                 0.0000
     37 ****        -2.9315  -3.9193  -0.5028 H              1 S1                 0.0000
     38 ****        -0.9600  -2.6844  -1.3953 H              1 S1                 0.0000
     39 ****         1.2332   2.5277  -1.1502 H              1 S1                 0.0000
     40 ****         0.0866   4.6593  -1.1187 H              1 S1                 0.0000
     41 ****        -3.3029   4.9489  -1.6109 LP             1 S1                 0.0000
     42 ****        -3.1382   5.0144   0.0124 LP             1 S1                 0.0000
     43 ****        -0.3671  -0.4303  -1.7139 LP             1 S1                 0.0000
     44 ****        -0.2786  -0.3982  -0.0836 LP             1 S1                 0.0000
     45 ****         4.2832  -2.5758   0.2015 LP             1 S1                 0.0000
     46 ****         4.3509  -3.3944   1.6129 LP             1 S1                 0.0000
     47 ****         1.6184  -3.0769   3.3873 LP             1 S1                 0.0000
@<TRIPOS>BOND
    1    1    2 1     
    2    1   23 1     
    3    1   24 1     
    4    1   25 1     
    5    2    3 1     
    6    3   22 ar    
    7    3    4 ar    
    8    4    5 ar    
    9    4   26 1     
   10    5    6 ar    
   11    5   27 1     
   12    6    7 1     
   13    6   21 ar    
   14    7    8 1     
   15    8    9 1     
   16    8   28 1     
   17    8   29 1     
   18    9   10 1     
   19    9   30 1     
   20    9   31 1     
   21   10   20 1     
   22   10   11 1     
   23   11   12 1     
   24   11   14 2     
   25   12   13 1     
   26   12   32 1     
   27   12   33 1     
   28   13   34 1     
   29   14   15 1     
   30   15   20 ar    
   31   15   16 ar    
   32   16   17 ar    
   33   16   35 1     
   34   17   18 ar    
   35   17   36 1     
   36   18   19 ar    
   37   18   37 1     
   38   19   20 ar    
   39   19   38 1     
   40   21   22 ar    
   41   21   39 1     
   42   22   40 1     
   43    2   41 1     
   44    2   42 1     
   45    7   43 1     
   46    7   44 1     
   47   13   45 1     
   48   13   46 1     
   49   14   47 1     
@<TRIPOS>SUBSTRUCTURE
      1 S1             1
@<TRIPOS>SET
LONE_PAIRS      STATIC     ATOMS    <user>   **** ""
7 41 42 43 44 45 46 47
DONOR_HYDROGENS      STATIC     ATOMS    <user>   **** ""
1 34
ATOM$BLUE        STATIC     ATOMS    COLORGROUP SYSTEM
7 41 42 43 44 45 46 47
ATOM$RED        STATIC     ATOMS    COLORGROUP SYSTEM
1 34
