AV-unprocessed.smi:18|AV-procd|sdf|107|dock5
  -GOLD-   2262015263D 1   1.00000     0.00000
 Structure written by MMmdl.
 47 50  0  0  0  0  0  0  0  0  1 V2000
  144.9410  136.9531  162.4630 O   0  0  0  0  0  0  0  0  0  0  0  0
  145.5514  136.7119  161.2113 C   0  0  0  0  0  0  0  0  0  0  0  0
  146.7111  135.7079  161.3341 C   0  0  0  0  0  0  0  0  0  0  0  0
  147.3027  135.3788  159.9473 C   0  0  0  0  0  0  0  0  0  0  0  0
  147.6911  136.5486  159.1742 N   0  0  0  0  0  0  0  0  0  0  0  0
  146.8868  137.2782  158.3262 C   0  0  0  0  0  0  0  0  0  0  0  0
  147.4635  138.2959  157.7472 N   0  0  0  0  0  0  0  0  0  0  0  0
  148.7685  138.2546  158.2198 C   0  0  0  0  0  0  0  0  0  0  0  0
  149.9200  139.0573  158.0044 C   0  0  0  0  0  0  0  0  0  0  0  0
  149.8996  140.1271  157.1736 N   0  0  0  0  0  0  0  0  0  0  0  0
  149.5604  139.6970  155.8208 C   0  0  0  0  0  0  0  0  0  0  0  0
  149.3592  140.9105  154.9050 C   0  0  0  0  0  0  0  0  0  0  0  0
  150.5377  141.7030  154.9305 O   0  0  0  0  0  0  0  0  0  0  0  0
  150.8028  142.2129  156.2317 C   0  0  0  0  0  0  0  0  0  0  0  0
  151.0338  141.0612  157.2387 C   0  0  1  0  0  0  0  0  0  0  0  0
  151.2483  141.6211  158.6695 C   0  0  0  0  0  0  0  0  0  0  0  0
  152.5612  142.3974  158.8550 C   0  0  0  0  0  0  0  0  0  0  0  0
  152.3727  143.6793  158.5436 F   0  0  0  0  0  0  0  0  0  0  0  0
  152.9808  142.3152  160.1172 F   0  0  0  0  0  0  0  0  0  0  0  0
  151.0693  138.6998  158.6374 N   0  0  0  0  0  0  0  0  0  0  0  0
  151.0841  137.6352  159.4451 C   0  0  0  0  0  0  0  0  0  0  0  0
  150.0844  136.8052  159.7506 N   0  0  0  0  0  0  0  0  0  0  0  0
  148.9328  137.1568  159.1100 C   0  0  0  0  0  0  0  0  0  0  0  0
  147.7253  136.0491  162.4354 C   0  0  0  0  0  0  0  0  0  0  0  0
  147.1372  135.0975  163.3471 O   0  0  0  0  0  0  0  0  0  0  0  0
  146.4250  134.5035  162.2414 C   0  0  0  0  0  0  0  0  0  0  0  0
  144.5470  137.8119  162.4446 H   0  0  0  0  0  0  0  0  0  0  0  0
  144.7961  136.3724  160.5026 H   0  0  0  0  0  0  0  0  0  0  0  0
  145.9122  137.6673  160.8288 H   0  0  0  0  0  0  0  0  0  0  0  0
  148.1812  134.7403  160.0491 H   0  0  0  0  0  0  0  0  0  0  0  0
  146.5922  134.8004  159.3557 H   0  0  0  0  0  0  0  0  0  0  0  0
  145.8475  137.0358  158.1579 H   0  0  0  0  0  0  0  0  0  0  0  0
  150.3595  139.0660  155.4287 H   0  0  0  0  0  0  0  0  0  0  0  0
  148.6510  139.0942  155.8315 H   0  0  0  0  0  0  0  0  0  0  0  0
  149.1717  140.5834  153.8822 H   0  0  0  0  0  0  0  0  0  0  0  0
  148.4959  141.5006  155.2170 H   0  0  0  0  0  0  0  0  0  0  0  0
  151.6865  142.8454  156.1611 H   0  0  0  0  0  0  0  0  0  0  0  0
  149.9789  142.8533  156.5513 H   0  0  0  0  0  0  0  0  0  0  0  0
  151.9310  140.5212  156.9327 H   0  0  0  0  0  0  0  0  0  0  0  0
  150.4086  142.2647  158.9349 H   0  0  0  0  0  0  0  0  0  0  0  0
  151.2451  140.8146  159.4021 H   0  0  0  0  0  0  0  0  0  0  0  0
  153.3613  142.0336  158.2114 H   0  0  0  0  0  0  0  0  0  0  0  0
  152.0325  137.4175  159.9138 H   0  0  0  0  0  0  0  0  0  0  0  0
  148.7554  135.7833  162.1953 H   0  0  0  0  0  0  0  0  0  0  0  0
  147.6624  137.0760  162.7974 H   0  0  0  0  0  0  0  0  0  0  0  0
  145.3674  134.3477  162.4575 H   0  0  0  0  0  0  0  0  0  0  0  0
  146.8951  133.5767  161.9088 H   0  0  0  0  0  0  0  0  0  0  0  0
  1  2  1  0  0  0  0
  1 27  1  0  0  0  0
  2  3  1  0  0  0  0
  2 28  1  0  0  0  0
  2 29  1  0  0  0  0
  3 26  1  0  0  0  0
  3  4  1  0  0  0  0
  3 24  1  0  0  0  0
  4  5  1  0  0  0  0
  4 30  1  0  0  0  0
  4 31  1  0  0  0  0
  5 23  1  0  0  0  0
  5  6  1  0  0  0  0
  6  7  2  0  0  0  0
  6 32  1  0  0  0  0
  7  8  1  0  0  0  0
  8 23  2  0  0  0  0
  8  9  1  0  0  0  0
  9 10  1  0  0  0  0
  9 20  2  0  0  0  0
 10 15  1  0  0  0  0
 10 11  1  0  0  0  0
 11 12  1  0  0  0  0
 11 33  1  0  0  0  0
 11 34  1  0  0  0  0
 12 13  1  0  0  0  0
 12 35  1  0  0  0  0
 12 36  1  0  0  0  0
 13 14  1  0  0  0  0
 14 15  1  0  0  0  0
 14 37  1  0  0  0  0
 14 38  1  0  0  0  0
 15 16  1  0  0  0  0
 15 39  1  0  0  0  0
 16 17  1  0  0  0  0
 16 40  1  0  0  0  0
 16 41  1  0  0  0  0
 17 18  1  0  0  0  0
 17 19  1  0  0  0  0
 17 42  1  0  0  0  0
 20 21  1  0  0  0  0
 21 22  2  0  0  0  0
 21 43  1  0  0  0  0
 22 23  1  0  0  0  0
 24 25  1  0  0  0  0
 24 44  1  0  0  0  0
 24 45  1  0  0  0  0
 25 26  1  0  0  0  0
 26 46  1  0  0  0  0
 26 47  1  0  0  0  0
M  END
> <s_m_source_file>
AV-unprocessed.smi

> <i_m_source_file_index>
18

> <i_lp_mmshare_version>
43012

> <i_f3d_flags>
0

> <s_epik_input>
W0NIMl0xT1tDSDJdQzEoW0NIMl1bT0hdKVtDSDJdbihbY0hdbjIpYyhjMjMpbltjSF1uYzNONFtDSDJdW0NIMl1PW0NIMl1bQ0BIXTRbQ0gyXVtDSF0oRilG

> <s_epik_cmdline>
J2VwaWtfcHl0aG9uJywgJy1waCcsICc3LjAnLCAnLXRuJywgJzgnLCAnLW1hJywgJzIwMCcsICctbWV0YWxfYmluZGluZycsICctaW1hZScsICc8aW5maWxlLm1hZT4nLCAnLW9tYWUnLCAnPG91dGZpbGUubWFlPic=

> <r_lp_tautomer_probability>
1

> <r_epik_Ionization_Penalty>
6.63711e-05

> <r_epik_Ionization_Penalty_Charging>
0

> <r_epik_Ionization_Penalty_Neutral>
6.63711e-05

> <r_epik_State_Penalty>
-0

> <r_epik_Charging_Adjusted_Penalty>
0

> <i_epik_Tot_Q>
0

> <i_epik_Tot_abs_Q>
0

> <r_epik_Metal_State_Penalty>
-0

> <b_epik_Metal_Only>
0

> <s_lp_Force_Field>
OPLS_2005

> <r_lp_Energy>
38.6486

> <b_lp_Chiralities_Consistent>
1

> <s_lp_Variant>
AV-unprocessed.smi:18-1

> <Gold.Version>
5.8.1

> <Gold.Id.Protein>
6NUR|6NUR_protein|mol2

> <Gold.PLP.Fitness>
43.6657

> <Gold.PLP.PLP>
-41.4680

> <Gold.PLP.part.hbond>
-2.9216

> <Gold.PLP.part.metal>
0.0000

> <Gold.PLP.part.buried>
-2.8639

> <Gold.PLP.part.nonpolar>
-35.3947

> <Gold.PLP.part.repulsive>
0.1766

> <Gold.PLP.ligand.clash>
0.0000

> <Gold.PLP.ligand.torsion>
1.1311

> <Gold.PLP.Chemscore.Hbond>
1.3040

> <Gold.PLP.Chemscore.CHOScore>
0.0000

> <Gold.PLP.Chemscore.Metal>
0.0000

> <Gold.Chemscore.Hbonds>
donor molecule, donor type, donor heavy atom, donor atom, acceptor molecule, acceptor atom, score
      P1  H  6896  6909       L1    22  0.77
      P1  H  7989  7998       L1    13  0.30

> <Gold.PLP.Chemscore.Internal.Correction>
0.5480

> <Gold.Rescore>
     Score         DG    S(hbond)    S(metal)    S(lipo)     H(rot)  DE(clash)    DE(int)     intcor
      5.97     -10.83       1.18        0.00      76.92       2.96       1.55       3.31       ----

> <Gold.Chemscore.Fitness>
5.9662

> <Gold.Chemscore.DG>
-10.8299

> <Gold.Chemscore.ZeroCoef>
-5.4800

> <Gold.Chemscore.Hbond>
1.1794

> <Gold.Chemscore.Metal>
0.0000

> <Gold.Chemscore.Lipo>
76.9162

> <Gold.Chemscore.Internal_Hbond>
0.0000

> <Gold.Chemscore.DEClash>
1.5541

> <Gold.Chemscore.DEInternal>
3.3096

> <Gold.Chemscore.Rot>
2.9643

> <Gold.Chemscore.Internal.Correction>
   9.000000E+99

> <Gold.Chemscore.Hbonds>
donor molecule, donor type, donor heavy atom, donor atom, acceptor molecule, acceptor atom, score
      P1  H  6896  6909       L1    22  0.11
      P1  H  7989  7998       L1    13  0.12

> <Gold.Chemscore.Hbond.Weighted>
-3.9393

> <Gold.Chemscore.Metal.Weighted>
-0.0000

> <Gold.Chemscore.Lipo.Weighted>
-8.9992

> <Gold.Chemscore.Internal_Hbond.Weighted>
0.0000

> <Gold.Chemscore.DEClash.Weighted>
1.5541

> <Gold.Chemscore.DEInternal.Weighted>
3.3096

> <Gold.Chemscore.Rot.Weighted>
7.5886

> <Gold.Chemscore.Internal.Correction.Weighted>
   9.000000E+99

> <Gold.Protein.RotatedTorsions>
[ 6907 6896 6895 6894 ] final  102.58 input  -60.11 | X-H torsion
[ 7974 7965 7964 7962 ] final  -12.84 input  175.53 | X-H torsion
[ 8008 7997 7996 7995 ] final -111.82 input   59.86 | X-H torsion
[ 10167 10162 10161 10158 ] final  142.09 input  -65.29 | X-H torsion
[ 10718 10713 10712 10709 ] final -109.35 input   66.30 | X-H torsion
[ 10763 10752 10751 10750 ] final   23.67 input  -60.55 | X-H torsion
[ 11005 11000 10999 10996 ] final   12.60 input  -57.11 | X-H torsion

> <Gold.Protein.ActiveResidues>
 VAL166  LYS551  ARG553  GLY616  TRP617  ASP618  TYR619  PRO620  LYS621  CYS622 
 ASP623  PHE694  ASN695  SER759  ASP760  ASP761  ALA762  ILE779  LEU786  VAL792 
 PHE793  MET794  SER795  GLU796  ALA797  LYS798  CYS799  TRP800  GLU811  SER814 

> <Gold.Protein.RotatedAtoms>
  152.5320  133.9954  159.7870 H   0  0  0  0  0  0  0  0  0  0  0  0  # atno 6907 bound_to 6896
  151.0183  133.5893  159.2681 H   0  0  0  0  0  0  0  0  0  0  0  0  # atno 6908 bound_to 6896
  151.2942  135.0757  159.9268 H   0  0  0  0  0  0  0  0  0  0  0  0  # atno 6909 bound_to 6896
  146.2137  140.3116  142.8383 H   0  0  0  0  0  0  0  0  0  0  0  0  # atno 7974 bound_to 7965
  154.9957  140.0394  157.2338 H   0  0  0  0  0  0  0  0  0  0  0  0  # atno 8008 bound_to 7997
  154.7589  140.2781  155.6208 H   0  0  0  0  0  0  0  0  0  0  0  0  # atno 8009 bound_to 7997
  156.2900  140.2632  156.2362 H   0  0  0  0  0  0  0  0  0  0  0  0  # atno 8010 bound_to 7997
  139.5003  144.6130  151.6229 H   0  0  0  0  0  0  0  0  0  0  0  0  # atno 10167 bound_to 10162
  156.0533  130.5759  150.8088 H   0  0  0  0  0  0  0  0  0  0  0  0  # atno 10718 bound_to 10713
  153.0821  135.6622  154.0024 H   0  0  0  0  0  0  0  0  0  0  0  0  # atno 10763 bound_to 10752
  153.9643  135.2971  155.3433 H   0  0  0  0  0  0  0  0  0  0  0  0  # atno 10764 bound_to 10752
  154.7222  135.5159  153.8902 H   0  0  0  0  0  0  0  0  0  0  0  0  # atno 10765 bound_to 10752
  140.4902  134.0848  155.7769 H   0  0  0  0  0  0  0  0  0  0  0  0  # atno 11005 bound_to 11000
  144.8984  140.7611  143.5882 LP  0  0  0  0  0  0  0  0  0  0  0  0  # atno 17320 bound_to 7965
  145.3041  139.1840  143.4673 LP  0  0  0  0  0  0  0  0  0  0  0  0  # atno 17321 bound_to 7965
  140.5809  143.9947  150.6268 LP  0  0  0  0  0  0  0  0  0  0  0  0  # atno 17342 bound_to 10162
  140.3096  143.3207  152.0892 LP  0  0  0  0  0  0  0  0  0  0  0  0  # atno 17343 bound_to 10162
  157.5479  131.0943  150.9736 LP  0  0  0  0  0  0  0  0  0  0  0  0  # atno 17370 bound_to 10713
  157.0003  130.5597  149.5311 LP  0  0  0  0  0  0  0  0  0  0  0  0  # atno 17371 bound_to 10713
  141.1488  133.9007  157.2150 LP  0  0  0  0  0  0  0  0  0  0  0  0  # atno 17394 bound_to 11000
  139.9774  135.0109  156.9664 LP  0  0  0  0  0  0  0  0  0  0  0  0  # atno 17395 bound_to 11000

$$$$
