AV-unprocessed.smi:1555|AV-procd|sdf|6266|dock1
  -GOLD-   22720 6453D 1   1.00000     0.00000
 Structure written by MMmdl.
 41 42  0  0  0  0  0  0  0  0  1 V2000
  148.7102  131.3146  155.1921 C   0  0  0  0  0  0  0  0  0  0  0  0
  148.0489  130.5144  154.0581 C   0  0  2  0  0  0  0  0  0  0  0  0
  148.9570  129.3983  153.4966 C   0  0  0  0  0  0  0  0  0  0  0  0
  148.2791  128.5629  152.5238 N   0  0  0  0  0  0  0  0  0  0  0  0
  146.9462  128.6394  152.1426 C   0  0  0  0  0  0  0  0  0  0  0  0
  146.7500  127.6567  151.1988 C   0  0  0  0  0  0  0  0  0  0  0  0
  147.9424  126.9695  150.9829 N   0  0  0  0  0  0  0  0  0  0  0  0
  148.8028  127.5644  151.7993 C   0  0  0  0  0  0  0  0  0  0  0  0
  147.6575  131.4338  152.9936 N   0  0  0  0  0  0  0  0  0  0  0  0
  146.7727  132.4394  153.1104 C   0  0  0  0  0  0  0  0  0  0  0  0
  146.1878  132.6758  154.1686 O   0  0  0  0  0  0  0  0  0  0  0  0
  146.5801  133.1612  151.9770 N   0  0  0  0  0  0  0  0  0  0  0  0
  147.1008  132.8424  150.6367 C   0  0  0  0  0  0  0  0  0  0  0  0
  145.9358  132.3585  149.7550 C   0  0  0  0  0  0  0  0  0  0  0  0
  144.8071  133.4142  149.6850 C   0  0  0  0  0  0  0  0  0  0  0  0
  143.5797  132.9060  148.9070 C   0  0  0  0  0  0  0  0  0  0  0  0
  143.4751  133.5539  147.6565 O   0  0  0  0  0  0  0  0  0  0  0  0
  144.4133  133.8829  151.1036 C   0  0  0  0  0  0  0  0  0  0  0  0
  145.6494  134.2951  151.9244 C   0  0  0  0  0  0  0  0  0  0  0  0
  148.9352  130.6819  156.0510 H   0  0  0  0  0  0  0  0  0  0  0  0
  148.0549  132.1125  155.5428 H   0  0  0  0  0  0  0  0  0  0  0  0
  149.6436  131.7715  154.8612 H   0  0  0  0  0  0  0  0  0  0  0  0
  147.1450  130.0575  154.4655 H   0  0  0  0  0  0  0  0  0  0  0  0
  149.8369  129.8253  153.0138 H   0  0  0  0  0  0  0  0  0  0  0  0
  149.3233  128.7639  154.3053 H   0  0  0  0  0  0  0  0  0  0  0  0
  146.2667  129.3658  152.5639 H   0  0  0  0  0  0  0  0  0  0  0  0
  145.8504  127.3950  150.6617 H   0  0  0  0  0  0  0  0  0  0  0  0
  149.8372  127.2629  151.8757 H   0  0  0  0  0  0  0  0  0  0  0  0
  148.0965  131.2993  152.0945 H   0  0  0  0  0  0  0  0  0  0  0  0
  147.5450  133.7396  150.2033 H   0  0  0  0  0  0  0  0  0  0  0  0
  147.8991  132.1004  150.6353 H   0  0  0  0  0  0  0  0  0  0  0  0
  146.3054  132.1362  148.7536 H   0  0  0  0  0  0  0  0  0  0  0  0
  145.5444  131.4221  150.1551 H   0  0  0  0  0  0  0  0  0  0  0  0
  145.1999  134.2859  149.1588 H   0  0  0  0  0  0  0  0  0  0  0  0
  143.6355  131.8280  148.7522 H   0  0  0  0  0  0  0  0  0  0  0  0
  142.6659  133.1036  149.4682 H   0  0  0  0  0  0  0  0  0  0  0  0
  144.3113  133.9423  147.4483 H   0  0  0  0  0  0  0  0  0  0  0  0
  143.7178  134.7203  151.0402 H   0  0  0  0  0  0  0  0  0  0  0  0
  143.8857  133.0821  151.6239 H   0  0  0  0  0  0  0  0  0  0  0  0
  145.3409  134.6360  152.9137 H   0  0  0  0  0  0  0  0  0  0  0  0
  146.1428  135.1493  151.4587 H   0  0  0  0  0  0  0  0  0  0  0  0
  1  2  1  0  0  0  0
  1 20  1  0  0  0  0
  1 21  1  0  0  0  0
  1 22  1  0  0  0  0
  2  3  1  0  0  0  0
  2  9  1  0  0  0  0
  2 23  1  0  0  0  0
  3  4  1  0  0  0  0
  3 24  1  0  0  0  0
  3 25  1  0  0  0  0
  4  8  1  0  0  0  0
  4  5  1  0  0  0  0
  5  6  2  0  0  0  0
  5 26  1  0  0  0  0
  6  7  1  0  0  0  0
  6 27  1  0  0  0  0
  7  8  2  0  0  0  0
  8 28  1  0  0  0  0
  9 10  1  0  0  0  0
  9 29  1  0  0  0  0
 10 11  2  0  0  0  0
 10 12  1  0  0  0  0
 12 19  1  0  0  0  0
 12 13  1  0  0  0  0
 13 14  1  0  0  0  0
 13 30  1  0  0  0  0
 13 31  1  0  0  0  0
 14 15  1  0  0  0  0
 14 32  1  0  0  0  0
 14 33  1  0  0  0  0
 15 16  1  0  0  0  0
 15 18  1  0  0  0  0
 15 34  1  0  0  0  0
 16 17  1  0  0  0  0
 16 35  1  0  0  0  0
 16 36  1  0  0  0  0
 17 37  1  0  0  0  0
 18 19  1  0  0  0  0
 18 38  1  0  0  0  0
 18 39  1  0  0  0  0
 19 40  1  0  0  0  0
 19 41  1  0  0  0  0
M  END
> <s_m_source_file>
AV-unprocessed.smi

> <i_m_source_file_index>
1555

> <i_lp_mmshare_version>
43012

> <i_f3d_flags>
0

> <s_epik_input>
W2NIXTFuW2NIXVtjSF1uMVtDSDJdW0NAQEhdKFtDSDNdKVtOSF1DKD1PKU4yW0NIMl1bQ0gyXVtDSF0oW0NIMl1bT0hdKVtDSDJdW0NIMl0y

> <s_epik_cmdline>
J2VwaWtfcHl0aG9uJywgJy1waCcsICc3LjAnLCAnLXRuJywgJzgnLCAnLW1hJywgJzIwMCcsICctbWV0YWxfYmluZGluZycsICctaW1hZScsICc8aW5maWxlLm1hZT4nLCAnLW9tYWUnLCAnPG91dGZpbGUubWFlPic=

> <r_lp_tautomer_probability>
1

> <r_epik_Ionization_Penalty>
0.625883

> <r_epik_Ionization_Penalty_Charging>
0.625812

> <r_epik_Ionization_Penalty_Neutral>
7.07114e-05

> <r_epik_State_Penalty>
0.642234

> <r_epik_Charging_Adjusted_Penalty>
1.26805

> <i_epik_Tot_Q>
0

> <i_epik_Tot_abs_Q>
0

> <r_epik_Metal_State_Penalty>
0.307949

> <b_epik_Metal_Only>
0

> <s_lp_Force_Field>
OPLS_2005

> <r_lp_Energy>
32.8415

> <b_lp_Chiralities_Consistent>
1

> <s_lp_Variant>
AV-unprocessed.smi:1555-3

> <Gold.Version>
5.8.1

> <Gold.Id.Protein>
6NUR|6NUR_protein|mol2

> <Gold.PLP.Fitness>
43.4222

> <Gold.PLP.PLP>
-33.7960

> <Gold.PLP.part.hbond>
-4.4143

> <Gold.PLP.part.metal>
0.0000

> <Gold.PLP.part.buried>
2.6662

> <Gold.PLP.part.nonpolar>
-30.5977

> <Gold.PLP.part.repulsive>
0.2453

> <Gold.PLP.ligand.clash>
0.0000

> <Gold.PLP.ligand.torsion>
0.7713

> <Gold.PLP.Chemscore.Hbond>
2.6825

> <Gold.PLP.Chemscore.CHOScore>
1.0000

> <Gold.PLP.Chemscore.Metal>
0.0000

> <Gold.Chemscore.Hbonds>
donor molecule, donor type, donor heavy atom, donor atom, acceptor molecule, acceptor atom, score
      L1  H     9    29       P1 10747  0.93
      L1  H    17    37       P1  7921  1.00
      P1  H 10192 10197       L1    17  0.52
      L1  C     8    28       P1 10737  1.00

> <Gold.PLP.Chemscore.Internal.Correction>
0.1212

> <Gold.Rescore>
     Score         DG    S(hbond)    S(metal)    S(lipo)     H(rot)  DE(clash)    DE(int)     intcor
     12.07     -17.68       2.56        0.00      85.43       2.49       4.81       0.79       ----

> <Gold.Chemscore.Fitness>
12.0735

> <Gold.Chemscore.DG>
-17.6762

> <Gold.Chemscore.ZeroCoef>
-5.4800

> <Gold.Chemscore.Hbond>
2.5650

> <Gold.Chemscore.Metal>
0.0000

> <Gold.Chemscore.Lipo>
85.4298

> <Gold.Chemscore.Internal_Hbond>
0.0000

> <Gold.Chemscore.DEClash>
4.8146

> <Gold.Chemscore.DEInternal>
0.7881

> <Gold.Chemscore.Rot>
2.4867

> <Gold.Chemscore.Internal.Correction>
   9.000000E+99

> <Gold.Chemscore.Hbonds>
donor molecule, donor type, donor heavy atom, donor atom, acceptor molecule, acceptor atom, score
      L1  H     9    29       P1 10747  0.89
      L1  H    17    37       P1  7921  0.97
      P1  H 10192 10197       L1    17  0.23

> <Gold.Chemscore.Hbond.Weighted>
-8.5670

> <Gold.Chemscore.Metal.Weighted>
-0.0000

> <Gold.Chemscore.Lipo.Weighted>
-9.9953

> <Gold.Chemscore.Internal_Hbond.Weighted>
0.0000

> <Gold.Chemscore.DEClash.Weighted>
4.8146

> <Gold.Chemscore.DEInternal.Weighted>
0.7881

> <Gold.Chemscore.Rot.Weighted>
6.3660

> <Gold.Chemscore.Internal.Correction.Weighted>
   9.000000E+99

> <Gold.Protein.RotatedTorsions>
[ 6907 6896 6895 6894 ] final -148.60 input  -60.11 | X-H torsion
[ 7974 7965 7964 7962 ] final   71.52 input  175.53 | X-H torsion
[ 8008 7997 7996 7995 ] final  170.20 input   59.86 | X-H torsion
[ 10167 10162 10161 10158 ] final  124.92 input  -65.29 | X-H torsion
[ 10718 10713 10712 10709 ] final  -85.51 input   66.30 | X-H torsion
[ 10763 10752 10751 10750 ] final   14.02 input  -60.55 | X-H torsion
[ 11005 11000 10999 10996 ] final  150.02 input  -57.11 | X-H torsion

> <Gold.Protein.ActiveResidues>
 VAL166  LYS551  ARG553  GLY616  TRP617  ASP618  TYR619  PRO620  LYS621  CYS622 
 ASP623  PHE694  ASN695  SER759  ASP760  ASP761  ALA762  ILE779  LEU786  VAL792 
 PHE793  MET794  SER795  GLU796  ALA797  LYS798  CYS799  TRP800  GLU811  SER814 

> <Gold.Protein.RotatedAtoms>
  151.1721  133.4777  159.2593 H   0  0  0  0  0  0  0  0  0  0  0  0  # atno 6907 bound_to 6896
  151.1345  135.0147  159.8607 H   0  0  0  0  0  0  0  0  0  0  0  0  # atno 6908 bound_to 6896
  152.5461  134.1621  159.8615 H   0  0  0  0  0  0  0  0  0  0  0  0  # atno 6909 bound_to 6896
  145.7648  139.2816  143.1355 H   0  0  0  0  0  0  0  0  0  0  0  0  # atno 7974 bound_to 7965
  156.1387  140.1544  156.8954 H   0  0  0  0  0  0  0  0  0  0  0  0  # atno 8008 bound_to 7997
  154.4969  140.0836  156.7754 H   0  0  0  0  0  0  0  0  0  0  0  0  # atno 8009 bound_to 7997
  155.4119  140.3419  155.4266 H   0  0  0  0  0  0  0  0  0  0  0  0  # atno 8010 bound_to 7997
  139.5714  144.6941  151.3768 H   0  0  0  0  0  0  0  0  0  0  0  0  # atno 10167 bound_to 10162
  155.9996  130.4733  150.4573 H   0  0  0  0  0  0  0  0  0  0  0  0  # atno 10718 bound_to 10713
  153.1663  135.6805  153.8670 H   0  0  0  0  0  0  0  0  0  0  0  0  # atno 10763 bound_to 10752
  153.8048  135.3151  155.3395 H   0  0  0  0  0  0  0  0  0  0  0  0  # atno 10764 bound_to 10752
  154.7968  135.4802  154.0270 H   0  0  0  0  0  0  0  0  0  0  0  0  # atno 10765 bound_to 10752
  140.1095  134.8933  157.1915 H   0  0  0  0  0  0  0  0  0  0  0  0  # atno 11005 bound_to 11000
  146.0228  140.8332  142.9915 LP  0  0  0  0  0  0  0  0  0  0  0  0  # atno 17320 bound_to 7965
  144.6823  140.2654  143.7313 LP  0  0  0  0  0  0  0  0  0  0  0  0  # atno 17321 bound_to 7965
  140.6998  143.7659  150.7385 LP  0  0  0  0  0  0  0  0  0  0  0  0  # atno 17342 bound_to 10162
  140.1166  143.4650  152.2338 LP  0  0  0  0  0  0  0  0  0  0  0  0  # atno 17343 bound_to 10162
  157.2601  131.0565  151.2326 LP  0  0  0  0  0  0  0  0  0  0  0  0  # atno 17370 bound_to 10713
  157.3443  130.7049  149.6401 LP  0  0  0  0  0  0  0  0  0  0  0  0  # atno 17371 bound_to 10713
  140.3111  134.3023  155.7267 LP  0  0  0  0  0  0  0  0  0  0  0  0  # atno 17394 bound_to 11000
  141.2126  133.7651  156.9777 LP  0  0  0  0  0  0  0  0  0  0  0  0  # atno 17395 bound_to 11000

$$$$
