AV-unprocessed.smi:788|AV-procd|sdf|3736|dock1
  -GOLD-   22720 1173D 1   1.00000     0.00000
 Structure written by MMmdl.
 34 35  0  0  0  0  0  0  0  0  2 V2000
  151.4461  135.7688  156.5082 C   0  0  0  0  0  0  0  0  0  0  0  0
  151.4330  137.1753  155.8855 C   0  0  1  0  0  0  0  0  0  0  0  0
  150.4608  137.2547  154.6906 C   0  0  0  0  0  0  0  0  0  0  0  0
  150.4894  138.6426  154.0324 C   0  0  0  0  0  0  0  0  0  0  0  0
  150.2009  139.7551  155.0521 C   0  0  0  0  0  0  0  0  0  0  0  0
  151.1702  139.6898  156.2505 C   0  0  1  0  0  0  0  0  0  0  0  0
  150.9103  140.8334  157.2465 C   0  0  0  0  0  0  0  0  0  0  0  0
  151.1418  138.2924  156.9196 C   0  0  1  0  0  0  0  0  0  0  0  0
  149.8548  138.0705  157.5831 N   0  0  0  0  0  0  0  0  0  0  0  0
  149.5725  137.1968  158.5692 C   0  0  0  0  0  0  0  0  0  0  0  0
  150.4589  136.4533  158.9864 O   0  0  0  0  0  0  0  0  0  0  0  0
  148.3023  137.1881  159.0533 N   0  5  0  0  0  0  0  0  0  0  0  0
  147.9598  136.5100  160.1646 C   0  0  0  0  0  0  0  0  0  0  0  0
  147.7079  137.1217  161.3331 N   0  0  0  0  0  0  0  0  0  0  0  0
  147.3921  136.2370  162.3550 N   0  0  0  0  0  0  0  0  0  0  0  0
  147.4028  134.9752  161.9262 C   0  0  0  0  0  0  0  0  0  0  0  0
  147.8018  134.7525  160.2359 S   0  0  0  0  0  0  0  0  0  0  0  0
  150.4569  135.4742  156.8602 H   0  0  0  0  0  0  0  0  0  0  0  0
  152.1288  135.7227  157.3570 H   0  0  0  0  0  0  0  0  0  0  0  0
  151.7715  135.0231  155.7827 H   0  0  0  0  0  0  0  0  0  0  0  0
  152.4373  137.3527  155.4980 H   0  0  0  0  0  0  0  0  0  0  0  0
  150.7185  136.4967  153.9501 H   0  0  0  0  0  0  0  0  0  0  0  0
  149.4457  137.0276  155.0194 H   0  0  0  0  0  0  0  0  0  0  0  0
  151.4662  138.8099  153.5772 H   0  0  0  0  0  0  0  0  0  0  0  0
  149.7605  138.6838  153.2226 H   0  0  0  0  0  0  0  0  0  0  0  0
  150.2808  140.7258  154.5618 H   0  0  0  0  0  0  0  0  0  0  0  0
  149.1702  139.6727  155.3999 H   0  0  0  0  0  0  0  0  0  0  0  0
  152.1783  139.8379  155.8604 H   0  0  0  0  0  0  0  0  0  0  0  0
  149.8936  140.8037  157.6401 H   0  0  0  0  0  0  0  0  0  0  0  0
  151.0498  141.8046  156.7712 H   0  0  0  0  0  0  0  0  0  0  0  0
  151.5960  140.7794  158.0926 H   0  0  0  0  0  0  0  0  0  0  0  0
  151.9425  138.2728  157.6605 H   0  0  0  0  0  0  0  0  0  0  0  0
  149.0927  138.6509  157.2655 H   0  0  0  0  0  0  0  0  0  0  0  0
  147.1738  134.1709  162.6089 H   0  0  0  0  0  0  0  0  0  0  0  0
  1  2  1  0  0  0  0
  1 18  1  0  0  0  0
  1 19  1  0  0  0  0
  1 20  1  0  0  0  0
  2  8  1  0  0  0  0
  2  3  1  0  0  0  0
  2 21  1  0  0  0  0
  3  4  1  0  0  0  0
  3 22  1  0  0  0  0
  3 23  1  0  0  0  0
  4  5  1  0  0  0  0
  4 24  1  0  0  0  0
  4 25  1  0  0  0  0
  5  6  1  0  0  0  0
  5 26  1  0  0  0  0
  5 27  1  0  0  0  0
  6  7  1  0  0  0  0
  6  8  1  0  0  0  0
  6 28  1  0  0  0  0
  7 29  1  0  0  0  0
  7 30  1  0  0  0  0
  7 31  1  0  0  0  0
  8  9  1  0  0  0  0
  8 32  1  0  0  0  0
  9 10  1  0  0  0  0
  9 33  1  0  0  0  0
 10 11  2  0  0  0  0
 10 12  1  0  0  0  0
 12 13  1  0  0  0  0
 13 17  1  0  0  0  0
 13 14  2  0  0  0  0
 14 15  1  0  0  0  0
 15 16  2  0  0  0  0
 16 17  1  0  0  0  0
 16 34  1  0  0  0  0
M  CHG  1  12  -1
M  END
> <s_m_source_file>
AV-unprocessed.smi

> <i_m_source_file_index>
788

> <i_lp_mmshare_version>
43012

> <i_f3d_flags>
0

> <s_epik_input>
W0NIM11bQ0BASF0xW0NIMl1bQ0gyXVtDSDJdW0NAQEhdKFtDSDNdKVtDQEhdMVtOSF1DKD1PKVtOSF1jMm5uW2NIXXMy

> <s_epik_cmdline>
J2VwaWtfcHl0aG9uJywgJy1waCcsICc3LjAnLCAnLXRuJywgJzgnLCAnLW1hJywgJzIwMCcsICctbWV0YWxfYmluZGluZycsICctaW1hZScsICc8aW5maWxlLm1hZT4nLCAnLW9tYWUnLCAnPG91dGZpbGUubWFlPic=

> <r_lp_tautomer_probability>
1

> <r_epik_Ionization_Penalty>
4.58638

> <r_epik_Ionization_Penalty_Charging>
4.53816

> <r_epik_Ionization_Penalty_Neutral>
0.048215

> <r_epik_State_Penalty>
4.53788

> <r_epik_Charging_Adjusted_Penalty>
9.07605

> <i_epik_Tot_Q>
-1

> <i_epik_Tot_abs_Q>
1

> <r_epik_Metal_State_Penalty>
0.838628

> <b_epik_Metal_Only>
1

> <s_lp_Force_Field>
OPLS_2005

> <r_lp_Energy>
10.1282

> <b_lp_Chiralities_Consistent>
1

> <s_lp_Variant>
AV-unprocessed.smi:788-6

> <Gold.Version>
5.8.1

> <Gold.Id.Protein>
6NUR|6NUR_protein|mol2

> <Gold.PLP.Fitness>
33.1539

> <Gold.PLP.PLP>
-26.6314

> <Gold.PLP.part.hbond>
-3.0000

> <Gold.PLP.part.metal>
0.0000

> <Gold.PLP.part.buried>
-4.1159

> <Gold.PLP.part.nonpolar>
-18.9736

> <Gold.PLP.part.repulsive>
0.0489

> <Gold.PLP.ligand.clash>
0.0000

> <Gold.PLP.ligand.torsion>
0.9837

> <Gold.PLP.Chemscore.Hbond>
2.8240

> <Gold.PLP.Chemscore.CHOScore>
0.0000

> <Gold.PLP.Chemscore.Metal>
0.0000

> <Gold.Chemscore.Hbonds>
donor molecule, donor type, donor heavy atom, donor atom, acceptor molecule, acceptor atom, score
      P1  H  6896  6907       L1    11  1.00
      P1  H  6931  6943       L1    14  1.00
      P1  H  6934  6947       L1    14  0.83

> <Gold.PLP.Chemscore.Internal.Correction>
0.0178

> <Gold.Rescore>
     Score         DG    S(hbond)    S(metal)    S(lipo)     H(rot)  DE(clash)    DE(int)     intcor
     15.31     -17.78       2.38        0.00      59.14       1.00       0.02       2.45       ----

> <Gold.Chemscore.Fitness>
15.3086

> <Gold.Chemscore.DG>
-17.7776

> <Gold.Chemscore.ZeroCoef>
-5.4800

> <Gold.Chemscore.Hbond>
2.3766

> <Gold.Chemscore.Metal>
0.0000

> <Gold.Chemscore.Lipo>
59.1434

> <Gold.Chemscore.Internal_Hbond>
0.0000

> <Gold.Chemscore.DEClash>
0.0207

> <Gold.Chemscore.DEInternal>
2.4483

> <Gold.Chemscore.Rot>
1.0000

> <Gold.Chemscore.Internal.Correction>
   9.000000E+99

> <Gold.Chemscore.Hbonds>
donor molecule, donor type, donor heavy atom, donor atom, acceptor molecule, acceptor atom, score
      P1  H  6896  6907       L1    11  0.98
      P1  H  6931  6943       L1    14  0.61
      P1  H  6934  6947       L1    14  0.51

> <Gold.Chemscore.Hbond.Weighted>
-7.9379

> <Gold.Chemscore.Metal.Weighted>
-0.0000

> <Gold.Chemscore.Lipo.Weighted>
-6.9198

> <Gold.Chemscore.Internal_Hbond.Weighted>
0.0000

> <Gold.Chemscore.DEClash.Weighted>
0.0207

> <Gold.Chemscore.DEInternal.Weighted>
2.4483

> <Gold.Chemscore.Rot.Weighted>
2.5600

> <Gold.Chemscore.Internal.Correction.Weighted>
   9.000000E+99

> <Gold.Protein.RotatedTorsions>
[ 6907 6896 6895 6894 ] final  -45.92 input  -60.11 | X-H torsion
[ 7974 7965 7964 7962 ] final  152.09 input  175.53 | X-H torsion
[ 8008 7997 7996 7995 ] final  145.78 input   59.86 | X-H torsion
[ 10167 10162 10161 10158 ] final -147.01 input  -65.29 | X-H torsion
[ 10718 10713 10712 10709 ] final   85.88 input   66.30 | X-H torsion
[ 10763 10752 10751 10750 ] final   57.76 input  -60.55 | X-H torsion
[ 11005 11000 10999 10996 ] final  -37.66 input  -57.11 | X-H torsion

> <Gold.Protein.ActiveResidues>
 VAL166  LYS551  ARG553  GLY616  TRP617  ASP618  TYR619  PRO620  LYS621  CYS622 
 ASP623  PHE694  ASN695  SER759  ASP760  ASP761  ALA762  ILE779  LEU786  VAL792 
 PHE793  MET794  SER795  GLU796  ALA797  LYS798  CYS799  TRP800  GLU811  SER814 

> <Gold.Protein.RotatedAtoms>
  150.9168  134.8586  159.7461 H   0  0  0  0  0  0  0  0  0  0  0  0  # atno 6907 bound_to 6896
  152.4972  134.4277  159.9512 H   0  0  0  0  0  0  0  0  0  0  0  0  # atno 6908 bound_to 6896
  151.4315  133.3629  159.2804 H   0  0  0  0  0  0  0  0  0  0  0  0  # atno 6909 bound_to 6896
  144.8247  139.6623  143.6085 H   0  0  0  0  0  0  0  0  0  0  0  0  # atno 7974 bound_to 7965
  156.2874  140.2200  156.5271 H   0  0  0  0  0  0  0  0  0  0  0  0  # atno 8008 bound_to 7997
  154.7480  140.0482  157.0891 H   0  0  0  0  0  0  0  0  0  0  0  0  # atno 8009 bound_to 7997
  155.0146  140.3117  155.4820 H   0  0  0  0  0  0  0  0  0  0  0  0  # atno 8010 bound_to 7997
  139.7661  143.8305  152.2616 H   0  0  0  0  0  0  0  0  0  0  0  0  # atno 10167 bound_to 10162
  157.6921  131.0193  150.2889 H   0  0  0  0  0  0  0  0  0  0  0  0  # atno 10718 bound_to 10713
  152.9856  135.5630  154.5443 H   0  0  0  0  0  0  0  0  0  0  0  0  # atno 10763 bound_to 10752
  154.4892  135.2792  155.1512 H   0  0  0  0  0  0  0  0  0  0  0  0  # atno 10764 bound_to 10752
  154.2988  135.6311  153.5469 H   0  0  0  0  0  0  0  0  0  0  0  0  # atno 10765 bound_to 10752
  140.9969  133.6976  156.1950 H   0  0  0  0  0  0  0  0  0  0  0  0  # atno 11005 bound_to 11000
  146.2552  139.6286  142.9400 LP  0  0  0  0  0  0  0  0  0  0  0  0  # atno 17320 bound_to 7965
  145.5028  141.0437  143.2531 LP  0  0  0  0  0  0  0  0  0  0  0  0  # atno 17321 bound_to 7965
  139.8326  144.7247  150.9431 LP  0  0  0  0  0  0  0  0  0  0  0  0  # atno 17342 bound_to 10162
  140.7811  143.4056  151.1077 LP  0  0  0  0  0  0  0  0  0  0  0  0  # atno 17343 bound_to 10162
  156.3424  130.3817  149.7398 LP  0  0  0  0  0  0  0  0  0  0  0  0  # atno 17370 bound_to 10713
  156.4903  130.8082  151.3092 LP  0  0  0  0  0  0  0  0  0  0  0  0  # atno 17371 bound_to 10713
  140.6952  134.4623  157.5588 LP  0  0  0  0  0  0  0  0  0  0  0  0  # atno 17394 bound_to 11000
  139.9019  134.8537  156.1861 LP  0  0  0  0  0  0  0  0  0  0  0  0  # atno 17395 bound_to 11000

$$$$
