AV-unprocessed.smi:2295|AV-procd|sdf|9218|dock10
  -GOLD-   2272012433D 1   1.00000     0.00000
 Structure written by MMmdl.
 37 38  0  0  0  0  0  0  0  0  1 V2000
  146.4029  142.7628  153.8041 C   0  0  0  0  0  0  0  0  0  0  0  0
  147.3331  141.5748  153.9331 C   0  0  0  0  0  0  0  0  0  0  0  0
  148.5272  141.6682  154.6732 C   0  0  0  0  0  0  0  0  0  0  0  0
  149.3492  140.5271  154.7555 C   0  0  0  0  0  0  0  0  0  0  0  0
  150.6503  140.5570  155.5293 C   0  0  0  0  0  0  0  0  0  0  0  0
  149.0432  139.3546  154.1604 N   0  0  0  0  0  0  0  0  0  0  0  0
  147.8956  139.2526  153.4450 C   0  0  0  0  0  0  0  0  0  0  0  0
  147.4860  138.0670  152.7788 N   0  0  0  0  0  0  0  0  0  0  0  0
  146.2356  137.6718  152.4807 C   0  0  0  0  0  0  0  0  0  0  0  0
  145.2106  138.3101  152.7221 O   0  0  0  0  0  0  0  0  0  0  0  0
  146.2384  136.4770  151.8714 N   0  0  0  0  0  0  0  0  0  0  0  0
  145.0554  135.7590  151.4053 C   0  0  0  0  0  0  0  0  0  0  0  0
  145.2255  134.2322  151.5153 C   0  0  2  0  0  0  0  0  0  0  0  0
  146.2555  133.6839  150.5175 C   0  0  0  0  0  0  0  0  0  0  0  0
  145.9514  132.1977  150.3265 C   0  0  0  0  0  0  0  0  0  0  0  0
  144.4384  132.0910  150.1386 C   0  0  0  0  0  0  0  0  0  0  0  0
  143.6769  133.3245  151.2228 S   0  0  0  0  0  0  0  0  0  0  0  0
  147.0165  140.3507  153.3101 C   0  0  0  0  0  0  0  0  0  0  0  0
  146.7622  143.6128  154.3850 H   0  0  0  0  0  0  0  0  0  0  0  0
  145.4063  142.5035  154.1618 H   0  0  0  0  0  0  0  0  0  0  0  0
  146.3258  143.0698  152.7609 H   0  0  0  0  0  0  0  0  0  0  0  0
  148.8064  142.5891  155.1642 H   0  0  0  0  0  0  0  0  0  0  0  0
  150.7803  141.5063  156.0494 H   0  0  0  0  0  0  0  0  0  0  0  0
  151.4945  140.4201  154.8531 H   0  0  0  0  0  0  0  0  0  0  0  0
  150.6707  139.7576  156.2706 H   0  0  0  0  0  0  0  0  0  0  0  0
  148.2311  137.4467  152.4994 H   0  0  0  0  0  0  0  0  0  0  0  0
  147.1287  136.0271  151.7173 H   0  0  0  0  0  0  0  0  0  0  0  0
  144.1570  136.0825  151.9340 H   0  0  0  0  0  0  0  0  0  0  0  0
  144.9045  136.0318  150.3604 H   0  0  0  0  0  0  0  0  0  0  0  0
  145.5575  133.9737  152.5218 H   0  0  0  0  0  0  0  0  0  0  0  0
  146.1546  134.1942  149.5583 H   0  0  0  0  0  0  0  0  0  0  0  0
  147.2768  133.8467  150.8631 H   0  0  0  0  0  0  0  0  0  0  0  0
  146.4956  131.7750  149.4814 H   0  0  0  0  0  0  0  0  0  0  0  0
  146.2516  131.6448  151.2176 H   0  0  0  0  0  0  0  0  0  0  0  0
  144.1713  132.3323  149.1094 H   0  0  0  0  0  0  0  0  0  0  0  0
  144.0636  131.0906  150.3557 H   0  0  0  0  0  0  0  0  0  0  0  0
  146.1058  140.2572  152.7361 H   0  0  0  0  0  0  0  0  0  0  0  0
  1  2  1  0  0  0  0
  1 19  1  0  0  0  0
  1 20  1  0  0  0  0
  1 21  1  0  0  0  0
  2 18  1  0  0  0  0
  2  3  2  0  0  0  0
  3  4  1  0  0  0  0
  3 22  1  0  0  0  0
  4  5  1  0  0  0  0
  4  6  2  0  0  0  0
  5 23  1  0  0  0  0
  5 24  1  0  0  0  0
  5 25  1  0  0  0  0
  6  7  1  0  0  0  0
  7  8  1  0  0  0  0
  7 18  2  0  0  0  0
  8  9  1  0  0  0  0
  8 26  1  0  0  0  0
  9 10  2  0  0  0  0
  9 11  1  0  0  0  0
 11 12  1  0  0  0  0
 11 27  1  0  0  0  0
 12 13  1  0  0  0  0
 12 28  1  0  0  0  0
 12 29  1  0  0  0  0
 13 17  1  0  0  0  0
 13 14  1  0  0  0  0
 13 30  1  0  0  0  0
 14 15  1  0  0  0  0
 14 31  1  0  0  0  0
 14 32  1  0  0  0  0
 15 16  1  0  0  0  0
 15 33  1  0  0  0  0
 15 34  1  0  0  0  0
 16 17  1  0  0  0  0
 16 35  1  0  0  0  0
 16 36  1  0  0  0  0
 18 37  1  0  0  0  0
M  END
> <s_m_source_file>
AV-unprocessed.smi

> <i_m_source_file_index>
2295

> <i_lp_mmshare_version>
43012

> <i_f3d_flags>
0

> <s_epik_input>
W0NIM11jMVtjSF1jKFtDSDNdKW5jKFtjSF0xKVtOSF1DKD1PKVtOSF1bQ0gyXVtDQEBIXTJbQ0gyXVtDSDJdW0NIMl1TMg==

> <s_epik_cmdline>
J2VwaWtfcHl0aG9uJywgJy1waCcsICc3LjAnLCAnLXRuJywgJzgnLCAnLW1hJywgJzIwMCcsICctbWV0YWxfYmluZGluZycsICctaW1hZScsICc8aW5maWxlLm1hZT4nLCAnLW9tYWUnLCAnPG91dGZpbGUubWFlPic=

> <r_lp_tautomer_probability>
1

> <r_epik_Ionization_Penalty>
0.000247769

> <r_epik_Ionization_Penalty_Charging>
0

> <r_epik_Ionization_Penalty_Neutral>
0.000247769

> <r_epik_State_Penalty>
-0

> <r_epik_Charging_Adjusted_Penalty>
0

> <i_epik_Tot_Q>
0

> <i_epik_Tot_abs_Q>
0

> <r_epik_Metal_State_Penalty>
-0

> <b_epik_Metal_Only>
0

> <s_lp_Force_Field>
OPLS_2005

> <r_lp_Energy>
13.4664

> <b_lp_Chiralities_Consistent>
1

> <s_lp_Variant>
AV-unprocessed.smi:2295-1

> <Gold.Version>
5.8.1

> <Gold.Id.Protein>
6NUR|6NUR_protein|mol2

> <Gold.PLP.Fitness>
40.5473

> <Gold.PLP.PLP>
-35.5839

> <Gold.PLP.part.hbond>
-1.9857

> <Gold.PLP.part.metal>
0.0000

> <Gold.PLP.part.buried>
-2.7171

> <Gold.PLP.part.nonpolar>
-33.6403

> <Gold.PLP.part.repulsive>
3.4631

> <Gold.PLP.ligand.clash>
0.0000

> <Gold.PLP.ligand.torsion>
0.3866

> <Gold.PLP.Chemscore.Hbond>
1.9120

> <Gold.PLP.Chemscore.CHOScore>
0.0000

> <Gold.PLP.Chemscore.Metal>
0.0000

> <Gold.Chemscore.Hbonds>
donor molecule, donor type, donor heavy atom, donor atom, acceptor molecule, acceptor atom, score
      L1  H     8    26       P1  7948  1.00
      L1  H    11    27       P1  7948  0.91

> <Gold.PLP.Chemscore.Internal.Correction>
0.0006

> <Gold.Rescore>
     Score         DG    S(hbond)    S(metal)    S(lipo)     H(rot)  DE(clash)    DE(int)     intcor
     15.63     -18.86       1.89        0.00      86.11       1.17       1.47       1.76       ----

> <Gold.Chemscore.Fitness>
15.6294

> <Gold.Chemscore.DG>
-18.8554

> <Gold.Chemscore.ZeroCoef>
-5.4800

> <Gold.Chemscore.Hbond>
1.8856

> <Gold.Chemscore.Metal>
0.0000

> <Gold.Chemscore.Lipo>
86.1104

> <Gold.Chemscore.Internal_Hbond>
0.0000

> <Gold.Chemscore.DEClash>
1.4691

> <Gold.Chemscore.DEInternal>
1.7569

> <Gold.Chemscore.Rot>
1.1709

> <Gold.Chemscore.Internal.Correction>
   9.000000E+99

> <Gold.Chemscore.Hbonds>
donor molecule, donor type, donor heavy atom, donor atom, acceptor molecule, acceptor atom, score
      L1  H     8    26       P1  7948  0.93
      L1  H    11    27       P1  7948  0.90

> <Gold.Chemscore.Hbond.Weighted>
-6.2980

> <Gold.Chemscore.Metal.Weighted>
-0.0000

> <Gold.Chemscore.Lipo.Weighted>
-10.0749

> <Gold.Chemscore.Internal_Hbond.Weighted>
0.0000

> <Gold.Chemscore.DEClash.Weighted>
1.4691

> <Gold.Chemscore.DEInternal.Weighted>
1.7569

> <Gold.Chemscore.Rot.Weighted>
2.9975

> <Gold.Chemscore.Internal.Correction.Weighted>
   9.000000E+99

> <Gold.Protein.RotatedTorsions>
[ 6907 6896 6895 6894 ] final    4.85 input  -60.11 | X-H torsion
[ 7974 7965 7964 7962 ] final -130.07 input  175.53 | X-H torsion
[ 8008 7997 7996 7995 ] final -178.69 input   59.86 | X-H torsion
[ 10167 10162 10161 10158 ] final  -11.49 input  -65.29 | X-H torsion
[ 10718 10713 10712 10709 ] final   30.44 input   66.30 | X-H torsion
[ 10763 10752 10751 10750 ] final  -34.37 input  -60.55 | X-H torsion
[ 11005 11000 10999 10996 ] final  155.77 input  -57.11 | X-H torsion

> <Gold.Protein.ActiveResidues>
 VAL166  LYS551  ARG553  GLY616  TRP617  ASP618  TYR619  PRO620  LYS621  CYS622 
 ASP623  PHE694  ASN695  SER759  ASP760  ASP761  ALA762  ILE779  LEU786  VAL792 
 PHE793  MET794  SER795  GLU796  ALA797  LYS798  CYS799  TRP800  GLU811  SER814 

> <Gold.Protein.RotatedAtoms>
  151.6479  135.1005  160.0154 H   0  0  0  0  0  0  0  0  0  0  0  0  # atno 6907 bound_to 6896
  152.4017  133.6824  159.6330 H   0  0  0  0  0  0  0  0  0  0  0  0  # atno 6908 bound_to 6896
  150.7916  133.8696  159.3296 H   0  0  0  0  0  0  0  0  0  0  0  0  # atno 6909 bound_to 6896
  144.9510  140.7344  143.4788 H   0  0  0  0  0  0  0  0  0  0  0  0  # atno 7974 bound_to 7965
  156.0218  140.1263  157.0349 H   0  0  0  0  0  0  0  0  0  0  0  0  # atno 8008 bound_to 7997
  154.4314  140.1067  156.6044 H   0  0  0  0  0  0  0  0  0  0  0  0  # atno 8009 bound_to 7997
  155.5934  140.3469  155.4575 H   0  0  0  0  0  0  0  0  0  0  0  0  # atno 8010 bound_to 7997
  140.7140  143.5634  150.9171 H   0  0  0  0  0  0  0  0  0  0  0  0  # atno 10167 bound_to 10162
  157.2597  130.7155  149.6447 H   0  0  0  0  0  0  0  0  0  0  0  0  # atno 10718 bound_to 10713
  153.8456  135.6853  153.4798 H   0  0  0  0  0  0  0  0  0  0  0  0  # atno 10763 bound_to 10752
  153.1428  135.4650  154.9519 H   0  0  0  0  0  0  0  0  0  0  0  0  # atno 10764 bound_to 10752
  154.7825  135.3274  154.7905 H   0  0  0  0  0  0  0  0  0  0  0  0  # atno 10765 bound_to 10752
  140.1612  134.8608  157.2577 H   0  0  0  0  0  0  0  0  0  0  0  0  # atno 11005 bound_to 11000
  145.2844  139.1906  143.4774 LP  0  0  0  0  0  0  0  0  0  0  0  0  # atno 17320 bound_to 7965
  146.3321  140.2811  142.8610 LP  0  0  0  0  0  0  0  0  0  0  0  0  # atno 17321 bound_to 7965
  139.9359  143.6438  152.3065 LP  0  0  0  0  0  0  0  0  0  0  0  0  # atno 17342 bound_to 10162
  139.6906  144.7647  151.1446 LP  0  0  0  0  0  0  0  0  0  0  0  0  # atno 17343 bound_to 10162
  155.9664  130.4401  150.5287 LP  0  0  0  0  0  0  0  0  0  0  0  0  # atno 17370 bound_to 10713
  157.3189  131.0678  151.1946 LP  0  0  0  0  0  0  0  0  0  0  0  0  # atno 17371 bound_to 10713
  140.2487  134.3709  155.7451 LP  0  0  0  0  0  0  0  0  0  0  0  0  # atno 17394 bound_to 11000
  141.2209  133.7305  156.8902 LP  0  0  0  0  0  0  0  0  0  0  0  0  # atno 17395 bound_to 11000

$$$$
