AV-unprocessed.smi:2446|AV-procd|sdf|9641|dock10
  -GOLD-   2272013273D 1   1.00000     0.00000
 Structure written by MMmdl.
 39 40  0  0  0  0  0  0  0  0  1 V2000
  151.0228  145.2987  158.6050 C   0  0  0  0  0  0  0  0  0  0  0  0
  151.5866  143.9339  158.9612 C   0  0  0  0  0  0  0  0  0  0  0  0
  152.7316  143.8374  159.7809 C   0  0  0  0  0  0  0  0  0  0  0  0
  153.2912  142.6657  160.1459 N   0  0  0  0  0  0  0  0  0  0  0  0
  152.7158  141.5291  159.7031 C   0  0  0  0  0  0  0  0  0  0  0  0
  151.5728  141.5082  158.8803 C   0  0  0  0  0  0  0  0  0  0  0  0
  150.9951  142.7387  158.4845 C   0  0  0  0  0  0  0  0  0  0  0  0
  149.8328  142.8348  157.6688 N   0  0  0  0  0  0  0  0  0  0  0  0
  148.8745  141.9164  157.4365 C   0  0  0  0  0  0  0  0  0  0  0  0
  148.8358  140.7964  157.9410 O   0  0  0  0  0  0  0  0  0  0  0  0
  147.9296  142.3166  156.5658 N   0  0  0  0  0  0  0  0  0  0  0  0
  146.7528  141.5828  156.0869 C   0  0  2  0  0  0  0  0  0  0  0  0
  146.8629  141.3419  154.5693 C   0  0  0  0  0  0  0  0  0  0  0  0
  146.6833  142.6375  153.7603 C   0  0  0  0  0  0  0  0  0  0  0  0
  145.3643  143.3412  154.1145 C   0  0  0  0  0  0  0  0  0  0  0  0
  145.2605  143.6300  155.6267 C   0  0  1  0  0  0  0  0  0  0  0  0
  143.9466  144.3528  155.9883 C   0  0  0  0  0  0  0  0  0  0  0  0
  143.9270  144.6850  157.2794 F   0  0  0  0  0  0  0  0  0  0  0  0
  143.8196  145.4601  155.2570 F   0  0  0  0  0  0  0  0  0  0  0  0
  142.9044  143.5625  155.7307 F   0  0  0  0  0  0  0  0  0  0  0  0
  145.4392  142.3218  156.4300 C   0  0  0  0  0  0  0  0  0  0  0  0
  151.5848  146.0977  159.0893 H   0  0  0  0  0  0  0  0  0  0  0  0
  149.9831  145.3779  158.9241 H   0  0  0  0  0  0  0  0  0  0  0  0
  151.0679  145.4593  157.5276 H   0  0  0  0  0  0  0  0  0  0  0  0
  153.2144  144.7267  160.1586 H   0  0  0  0  0  0  0  0  0  0  0  0
  153.1766  140.6053  160.0200 H   0  0  0  0  0  0  0  0  0  0  0  0
  151.1615  140.5558  158.5843 H   0  0  0  0  0  0  0  0  0  0  0  0
  149.7596  143.6842  157.1287 H   0  0  0  0  0  0  0  0  0  0  0  0
  148.0384  143.2487  156.1931 H   0  0  0  0  0  0  0  0  0  0  0  0
  146.7392  140.6031  156.5672 H   0  0  0  0  0  0  0  0  0  0  0  0
  147.8213  140.8805  154.3281 H   0  0  0  0  0  0  0  0  0  0  0  0
  146.0983  140.6257  154.2656 H   0  0  0  0  0  0  0  0  0  0  0  0
  147.5198  143.3112  153.9491 H   0  0  0  0  0  0  0  0  0  0  0  0
  146.7066  142.4126  152.6937 H   0  0  0  0  0  0  0  0  0  0  0  0
  145.2889  144.2703  153.5489 H   0  0  0  0  0  0  0  0  0  0  0  0
  144.5256  142.7200  153.7978 H   0  0  0  0  0  0  0  0  0  0  0  0
  146.0790  144.3006  155.8923 H   0  0  0  0  0  0  0  0  0  0  0  0
  144.5992  141.6576  156.2230 H   0  0  0  0  0  0  0  0  0  0  0  0
  145.3935  142.5313  157.4985 H   0  0  0  0  0  0  0  0  0  0  0  0
  1  2  1  0  0  0  0
  1 22  1  0  0  0  0
  1 23  1  0  0  0  0
  1 24  1  0  0  0  0
  2  7  1  0  0  0  0
  2  3  2  0  0  0  0
  3  4  1  0  0  0  0
  3 25  1  0  0  0  0
  4  5  2  0  0  0  0
  5  6  1  0  0  0  0
  5 26  1  0  0  0  0
  6  7  2  0  0  0  0
  6 27  1  0  0  0  0
  7  8  1  0  0  0  0
  8  9  1  0  0  0  0
  8 28  1  0  0  0  0
  9 10  2  0  0  0  0
  9 11  1  0  0  0  0
 11 12  1  0  0  0  0
 11 29  1  0  0  0  0
 12 21  1  0  0  0  0
 12 13  1  0  0  0  0
 12 30  1  0  0  0  0
 13 14  1  0  0  0  0
 13 31  1  0  0  0  0
 13 32  1  0  0  0  0
 14 15  1  0  0  0  0
 14 33  1  0  0  0  0
 14 34  1  0  0  0  0
 15 16  1  0  0  0  0
 15 35  1  0  0  0  0
 15 36  1  0  0  0  0
 16 17  1  0  0  0  0
 16 21  1  0  0  0  0
 16 37  1  0  0  0  0
 17 18  1  0  0  0  0
 17 19  1  0  0  0  0
 17 20  1  0  0  0  0
 21 38  1  0  0  0  0
 21 39  1  0  0  0  0
M  END
> <s_m_source_file>
AV-unprocessed.smi

> <i_m_source_file_index>
2446

> <i_lp_mmshare_version>
43012

> <i_f3d_flags>
0

> <s_epik_input>
W0NIM11jMVtjSF1uW2NIXVtjSF1jMVtOSF1DKD1PKVtOSF1bQ0BASF0yW0NIMl1bQ0gyXVtDSDJdW0NAQEhdKEMoRikoRilGKVtDSDJdMg==

> <s_epik_cmdline>
J2VwaWtfcHl0aG9uJywgJy1waCcsICc3LjAnLCAnLXRuJywgJzgnLCAnLW1hJywgJzIwMCcsICctbWV0YWxfYmluZGluZycsICctaW1hZScsICc8aW5maWxlLm1hZT4nLCAnLW9tYWUnLCAnPG91dGZpbGUubWFlPic=

> <r_epik_Ionization_Penalty>
0.20168

> <r_epik_Ionization_Penalty_Charging>
0

> <r_epik_Ionization_Penalty_Neutral>
0.20168

> <r_epik_State_Penalty>
0.191514

> <r_epik_Charging_Adjusted_Penalty>
0.191514

> <i_epik_Tot_Q>
0

> <i_epik_Tot_abs_Q>
0

> <r_epik_Metal_State_Penalty>
0.142371

> <b_epik_Metal_Only>
0

> <s_lp_Force_Field>
OPLS_2005

> <r_lp_Energy>
25.5489

> <b_lp_Chiralities_Consistent>
1

> <s_lp_Variant>
AV-unprocessed.smi:2446-1

> <Gold.Version>
5.8.1

> <Gold.Id.Protein>
6NUR|6NUR_protein|mol2

> <Gold.PLP.Fitness>
44.2413

> <Gold.PLP.PLP>
-38.4732

> <Gold.PLP.part.hbond>
-2.0000

> <Gold.PLP.part.metal>
0.0000

> <Gold.PLP.part.buried>
-6.8510

> <Gold.PLP.part.nonpolar>
-28.6488

> <Gold.PLP.part.repulsive>
0.0647

> <Gold.PLP.ligand.clash>
0.0000

> <Gold.PLP.ligand.torsion>
0.1262

> <Gold.PLP.Chemscore.Hbond>
2.0000

> <Gold.PLP.Chemscore.CHOScore>
0.0000

> <Gold.PLP.Chemscore.Metal>
0.0000

> <Gold.Chemscore.Hbonds>
donor molecule, donor type, donor heavy atom, donor atom, acceptor molecule, acceptor atom, score
      L1  H     8    28       P1  8028  1.00
      L1  H    11    29       P1  8028  1.00

> <Gold.PLP.Chemscore.Internal.Correction>
0.0204

> <Gold.Rescore>
     Score         DG    S(hbond)    S(metal)    S(lipo)     H(rot)  DE(clash)    DE(int)     intcor
     18.10     -19.29       1.61        0.00      93.96       1.00       0.00       1.19       ----

> <Gold.Chemscore.Fitness>
18.1000

> <Gold.Chemscore.DG>
-19.2889

> <Gold.Chemscore.ZeroCoef>
-5.4800

> <Gold.Chemscore.Hbond>
1.6095

> <Gold.Chemscore.Metal>
0.0000

> <Gold.Chemscore.Lipo>
93.9583

> <Gold.Chemscore.Internal_Hbond>
0.0000

> <Gold.Chemscore.DEClash>
0.0009

> <Gold.Chemscore.DEInternal>
1.1880

> <Gold.Chemscore.Rot>
1.0000

> <Gold.Chemscore.Internal.Correction>
   9.000000E+99

> <Gold.Chemscore.Hbonds>
donor molecule, donor type, donor heavy atom, donor atom, acceptor molecule, acceptor atom, score
      L1  H     8    28       P1  8028  0.85
      L1  H    11    29       P1  8028  0.34

> <Gold.Chemscore.Hbond.Weighted>
-5.3758

> <Gold.Chemscore.Metal.Weighted>
-0.0000

> <Gold.Chemscore.Lipo.Weighted>
-10.9931

> <Gold.Chemscore.Internal_Hbond.Weighted>
0.0000

> <Gold.Chemscore.DEClash.Weighted>
0.0009

> <Gold.Chemscore.DEInternal.Weighted>
1.1880

> <Gold.Chemscore.Rot.Weighted>
2.5600

> <Gold.Chemscore.Internal.Correction.Weighted>
   9.000000E+99

> <Gold.Protein.RotatedTorsions>
[ 6907 6896 6895 6894 ] final    0.46 input  -60.11 | X-H torsion
[ 7974 7965 7964 7962 ] final  167.62 input  175.53 | X-H torsion
[ 8008 7997 7996 7995 ] final  -32.04 input   59.86 | X-H torsion
[ 10167 10162 10161 10158 ] final   92.69 input  -65.29 | X-H torsion
[ 10718 10713 10712 10709 ] final   74.37 input   66.30 | X-H torsion
[ 10763 10752 10751 10750 ] final  -55.54 input  -60.55 | X-H torsion
[ 11005 11000 10999 10996 ] final  -51.46 input  -57.11 | X-H torsion

> <Gold.Protein.ActiveResidues>
 VAL166  LYS551  ARG553  GLY616  TRP617  ASP618  TYR619  PRO620  LYS621  CYS622 
 ASP623  PHE694  ASN695  SER759  ASP760  ASP761  ALA762  ILE779  LEU786  VAL792 
 PHE793  MET794  SER795  GLU796  ALA797  LYS798  CYS799  TRP800  GLU811  SER814 

> <Gold.Protein.RotatedAtoms>
  151.5768  135.1060  160.0007 H   0  0  0  0  0  0  0  0  0  0  0  0  # atno 6907 bound_to 6896
  152.4374  133.7381  159.6636 H   0  0  0  0  0  0  0  0  0  0  0  0  # atno 6908 bound_to 6896
  150.8274  133.8079  159.3136 H   0  0  0  0  0  0  0  0  0  0  0  0  # atno 6909 bound_to 6896
  144.7418  139.8787  143.6394 H   0  0  0  0  0  0  0  0  0  0  0  0  # atno 7974 bound_to 7965
  154.4193  140.1748  156.1662 H   0  0  0  0  0  0  0  0  0  0  0  0  # atno 8008 bound_to 7997
  155.9797  140.3378  155.6628 H   0  0  0  0  0  0  0  0  0  0  0  0  # atno 8009 bound_to 7997
  155.6516  140.0691  157.2575 H   0  0  0  0  0  0  0  0  0  0  0  0  # atno 8010 bound_to 7997
  139.8252  144.6713  150.9468 H   0  0  0  0  0  0  0  0  0  0  0  0  # atno 10167 bound_to 10162
  157.6589  130.9674  150.1201 H   0  0  0  0  0  0  0  0  0  0  0  0  # atno 10718 bound_to 10713
  154.1923  135.6425  153.5063 H   0  0  0  0  0  0  0  0  0  0  0  0  # atno 10763 bound_to 10752
  153.0032  135.5431  154.6402 H   0  0  0  0  0  0  0  0  0  0  0  0  # atno 10764 bound_to 10752
  154.5794  135.2924  155.0721 H   0  0  0  0  0  0  0  0  0  0  0  0  # atno 10765 bound_to 10752
  141.0872  133.6640  156.3880 H   0  0  0  0  0  0  0  0  0  0  0  0  # atno 11005 bound_to 11000
  146.1227  139.4248  143.0218 LP  0  0  0  0  0  0  0  0  0  0  0  0  # atno 17320 bound_to 7965
  145.7281  141.0052  143.1366 LP  0  0  0  0  0  0  0  0  0  0  0  0  # atno 17321 bound_to 7965
  140.7810  143.4053  151.1081 LP  0  0  0  0  0  0  0  0  0  0  0  0  # atno 17342 bound_to 10162
  139.7711  143.8493  152.3120 LP  0  0  0  0  0  0  0  0  0  0  0  0  # atno 17343 bound_to 10162
  156.2074  130.3664  149.8712 LP  0  0  0  0  0  0  0  0  0  0  0  0  # atno 17370 bound_to 10713
  156.6599  130.8778  151.3545 LP  0  0  0  0  0  0  0  0  0  0  0  0  # atno 17371 bound_to 10713
  140.5336  134.6189  157.5358 LP  0  0  0  0  0  0  0  0  0  0  0  0  # atno 17394 bound_to 11000
  139.9692  134.7322  156.0076 LP  0  0  0  0  0  0  0  0  0  0  0  0  # atno 17395 bound_to 11000

$$$$
