AV-unprocessed.smi:2514|AV-procd|sdf|9893|dock7
  -GOLD-   2272013533D 1   1.00000     0.00000
 Structure written by MMmdl.
 25 26  0  0  0  0  0  0  0  0  2 V2000
  152.6317  143.2416  158.7380 C   0  0  0  0  0  0  0  0  0  0  0  0
  152.2599  141.7923  159.0734 C   0  0  2  0  0  0  0  0  0  0  0  0
  153.3008  141.2018  159.8259 O   0  0  0  0  0  0  0  0  0  0  0  0
  152.0643  140.9505  157.8427 C   0  0  0  0  0  0  0  0  0  0  0  0
  151.1944  141.1017  156.7974 C   0  0  0  0  0  0  0  0  0  0  0  0
  151.4607  140.0103  155.9985 N   0  0  0  0  0  0  0  0  0  0  0  0
  150.8891  139.6998  154.7223 C   0  0  0  0  0  0  0  0  0  0  0  0
  149.4518  139.1947  154.6145 C   0  0  0  0  0  0  0  0  0  0  0  0
  149.8823  138.3930  153.4758 N   0  3  0  0  0  0  0  0  0  0  0  0
  151.2507  138.4145  153.9772 C   0  0  0  0  0  0  0  0  0  0  0  0
  152.4670  139.2580  156.5010 N   0  0  0  0  0  0  0  0  0  0  0  0
  152.8208  139.7985  157.6241 N   0  0  0  0  0  0  0  0  0  0  0  0
  151.8447  143.7223  158.1563 H   0  0  0  0  0  0  0  0  0  0  0  0
  153.5526  143.2909  158.1560 H   0  0  0  0  0  0  0  0  0  0  0  0
  152.7776  143.8288  159.6452 H   0  0  0  0  0  0  0  0  0  0  0  0
  151.3565  141.7835  159.6845 H   0  0  0  0  0  0  0  0  0  0  0  0
  153.7458  141.8836  160.3057 H   0  0  0  0  0  0  0  0  0  0  0  0
  150.4486  141.8494  156.5706 H   0  0  0  0  0  0  0  0  0  0  0  0
  151.0449  140.5766  154.0898 H   0  0  0  0  0  0  0  0  0  0  0  0
  149.1412  138.5766  155.4592 H   0  0  0  0  0  0  0  0  0  0  0  0
  148.7126  139.9575  154.3678 H   0  0  0  0  0  0  0  0  0  0  0  0
  149.4705  137.4712  153.4416 H   0  0  0  0  0  0  0  0  0  0  0  0
  152.0073  138.5290  153.2006 H   0  0  0  0  0  0  0  0  0  0  0  0
  151.4593  137.5683  154.6349 H   0  0  0  0  0  0  0  0  0  0  0  0
  149.7975  138.9059  152.6095 H   0  0  0  0  0  0  0  0  0  0  0  0
  1  2  1  0  0  0  0
  1 13  1  0  0  0  0
  1 14  1  0  0  0  0
  1 15  1  0  0  0  0
  2  3  1  0  0  0  0
  2  4  1  0  0  0  0
  2 16  1  0  0  0  0
  3 17  1  0  0  0  0
  4 12  1  0  0  0  0
  4  5  2  0  0  0  0
  5  6  1  0  0  0  0
  5 18  1  0  0  0  0
  6  7  1  0  0  0  0
  6 11  1  0  0  0  0
  7 10  1  0  0  0  0
  7  8  1  0  0  0  0
  7 19  1  0  0  0  0
  8  9  1  0  0  0  0
  8 20  1  0  0  0  0
  8 21  1  0  0  0  0
  9 10  1  0  0  0  0
  9 22  1  0  0  0  0
  9 25  1  0  0  0  0
 10 23  1  0  0  0  0
 10 24  1  0  0  0  0
 11 12  2  0  0  0  0
M  CHG  1   9   1
M  END
> <s_m_source_file>
AV-unprocessed.smi

> <i_m_source_file_index>
2514

> <i_lp_mmshare_version>
43012

> <i_f3d_flags>
0

> <s_epik_input>
W0NIM11bQ0BIXShbT0hdKWMxW2NIXW4obm4xKVtDSF0yW0NIMl1bTkhdW0NIMl0y

> <s_epik_cmdline>
J2VwaWtfcHl0aG9uJywgJy1waCcsICc3LjAnLCAnLXRuJywgJzgnLCAnLW1hJywgJzIwMCcsICctbWV0YWxfYmluZGluZycsICctaW1hZScsICc8aW5maWxlLm1hZT4nLCAnLW9tYWUnLCAnPG91dGZpbGUubWFlPic=

> <r_lp_tautomer_probability>
1

> <r_epik_Ionization_Penalty>
0.215039

> <r_epik_Ionization_Penalty_Charging>
0.215038

> <r_epik_Ionization_Penalty_Neutral>
9.39085e-07

> <r_epik_State_Penalty>
0.20523

> <r_epik_Charging_Adjusted_Penalty>
0.420268

> <i_epik_Tot_Q>
1

> <i_epik_Tot_abs_Q>
1

> <r_epik_Metal_State_Penalty>
0.205259

> <b_epik_Metal_Only>
0

> <s_lp_Force_Field>
OPLS_2005

> <r_lp_Energy>
12.5086

> <b_lp_Chiralities_Consistent>
1

> <s_lp_Variant>
AV-unprocessed.smi:2514-1

> <Gold.Version>
5.8.1

> <Gold.Id.Protein>
6NUR|6NUR_protein|mol2

> <Gold.PLP.Fitness>
32.2027

> <Gold.PLP.PLP>
-23.4530

> <Gold.PLP.part.hbond>
-3.8372

> <Gold.PLP.part.metal>
0.0000

> <Gold.PLP.part.buried>
-1.8207

> <Gold.PLP.part.nonpolar>
-17.7597

> <Gold.PLP.part.repulsive>
0.0839

> <Gold.PLP.ligand.clash>
0.0000

> <Gold.PLP.ligand.torsion>
0.1512

> <Gold.PLP.Chemscore.Hbond>
2.9248

> <Gold.PLP.Chemscore.CHOScore>
0.0000

> <Gold.PLP.Chemscore.Metal>
0.0000

> <Gold.Chemscore.Hbonds>
donor molecule, donor type, donor heavy atom, donor atom, acceptor molecule, acceptor atom, score
      L1  H     9    22       P1  7948  1.20
      L1  H     9    25       P1  7957  1.00
      P1  H  7997  8008       L1    12  0.60

> <Gold.PLP.Chemscore.Internal.Correction>
0.2777

> <Gold.Rescore>
     Score         DG    S(hbond)    S(metal)    S(lipo)     H(rot)  DE(clash)    DE(int)     intcor
     12.42     -12.74       1.64        0.00      55.20       1.83       0.18       0.14       ----

> <Gold.Chemscore.Fitness>
12.4202

> <Gold.Chemscore.DG>
-12.7438

> <Gold.Chemscore.ZeroCoef>
-5.4800

> <Gold.Chemscore.Hbond>
1.6446

> <Gold.Chemscore.Metal>
0.0000

> <Gold.Chemscore.Lipo>
55.2018

> <Gold.Chemscore.Internal_Hbond>
0.0000

> <Gold.Chemscore.DEClash>
0.1799

> <Gold.Chemscore.DEInternal>
0.1438

> <Gold.Chemscore.Rot>
1.8312

> <Gold.Chemscore.Internal.Correction>
   9.000000E+99

> <Gold.Chemscore.Hbonds>
donor molecule, donor type, donor heavy atom, donor atom, acceptor molecule, acceptor atom, score
      L1  H     9    22       P1  7948  0.52
      L1  H     9    25       P1  7957  0.74
      P1  H  7997  8008       L1    12  0.04

> <Gold.Chemscore.Hbond.Weighted>
-5.4931

> <Gold.Chemscore.Metal.Weighted>
-0.0000

> <Gold.Chemscore.Lipo.Weighted>
-6.4586

> <Gold.Chemscore.Internal_Hbond.Weighted>
0.0000

> <Gold.Chemscore.DEClash.Weighted>
0.1799

> <Gold.Chemscore.DEInternal.Weighted>
0.1438

> <Gold.Chemscore.Rot.Weighted>
4.6879

> <Gold.Chemscore.Internal.Correction.Weighted>
   9.000000E+99

> <Gold.Protein.RotatedTorsions>
[ 6907 6896 6895 6894 ] final  -95.41 input  -60.11 | X-H torsion
[ 7974 7965 7964 7962 ] final -107.42 input  175.53 | X-H torsion
[ 8008 7997 7996 7995 ] final  -87.65 input   59.86 | X-H torsion
[ 10167 10162 10161 10158 ] final   13.18 input  -65.29 | X-H torsion
[ 10718 10713 10712 10709 ] final -132.07 input   66.30 | X-H torsion
[ 10763 10752 10751 10750 ] final -164.66 input  -60.55 | X-H torsion
[ 11005 11000 10999 10996 ] final  -59.95 input  -57.11 | X-H torsion

> <Gold.Protein.ActiveResidues>
 VAL166  LYS551  ARG553  GLY616  TRP617  ASP618  TYR619  PRO620  LYS621  CYS622 
 ASP623  PHE694  ASN695  SER759  ASP760  ASP761  ALA762  ILE779  LEU786  VAL792 
 PHE793  MET794  SER795  GLU796  ALA797  LYS798  CYS799  TRP800  GLU811  SER814 

> <Gold.Protein.RotatedAtoms>
  150.6963  134.1662  159.4194 H   0  0  0  0  0  0  0  0  0  0  0  0  # atno 6907 bound_to 6896
  151.9641  135.0107  160.0558 H   0  0  0  0  0  0  0  0  0  0  0  0  # atno 6908 bound_to 6896
  152.1900  133.4731  159.5040 H   0  0  0  0  0  0  0  0  0  0  0  0  # atno 6909 bound_to 6896
  145.2056  140.9075  143.3344 H   0  0  0  0  0  0  0  0  0  0  0  0  # atno 7974 bound_to 7965
  154.6657  140.0563  157.0111 H   0  0  0  0  0  0  0  0  0  0  0  0  # atno 8008 bound_to 7997
  155.1162  140.3243  155.4490 H   0  0  0  0  0  0  0  0  0  0  0  0  # atno 8009 bound_to 7997
  156.2637  140.2005  156.6286 H   0  0  0  0  0  0  0  0  0  0  0  0  # atno 8010 bound_to 7997
  140.6019  143.8586  150.6974 H   0  0  0  0  0  0  0  0  0  0  0  0  # atno 10167 bound_to 10162
  156.2308  130.7036  151.0856 H   0  0  0  0  0  0  0  0  0  0  0  0  # atno 10718 bound_to 10713
  154.7007  135.2987  154.9345 H   0  0  0  0  0  0  0  0  0  0  0  0  # atno 10763 bound_to 10752
  154.0278  135.6674  153.4782 H   0  0  0  0  0  0  0  0  0  0  0  0  # atno 10764 bound_to 10752
  153.0679  135.5077  154.8149 H   0  0  0  0  0  0  0  0  0  0  0  0  # atno 10765 bound_to 10752
  141.1268  133.6619  156.5150 H   0  0  0  0  0  0  0  0  0  0  0  0  # atno 11005 bound_to 11000
  144.9905  139.3694  143.6217 LP  0  0  0  0  0  0  0  0  0  0  0  0  # atno 17320 bound_to 7965
  146.3408  139.9086  142.8783 LP  0  0  0  0  0  0  0  0  0  0  0  0  # atno 17321 bound_to 7965
  140.2134  143.3865  152.1700 LP  0  0  0  0  0  0  0  0  0  0  0  0  # atno 17342 bound_to 10162
  139.5297  144.7145  151.5099 LP  0  0  0  0  0  0  0  0  0  0  0  0  # atno 17343 bound_to 10162
  157.7132  131.0723  150.6424 LP  0  0  0  0  0  0  0  0  0  0  0  0  # atno 17370 bound_to 10713
  156.6491  130.4480  149.5725 LP  0  0  0  0  0  0  0  0  0  0  0  0  # atno 17371 bound_to 10713
  140.4338  134.7077  157.4956 LP  0  0  0  0  0  0  0  0  0  0  0  0  # atno 17394 bound_to 11000
  140.0275  134.6455  155.9152 LP  0  0  0  0  0  0  0  0  0  0  0  0  # atno 17395 bound_to 11000

$$$$
