AV-unprocessed.smi:654|AV-procd|sdf|3213|dock1
  -GOLD-   22720 0153D 1   1.00000     0.00000
 Structure written by MMmdl.
 48 50  0  0  0  0  0  0  0  0  2 V2000
  150.7899  137.1772  159.7850 O   0  0  0  0  0  0  0  0  0  0  0  0
  149.9835  137.5087  158.9153 C   0  0  0  0  0  0  0  0  0  0  0  0
  150.1262  138.6425  158.2084 N   0  0  0  0  0  0  0  0  0  0  0  0
  151.2193  139.5996  158.3530 C   0  0  0  0  0  0  0  0  0  0  0  0
  151.0789  140.8212  157.4227 C   0  0  0  0  0  0  0  0  0  0  0  0
  151.5175  142.1272  158.0630 C   0  0  0  0  0  0  0  0  0  0  0  0
  151.3230  143.3563  157.3954 C   0  0  0  0  0  0  0  0  0  0  0  0
  151.7486  144.5523  158.0104 C   0  0  0  0  0  0  0  0  0  0  0  0
  152.3583  144.4919  159.2803 C   0  0  0  0  0  0  0  0  0  0  0  0
  152.5266  143.2976  159.8892 N   0  3  0  0  0  0  0  0  0  0  0  0
  152.1328  142.1308  159.3341 C   0  0  0  0  0  0  0  0  0  0  0  0
  148.8866  136.7737  158.5978 N   0  0  0  0  0  0  0  0  0  0  0  0
  147.7239  137.2389  157.8256 C   0  0  0  0  0  0  0  0  0  0  0  0
  146.5588  137.4984  158.7887 C   0  0  0  0  0  0  0  0  0  0  0  0
  146.0555  135.9618  159.6220 S   0  0  0  0  0  0  0  0  0  0  0  0
  147.6632  135.3315  160.2394 C   0  0  0  0  0  0  0  0  0  0  0  0
  148.1354  136.1515  161.4708 C   0  0  0  0  0  0  0  0  0  0  0  0
  147.2505  135.9528  162.7147 C   0  0  0  0  0  0  0  0  0  0  0  0
  147.1337  134.4691  163.0865 C   0  0  0  0  0  0  0  0  0  0  0  0
  146.6161  133.6484  161.8985 C   0  0  0  0  0  0  0  0  0  0  0  0
  147.5018  133.8475  160.6552 C   0  0  0  0  0  0  0  0  0  0  0  0
  148.6993  135.3986  159.0838 C   0  0  0  0  0  0  0  0  0  0  0  0
  149.4205  138.8583  157.5193 H   0  0  0  0  0  0  0  0  0  0  0  0
  151.2190  139.9332  159.3909 H   0  0  0  0  0  0  0  0  0  0  0  0
  152.1779  139.1045  158.1902 H   0  0  0  0  0  0  0  0  0  0  0  0
  151.6610  140.6595  156.5148 H   0  0  0  0  0  0  0  0  0  0  0  0
  150.0422  140.9187  157.0981 H   0  0  0  0  0  0  0  0  0  0  0  0
  150.8561  143.3831  156.4215 H   0  0  0  0  0  0  0  0  0  0  0  0
  151.6094  145.5021  157.5147 H   0  0  0  0  0  0  0  0  0  0  0  0
  152.7136  145.3557  159.8231 H   0  0  0  0  0  0  0  0  0  0  0  0
  152.3258  141.2413  159.9168 H   0  0  0  0  0  0  0  0  0  0  0  0
  147.9240  138.1334  157.2355 H   0  0  0  0  0  0  0  0  0  0  0  0
  147.4386  136.4819  157.0936 H   0  0  0  0  0  0  0  0  0  0  0  0
  146.8352  138.2435  159.5353 H   0  0  0  0  0  0  0  0  0  0  0  0
  145.7005  137.8956  158.2471 H   0  0  0  0  0  0  0  0  0  0  0  0
  149.1563  135.8612  161.7228 H   0  0  0  0  0  0  0  0  0  0  0  0
  148.1785  137.2149  161.2372 H   0  0  0  0  0  0  0  0  0  0  0  0
  147.6659  136.5104  163.5544 H   0  0  0  0  0  0  0  0  0  0  0  0
  146.2574  136.3662  162.5367 H   0  0  0  0  0  0  0  0  0  0  0  0
  148.1088  134.0909  163.3966 H   0  0  0  0  0  0  0  0  0  0  0  0
  146.4679  134.3495  163.9417 H   0  0  0  0  0  0  0  0  0  0  0  0
  146.5892  132.5916  162.1652 H   0  0  0  0  0  0  0  0  0  0  0  0
  145.5868  133.9316  161.6766 H   0  0  0  0  0  0  0  0  0  0  0  0
  147.0961  133.2685  159.8248 H   0  0  0  0  0  0  0  0  0  0  0  0
  148.4844  133.4219  160.8640 H   0  0  0  0  0  0  0  0  0  0  0  0
  148.3716  134.7691  158.2549 H   0  0  0  0  0  0  0  0  0  0  0  0
  149.6435  134.9572  159.4072 H   0  0  0  0  0  0  0  0  0  0  0  0
  152.9698  143.2756  160.8081 H   0  0  0  0  0  0  0  0  0  0  0  0
  1  2  2  0  0  0  0
  2  3  1  0  0  0  0
  2 12  1  0  0  0  0
  3  4  1  0  0  0  0
  3 23  1  0  0  0  0
  4  5  1  0  0  0  0
  4 24  1  0  0  0  0
  4 25  1  0  0  0  0
  5  6  1  0  0  0  0
  5 26  1  0  0  0  0
  5 27  1  0  0  0  0
  6 11  1  0  0  0  0
  6  7  2  0  0  0  0
  7  8  1  0  0  0  0
  7 28  1  0  0  0  0
  8  9  2  0  0  0  0
  8 29  1  0  0  0  0
  9 10  1  0  0  0  0
  9 30  1  0  0  0  0
 10 11  2  0  0  0  0
 10 48  1  0  0  0  0
 11 31  1  0  0  0  0
 12 22  1  0  0  0  0
 12 13  1  0  0  0  0
 13 14  1  0  0  0  0
 13 32  1  0  0  0  0
 13 33  1  0  0  0  0
 14 15  1  0  0  0  0
 14 34  1  0  0  0  0
 14 35  1  0  0  0  0
 15 16  1  0  0  0  0
 16 21  1  0  0  0  0
 16 17  1  0  0  0  0
 16 22  1  0  0  0  0
 17 18  1  0  0  0  0
 17 36  1  0  0  0  0
 17 37  1  0  0  0  0
 18 19  1  0  0  0  0
 18 38  1  0  0  0  0
 18 39  1  0  0  0  0
 19 20  1  0  0  0  0
 19 40  1  0  0  0  0
 19 41  1  0  0  0  0
 20 21  1  0  0  0  0
 20 42  1  0  0  0  0
 20 43  1  0  0  0  0
 21 44  1  0  0  0  0
 21 45  1  0  0  0  0
 22 46  1  0  0  0  0
 22 47  1  0  0  0  0
M  CHG  1  10   1
M  END
> <s_m_source_file>
AV-unprocessed.smi

> <i_m_source_file_index>
654

> <i_lp_mmshare_version>
43012

> <i_f3d_flags>
0

> <s_epik_input>
W2NIXTFuW2NIXVtjSF1bY0hdYzFbQ0gyXVtDSDJdW05IXUMoPU8pTihbQ0gyXTIpW0NIMl1bQ0gyXVNDMjNbQ0gyXVtDSDJdW0NIMl1bQ0gyXVtDSDJdMw==

> <s_epik_cmdline>
J2VwaWtfcHl0aG9uJywgJy1waCcsICc3LjAnLCAnLXRuJywgJzgnLCAnLW1hJywgJzIwMCcsICctbWV0YWxfYmluZGluZycsICctaW1hZScsICc8aW5maWxlLm1hZT4nLCAnLW9tYWUnLCAnPG91dGZpbGUubWFlPic=

> <r_epik_Ionization_Penalty>
2.2093

> <r_epik_Ionization_Penalty_Charging>
2.20925

> <r_epik_Ionization_Penalty_Neutral>
4.66963e-05

> <r_epik_State_Penalty>
2.35335

> <r_epik_Charging_Adjusted_Penalty>
4.5626

> <i_epik_Tot_Q>
1

> <i_epik_Tot_abs_Q>
1

> <r_epik_Metal_State_Penalty>
2.36748

> <b_epik_Metal_Only>
0

> <s_lp_Force_Field>
OPLS_2005

> <r_lp_Energy>
39.5462

> <b_lp_Chiralities_Consistent>
1

> <s_lp_Variant>
AV-unprocessed.smi:654-2

> <Gold.Version>
5.8.1

> <Gold.Id.Protein>
6NUR|6NUR_protein|mol2

> <Gold.PLP.Fitness>
44.4575

> <Gold.PLP.PLP>
-42.5478

> <Gold.PLP.part.hbond>
-0.9385

> <Gold.PLP.part.metal>
0.0000

> <Gold.PLP.part.buried>
-5.1912

> <Gold.PLP.part.nonpolar>
-37.8713

> <Gold.PLP.part.repulsive>
0.1586

> <Gold.PLP.ligand.clash>
0.0000

> <Gold.PLP.ligand.torsion>
0.3932

> <Gold.PLP.Chemscore.Hbond>
0.8938

> <Gold.PLP.Chemscore.CHOScore>
0.0000

> <Gold.PLP.Chemscore.Metal>
0.0000

> <Gold.Chemscore.Hbonds>
donor molecule, donor type, donor heavy atom, donor atom, acceptor molecule, acceptor atom, score
      P1  H  6896  6907       L1     1  0.83

> <Gold.PLP.Chemscore.Internal.Correction>
0.0149

> <Gold.Rescore>
     Score         DG    S(hbond)    S(metal)    S(lipo)     H(rot)  DE(clash)    DE(int)     intcor
     19.35     -19.70       0.94        0.00     123.11       1.30       0.03       0.31       ----

> <Gold.Chemscore.Fitness>
19.3512

> <Gold.Chemscore.DG>
-19.6985

> <Gold.Chemscore.ZeroCoef>
-5.4800

> <Gold.Chemscore.Hbond>
0.9372

> <Gold.Chemscore.Metal>
0.0000

> <Gold.Chemscore.Lipo>
123.1132

> <Gold.Chemscore.Internal_Hbond>
0.0000

> <Gold.Chemscore.DEClash>
0.0324

> <Gold.Chemscore.DEInternal>
0.3149

> <Gold.Chemscore.Rot>
1.2953

> <Gold.Chemscore.Internal.Correction>
   9.000000E+99

> <Gold.Chemscore.Hbonds>
donor molecule, donor type, donor heavy atom, donor atom, acceptor molecule, acceptor atom, score
      P1  H  6896  6907       L1     1  0.76

> <Gold.Chemscore.Hbond.Weighted>
-3.1302

> <Gold.Chemscore.Metal.Weighted>
-0.0000

> <Gold.Chemscore.Lipo.Weighted>
-14.4042

> <Gold.Chemscore.Internal_Hbond.Weighted>
0.0000

> <Gold.Chemscore.DEClash.Weighted>
0.0324

> <Gold.Chemscore.DEInternal.Weighted>
0.3149

> <Gold.Chemscore.Rot.Weighted>
3.3159

> <Gold.Chemscore.Internal.Correction.Weighted>
   9.000000E+99

> <Gold.Protein.RotatedTorsions>
[ 6907 6896 6895 6894 ] final  -20.40 input  -60.11 | X-H torsion
[ 7974 7965 7964 7962 ] final    2.40 input  175.53 | X-H torsion
[ 8008 7997 7996 7995 ] final   57.77 input   59.86 | X-H torsion
[ 10167 10162 10161 10158 ] final -152.14 input  -65.29 | X-H torsion
[ 10718 10713 10712 10709 ] final    0.06 input   66.30 | X-H torsion
[ 10763 10752 10751 10750 ] final  -69.71 input  -60.55 | X-H torsion
[ 11005 11000 10999 10996 ] final  -49.39 input  -57.11 | X-H torsion

> <Gold.Protein.ActiveResidues>
 VAL166  LYS551  ARG553  GLY616  TRP617  ASP618  TYR619  PRO620  LYS621  CYS622 
 ASP623  PHE694  ASN695  SER759  ASP760  ASP761  ALA762  ILE779  LEU786  VAL792 
 PHE793  MET794  SER795  GLU796  ALA797  LYS798  CYS799  TRP800  GLU811  SER814 

> <Gold.Protein.RotatedAtoms>
  151.2488  135.0615  159.9053 H   0  0  0  0  0  0  0  0  0  0  0  0  # atno 6907 bound_to 6896
  152.5383  134.0355  159.8054 H   0  0  0  0  0  0  0  0  0  0  0  0  # atno 6908 bound_to 6896
  151.0560  133.5535  159.2669 H   0  0  0  0  0  0  0  0  0  0  0  0  # atno 6909 bound_to 6896
  146.2443  140.0842  142.8355 H   0  0  0  0  0  0  0  0  0  0  0  0  # atno 7974 bound_to 7965
  155.5391  140.3484  155.4443 H   0  0  0  0  0  0  0  0  0  0  0  0  # atno 8008 bound_to 7997
  156.0664  140.1352  156.9907 H   0  0  0  0  0  0  0  0  0  0  0  0  # atno 8009 bound_to 7997
  154.4505  140.0974  156.6578 H   0  0  0  0  0  0  0  0  0  0  0  0  # atno 8010 bound_to 7997
  139.7207  143.8962  152.2502 H   0  0  0  0  0  0  0  0  0  0  0  0  # atno 10167 bound_to 10162
  156.8278  130.5478  149.5690 H   0  0  0  0  0  0  0  0  0  0  0  0  # atno 10718 bound_to 10713
  154.4073  135.6017  153.5932 H   0  0  0  0  0  0  0  0  0  0  0  0  # atno 10763 bound_to 10752
  152.9789  135.5921  154.4112 H   0  0  0  0  0  0  0  0  0  0  0  0  # atno 10764 bound_to 10752
  154.3919  135.2842  155.2128 H   0  0  0  0  0  0  0  0  0  0  0  0  # atno 10765 bound_to 10752
  141.0756  133.6667  156.3578 H   0  0  0  0  0  0  0  0  0  0  0  0  # atno 11005 bound_to 11000
  145.0707  140.9153  143.4884 LP  0  0  0  0  0  0  0  0  0  0  0  0  # atno 17320 bound_to 7965
  145.0975  139.2846  143.5703 LP  0  0  0  0  0  0  0  0  0  0  0  0  # atno 17321 bound_to 7965
  139.8857  144.6993  150.8827 LP  0  0  0  0  0  0  0  0  0  0  0  0  # atno 17342 bound_to 10162
  140.7753  143.3626  151.1800 LP  0  0  0  0  0  0  0  0  0  0  0  0  # atno 17343 bound_to 10162
  156.0951  130.5926  150.9800 LP  0  0  0  0  0  0  0  0  0  0  0  0  # atno 17370 bound_to 10713
  157.6422  131.0908  150.8227 LP  0  0  0  0  0  0  0  0  0  0  0  0  # atno 17371 bound_to 10713
  140.5580  134.5962  157.5426 LP  0  0  0  0  0  0  0  0  0  0  0  0  # atno 17394 bound_to 11000
  139.9568  134.7520  156.0323 LP  0  0  0  0  0  0  0  0  0  0  0  0  # atno 17395 bound_to 11000

$$$$
