AV-unprocessed.smi:316|AV-procd|sdf|2324|dock6
  -GOLD-   2262022223D 1   1.00000     0.00000
 Structure written by MMmdl.
 42 43  0  0  0  0  0  0  0  0  1 V2000
  147.9598  139.2761  153.3303 C   0  0  0  0  0  0  0  0  0  0  0  0
  149.1133  138.4353  153.6111 N   0  0  0  0  0  0  0  0  0  0  0  0
  150.2064  138.8484  154.2685 C   0  0  0  0  0  0  0  0  0  0  0  0
  150.3366  139.9905  154.7096 O   0  0  0  0  0  0  0  0  0  0  0  0
  151.3185  137.8150  154.4619 C   0  0  0  0  0  0  0  0  0  0  0  0
  150.8096  136.5308  155.1448 C   0  0  0  0  0  0  0  0  0  0  0  0
  149.9164  135.7742  154.2747 N   0  0  0  0  0  0  0  0  0  0  0  0
  149.5216  134.5115  154.4906 C   0  0  0  0  0  0  0  0  0  0  0  0
  149.8842  133.8422  155.4582 O   0  0  0  0  0  0  0  0  0  0  0  0
  148.7077  134.0831  153.5115 N   0  0  0  0  0  0  0  0  0  0  0  0
  148.1466  132.7860  153.3385 C   0  0  0  0  0  0  0  0  0  0  0  0
  148.5677  131.6834  154.1219 C   0  0  0  0  0  0  0  0  0  0  0  0
  147.9374  130.4384  153.9562 C   0  0  0  0  0  0  0  0  0  0  0  0
  146.8924  130.3417  153.0225 C   0  0  0  0  0  0  0  0  0  0  0  0
  146.4689  131.3843  152.2807 N   0  0  0  0  0  0  0  0  0  0  0  0
  147.0770  132.5884  152.4184 C   0  0  0  0  0  0  0  0  0  0  0  0
  146.6022  133.6409  151.6026 N   0  0  0  0  0  0  0  0  0  0  0  0
  146.1095  134.8778  152.2000 C   0  0  0  0  0  0  0  0  0  0  0  0
  145.3338  135.5734  151.0852 C   0  0  0  0  0  0  0  0  0  0  0  0
  144.7101  134.3973  150.3401 C   0  0  0  0  0  0  0  0  0  0  0  0
  145.7678  133.2944  150.4555 C   0  0  0  0  0  0  0  0  0  0  0  0
  147.2184  138.7129  152.7634 H   0  0  0  0  0  0  0  0  0  0  0  0
  148.2485  140.1479  152.7416 H   0  0  0  0  0  0  0  0  0  0  0  0
  147.4948  139.6181  154.2556 H   0  0  0  0  0  0  0  0  0  0  0  0
  149.0830  137.4819  153.2794 H   0  0  0  0  0  0  0  0  0  0  0  0
  151.7416  137.5768  153.4855 H   0  0  0  0  0  0  0  0  0  0  0  0
  152.1238  138.2583  155.0501 H   0  0  0  0  0  0  0  0  0  0  0  0
  151.6458  135.8996  155.4521 H   0  0  0  0  0  0  0  0  0  0  0  0
  150.2582  136.7790  156.0523 H   0  0  0  0  0  0  0  0  0  0  0  0
  149.5721  136.2480  153.4524 H   0  0  0  0  0  0  0  0  0  0  0  0
  148.5666  134.7195  152.7406 H   0  0  0  0  0  0  0  0  0  0  0  0
  149.3470  131.7759  154.8627 H   0  0  0  0  0  0  0  0  0  0  0  0
  148.2394  129.5820  154.5406 H   0  0  0  0  0  0  0  0  0  0  0  0
  146.3780  129.4043  152.8711 H   0  0  0  0  0  0  0  0  0  0  0  0
  145.4361  134.6672  153.0320 H   0  0  0  0  0  0  0  0  0  0  0  0
  146.9293  135.4942  152.5697 H   0  0  0  0  0  0  0  0  0  0  0  0
  144.5964  136.2839  151.4596 H   0  0  0  0  0  0  0  0  0  0  0  0
  146.0211  136.1086  150.4283 H   0  0  0  0  0  0  0  0  0  0  0  0
  143.7971  134.0854  150.8493 H   0  0  0  0  0  0  0  0  0  0  0  0
  144.4546  134.6335  149.3068 H   0  0  0  0  0  0  0  0  0  0  0  0
  146.3899  133.2828  149.5603 H   0  0  0  0  0  0  0  0  0  0  0  0
  145.3083  132.3106  150.5612 H   0  0  0  0  0  0  0  0  0  0  0  0
  1  2  1  0  0  0  0
  1 22  1  0  0  0  0
  1 23  1  0  0  0  0
  1 24  1  0  0  0  0
  2  3  1  0  0  0  0
  2 25  1  0  0  0  0
  3  4  2  0  0  0  0
  3  5  1  0  0  0  0
  5  6  1  0  0  0  0
  5 26  1  0  0  0  0
  5 27  1  0  0  0  0
  6  7  1  0  0  0  0
  6 28  1  0  0  0  0
  6 29  1  0  0  0  0
  7  8  1  0  0  0  0
  7 30  1  0  0  0  0
  8  9  2  0  0  0  0
  8 10  1  0  0  0  0
 10 11  1  0  0  0  0
 10 31  1  0  0  0  0
 11 16  1  0  0  0  0
 11 12  2  0  0  0  0
 12 13  1  0  0  0  0
 12 32  1  0  0  0  0
 13 14  2  0  0  0  0
 13 33  1  0  0  0  0
 14 15  1  0  0  0  0
 14 34  1  0  0  0  0
 15 16  2  0  0  0  0
 16 17  1  0  0  0  0
 17 21  1  0  0  0  0
 17 18  1  0  0  0  0
 18 19  1  0  0  0  0
 18 35  1  0  0  0  0
 18 36  1  0  0  0  0
 19 20  1  0  0  0  0
 19 37  1  0  0  0  0
 19 38  1  0  0  0  0
 20 21  1  0  0  0  0
 20 39  1  0  0  0  0
 20 40  1  0  0  0  0
 21 41  1  0  0  0  0
 21 42  1  0  0  0  0
M  END
> <s_m_source_file>
AV-unprocessed.smi

> <i_m_source_file_index>
316

> <i_lp_mmshare_version>
43012

> <i_f3d_flags>
0

> <s_epik_input>
W0NIM11bTkhdQyg9TylbQ0gyXVtDSDJdW05IXUMoPU8pW05IXWMxW2NIXVtjSF1bY0hdbmMxTjJbQ0gyXVtDSDJdW0NIMl1bQ0gyXTI=

> <s_epik_cmdline>
J2VwaWtfcHl0aG9uJywgJy1waCcsICc3LjAnLCAnLXRuJywgJzgnLCAnLW1hJywgJzIwMCcsICctbWV0YWxfYmluZGluZycsICctaW1hZScsICc8aW5maWxlLm1hZT4nLCAnLW9tYWUnLCAnPG91dGZpbGUubWFlPic=

> <r_lp_tautomer_probability>
1

> <r_epik_Ionization_Penalty>
0.0916714

> <r_epik_Ionization_Penalty_Charging>
0

> <r_epik_Ionization_Penalty_Neutral>
0.0916714

> <r_epik_State_Penalty>
0.0814442

> <r_epik_Charging_Adjusted_Penalty>
0.0814442

> <i_epik_Tot_Q>
0

> <i_epik_Tot_abs_Q>
0

> <r_epik_Metal_State_Penalty>
0.0705089

> <b_epik_Metal_Only>
0

> <s_lp_Force_Field>
OPLS_2005

> <r_lp_Energy>
29.6087

> <b_lp_Chiralities_Consistent>
1

> <s_lp_Variant>
AV-unprocessed.smi:316-1

> <Gold.Version>
5.8.1

> <Gold.Id.Protein>
6NUR|6NUR_protein|mol2

> <Gold.PLP.Fitness>
46.6310

> <Gold.PLP.PLP>
-35.0310

> <Gold.PLP.part.hbond>
-6.0000

> <Gold.PLP.part.metal>
0.0000

> <Gold.PLP.part.buried>
-0.0270

> <Gold.PLP.part.nonpolar>
-29.7423

> <Gold.PLP.part.repulsive>
0.5546

> <Gold.PLP.ligand.clash>
0.0000

> <Gold.PLP.ligand.torsion>
0.3654

> <Gold.PLP.Chemscore.Hbond>
3.9920

> <Gold.PLP.Chemscore.CHOScore>
0.0000

> <Gold.PLP.Chemscore.Metal>
0.0000

> <Gold.Chemscore.Hbonds>
donor molecule, donor type, donor heavy atom, donor atom, acceptor molecule, acceptor atom, score
      L1  H     2    25       P1  7948  0.99
      L1  H     7    30       P1  7948  1.00
      L1  H    10    31       P1  7948  0.95
      P1  H  7989  7998       L1     4  1.00

> <Gold.PLP.Chemscore.Internal.Correction>
0.3548

> <Gold.Rescore>
     Score         DG    S(hbond)    S(metal)    S(lipo)     H(rot)  DE(clash)    DE(int)     intcor
     12.97     -17.21       2.83        0.00      61.96       1.94       0.12       4.12       ----

> <Gold.Chemscore.Fitness>
12.9723

> <Gold.Chemscore.DG>
-17.2081

> <Gold.Chemscore.ZeroCoef>
-5.4800

> <Gold.Chemscore.Hbond>
2.8306

> <Gold.Chemscore.Metal>
0.0000

> <Gold.Chemscore.Lipo>
61.9639

> <Gold.Chemscore.Internal_Hbond>
0.0000

> <Gold.Chemscore.DEClash>
0.1191

> <Gold.Chemscore.DEInternal>
4.1166

> <Gold.Chemscore.Rot>
1.9437

> <Gold.Chemscore.Internal.Correction>
   9.000000E+99

> <Gold.Chemscore.Hbonds>
donor molecule, donor type, donor heavy atom, donor atom, acceptor molecule, acceptor atom, score
      L1  H     2    25       P1  7948  0.94
      L1  H     7    30       P1  7948  0.43
      L1  H    10    31       P1  7948  0.21
      P1  H  7989  7998       L1     4  0.49

> <Gold.Chemscore.Hbond.Weighted>
-9.4542

> <Gold.Chemscore.Metal.Weighted>
-0.0000

> <Gold.Chemscore.Lipo.Weighted>
-7.2498

> <Gold.Chemscore.Internal_Hbond.Weighted>
0.0000

> <Gold.Chemscore.DEClash.Weighted>
0.1191

> <Gold.Chemscore.DEInternal.Weighted>
4.1166

> <Gold.Chemscore.Rot.Weighted>
4.9759

> <Gold.Chemscore.Internal.Correction.Weighted>
   9.000000E+99

> <Gold.Protein.RotatedTorsions>
[ 6907 6896 6895 6894 ] final  -26.08 input  -60.11 | X-H torsion
[ 7974 7965 7964 7962 ] final  -90.52 input  175.53 | X-H torsion
[ 8008 7997 7996 7995 ] final -129.06 input   59.86 | X-H torsion
[ 10167 10162 10161 10158 ] final -153.72 input  -65.29 | X-H torsion
[ 10718 10713 10712 10709 ] final  144.73 input   66.30 | X-H torsion
[ 10763 10752 10751 10750 ] final   50.17 input  -60.55 | X-H torsion
[ 11005 11000 10999 10996 ] final   89.34 input  -57.11 | X-H torsion

> <Gold.Protein.ActiveResidues>
 VAL166  LYS551  ARG553  GLY616  TRP617  ASP618  TYR619  PRO620  LYS621  CYS622 
 ASP623  PHE694  ASN695  SER759  ASP760  ASP761  ALA762  ILE779  LEU786  VAL792 
 PHE793  MET794  SER795  GLU796  ALA797  LYS798  CYS799  TRP800  GLU811  SER814 

> <Gold.Protein.RotatedAtoms>
  151.1661  135.0296  159.8731 H   0  0  0  0  0  0  0  0  0  0  0  0  # atno 6907 bound_to 6896
  152.5450  134.1224  159.8414 H   0  0  0  0  0  0  0  0  0  0  0  0  # atno 6908 bound_to 6896
  151.1324  133.4981  159.2631 H   0  0  0  0  0  0  0  0  0  0  0  0  # atno 6909 bound_to 6896
  145.4253  140.9553  143.2158 H   0  0  0  0  0  0  0  0  0  0  0  0  # atno 7974 bound_to 7965
  155.2729  140.0441  157.3008 H   0  0  0  0  0  0  0  0  0  0  0  0  # atno 8008 bound_to 7997
  154.5642  140.2355  155.8257 H   0  0  0  0  0  0  0  0  0  0  0  0  # atno 8009 bound_to 7997
  156.2072  140.3009  155.9660 H   0  0  0  0  0  0  0  0  0  0  0  0  # atno 8010 bound_to 7997
  139.7073  143.9165  152.2454 H   0  0  0  0  0  0  0  0  0  0  0  0  # atno 10167 bound_to 10162
  157.3537  131.0954  151.0977 H   0  0  0  0  0  0  0  0  0  0  0  0  # atno 10718 bound_to 10713
  152.9785  135.5888  154.4208 H   0  0  0  0  0  0  0  0  0  0  0  0  # atno 10763 bound_to 10752
  154.3833  135.2767  155.2200 H   0  0  0  0  0  0  0  0  0  0  0  0  # atno 10764 bound_to 10752
  154.4105  135.6082  153.6004 H   0  0  0  0  0  0  0  0  0  0  0  0  # atno 10765 bound_to 10752
  139.8877  134.8545  156.3128 H   0  0  0  0  0  0  0  0  0  0  0  0  # atno 11005 bound_to 11000
  144.8218  139.5778  143.6983 LP  0  0  0  0  0  0  0  0  0  0  0  0  # atno 17320 bound_to 7965
  146.2635  139.6466  142.9345 LP  0  0  0  0  0  0  0  0  0  0  0  0  # atno 17321 bound_to 7965
  139.9024  144.6904  150.8650 LP  0  0  0  0  0  0  0  0  0  0  0  0  # atno 17342 bound_to 10162
  140.7725  143.3503  151.2027 LP  0  0  0  0  0  0  0  0  0  0  0  0  # atno 17343 bound_to 10162
  157.2144  130.6452  149.5786 LP  0  0  0  0  0  0  0  0  0  0  0  0  # atno 17370 bound_to 10713
  155.9725  130.4649  150.6236 LP  0  0  0  0  0  0  0  0  0  0  0  0  # atno 17371 bound_to 10713
  140.9839  133.7250  156.0712 LP  0  0  0  0  0  0  0  0  0  0  0  0  # atno 17394 bound_to 11000
  140.7714  134.3828  157.5507 LP  0  0  0  0  0  0  0  0  0  0  0  0  # atno 17395 bound_to 11000

$$$$
