#       Name:                AV-unprocessed.smi:1
#       Creating user name   scv26
#       Creation time:       Thu Mar 26 15:13:19 2020


#       File generated by GOLD software.
#

@<TRIPOS>MOLECULE
AV-unprocessed.smi:1
    66    71     1
SMALL
NO_CHARGES


@<TRIPOS>ATOM
      1 ****        -4.8605  -0.2707   2.7703 O.2            1 S1                 0.0000
      2 ****        -5.2561  -0.1697   1.6069 C.2            1 S1                 0.0000
      3 ****        -4.5618   0.2645   0.5247 N.pl3          1 S1                -1.0000
      4 ****        -3.2657   0.5887   0.6466 C.ar           1 S1                 0.0000
      5 ****        -2.8962   1.8795   0.8468 N.ar           1 S1                 0.0000
      6 ****        -1.6026   2.2025   0.9576 C.ar           1 S1                 0.0000
      7 ****        -0.5299   1.4084   0.8922 N.ar           1 S1                 0.0000
      8 ****        -0.8873   0.1068   0.6860 C.ar           1 S1                 0.0000
      9 ****        -2.2228  -0.3729   0.5511 C.ar           1 S1                 0.0000
     10 ****        -2.2358  -1.7447   0.3462 N.2            1 S1                 0.0000
     11 ****        -0.9366  -2.0321   0.3712 C.2            1 S1                 0.0000
     12 ****        -0.0776  -1.0127   0.5672 N.pl3          1 S1                 0.0000
     13 ****         1.4130  -1.0939   0.6481 C.3            1 S1                 0.0000
     14 ****         1.9545   0.1028   0.1839 O.3            1 S1                 0.0000
     15 ****         3.1736   0.3772   0.8632 C.3            1 S1                 0.0000
     16 ****         4.3287  -0.3382   0.1447 C.3            1 S1                 0.0000
     17 ****         4.5959   0.3261  -1.0791 O.3            1 S1                 0.0000
     18 ****         5.4442  -0.2186  -1.9726 C.2            1 S1                 0.0000
     19 ****         6.0263  -1.2907  -1.7950 O.2            1 S1                 0.0000
     20 ****         5.6052   0.6127  -3.2004 C.ar           1 S1                 0.0000
     21 ****         6.4665   0.1680  -4.2304 C.ar           1 S1                 0.0000
     22 ****         6.6399   0.9324  -5.4007 C.ar           1 S1                 0.0000
     23 ****         5.9543   2.1513  -5.5550 C.ar           1 S1                 0.0000
     24 ****         5.0936   2.6042  -4.5382 C.ar           1 S1                 0.0000
     25 ****         4.9184   1.8408  -3.3674 C.ar           1 S1                 0.0000
     26 ****         2.9294  -0.1638   2.2728 C.3            1 S1                 0.0000
     27 ****         2.3502   0.8427   3.0837 O.3            1 S1                 0.0000
     28 ****         1.1377   0.1473   3.9947 S.o2           1 S1                 0.0000
     29 ****         1.7220  -0.2868   5.2730 O.2            1 S1                 0.0000
     30 ****        -0.0556   1.0035   3.9240 O.2            1 S1                 0.0000
     31 ****         0.8809  -1.2111   3.0581 O.3            1 S1                 0.0000
     32 ****         1.9151  -1.3055   2.0877 C.3            1 S1                 0.0000
     33 ****        -6.6940  -0.4921   1.2990 C.ar           1 S1                 0.0000
     34 ****        -7.6986  -0.1872   2.2458 C.ar           1 S1                 0.0000
     35 ****        -9.0466  -0.5038   1.9872 C.ar           1 S1                 0.0000
     36 ****        -9.4036  -1.1374   0.7822 C.ar           1 S1                 0.0000
     37 ****        -8.4107  -1.4588  -0.1620 C.ar           1 S1                 0.0000
     38 ****        -7.0625  -1.1424   0.0957 C.ar           1 S1                 0.0000
     39 ****        -1.3971   3.2497   1.1212 H              1 S1                 0.0000
     40 ****        -0.5878  -3.0465   0.2451 H              1 S1                 0.0000
     41 ****         1.6859  -1.9124  -0.0198 H              1 S1                 0.0000
     42 ****         3.3658   1.4508   0.8853 H              1 S1                 0.0000
     43 ****         5.2285  -0.3066   0.7604 H              1 S1                 0.0000
     44 ****         4.0870  -1.3882  -0.0269 H              1 S1                 0.0000
     45 ****         7.0041  -0.7645  -4.1342 H              1 S1                 0.0000
     46 ****         7.2999   0.5824  -6.1806 H              1 S1                 0.0000
     47 ****         6.0883   2.7378  -6.4520 H              1 S1                 0.0000
     48 ****         4.5663   3.5395  -4.6556 H              1 S1                 0.0000
     49 ****         4.2499   2.2174  -2.6069 H              1 S1                 0.0000
     50 ****         3.8474  -0.5030   2.7541 H              1 S1                 0.0000
     51 ****         2.3982  -2.2811   2.1482 H              1 S1                 0.0000
     52 ****        -7.4410   0.2979   3.1763 H              1 S1                 0.0000
     53 ****        -9.8064  -0.2606   2.7151 H              1 S1                 0.0000
     54 ****       -10.4369  -1.3803   0.5839 H              1 S1                 0.0000
     55 ****        -8.6817  -1.9511  -1.0843 H              1 S1                 0.0000
     56 ****        -6.3145  -1.4069  -0.6380 H              1 S1                 0.0000
     57 ****        -3.9221  -0.0157   3.0032 LP             1 S1                 0.0000
     58 ****        -5.4782  -0.6076   3.4809 LP             1 S1                 0.0000
     59 ****        -5.0159   0.3427  -0.3628 LP             1 S1                 0.0000
     60 ****        -3.5944   2.5925   0.9118 LP             1 S1                 0.0000
     61 ****         0.4138   1.7266   0.9827 LP             1 S1                 0.0000
     62 ****        -3.0158  -2.3565   0.2144 LP             1 S1                 0.0000
     63 ****         1.3071   0.8465   0.3506 LP             1 S1                 0.0000
     64 ****         2.1310   0.0284  -0.7976 LP             1 S1                 0.0000
     65 ****         5.8795  -1.8055  -0.9504 LP             1 S1                 0.0000
     66 ****         6.6455  -1.6455  -2.4956 LP             1 S1                 0.0000
@<TRIPOS>BOND
    1    1    2 2     
    2    2    3 1     
    3    2   33 1     
    4    3    4 1     
    5    4    9 ar    
    6    4    5 ar    
    7    5    6 ar    
    8    6    7 ar    
    9    6   39 1     
   10    7    8 ar    
   11    8   12 1     
   12    8    9 ar    
   13    9   10 1     
   14   10   11 2     
   15   11   12 1     
   16   11   40 1     
   17   12   13 1     
   18   13   32 1     
   19   13   14 1     
   20   13   41 1     
   21   14   15 1     
   22   15   16 1     
   23   15   26 1     
   24   15   42 1     
   25   16   17 1     
   26   16   43 1     
   27   16   44 1     
   28   17   18 1     
   29   18   19 2     
   30   18   20 1     
   31   20   25 ar    
   32   20   21 ar    
   33   21   22 ar    
   34   21   45 1     
   35   22   23 ar    
   36   22   46 1     
   37   23   24 ar    
   38   23   47 1     
   39   24   25 ar    
   40   24   48 1     
   41   25   49 1     
   42   26   32 1     
   43   26   27 1     
   44   26   50 1     
   45   27   28 1     
   46   28   29 2     
   47   28   30 2     
   48   28   31 1     
   49   31   32 1     
   50   32   51 1     
   51   33   38 ar    
   52   33   34 ar    
   53   34   35 ar    
   54   34   52 1     
   55   35   36 ar    
   56   35   53 1     
   57   36   37 ar    
   58   36   54 1     
   59   37   38 ar    
   60   37   55 1     
   61   38   56 1     
   62    1   57 1     
   63    1   58 1     
   64    3   59 1     
   65    5   60 1     
   66    7   61 1     
   67   10   62 1     
   68   14   63 1     
   69   14   64 1     
   70   19   65 1     
   71   19   66 1     
@<TRIPOS>SUBSTRUCTURE
      1 S1             1
@<TRIPOS>SET
LONE_PAIRS      STATIC     ATOMS    <user>   **** ""
12 57 58 59 60 61 62 63 64 65 66 29 30
ATOM$BLUE        STATIC     ATOMS    COLORGROUP SYSTEM
12 57 58 59 60 61 62 63 64 65 66 29 30
