AV-unprocessed.smi:283|AV-procd|sdf|2131|dock10
  -GOLD-   2262021443D 1   1.00000     0.00000
 Structure written by MMmdl.
 48 51  0  0  0  0  0  0  0  0  1 V2000
  150.6387  140.3411  155.8147 C   0  0  0  0  0  0  0  0  0  0  0  0
  149.8428  141.1021  156.8831 C   0  0  2  0  0  0  0  0  0  0  0  0
  148.7627  141.8619  156.2557 N   0  0  0  0  0  0  0  0  0  0  0  0
  147.5408  141.3129  156.0686 C   0  0  0  0  0  0  0  0  0  0  0  0
  146.4194  141.9115  156.5490 N   0  0  0  0  0  0  0  0  0  0  0  0
  145.2239  141.3494  156.3514 C   0  0  0  0  0  0  0  0  0  0  0  0
  144.9328  140.2110  155.7191 N   0  0  0  0  0  0  0  0  0  0  0  0
  146.0551  139.5995  155.2410 C   0  0  0  0  0  0  0  0  0  0  0  0
  147.3863  140.0861  155.3726 C   0  0  0  0  0  0  0  0  0  0  0  0
  148.2708  139.2087  154.7596 N   0  0  0  0  0  0  0  0  0  0  0  0
  147.5033  138.2587  154.2971 C   0  0  0  0  0  0  0  0  0  0  0  0
  146.1566  138.4128  154.5414 N   0  0  0  0  0  0  0  0  0  0  0  0
  145.0504  137.4880  154.1352 C   0  0  1  0  0  0  0  0  0  0  0  0
  145.4097  136.8047  152.9716 O   0  0  0  0  0  0  0  0  0  0  0  0
  144.9839  135.4407  153.0268 C   0  0  1  0  0  0  0  0  0  0  0  0
  146.2401  134.5486  152.9559 C   0  0  0  0  0  0  0  0  0  0  0  0
  146.8466  134.6388  151.6836 O   0  0  0  0  0  0  0  0  0  0  0  0
  144.1505  135.3382  154.3182 C   0  0  1  0  0  0  0  0  0  0  0  0
  144.1325  134.0694  154.9451 O   0  0  0  0  0  0  0  0  0  0  0  0
  144.7131  136.4390  155.2017 C   0  0  1  0  0  0  0  0  0  0  0  0
  145.8365  136.0226  155.9612 O   0  0  0  0  0  0  0  0  0  0  0  0
  150.7802  141.9468  157.7483 C   0  0  0  0  0  0  0  0  0  0  0  0
  150.7208  143.3571  157.6660 C   0  0  0  0  0  0  0  0  0  0  0  0
  151.5716  144.1586  158.4499 C   0  0  0  0  0  0  0  0  0  0  0  0
  152.4946  143.5569  159.3238 C   0  0  0  0  0  0  0  0  0  0  0  0
  152.5679  142.1544  159.4080 C   0  0  0  0  0  0  0  0  0  0  0  0
  151.7202  141.3466  158.6238 C   0  0  0  0  0  0  0  0  0  0  0  0
  151.8644  139.6290  158.7620 Cl  0  0  0  0  0  0  0  0  0  0  0  0
  144.2056  138.1409  153.9119 H   0  0  0  0  0  0  0  0  0  0  0  0
  144.3561  135.2454  152.1563 H   0  0  0  0  0  0  0  0  0  0  0  0
  143.1194  135.5960  154.0713 H   0  0  0  0  0  0  0  0  0  0  0  0
  143.9641  136.8389  155.8860 H   0  0  0  0  0  0  0  0  0  0  0  0
  151.3985  139.7067  156.2721 H   0  0  0  0  0  0  0  0  0  0  0  0
  151.1434  141.0250  155.1313 H   0  0  0  0  0  0  0  0  0  0  0  0
  149.9871  139.6981  155.2225 H   0  0  0  0  0  0  0  0  0  0  0  0
  149.3562  140.3545  157.5080 H   0  0  0  0  0  0  0  0  0  0  0  0
  148.9602  142.8350  156.0719 H   0  0  0  0  0  0  0  0  0  0  0  0
  144.3807  141.8878  156.7581 H   0  0  0  0  0  0  0  0  0  0  0  0
  147.9024  137.4112  153.7588 H   0  0  0  0  0  0  0  0  0  0  0  0
  146.9736  134.8838  153.6897 H   0  0  0  0  0  0  0  0  0  0  0  0
  146.0132  133.5082  153.1876 H   0  0  0  0  0  0  0  0  0  0  0  0
  147.5815  135.2302  151.7429 H   0  0  0  0  0  0  0  0  0  0  0  0
  143.5160  133.5208  154.4837 H   0  0  0  0  0  0  0  0  0  0  0  0
  145.5333  135.4661  156.6624 H   0  0  0  0  0  0  0  0  0  0  0  0
  150.0188  143.8328  156.9969 H   0  0  0  0  0  0  0  0  0  0  0  0
  151.5161  145.2350  158.3795 H   0  0  0  0  0  0  0  0  0  0  0  0
  153.1478  144.1701  159.9271 H   0  0  0  0  0  0  0  0  0  0  0  0
  153.2806  141.6958  160.0775 H   0  0  0  0  0  0  0  0  0  0  0  0
  1  2  1  0  0  0  0
  1 33  1  0  0  0  0
  1 34  1  0  0  0  0
  1 35  1  0  0  0  0
  2  3  1  0  0  0  0
  2 22  1  0  0  0  0
  2 36  1  0  0  0  0
  3  4  1  0  0  0  0
  3 37  1  0  0  0  0
  4  9  1  0  0  0  0
  4  5  2  0  0  0  0
  5  6  1  0  0  0  0
  6  7  2  0  0  0  0
  6 38  1  0  0  0  0
  7  8  1  0  0  0  0
  8 12  1  0  0  0  0
  8  9  2  0  0  0  0
  9 10  1  0  0  0  0
 10 11  2  0  0  0  0
 11 12  1  0  0  0  0
 11 39  1  0  0  0  0
 12 13  1  0  0  0  0
 13 29  1  0  0  0  0
 13 20  1  0  0  0  0
 13 14  1  0  0  0  0
 14 15  1  0  0  0  0
 15 30  1  0  0  0  0
 15 16  1  0  0  0  0
 15 18  1  0  0  0  0
 16 17  1  0  0  0  0
 16 40  1  0  0  0  0
 16 41  1  0  0  0  0
 17 42  1  0  0  0  0
 18 31  1  0  0  0  0
 18 19  1  0  0  0  0
 18 20  1  0  0  0  0
 19 43  1  0  0  0  0
 20 32  1  0  0  0  0
 20 21  1  0  0  0  0
 21 44  1  0  0  0  0
 22 27  1  0  0  0  0
 22 23  2  0  0  0  0
 23 24  1  0  0  0  0
 23 45  1  0  0  0  0
 24 25  2  0  0  0  0
 24 46  1  0  0  0  0
 25 26  1  0  0  0  0
 25 47  1  0  0  0  0
 26 27  2  0  0  0  0
 26 48  1  0  0  0  0
 27 28  1  0  0  0  0
M  END
> <s_m_source_file>
AV-unprocessed.smi

> <i_m_source_file_index>
283

> <i_lp_mmshare_version>
43012

> <i_f3d_flags>
0

> <s_epik_input>
Q2xjMVtjSF1bY0hdW2NIXVtjSF1jMVtDQEhdKFtDSDNdKVtOSF1jKG5bY0hdbjIpYyhjMjMpbltjSF1uM1tDQEBIXTRPW0NASF0oW0NIMl1bT0hdKVtDQEBIXShbT0hdKVtDQEhdNFtPSF0=

> <s_epik_cmdline>
J2VwaWtfcHl0aG9uJywgJy1waCcsICc3LjAnLCAnLXRuJywgJzgnLCAnLW1hJywgJzIwMCcsICctbWV0YWxfYmluZGluZycsICctaW1hZScsICc8aW5maWxlLm1hZT4nLCAnLW9tYWUnLCAnPG91dGZpbGUubWFlPic=

> <r_lp_tautomer_probability>
1

> <r_epik_Ionization_Penalty>
0.000266407

> <r_epik_Ionization_Penalty_Charging>
0

> <r_epik_Ionization_Penalty_Neutral>
0.000266407

> <r_epik_State_Penalty>
-0

> <r_epik_Charging_Adjusted_Penalty>
0

> <i_epik_Tot_Q>
0

> <i_epik_Tot_abs_Q>
0

> <r_epik_Metal_State_Penalty>
-0

> <b_epik_Metal_Only>
0

> <s_epik_Chemistry_Notes>
This compound contains an acetal/aminal-like group ( X-CH(R)-Y where X, Y are N, S, or O) that may be acid/base labile, releasing an aldehyde.

> <s_lp_Force_Field>
OPLS_2005

> <r_lp_Energy>
56.5757

> <b_lp_Chiralities_Consistent>
1

> <s_lp_Variant>
AV-unprocessed.smi:283-7

> <Gold.Version>
5.8.1

> <Gold.Id.Protein>
6NUR|6NUR_protein|mol2

> <Gold.PLP.Fitness>
40.9464

> <Gold.PLP.PLP>
-34.9117

> <Gold.PLP.part.hbond>
-3.0000

> <Gold.PLP.part.metal>
0.0000

> <Gold.PLP.part.buried>
-3.6830

> <Gold.PLP.part.nonpolar>
-30.3711

> <Gold.PLP.part.repulsive>
0.6696

> <Gold.PLP.ligand.clash>
0.0000

> <Gold.PLP.ligand.torsion>
1.8301

> <Gold.PLP.Chemscore.Hbond>
2.2171

> <Gold.PLP.Chemscore.CHOScore>
1.0000

> <Gold.PLP.Chemscore.Metal>
0.0000

> <Gold.Chemscore.Hbonds>
donor molecule, donor type, donor heavy atom, donor atom, acceptor molecule, acceptor atom, score
      L1  H     3    37       P1  8028  1.00
      L1  H    17    42       P1  7948  1.00
      L1  H    19    43       P1 10957  0.72
      L1  C    11    39       P1  7948  1.00

> <Gold.PLP.Chemscore.Internal.Correction>
0.0436

> <Gold.Rescore>
     Score         DG    S(hbond)    S(metal)    S(lipo)     H(rot)  DE(clash)    DE(int)     intcor
     12.40     -14.93       2.95        0.00      86.09       4.10       0.09       2.43       ----

> <Gold.Chemscore.Fitness>
12.3999

> <Gold.Chemscore.DG>
-14.9258

> <Gold.Chemscore.ZeroCoef>
-5.4800

> <Gold.Chemscore.Hbond>
2.9525

> <Gold.Chemscore.Metal>
0.0000

> <Gold.Chemscore.Lipo>
86.0877

> <Gold.Chemscore.Internal_Hbond>
0.0000

> <Gold.Chemscore.DEClash>
0.0918

> <Gold.Chemscore.DEInternal>
2.4342

> <Gold.Chemscore.Rot>
4.0968

> <Gold.Chemscore.Internal.Correction>
   9.000000E+99

> <Gold.Chemscore.Hbonds>
donor molecule, donor type, donor heavy atom, donor atom, acceptor molecule, acceptor atom, score
      L1  H     3    37       P1  8028  1.00
      L1  H    17    42       P1  7948  0.88
      L1  H    19    43       P1 10957  0.70

> <Gold.Chemscore.Hbond.Weighted>
-9.8615

> <Gold.Chemscore.Metal.Weighted>
-0.0000

> <Gold.Chemscore.Lipo.Weighted>
-10.0723

> <Gold.Chemscore.Internal_Hbond.Weighted>
0.0000

> <Gold.Chemscore.DEClash.Weighted>
0.0918

> <Gold.Chemscore.DEInternal.Weighted>
2.4342

> <Gold.Chemscore.Rot.Weighted>
10.4879

> <Gold.Chemscore.Internal.Correction.Weighted>
   9.000000E+99

> <Gold.Protein.RotatedTorsions>
[ 6907 6896 6895 6894 ] final  -51.42 input  -60.11 | X-H torsion
[ 7974 7965 7964 7962 ] final -143.04 input  175.53 | X-H torsion
[ 8008 7997 7996 7995 ] final  -56.42 input   59.86 | X-H torsion
[ 10167 10162 10161 10158 ] final   76.90 input  -65.29 | X-H torsion
[ 10718 10713 10712 10709 ] final   71.79 input   66.30 | X-H torsion
[ 10763 10752 10751 10750 ] final  -16.68 input  -60.55 | X-H torsion
[ 11005 11000 10999 10996 ] final  -67.72 input  -57.11 | X-H torsion

> <Gold.Protein.ActiveResidues>
 VAL166  LYS551  ARG553  GLY616  TRP617  ASP618  TYR619  PRO620  LYS621  CYS622 
 ASP623  PHE694  ASN695  SER759  ASP760  ASP761  ALA762  ILE779  LEU786  VAL792 
 PHE793  MET794  SER795  GLU796  ALA797  LYS798  CYS799  TRP800  GLU811  SER814 

> <Gold.Protein.RotatedAtoms>
  150.8613  134.7966  159.7084 H   0  0  0  0  0  0  0  0  0  0  0  0  # atno 6907 bound_to 6896
  152.4649  134.5095  159.9759 H   0  0  0  0  0  0  0  0  0  0  0  0  # atno 6908 bound_to 6896
  151.5198  133.3430  159.2935 H   0  0  0  0  0  0  0  0  0  0  0  0  # atno 6909 bound_to 6896
  144.8398  140.5883  143.5460 H   0  0  0  0  0  0  0  0  0  0  0  0  # atno 7974 bound_to 7965
  154.4229  140.1130  156.5634 H   0  0  0  0  0  0  0  0  0  0  0  0  # atno 8008 bound_to 7997
  155.6287  140.3495  155.4657 H   0  0  0  0  0  0  0  0  0  0  0  0  # atno 8009 bound_to 7997
  155.9965  140.1190  157.0578 H   0  0  0  0  0  0  0  0  0  0  0  0  # atno 8010 bound_to 7997
  139.9873  144.5783  150.7848 H   0  0  0  0  0  0  0  0  0  0  0  0  # atno 10167 bound_to 10162
  157.6469  130.9546  150.0838 H   0  0  0  0  0  0  0  0  0  0  0  0  # atno 10718 bound_to 10713
  153.5623  135.7009  153.5541 H   0  0  0  0  0  0  0  0  0  0  0  0  # atno 10763 bound_to 10752
  153.3418  135.4019  155.1577 H   0  0  0  0  0  0  0  0  0  0  0  0  # atno 10764 bound_to 10752
  154.8646  135.3744  154.5141 H   0  0  0  0  0  0  0  0  0  0  0  0  # atno 10765 bound_to 10752
  141.1515  133.6725  156.6335 H   0  0  0  0  0  0  0  0  0  0  0  0  # atno 11005 bound_to 11000
  145.4717  139.1503  143.3810 LP  0  0  0  0  0  0  0  0  0  0  0  0  # atno 17320 bound_to 7965
  146.2692  140.4851  142.8821 LP  0  0  0  0  0  0  0  0  0  0  0  0  # atno 17321 bound_to 7965
  140.7467  143.2895  151.3369 LP  0  0  0  0  0  0  0  0  0  0  0  0  # atno 17342 bound_to 10162
  139.6366  144.0619  152.2520 LP  0  0  0  0  0  0  0  0  0  0  0  0  # atno 17343 bound_to 10162
  156.1806  130.3650  149.9040 LP  0  0  0  0  0  0  0  0  0  0  0  0  # atno 17370 bound_to 10713
  156.6993  130.8927  151.3597 LP  0  0  0  0  0  0  0  0  0  0  0  0  # atno 17371 bound_to 10713
  140.3448  134.7818  157.4424 LP  0  0  0  0  0  0  0  0  0  0  0  0  # atno 17394 bound_to 11000
  140.0908  134.5603  155.8446 LP  0  0  0  0  0  0  0  0  0  0  0  0  # atno 17395 bound_to 11000

$$$$
