AV-unprocessed.smi:34|AV-procd|sdf|218|dock4
  -GOLD-   2262015533D 1   1.00000     0.00000
 Structure written by MMmdl.
 55 59  0  0  0  0  0  0  0  0  1 V2000
  153.4030  140.1975  158.6727 O   0  0  0  0  0  0  0  0  0  0  0  0
  152.4799  140.9209  158.2976 C   0  0  0  0  0  0  0  0  0  0  0  0
  151.7273  140.6508  157.0854 N   0  0  0  0  0  0  0  0  0  0  0  0
  151.8471  139.5980  156.2429 C   0  0  0  0  0  0  0  0  0  0  0  0
  152.3768  139.7173  154.9974 N   0  0  0  0  0  0  0  0  0  0  0  0
  152.4725  138.6477  154.2028 C   0  0  0  0  0  0  0  0  0  0  0  0
  152.1067  137.3893  154.4526 N   0  0  0  0  0  0  0  0  0  0  0  0
  151.5756  137.2575  155.7026 C   0  0  0  0  0  0  0  0  0  0  0  0
  151.4166  138.3081  156.6496 C   0  0  0  0  0  0  0  0  0  0  0  0
  150.8481  137.8105  157.8144 N   0  0  0  0  0  0  0  0  0  0  0  0
  150.6806  136.5400  157.5659 C   0  0  0  0  0  0  0  0  0  0  0  0
  151.0913  136.1194  156.3203 N   0  0  0  0  0  0  0  0  0  0  0  0
  151.0214  134.7240  155.7726 C   0  0  1  0  0  0  0  0  0  0  0  0
  150.6929  133.8304  156.7989 O   0  0  0  0  0  0  0  0  0  0  0  0
  149.4596  133.1776  156.5033 C   0  0  2  0  0  0  0  0  0  0  0  0
  149.4339  131.7804  157.1325 C   0  0  0  0  0  0  0  0  0  0  0  0
  150.5341  131.0279  156.6483 O   0  0  0  0  0  0  0  0  0  0  0  0
  151.7620  131.2120  157.1706 C   0  0  0  0  0  0  0  0  0  0  0  0
  151.9645  131.7289  158.2712 O   0  0  0  0  0  0  0  0  0  0  0  0
  152.8512  130.7208  156.2776 C   0  0  0  0  0  0  0  0  0  0  0  0
  154.1829  131.1345  156.5157 C   0  0  0  0  0  0  0  0  0  0  0  0
  155.2324  130.6833  155.6917 C   0  0  0  0  0  0  0  0  0  0  0  0
  154.9632  129.8138  154.6188 C   0  0  0  0  0  0  0  0  0  0  0  0
  153.6426  129.3967  154.3702 C   0  0  0  0  0  0  0  0  0  0  0  0
  152.5916  129.8464  155.1933 C   0  0  0  0  0  0  0  0  0  0  0  0
  149.4204  133.1881  154.9780 C   0  0  1  0  0  0  0  0  0  0  0  0
  148.2107  132.9687  154.4595 F   0  0  0  0  0  0  0  0  0  0  0  0
  149.9711  134.5648  154.6536 C   0  0  1  0  0  0  0  0  0  0  0  0
  148.9570  135.5559  154.6803 O   0  0  0  0  0  0  0  0  0  0  0  0
  152.1246  142.1864  159.0214 C   0  0  0  0  0  0  0  0  0  0  0  0
  152.8323  142.5568  160.1869 C   0  0  0  0  0  0  0  0  0  0  0  0
  152.4997  143.7386  160.8772 C   0  0  0  0  0  0  0  0  0  0  0  0
  151.4506  144.5545  160.4134 C   0  0  0  0  0  0  0  0  0  0  0  0
  150.7310  144.1855  159.2611 C   0  0  0  0  0  0  0  0  0  0  0  0
  151.0632  143.0043  158.5695 C   0  0  0  0  0  0  0  0  0  0  0  0
  151.0267  141.3350  156.8400 H   0  0  0  0  0  0  0  0  0  0  0  0
  152.9036  138.8259  153.2289 H   0  0  0  0  0  0  0  0  0  0  0  0
  150.2504  135.8669  158.2933 H   0  0  0  0  0  0  0  0  0  0  0  0
  152.0359  134.5112  155.4335 H   0  0  0  0  0  0  0  0  0  0  0  0
  148.6434  133.7818  156.9010 H   0  0  0  0  0  0  0  0  0  0  0  0
  149.4646  131.8484  158.2208 H   0  0  0  0  0  0  0  0  0  0  0  0
  148.5078  131.2720  156.8609 H   0  0  0  0  0  0  0  0  0  0  0  0
  154.4144  131.8011  157.3339 H   0  0  0  0  0  0  0  0  0  0  0  0
  156.2453  131.0050  155.8841 H   0  0  0  0  0  0  0  0  0  0  0  0
  155.7683  129.4676  153.9875 H   0  0  0  0  0  0  0  0  0  0  0  0
  153.4335  128.7303  153.5464 H   0  0  0  0  0  0  0  0  0  0  0  0
  151.5896  129.5074  154.9738 H   0  0  0  0  0  0  0  0  0  0  0  0
  150.0852  132.4201  154.5805 H   0  0  0  0  0  0  0  0  0  0  0  0
  150.4609  134.5911  153.6798 H   0  0  0  0  0  0  0  0  0  0  0  0
  148.7720  135.8199  153.7919 H   0  0  0  0  0  0  0  0  0  0  0  0
  153.6406  141.9412  160.5549 H   0  0  0  0  0  0  0  0  0  0  0  0
  153.0498  144.0187  161.7634 H   0  0  0  0  0  0  0  0  0  0  0  0
  151.1959  145.4609  160.9427 H   0  0  0  0  0  0  0  0  0  0  0  0
  149.9218  144.8078  158.9084 H   0  0  0  0  0  0  0  0  0  0  0  0
  150.4929  142.7339  157.6924 H   0  0  0  0  0  0  0  0  0  0  0  0
  1  2  2  0  0  0  0
  2  3  1  0  0  0  0
  2 30  1  0  0  0  0
  3  4  1  0  0  0  0
  3 36  1  0  0  0  0
  4  9  1  0  0  0  0
  4  5  2  0  0  0  0
  5  6  1  0  0  0  0
  6  7  2  0  0  0  0
  6 37  1  0  0  0  0
  7  8  1  0  0  0  0
  8 12  1  0  0  0  0
  8  9  2  0  0  0  0
  9 10  1  0  0  0  0
 10 11  2  0  0  0  0
 11 12  1  0  0  0  0
 11 38  1  0  0  0  0
 12 13  1  0  0  0  0
 13 28  1  0  0  0  0
 13 14  1  0  0  0  0
 13 39  1  0  0  0  0
 14 15  1  0  0  0  0
 15 16  1  0  0  0  0
 15 26  1  0  0  0  0
 15 40  1  0  0  0  0
 16 17  1  0  0  0  0
 16 41  1  0  0  0  0
 16 42  1  0  0  0  0
 17 18  1  0  0  0  0
 18 19  2  0  0  0  0
 18 20  1  0  0  0  0
 20 25  1  0  0  0  0
 20 21  2  0  0  0  0
 21 22  1  0  0  0  0
 21 43  1  0  0  0  0
 22 23  2  0  0  0  0
 22 44  1  0  0  0  0
 23 24  1  0  0  0  0
 23 45  1  0  0  0  0
 24 25  2  0  0  0  0
 24 46  1  0  0  0  0
 25 47  1  0  0  0  0
 26 27  1  0  0  0  0
 26 28  1  0  0  0  0
 26 48  1  0  0  0  0
 28 29  1  0  0  0  0
 28 49  1  0  0  0  0
 29 50  1  0  0  0  0
 30 35  1  0  0  0  0
 30 31  2  0  0  0  0
 31 32  1  0  0  0  0
 31 51  1  0  0  0  0
 32 33  2  0  0  0  0
 32 52  1  0  0  0  0
 33 34  1  0  0  0  0
 33 53  1  0  0  0  0
 34 35  2  0  0  0  0
 34 54  1  0  0  0  0
 35 55  1  0  0  0  0
M  END
> <s_m_source_file>
AV-unprocessed.smi

> <i_m_source_file_index>
34

> <i_lp_mmshare_version>
43012

> <i_f3d_flags>
0

> <s_epik_input>
W2NIXTFbY0hdW2NIXVtjSF1bY0hdYzFDKD1PKVtOSF1jKG5bY0hdbjIpYyhjMjMpbltjSF1uM1tDQEBIXTRPW0NASF0oW0NAQEhdKEYpW0NASF00W09IXSlbQ0gyXU9DKD1PKWM1W2NIXVtjSF1bY0hdW2NIXVtjSF01

> <s_epik_cmdline>
J2VwaWtfcHl0aG9uJywgJy1waCcsICc3LjAnLCAnLXRuJywgJzgnLCAnLW1hJywgJzIwMCcsICctbWV0YWxfYmluZGluZycsICctaW1hZScsICc8aW5maWxlLm1hZT4nLCAnLW9tYWUnLCAnPG91dGZpbGUubWFlPic=

> <r_lp_tautomer_probability>
1

> <r_epik_Ionization_Penalty>
0.00257489

> <r_epik_Ionization_Penalty_Charging>
0

> <r_epik_Ionization_Penalty_Neutral>
0.00257489

> <r_epik_State_Penalty>
0.00519398

> <r_epik_Charging_Adjusted_Penalty>
0.00519398

> <i_epik_Tot_Q>
0

> <i_epik_Tot_abs_Q>
0

> <r_epik_Metal_State_Penalty>
0.335891

> <b_epik_Metal_Only>
0

> <s_epik_Chemistry_Notes>
This compound has an ester and may undergo hydrolysis at high or low pH. This compound contains an acetal/aminal-like group ( X-CH(R)-Y where X, Y are N, S, or O) that may be acid/base labile, releasing an aldehyde.

> <s_lp_Force_Field>
OPLS_2005

> <r_lp_Energy>
55.7216

> <b_lp_Chiralities_Consistent>
1

> <s_lp_Variant>
AV-unprocessed.smi:34-4

> <Gold.Version>
5.8.1

> <Gold.Id.Protein>
6NUR|6NUR_protein|mol2

> <Gold.PLP.Fitness>
66.0538

> <Gold.PLP.PLP>
-55.4077

> <Gold.PLP.part.hbond>
-5.4472

> <Gold.PLP.part.metal>
0.0000

> <Gold.PLP.part.buried>
-7.8545

> <Gold.PLP.part.nonpolar>
-41.6262

> <Gold.PLP.part.repulsive>
0.2602

> <Gold.PLP.ligand.clash>
0.0000

> <Gold.PLP.ligand.torsion>
1.3557

> <Gold.PLP.Chemscore.Hbond>
4.2656

> <Gold.PLP.Chemscore.CHOScore>
0.0000

> <Gold.PLP.Chemscore.Metal>
0.0000

> <Gold.Chemscore.Hbonds>
donor molecule, donor type, donor heavy atom, donor atom, acceptor molecule, acceptor atom, score
      L1  H    29    50       P1  7948  1.00
      P1  H  6896  6908       L1    19  1.00
      P1  H  7989  7998       L1     5  0.42
      P1  H  7997  8009       L1     1  0.94
      P1  H 10752 10763       L1     7  0.83

> <Gold.PLP.Chemscore.Internal.Correction>
0.5608

> <Gold.Rescore>
     Score         DG    S(hbond)    S(metal)    S(lipo)     H(rot)  DE(clash)    DE(int)     intcor
     19.05     -24.05       3.76        0.00     110.98       2.72       1.38       3.61       ----

> <Gold.Chemscore.Fitness>
19.0499

> <Gold.Chemscore.DG>
-24.0464

> <Gold.Chemscore.ZeroCoef>
-5.4800

> <Gold.Chemscore.Hbond>
3.7573

> <Gold.Chemscore.Metal>
0.0000

> <Gold.Chemscore.Lipo>
110.9754

> <Gold.Chemscore.Internal_Hbond>
0.0000

> <Gold.Chemscore.DEClash>
1.3819

> <Gold.Chemscore.DEInternal>
3.6146

> <Gold.Chemscore.Rot>
2.7215

> <Gold.Chemscore.Internal.Correction>
   9.000000E+99

> <Gold.Chemscore.Hbonds>
donor molecule, donor type, donor heavy atom, donor atom, acceptor molecule, acceptor atom, score
      L1  H    29    50       P1  7948  0.97
      P1  H  6896  6908       L1    19  0.99
      P1  H  7989  7998       L1     5  0.03
      P1  H  7997  8009       L1     1  0.43
      P1  H 10752 10763       L1     7  0.29

> <Gold.Chemscore.Hbond.Weighted>
-12.5493

> <Gold.Chemscore.Metal.Weighted>
-0.0000

> <Gold.Chemscore.Lipo.Weighted>
-12.9841

> <Gold.Chemscore.Internal_Hbond.Weighted>
0.0000

> <Gold.Chemscore.DEClash.Weighted>
1.3819

> <Gold.Chemscore.DEInternal.Weighted>
3.6146

> <Gold.Chemscore.Rot.Weighted>
6.9670

> <Gold.Chemscore.Internal.Correction.Weighted>
   9.000000E+99

> <Gold.Protein.RotatedTorsions>
[ 6907 6896 6895 6894 ] final   70.19 input  -60.11 | X-H torsion
[ 7974 7965 7964 7962 ] final  -86.65 input  175.53 | X-H torsion
[ 8008 7997 7996 7995 ] final  150.51 input   59.86 | X-H torsion
[ 10167 10162 10161 10158 ] final   52.13 input  -65.29 | X-H torsion
[ 10718 10713 10712 10709 ] final  -45.74 input   66.30 | X-H torsion
[ 10763 10752 10751 10750 ] final   35.98 input  -60.55 | X-H torsion
[ 11005 11000 10999 10996 ] final  174.04 input  -57.11 | X-H torsion

> <Gold.Protein.ActiveResidues>
 VAL166  LYS551  ARG553  GLY616  TRP617  ASP618  TYR619  PRO620  LYS621  CYS622 
 ASP623  PHE694  ASN695  SER759  ASP760  ASP761  ALA762  ILE779  LEU786  VAL792 
 PHE793  MET794  SER795  GLU796  ALA797  LYS798  CYS799  TRP800  GLU811  SER814 

> <Gold.Protein.RotatedAtoms>
  152.4734  134.4904  159.9693 H   0  0  0  0  0  0  0  0  0  0  0  0  # atno 6907 bound_to 6896
  151.4926  133.3515  159.2863 H   0  0  0  0  0  0  0  0  0  0  0  0  # atno 6908 bound_to 6896
  150.8757  134.8167  159.7249 H   0  0  0  0  0  0  0  0  0  0  0  0  # atno 6909 bound_to 6896
  145.4770  140.9558  143.1885 H   0  0  0  0  0  0  0  0  0  0  0  0  # atno 7974 bound_to 7965
  156.2713  140.2073  156.6029 H   0  0  0  0  0  0  0  0  0  0  0  0  # atno 8008 bound_to 7997
  154.6892  140.0532  157.0370 H   0  0  0  0  0  0  0  0  0  0  0  0  # atno 8009 bound_to 7997
  155.0890  140.3194  155.4582 H   0  0  0  0  0  0  0  0  0  0  0  0  # atno 8010 bound_to 7997
  140.2546  144.3441  150.6337 H   0  0  0  0  0  0  0  0  0  0  0  0  # atno 10167 bound_to 10162
  156.2253  130.4169  149.8942 H   0  0  0  0  0  0  0  0  0  0  0  0  # atno 10718 bound_to 10713
  153.0096  135.6318  154.1913 H   0  0  0  0  0  0  0  0  0  0  0  0  # atno 10763 bound_to 10752
  154.1656  135.2821  155.3098 H   0  0  0  0  0  0  0  0  0  0  0  0  # atno 10764 bound_to 10752
  154.5948  135.5606  153.7375 H   0  0  0  0  0  0  0  0  0  0  0  0  # atno 10765 bound_to 10752
  140.3470  134.7227  157.4242 H   0  0  0  0  0  0  0  0  0  0  0  0  # atno 11005 bound_to 11000
  144.7911  139.6327  143.7113 LP  0  0  0  0  0  0  0  0  0  0  0  0  # atno 17320 bound_to 7965
  146.2363  139.5912  142.9521 LP  0  0  0  0  0  0  0  0  0  0  0  0  # atno 17321 bound_to 7965
  140.6014  143.2167  151.7066 LP  0  0  0  0  0  0  0  0  0  0  0  0  # atno 17342 bound_to 10162
  139.5035  144.3787  152.0397 LP  0  0  0  0  0  0  0  0  0  0  0  0  # atno 17343 bound_to 10162
  156.6575  130.8768  151.3542 LP  0  0  0  0  0  0  0  0  0  0  0  0  # atno 17370 bound_to 10713
  157.7107  130.9437  150.1080 LP  0  0  0  0  0  0  0  0  0  0  0  0  # atno 17371 bound_to 10713
  140.0734  134.5831  155.8617 LP  0  0  0  0  0  0  0  0  0  0  0  0  # atno 17394 bound_to 11000
  141.2023  133.6624  156.5997 LP  0  0  0  0  0  0  0  0  0  0  0  0  # atno 17395 bound_to 11000

$$$$
