AV-unprocessed.smi:1813|AV-procd|sdf|7342|dock10
  -GOLD-   22720 9 03D 1   1.00000     0.00000
 Structure written by MMmdl.
 40 41  0  0  0  0  0  0  0  0  2 V2000
  148.8175  132.6567  152.5351 C   0  0  0  0  0  0  0  0  0  0  0  0
  149.5831  133.6819  153.2279 N   0  0  0  0  0  0  0  0  0  0  0  0
  150.6240  133.4296  154.0339 C   0  0  0  0  0  0  0  0  0  0  0  0
  151.0333  132.2927  154.2724 O   0  0  0  0  0  0  0  0  0  0  0  0
  151.2912  134.6473  154.6815 C   0  0  0  0  0  0  0  0  0  0  0  0
  150.5492  135.9118  154.4417 N   0  3  2  0  0  0  0  0  0  0  0  0
  151.4475  137.0923  154.3708 C   0  0  0  0  0  0  0  0  0  0  0  0
  150.6713  138.3611  153.9725 C   0  0  0  0  0  0  0  0  0  0  0  0
  149.4826  138.6332  154.9113 C   0  0  2  0  0  0  0  0  0  0  0  0
  149.9547  139.0914  156.2180 N   0  0  0  0  0  0  0  0  0  0  0  0
  150.5672  140.2616  156.4518 C   0  0  0  0  0  0  0  0  0  0  0  0
  150.7904  141.0957  155.5741 O   0  0  0  0  0  0  0  0  0  0  0  0
  150.8924  140.3920  157.7499 N   0  0  0  0  0  0  0  0  0  0  0  0
  151.5316  141.4878  158.3874 C   0  0  0  0  0  0  0  0  0  0  0  0
  152.4790  141.3671  159.3249 N   0  0  0  0  0  0  0  0  0  0  0  0
  152.9326  142.6096  159.7748 C   0  0  0  0  0  0  0  0  0  0  0  0
  152.3158  143.6731  159.1642 C   0  0  0  0  0  0  0  0  0  0  0  0
  151.1322  143.1536  157.9942 S   0  0  0  0  0  0  0  0  0  0  0  0
  148.6095  137.3671  155.0250 C   0  0  0  0  0  0  0  0  0  0  0  0
  149.4379  136.1283  155.4061 C   0  0  0  0  0  0  0  0  0  0  0  0
  148.0872  133.1216  151.8731 H   0  0  0  0  0  0  0  0  0  0  0  0
  148.2810  132.0280  153.2468 H   0  0  0  0  0  0  0  0  0  0  0  0
  149.4677  132.0224  151.9311 H   0  0  0  0  0  0  0  0  0  0  0  0
  149.3001  134.6414  153.0876 H   0  0  0  0  0  0  0  0  0  0  0  0
  151.4250  134.4886  155.7528 H   0  0  0  0  0  0  0  0  0  0  0  0
  152.2897  134.7198  154.2484 H   0  0  0  0  0  0  0  0  0  0  0  0
  151.9417  137.2332  155.3332 H   0  0  0  0  0  0  0  0  0  0  0  0
  152.2331  136.9129  153.6359 H   0  0  0  0  0  0  0  0  0  0  0  0
  151.3423  139.2208  153.9511 H   0  0  0  0  0  0  0  0  0  0  0  0
  150.2998  138.2432  152.9536 H   0  0  0  0  0  0  0  0  0  0  0  0
  148.8846  139.4349  154.4737 H   0  0  0  0  0  0  0  0  0  0  0  0
  149.8203  138.4647  156.9978 H   0  0  0  0  0  0  0  0  0  0  0  0
  150.6509  139.6215  158.3551 H   0  0  0  0  0  0  0  0  0  0  0  0
  153.7000  142.6444  160.5338 H   0  0  0  0  0  0  0  0  0  0  0  0
  152.4855  144.7263  159.3318 H   0  0  0  0  0  0  0  0  0  0  0  0
  147.8050  137.5154  155.7462 H   0  0  0  0  0  0  0  0  0  0  0  0
  148.1210  137.1839  154.0671 H   0  0  0  0  0  0  0  0  0  0  0  0
  148.7829  135.2570  155.4265 H   0  0  0  0  0  0  0  0  0  0  0  0
  149.8424  136.2385  156.4135 H   0  0  0  0  0  0  0  0  0  0  0  0
  150.1300  135.8196  153.5269 H   0  0  0  0  0  0  0  0  0  0  0  0
  1  2  1  0  0  0  0
  1 21  1  0  0  0  0
  1 22  1  0  0  0  0
  1 23  1  0  0  0  0
  2  3  1  0  0  0  0
  2 24  1  0  0  0  0
  3  4  2  0  0  0  0
  3  5  1  0  0  0  0
  5  6  1  0  0  0  0
  5 25  1  0  0  0  0
  5 26  1  0  0  0  0
  6 20  1  0  0  0  0
  6  7  1  0  0  0  0
  6 40  1  0  0  0  0
  7  8  1  0  0  0  0
  7 27  1  0  0  0  0
  7 28  1  0  0  0  0
  8  9  1  0  0  0  0
  8 29  1  0  0  0  0
  8 30  1  0  0  0  0
  9 10  1  0  0  0  0
  9 19  1  0  0  0  0
  9 31  1  0  0  0  0
 10 11  1  0  0  0  0
 10 32  1  0  0  0  0
 11 12  2  0  0  0  0
 11 13  1  0  0  0  0
 13 14  1  0  0  0  0
 13 33  1  0  0  0  0
 14 18  1  0  0  0  0
 14 15  2  0  0  0  0
 15 16  1  0  0  0  0
 16 17  2  0  0  0  0
 16 34  1  0  0  0  0
 17 18  1  0  0  0  0
 17 35  1  0  0  0  0
 19 20  1  0  0  0  0
 19 36  1  0  0  0  0
 19 37  1  0  0  0  0
 20 38  1  0  0  0  0
 20 39  1  0  0  0  0
M  CHG  1   6   1
M  END
> <s_m_source_file>
AV-unprocessed.smi

> <i_m_source_file_index>
1813

> <i_lp_mmshare_version>
43012

> <i_f3d_flags>
0

> <s_epik_input>
W0NIM11bTkhdQyg9TylbQ0gyXU4xW0NIMl1bQ0gyXVtDSF0oW0NIMl1bQ0gyXTEpW05IXUMoPU8pW05IXWMybltjSF1bY0hdczI=

> <s_epik_cmdline>
J2VwaWtfcHl0aG9uJywgJy1waCcsICc3LjAnLCAnLXRuJywgJzgnLCAnLW1hJywgJzIwMCcsICctbWV0YWxfYmluZGluZycsICctaW1hZScsICc8aW5maWxlLm1hZT4nLCAnLW9tYWUnLCAnPG91dGZpbGUubWFlPic=

> <r_lp_tautomer_probability>
0.999

> <r_epik_Ionization_Penalty>
0.862509

> <r_epik_Ionization_Penalty_Charging>
0.862349

> <r_epik_Ionization_Penalty_Neutral>
0.000159522

> <r_epik_State_Penalty>
0.898939

> <r_epik_Charging_Adjusted_Penalty>
1.76129

> <i_epik_Tot_Q>
1

> <i_epik_Tot_abs_Q>
1

> <r_epik_Metal_State_Penalty>
0.936827

> <b_epik_Metal_Only>
0

> <s_lp_Force_Field>
OPLS_2005

> <r_lp_Energy>
11.766

> <b_lp_Chiralities_Consistent>
1

> <s_lp_Variant>
AV-unprocessed.smi:1813-3

> <Gold.Version>
5.8.1

> <Gold.Id.Protein>
6NUR|6NUR_protein|mol2

> <Gold.PLP.Fitness>
43.5039

> <Gold.PLP.PLP>
-34.2131

> <Gold.PLP.part.hbond>
-3.0000

> <Gold.PLP.part.metal>
0.0000

> <Gold.PLP.part.buried>
-3.8558

> <Gold.PLP.part.nonpolar>
-27.6746

> <Gold.PLP.part.repulsive>
0.1929

> <Gold.PLP.ligand.clash>
0.0000

> <Gold.PLP.ligand.torsion>
0.7890

> <Gold.PLP.Chemscore.Hbond>
3.6160

> <Gold.PLP.Chemscore.CHOScore>
0.0000

> <Gold.PLP.Chemscore.Metal>
0.0000

> <Gold.Chemscore.Hbonds>
donor molecule, donor type, donor heavy atom, donor atom, acceptor molecule, acceptor atom, score
      L1  H     2    24       P1  7948  0.29
      L1  H     6    40       P1  7948  0.60
      P1  H  7989  7998       L1    12  0.32

> <Gold.PLP.Chemscore.Internal.Correction>
0.0208

> <Gold.Rescore>
     Score         DG    S(hbond)    S(metal)    S(lipo)     H(rot)  DE(clash)    DE(int)     intcor
     16.29     -17.52       2.60        0.00      67.72       1.79       0.08       1.15       ----

> <Gold.Chemscore.Fitness>
16.2899

> <Gold.Chemscore.DG>
-17.5228

> <Gold.Chemscore.ZeroCoef>
-5.4800

> <Gold.Chemscore.Hbond>
2.6024

> <Gold.Chemscore.Metal>
0.0000

> <Gold.Chemscore.Lipo>
67.7220

> <Gold.Chemscore.Internal_Hbond>
0.0000

> <Gold.Chemscore.DEClash>
0.0838

> <Gold.Chemscore.DEInternal>
1.1491

> <Gold.Chemscore.Rot>
1.7862

> <Gold.Chemscore.Internal.Correction>
   9.000000E+99

> <Gold.Chemscore.Hbonds>
donor molecule, donor type, donor heavy atom, donor atom, acceptor molecule, acceptor atom, score
      P1  H  7989  7998       L1    12  0.32

> <Gold.Chemscore.Hbond.Weighted>
-8.6920

> <Gold.Chemscore.Metal.Weighted>
-0.0000

> <Gold.Chemscore.Lipo.Weighted>
-7.9235

> <Gold.Chemscore.Internal_Hbond.Weighted>
0.0000

> <Gold.Chemscore.DEClash.Weighted>
0.0838

> <Gold.Chemscore.DEInternal.Weighted>
1.1491

> <Gold.Chemscore.Rot.Weighted>
4.5726

> <Gold.Chemscore.Internal.Correction.Weighted>
   9.000000E+99

> <Gold.Protein.RotatedTorsions>
[ 6907 6896 6895 6894 ] final   18.44 input  -60.11 | X-H torsion
[ 7974 7965 7964 7962 ] final -155.27 input  175.53 | X-H torsion
[ 8008 7997 7996 7995 ] final  -35.86 input   59.86 | X-H torsion
[ 10167 10162 10161 10158 ] final  -66.94 input  -65.29 | X-H torsion
[ 10718 10713 10712 10709 ] final  115.87 input   66.30 | X-H torsion
[ 10763 10752 10751 10750 ] final -161.39 input  -60.55 | X-H torsion
[ 11005 11000 10999 10996 ] final  -99.78 input  -57.11 | X-H torsion

> <Gold.Protein.ActiveResidues>
 VAL166  LYS551  ARG553  GLY616  TRP617  ASP618  TYR619  PRO620  LYS621  CYS622 
 ASP623  PHE694  ASN695  SER759  ASP760  ASP761  ALA762  ILE779  LEU786  VAL792 
 PHE793  MET794  SER795  GLU796  ALA797  LYS798  CYS799  TRP800  GLU811  SER814 

> <Gold.Protein.RotatedAtoms>
  151.8653  135.0509  160.0473 H   0  0  0  0  0  0  0  0  0  0  0  0  # atno 6907 bound_to 6896
  152.2630  133.5310  159.5402 H   0  0  0  0  0  0  0  0  0  0  0  0  # atno 6908 bound_to 6896
  150.7123  134.0719  159.3910 H   0  0  0  0  0  0  0  0  0  0  0  0  # atno 6909 bound_to 6896
  144.7648  140.4272  143.5950 H   0  0  0  0  0  0  0  0  0  0  0  0  # atno 7974 bound_to 7965
  154.4086  140.1646  156.2280 H   0  0  0  0  0  0  0  0  0  0  0  0  # atno 8008 bound_to 7997
  155.9307  140.3415  155.6224 H   0  0  0  0  0  0  0  0  0  0  0  0  # atno 8009 bound_to 7997
  155.7110  140.0756  157.2362 H   0  0  0  0  0  0  0  0  0  0  0  0  # atno 8010 bound_to 7997
  140.5620  143.2313  151.6709 H   0  0  0  0  0  0  0  0  0  0  0  0  # atno 10167 bound_to 10162
  157.6195  131.1018  150.7392 H   0  0  0  0  0  0  0  0  0  0  0  0  # atno 10718 bound_to 10713
  154.7308  135.3046  154.8895 H   0  0  0  0  0  0  0  0  0  0  0  0  # atno 10763 bound_to 10752
  153.9739  135.6738  153.4752 H   0  0  0  0  0  0  0  0  0  0  0  0  # atno 10764 bound_to 10752
  153.0916  135.4956  154.8622 H   0  0  0  0  0  0  0  0  0  0  0  0  # atno 10765 bound_to 10752
  141.1296  133.8347  157.1016 H   0  0  0  0  0  0  0  0  0  0  0  0  # atno 11005 bound_to 11000
  145.6505  139.1564  143.2865 LP  0  0  0  0  0  0  0  0  0  0  0  0  # atno 17320 bound_to 7965
  146.1745  140.6594  142.9217 LP  0  0  0  0  0  0  0  0  0  0  0  0  # atno 17321 bound_to 7965
  139.5075  144.3645  152.0530 LP  0  0  0  0  0  0  0  0  0  0  0  0  # atno 17342 bound_to 10162
  140.2773  144.3899  150.6131 LP  0  0  0  0  0  0  0  0  0  0  0  0  # atno 17343 bound_to 10162
  156.7752  130.4841  149.5411 LP  0  0  0  0  0  0  0  0  0  0  0  0  # atno 17370 bound_to 10713
  156.1334  130.6194  151.0366 LP  0  0  0  0  0  0  0  0  0  0  0  0  # atno 17371 bound_to 10713
  140.0330  134.9892  157.0817 LP  0  0  0  0  0  0  0  0  0  0  0  0  # atno 17394 bound_to 11000
  140.4255  134.1835  155.7166 LP  0  0  0  0  0  0  0  0  0  0  0  0  # atno 17395 bound_to 11000

$$$$
