AV-unprocessed.smi:249|AV-procd|sdf|1899|dock3
  -GOLD-   2262020573D 1   1.00000     0.00000
 Structure written by MMmdl.
 64 67  0  0  0  0  0  0  0  0  2 V2000
  144.4692  132.9011  151.5030 C   0  0  0  0  0  0  0  0  0  0  0  0
  143.9354  134.2389  152.0370 C   0  0  0  0  0  0  0  0  0  0  0  0
  143.7815  134.2607  153.5224 N   0  3  1  0  0  0  0  0  0  0  0  0
  145.0700  134.2530  154.2705 C   0  0  0  0  0  0  0  0  0  0  0  0
  145.8021  135.6037  154.1623 C   0  0  0  0  0  0  0  0  0  0  0  0
  144.9079  136.7659  154.6505 C   0  0  1  0  0  0  0  0  0  0  0  0
  145.5627  138.0807  154.5870 N   0  0  0  0  0  0  0  0  0  0  0  0
  146.2921  138.4131  153.3692 C   0  0  0  0  0  0  0  0  0  0  0  0
  146.1511  138.5302  155.7208 C   0  0  0  0  0  0  0  0  0  0  0  0
  145.7748  137.9549  156.8902 N   0  0  0  0  0  0  0  0  0  0  0  0
  146.3518  138.3273  158.0364 C   0  0  0  0  0  0  0  0  0  0  0  0
  147.3151  139.2300  158.2303 N   0  0  0  0  0  0  0  0  0  0  0  0
  147.6870  139.8193  157.0580 C   0  0  0  0  0  0  0  0  0  0  0  0
  147.1472  139.5468  155.7700 C   0  0  0  0  0  0  0  0  0  0  0  0
  147.7637  140.3520  154.8188 N   0  0  0  0  0  0  0  0  0  0  0  0
  148.6308  141.0470  155.5020 C   0  0  0  0  0  0  0  0  0  0  0  0
  148.6780  140.7621  156.8480 N   0  0  0  0  0  0  0  0  0  0  0  0
  149.5675  141.3581  157.8272 C   0  0  0  0  0  0  0  0  0  0  0  0
  151.0815  141.2562  157.4841 C   0  0  2  0  0  0  0  0  0  0  0  0
  151.6228  139.9032  158.0079 C   0  0  0  0  0  0  0  0  0  0  0  0
  152.8599  139.5755  157.4092 O   0  0  0  0  0  0  0  0  0  0  0  0
  151.9298  142.4538  158.0158 C   0  0  2  0  0  0  0  0  0  0  0  0
  151.9389  142.6563  159.5271 C   0  0  0  0  0  0  0  0  0  0  0  0
  152.3821  144.1069  159.6868 C   0  0  0  0  0  0  0  0  0  0  0  0
  151.9778  144.7739  158.4999 O   0  0  0  0  0  0  0  0  0  0  0  0
  151.4207  143.8369  157.5878 C   0  0  0  0  0  0  0  0  0  0  0  0
  143.5436  136.7228  153.9240 C   0  0  0  0  0  0  0  0  0  0  0  0
  142.8859  135.3337  154.0511 C   0  0  1  0  0  0  0  0  0  0  0  0
  141.4659  135.2981  153.4578 C   0  0  0  0  0  0  0  0  0  0  0  0
  144.4208  132.8798  150.4141 H   0  0  0  0  0  0  0  0  0  0  0  0
  143.8793  132.0626  151.8740 H   0  0  0  0  0  0  0  0  0  0  0  0
  145.5106  132.7343  151.7760 H   0  0  0  0  0  0  0  0  0  0  0  0
  144.5700  135.0561  151.6951 H   0  0  0  0  0  0  0  0  0  0  0  0
  142.9666  134.3920  151.5651 H   0  0  0  0  0  0  0  0  0  0  0  0
  144.8582  134.0429  155.3198 H   0  0  0  0  0  0  0  0  0  0  0  0
  145.7159  133.4412  153.9403 H   0  0  0  0  0  0  0  0  0  0  0  0
  146.7173  135.5703  154.7545 H   0  0  0  0  0  0  0  0  0  0  0  0
  146.1144  135.7557  153.1297 H   0  0  0  0  0  0  0  0  0  0  0  0
  144.7125  136.5866  155.7087 H   0  0  0  0  0  0  0  0  0  0  0  0
  146.6790  139.4323  153.4111 H   0  0  0  0  0  0  0  0  0  0  0  0
  145.6291  138.3458  152.5063 H   0  0  0  0  0  0  0  0  0  0  0  0
  147.1297  137.7359  153.2041 H   0  0  0  0  0  0  0  0  0  0  0  0
  145.9991  137.8224  158.9237 H   0  0  0  0  0  0  0  0  0  0  0  0
  149.2826  141.7712  155.0349 H   0  0  0  0  0  0  0  0  0  0  0  0
  149.2889  142.4053  157.9528 H   0  0  0  0  0  0  0  0  0  0  0  0
  149.3565  140.8716  158.7799 H   0  0  0  0  0  0  0  0  0  0  0  0
  151.1887  141.2384  156.3991 H   0  0  0  0  0  0  0  0  0  0  0  0
  151.8018  139.9298  159.0817 H   0  0  0  0  0  0  0  0  0  0  0  0
  150.9078  139.1013  157.8219 H   0  0  0  0  0  0  0  0  0  0  0  0
  152.7871  138.7184  157.0178 H   0  0  0  0  0  0  0  0  0  0  0  0
  152.9591  142.3478  157.6697 H   0  0  0  0  0  0  0  0  0  0  0  0
  150.9355  142.5271  159.9355 H   0  0  0  0  0  0  0  0  0  0  0  0
  152.6120  141.9880  160.0598 H   0  0  0  0  0  0  0  0  0  0  0  0
  151.9500  144.5753  160.5709 H   0  0  0  0  0  0  0  0  0  0  0  0
  153.4679  144.1694  159.7670 H   0  0  0  0  0  0  0  0  0  0  0  0
  151.6999  144.0909  156.5650 H   0  0  0  0  0  0  0  0  0  0  0  0
  150.3338  143.8884  157.6651 H   0  0  0  0  0  0  0  0  0  0  0  0
  142.8757  137.4763  154.3417 H   0  0  0  0  0  0  0  0  0  0  0  0
  143.6616  136.9691  152.8694 H   0  0  0  0  0  0  0  0  0  0  0  0
  142.7649  135.1276  155.1160 H   0  0  0  0  0  0  0  0  0  0  0  0
  140.8003  135.9535  154.0200 H   0  0  0  0  0  0  0  0  0  0  0  0
  141.0441  134.2934  153.4979 H   0  0  0  0  0  0  0  0  0  0  0  0
  141.4413  135.6386  152.4226 H   0  0  0  0  0  0  0  0  0  0  0  0
  143.3244  133.3894  153.7513 H   0  0  0  0  0  0  0  0  0  0  0  0
  1  2  1  0  0  0  0
  1 30  1  0  0  0  0
  1 31  1  0  0  0  0
  1 32  1  0  0  0  0
  2  3  1  0  0  0  0
  2 33  1  0  0  0  0
  2 34  1  0  0  0  0
  3 28  1  0  0  0  0
  3  4  1  0  0  0  0
  3 64  1  0  0  0  0
  4  5  1  0  0  0  0
  4 35  1  0  0  0  0
  4 36  1  0  0  0  0
  5  6  1  0  0  0  0
  5 37  1  0  0  0  0
  5 38  1  0  0  0  0
  6  7  1  0  0  0  0
  6 27  1  0  0  0  0
  6 39  1  0  0  0  0
  7  8  1  0  0  0  0
  7  9  1  0  0  0  0
  8 40  1  0  0  0  0
  8 41  1  0  0  0  0
  8 42  1  0  0  0  0
  9 14  1  0  0  0  0
  9 10  2  0  0  0  0
 10 11  1  0  0  0  0
 11 12  2  0  0  0  0
 11 43  1  0  0  0  0
 12 13  1  0  0  0  0
 13 17  1  0  0  0  0
 13 14  2  0  0  0  0
 14 15  1  0  0  0  0
 15 16  2  0  0  0  0
 16 17  1  0  0  0  0
 16 44  1  0  0  0  0
 17 18  1  0  0  0  0
 18 19  1  0  0  0  0
 18 45  1  0  0  0  0
 18 46  1  0  0  0  0
 19 20  1  0  0  0  0
 19 22  1  0  0  0  0
 19 47  1  0  0  0  0
 20 21  1  0  0  0  0
 20 48  1  0  0  0  0
 20 49  1  0  0  0  0
 21 50  1  0  0  0  0
 22 26  1  0  0  0  0
 22 23  1  0  0  0  0
 22 51  1  0  0  0  0
 23 24  1  0  0  0  0
 23 52  1  0  0  0  0
 23 53  1  0  0  0  0
 24 25  1  0  0  0  0
 24 54  1  0  0  0  0
 24 55  1  0  0  0  0
 25 26  1  0  0  0  0
 26 56  1  0  0  0  0
 26 57  1  0  0  0  0
 27 28  1  0  0  0  0
 27 58  1  0  0  0  0
 27 59  1  0  0  0  0
 28 29  1  0  0  0  0
 28 60  1  0  0  0  0
 29 61  1  0  0  0  0
 29 62  1  0  0  0  0
 29 63  1  0  0  0  0
M  CHG  1   3   1
M  END
> <s_m_source_file>
AV-unprocessed.smi

> <i_m_source_file_index>
249

> <i_lp_mmshare_version>
43012

> <i_f3d_flags>
0

> <s_epik_input>
W0NIM11bQ0gyXU4xW0NIMl1bQ0gyXVtDQEhdKFtDSDJdW0NASF0xW0NIM10pTihbQ0gzXSljKG5bY0hdbjIpYyhjMjMpbltjSF1uM1tDSDJdW0NASF0oW0NIMl1bT0hdKVtDQEBIXTRbQ0gyXVtDSDJdT1tDSDJdNA==

> <s_epik_cmdline>
J2VwaWtfcHl0aG9uJywgJy1waCcsICc3LjAnLCAnLXRuJywgJzgnLCAnLW1hJywgJzIwMCcsICctbWV0YWxfYmluZGluZycsICctaW1hZScsICc8aW5maWxlLm1hZT4nLCAnLW9tYWUnLCAnPG91dGZpbGUubWFlPic=

> <r_lp_tautomer_probability>
1

> <r_epik_Ionization_Penalty>
0.00294688

> <r_epik_Ionization_Penalty_Charging>
0.00169971

> <r_epik_Ionization_Penalty_Neutral>
0.00124717

> <r_epik_State_Penalty>
-0

> <r_epik_Charging_Adjusted_Penalty>
0.00169971

> <i_epik_Tot_Q>
1

> <i_epik_Tot_abs_Q>
1

> <r_epik_Metal_State_Penalty>
-0

> <b_epik_Metal_Only>
0

> <s_lp_Force_Field>
OPLS_2005

> <r_lp_Energy>
54.564

> <b_lp_Chiralities_Consistent>
1

> <s_lp_Variant>
AV-unprocessed.smi:249-2

> <Gold.Version>
5.8.1

> <Gold.Id.Protein>
6NUR|6NUR_protein|mol2

> <Gold.PLP.Fitness>
42.4438

> <Gold.PLP.PLP>
-35.8940

> <Gold.PLP.part.hbond>
-3.0000

> <Gold.PLP.part.metal>
0.0000

> <Gold.PLP.part.buried>
-8.2775

> <Gold.PLP.part.nonpolar>
-26.0154

> <Gold.PLP.part.repulsive>
0.2177

> <Gold.PLP.ligand.clash>
0.0000

> <Gold.PLP.ligand.torsion>
1.8116

> <Gold.PLP.Chemscore.Hbond>
3.0000

> <Gold.PLP.Chemscore.CHOScore>
0.0000

> <Gold.PLP.Chemscore.Metal>
0.0000

> <Gold.Chemscore.Hbonds>
donor molecule, donor type, donor heavy atom, donor atom, acceptor molecule, acceptor atom, score
      L1  H     3    64       P1 10957  1.98
      P1  H  7997  8010       L1    21  1.00

> <Gold.PLP.Chemscore.Internal.Correction>
1.1731

> <Gold.Rescore>
     Score         DG    S(hbond)    S(metal)    S(lipo)     H(rot)  DE(clash)    DE(int)     intcor
     12.02     -15.06       1.96        0.00      89.46       2.90       0.06       2.98       ----

> <Gold.Chemscore.Fitness>
12.0180

> <Gold.Chemscore.DG>
-15.0558

> <Gold.Chemscore.ZeroCoef>
-5.4800

> <Gold.Chemscore.Hbond>
1.9564

> <Gold.Chemscore.Metal>
0.0000

> <Gold.Chemscore.Lipo>
89.4618

> <Gold.Chemscore.Internal_Hbond>
0.0000

> <Gold.Chemscore.DEClash>
0.0580

> <Gold.Chemscore.DEInternal>
2.9798

> <Gold.Chemscore.Rot>
2.9006

> <Gold.Chemscore.Internal.Correction>
   9.000000E+99

> <Gold.Chemscore.Hbonds>
donor molecule, donor type, donor heavy atom, donor atom, acceptor molecule, acceptor atom, score
      L1  H     3    64       P1 10957  0.92
      P1  H  7997  8010       L1    21  0.30

> <Gold.Chemscore.Hbond.Weighted>
-6.5344

> <Gold.Chemscore.Metal.Weighted>
-0.0000

> <Gold.Chemscore.Lipo.Weighted>
-10.4670

> <Gold.Chemscore.Internal_Hbond.Weighted>
0.0000

> <Gold.Chemscore.DEClash.Weighted>
0.0580

> <Gold.Chemscore.DEInternal.Weighted>
2.9798

> <Gold.Chemscore.Rot.Weighted>
7.4256

> <Gold.Chemscore.Internal.Correction.Weighted>
   9.000000E+99

> <Gold.Protein.RotatedTorsions>
[ 6907 6896 6895 6894 ] final   96.59 input  -60.11 | X-H torsion
[ 7974 7965 7964 7962 ] final -114.92 input  175.53 | X-H torsion
[ 8008 7997 7996 7995 ] final   47.55 input   59.86 | X-H torsion
[ 10167 10162 10161 10158 ] final  -49.36 input  -65.29 | X-H torsion
[ 10718 10713 10712 10709 ] final  -27.11 input   66.30 | X-H torsion
[ 10763 10752 10751 10750 ] final  -40.17 input  -60.55 | X-H torsion
[ 11005 11000 10999 10996 ] final   94.78 input  -57.11 | X-H torsion

> <Gold.Protein.ActiveResidues>
 VAL166  LYS551  ARG553  GLY616  TRP617  ASP618  TYR619  PRO620  LYS621  CYS622 
 ASP623  PHE694  ASN695  SER759  ASP760  ASP761  ALA762  ILE779  LEU786  VAL792 
 PHE793  MET794  SER795  GLU796  ALA797  LYS798  CYS799  TRP800  GLU811  SER814 

> <Gold.Protein.RotatedAtoms>
  152.5433  134.0863  159.8257 H   0  0  0  0  0  0  0  0  0  0  0  0  # atno 6907 bound_to 6896
  151.0958  133.5273  159.2620 H   0  0  0  0  0  0  0  0  0  0  0  0  # atno 6908 bound_to 6896
  151.2047  135.0466  159.8941 H   0  0  0  0  0  0  0  0  0  0  0  0  # atno 6909 bound_to 6896
  145.1145  140.8632  143.3850 H   0  0  0  0  0  0  0  0  0  0  0  0  # atno 7974 bound_to 7965
  155.3708  140.3423  155.4243 H   0  0  0  0  0  0  0  0  0  0  0  0  # atno 8008 bound_to 7997
  156.1663  140.1617  156.8559 H   0  0  0  0  0  0  0  0  0  0  0  0  # atno 8009 bound_to 7997
  154.5188  140.0772  156.8115 H   0  0  0  0  0  0  0  0  0  0  0  0  # atno 8010 bound_to 7997
  140.6689  143.2701  151.4203 H   0  0  0  0  0  0  0  0  0  0  0  0  # atno 10167 bound_to 10162
  156.4425  130.4467  149.7043 H   0  0  0  0  0  0  0  0  0  0  0  0  # atno 10718 bound_to 10713
  153.9415  135.6761  153.4744 H   0  0  0  0  0  0  0  0  0  0  0  0  # atno 10763 bound_to 10752
  153.0929  135.4865  154.8721 H   0  0  0  0  0  0  0  0  0  0  0  0  # atno 10764 bound_to 10752
  154.7375  135.3152  154.8745 H   0  0  0  0  0  0  0  0  0  0  0  0  # atno 10765 bound_to 10752
  139.8795  134.8863  156.3914 H   0  0  0  0  0  0  0  0  0  0  0  0  # atno 11005 bound_to 11000
  145.0809  139.2960  143.5784 LP  0  0  0  0  0  0  0  0  0  0  0  0  # atno 17320 bound_to 7965
  146.3524  140.0315  142.8650 LP  0  0  0  0  0  0  0  0  0  0  0  0  # atno 17321 bound_to 7965
  139.5948  144.1420  152.2131 LP  0  0  0  0  0  0  0  0  0  0  0  0  # atno 17342 bound_to 10162
  140.0786  144.5719  150.7139 LP  0  0  0  0  0  0  0  0  0  0  0  0  # atno 17343 bound_to 10162
  156.3903  130.7623  151.2624 LP  0  0  0  0  0  0  0  0  0  0  0  0  # atno 17370 bound_to 10713
  157.7506  131.0270  150.3986 LP  0  0  0  0  0  0  0  0  0  0  0  0  # atno 17371 bound_to 10713
  140.9330  133.7566  156.0049 LP  0  0  0  0  0  0  0  0  0  0  0  0  # atno 17394 bound_to 11000
  140.8308  134.3180  157.5349 LP  0  0  0  0  0  0  0  0  0  0  0  0  # atno 17395 bound_to 11000

$$$$
