#       Name:                AV-unprocessed.smi:168
#       Creating user name   scv26
#       Creation time:       Thu Mar 26 19:14:15 2020


#       File generated by GOLD software.
#

@<TRIPOS>MOLECULE
AV-unprocessed.smi:168
    70    74     1
SMALL
NO_CHARGES


@<TRIPOS>ATOM
      1 ****        -2.8109  -2.5443  -1.2596 C.3            1 S1                 0.0000
      2 ****        -3.6826  -1.3905  -0.7439 C.3            1 S1                 0.0000
      3 ****        -4.7028  -0.9836  -1.8305 C.3            1 S1                 0.0000
      4 ****        -2.8159  -0.2472  -0.1506 C.3            1 S1                 0.0000
      5 ****        -2.4424   0.7308  -1.1756 N.3            1 S1                 0.0000
      6 ****        -1.0571   1.0947  -1.2527 C.ar           1 S1                 0.0000
      7 ****        -0.7322   2.3938  -1.4967 N.ar           1 S1                 0.0000
      8 ****         0.5381   2.7918  -1.5990 C.ar           1 S1                 0.0000
      9 ****         1.6478   2.0615  -1.5062 N.ar           1 S1                 0.0000
     10 ****         1.3499   0.7508  -1.2861 C.ar           1 S1                 0.0000
     11 ****         0.0446   0.1899  -1.1584 C.ar           1 S1                 0.0000
     12 ****         0.1522  -1.1837  -0.9745 N.2            1 S1                 0.0000
     13 ****         1.4345  -1.4189  -0.9903 C.2            1 S1                 0.0000
     14 ****         2.2303  -0.3079  -1.1416 N.pl3          1 S1                 0.0000
     15 ****         3.6611  -0.2868  -1.2388 C.3            1 S1                 0.0000
     16 ****         4.5193  -1.3021  -0.4775 C.3            1 S1                 0.0000
     17 ****         5.5945  -0.2225  -0.2220 C.3            1 S1                 0.0000
     18 ****         6.1167  -0.1482   1.2211 C.3            1 S1                 0.0000
     19 ****         6.7889  -1.3359   1.5887 O.3            1 S1                 0.0000
     20 ****         6.8286  -0.2205  -1.1519 C.3            1 S1                 0.0000
     21 ****         6.4949  -0.2592  -2.5244 O.3            1 S1                 0.0000
     22 ****         4.4882   0.8047  -0.5524 C.3            1 S1                 0.0000
     23 ****        -3.3513   1.7388  -0.6323 C.3            1 S1                 0.0000
     24 ****        -3.4005   0.9327   0.6728 C.3            1 S1                 0.0000
     25 ****        -2.4862   1.4837   1.7898 C.3            1 S1                 0.0000
     26 ****        -2.4193   0.5729   3.0268 C.3            1 S1                 0.0000
     27 ****        -3.8141   0.3493   3.6203 C.3            1 S1                 0.0000
     28 ****        -4.7888  -0.1568   2.5514 C.3            1 S1                 0.0000
     29 ****        -4.7924   0.7627   1.3164 C.3            1 S1                 0.0000
     30 ****        -2.2093  -2.2332  -2.1141 H              1 S1                 0.0000
     31 ****        -3.4230  -3.3891  -1.5766 H              1 S1                 0.0000
     32 ****        -2.1347  -2.9053  -0.4845 H              1 S1                 0.0000
     33 ****        -4.2646  -1.8159   0.0724 H              1 S1                 0.0000
     34 ****        -4.2075  -0.6134  -2.7285 H              1 S1                 0.0000
     35 ****        -5.3952  -0.2156  -1.4941 H              1 S1                 0.0000
     36 ****        -5.3062  -1.8409  -2.1299 H              1 S1                 0.0000
     37 ****        -1.9579  -0.6446   0.3897 H              1 S1                 0.0000
     38 ****         0.6851   3.8460  -1.7817 H              1 S1                 0.0000
     39 ****         1.8351  -2.4171  -0.8883 H              1 S1                 0.0000
     40 ****         3.8832  -0.3212  -2.3060 H              1 S1                 0.0000
     41 ****         4.0411  -1.6443   0.4419 H              1 S1                 0.0000
     42 ****         4.8538  -2.1477  -1.0793 H              1 S1                 0.0000
     43 ****         6.7939   0.6962   1.3533 H              1 S1                 0.0000
     44 ****         5.2979   0.0009   1.9257 H              1 S1                 0.0000
     45 ****         6.1804  -2.0562   1.5278 H              1 S1                 0.0000
     46 ****         7.4353   0.6699  -0.9845 H              1 S1                 0.0000
     47 ****         7.4725  -1.0771  -0.9514 H              1 S1                 0.0000
     48 ****         7.2947  -0.2522  -3.0277 H              1 S1                 0.0000
     49 ****         4.7964   1.6149  -1.2142 H              1 S1                 0.0000
     50 ****         3.9928   1.1995   0.3362 H              1 S1                 0.0000
     51 ****        -2.9633   2.7499  -0.5102 H              1 S1                 0.0000
     52 ****        -4.3002   1.7525  -1.1680 H              1 S1                 0.0000
     53 ****        -1.4725   1.6343   1.4192 H              1 S1                 0.0000
     54 ****        -2.8287   2.4734   2.0948 H              1 S1                 0.0000
     55 ****        -1.9768  -0.3863   2.7557 H              1 S1                 0.0000
     56 ****        -1.7637   1.0137   3.7781 H              1 S1                 0.0000
     57 ****        -3.7627  -0.3575   4.4488 H              1 S1                 0.0000
     58 ****        -4.1861   1.2871   4.0347 H              1 S1                 0.0000
     59 ****        -4.5129  -1.1705   2.2623 H              1 S1                 0.0000
     60 ****        -5.7938  -0.2202   2.9695 H              1 S1                 0.0000
     61 ****        -5.1809   1.7393   1.6085 H              1 S1                 0.0000
     62 ****        -5.5149   0.3784   0.6005 H              1 S1                 0.0000
     63 ****        -2.5267   0.4703  -2.1374 LP             1 S1                 0.0000
     64 ****        -1.4638   3.0674  -1.6021 LP             1 S1                 0.0000
     65 ****         2.5753   2.4265  -1.5873 LP             1 S1                 0.0000
     66 ****        -0.5890  -1.8444  -0.8564 LP             1 S1                 0.0000
     67 ****         7.1248  -1.2566   2.5272 LP             1 S1                 0.0000
     68 ****         7.5595  -1.4922   0.9709 LP             1 S1                 0.0000
     69 ****         5.9413   0.5397  -2.7597 LP             1 S1                 0.0000
     70 ****         5.9788  -1.0924  -2.7228 LP             1 S1                 0.0000
@<TRIPOS>BOND
    1    1    2 1     
    2    1   30 1     
    3    1   31 1     
    4    1   32 1     
    5    2    3 1     
    6    2    4 1     
    7    2   33 1     
    8    3   34 1     
    9    3   35 1     
   10    3   36 1     
   11    4   24 1     
   12    4    5 1     
   13    4   37 1     
   14    5    6 1     
   15    5   23 1     
   16    6   11 ar    
   17    6    7 ar    
   18    7    8 ar    
   19    8    9 ar    
   20    8   38 1     
   21    9   10 ar    
   22   10   14 1     
   23   10   11 ar    
   24   11   12 1     
   25   12   13 2     
   26   13   14 1     
   27   13   39 1     
   28   14   15 1     
   29   15   22 1     
   30   15   16 1     
   31   15   40 1     
   32   16   17 1     
   33   16   41 1     
   34   16   42 1     
   35   17   18 1     
   36   17   20 1     
   37   17   22 1     
   38   18   19 1     
   39   18   43 1     
   40   18   44 1     
   41   19   45 1     
   42   20   21 1     
   43   20   46 1     
   44   20   47 1     
   45   21   48 1     
   46   22   49 1     
   47   22   50 1     
   48   23   24 1     
   49   23   51 1     
   50   23   52 1     
   51   24   29 1     
   52   24   25 1     
   53   25   26 1     
   54   25   53 1     
   55   25   54 1     
   56   26   27 1     
   57   26   55 1     
   58   26   56 1     
   59   27   28 1     
   60   27   57 1     
   61   27   58 1     
   62   28   29 1     
   63   28   59 1     
   64   28   60 1     
   65   29   61 1     
   66   29   62 1     
   67    5   63 1     
   68    7   64 1     
   69    9   65 1     
   70   12   66 1     
   71   19   67 1     
   72   19   68 1     
   73   21   69 1     
   74   21   70 1     
@<TRIPOS>SUBSTRUCTURE
      1 S1             1
@<TRIPOS>SET
LONE_PAIRS      STATIC     ATOMS    <user>   **** ""
8 63 64 65 66 67 68 69 70
DONOR_HYDROGENS      STATIC     ATOMS    <user>   **** ""
2 45 48
ATOM$BLUE        STATIC     ATOMS    COLORGROUP SYSTEM
8 63 64 65 66 67 68 69 70
ATOM$RED        STATIC     ATOMS    COLORGROUP SYSTEM
2 45 48
