AV-unprocessed.smi:1734|AV-procd|sdf|6985|dock2
  -GOLD-   22720 8203D 1   1.00000     0.00000
 Structure written by MMmdl.
 51 53  0  0  0  0  0  0  0  0  2 V2000
  147.4906  133.1782  151.4463 C   0  0  0  0  0  0  0  0  0  0  0  0
  146.2616  133.3330  150.5651 C   0  0  0  0  0  0  0  0  0  0  0  0
  145.6132  132.1791  150.0753 C   0  0  0  0  0  0  0  0  0  0  0  0
  144.4770  132.3245  149.2612 C   0  0  0  0  0  0  0  0  0  0  0  0
  144.0347  133.6261  148.9689 C   0  0  0  0  0  0  0  0  0  0  0  0
  144.6479  134.7342  149.4333 N   0  0  0  0  0  0  0  0  0  0  0  0
  145.7462  134.6113  150.2202 C   0  0  0  0  0  0  0  0  0  0  0  0
  146.4446  135.7360  150.7440 N   0  0  0  0  0  0  0  0  0  0  0  0
  145.9525  136.7773  151.4379 C   0  0  0  0  0  0  0  0  0  0  0  0
  144.7707  136.9401  151.7432 O   0  0  0  0  0  0  0  0  0  0  0  0
  146.9237  137.6359  151.7808 N   0  0  0  0  0  0  0  0  0  0  0  0
  146.7190  138.8521  152.5595 C   0  0  0  0  0  0  0  0  0  0  0  0
  148.0368  139.4811  153.0974 C   0  0  1  0  0  0  0  0  0  0  0  0
  147.8196  140.5437  154.2125 C   0  0  2  0  0  0  0  0  0  0  0  0
  147.0716  140.0678  155.4500 C   0  0  0  0  0  0  0  0  0  0  0  0
  146.4976  141.3531  156.0479 C   0  0  0  0  0  0  0  0  0  0  0  0
  146.5453  142.3305  155.0145 O   0  0  0  0  0  0  0  0  0  0  0  0
  146.9164  141.7075  153.7952 C   0  0  0  0  0  0  0  0  0  0  0  0
  148.9947  138.4372  153.5710 N   0  3  0  0  0  0  0  0  0  0  0  0
  150.2654  138.9331  154.1583 C   0  0  0  0  0  0  0  0  0  0  0  0
  151.2127  137.7523  154.4273 C   0  0  0  0  0  0  0  0  0  0  0  0
  150.5746  136.8183  155.2902 O   0  0  0  0  0  0  0  0  0  0  0  0
  149.3923  136.2761  154.7131 C   0  0  0  0  0  0  0  0  0  0  0  0
  148.3821  137.4038  154.4417 C   0  0  0  0  0  0  0  0  0  0  0  0
  147.7244  132.1276  151.6217 H   0  0  0  0  0  0  0  0  0  0  0  0
  147.3275  133.6509  152.4153 H   0  0  0  0  0  0  0  0  0  0  0  0
  148.3583  133.6409  150.9753 H   0  0  0  0  0  0  0  0  0  0  0  0
  145.9795  131.1926  150.3190 H   0  0  0  0  0  0  0  0  0  0  0  0
  143.9586  131.4612  148.8708 H   0  0  0  0  0  0  0  0  0  0  0  0
  143.1661  133.7832  148.3467 H   0  0  0  0  0  0  0  0  0  0  0  0
  147.4398  135.7396  150.5768 H   0  0  0  0  0  0  0  0  0  0  0  0
  147.8683  137.4321  151.4881 H   0  0  0  0  0  0  0  0  0  0  0  0
  146.1983  139.5609  151.9156 H   0  0  0  0  0  0  0  0  0  0  0  0
  146.0328  138.6222  153.3755 H   0  0  0  0  0  0  0  0  0  0  0  0
  148.5316  139.9946  152.2718 H   0  0  0  0  0  0  0  0  0  0  0  0
  148.7797  140.9504  154.5325 H   0  0  0  0  0  0  0  0  0  0  0  0
  146.2555  139.4010  155.1674 H   0  0  0  0  0  0  0  0  0  0  0  0
  147.7091  139.5403  156.1594 H   0  0  0  0  0  0  0  0  0  0  0  0
  145.4753  141.2084  156.3984 H   0  0  0  0  0  0  0  0  0  0  0  0
  147.0985  141.6997  156.8893 H   0  0  0  0  0  0  0  0  0  0  0  0
  147.4153  142.4159  153.1330 H   0  0  0  0  0  0  0  0  0  0  0  0
  146.0179  141.3450  153.2928 H   0  0  0  0  0  0  0  0  0  0  0  0
  150.7493  139.6401  153.4848 H   0  0  0  0  0  0  0  0  0  0  0  0
  150.0716  139.4582  155.0941 H   0  0  0  0  0  0  0  0  0  0  0  0
  151.5053  137.2658  153.4953 H   0  0  0  0  0  0  0  0  0  0  0  0
  152.1276  138.1052  154.9033 H   0  0  0  0  0  0  0  0  0  0  0  0
  149.6357  135.7419  153.7932 H   0  0  0  0  0  0  0  0  0  0  0  0
  148.9653  135.5466  155.4016 H   0  0  0  0  0  0  0  0  0  0  0  0
  148.0622  137.8454  155.3857 H   0  0  0  0  0  0  0  0  0  0  0  0
  147.4936  136.9890  153.9643 H   0  0  0  0  0  0  0  0  0  0  0  0
  149.2614  137.9387  152.7340 H   0  0  0  0  0  0  0  0  0  0  0  0
  1  2  1  0  0  0  0
  1 25  1  0  0  0  0
  1 26  1  0  0  0  0
  1 27  1  0  0  0  0
  2  7  1  0  0  0  0
  2  3  2  0  0  0  0
  3  4  1  0  0  0  0
  3 28  1  0  0  0  0
  4  5  2  0  0  0  0
  4 29  1  0  0  0  0
  5  6  1  0  0  0  0
  5 30  1  0  0  0  0
  6  7  2  0  0  0  0
  7  8  1  0  0  0  0
  8  9  1  0  0  0  0
  8 31  1  0  0  0  0
  9 10  2  0  0  0  0
  9 11  1  0  0  0  0
 11 12  1  0  0  0  0
 11 32  1  0  0  0  0
 12 13  1  0  0  0  0
 12 33  1  0  0  0  0
 12 34  1  0  0  0  0
 13 14  1  0  0  0  0
 13 19  1  0  0  0  0
 13 35  1  0  0  0  0
 14 18  1  0  0  0  0
 14 15  1  0  0  0  0
 14 36  1  0  0  0  0
 15 16  1  0  0  0  0
 15 37  1  0  0  0  0
 15 38  1  0  0  0  0
 16 17  1  0  0  0  0
 16 39  1  0  0  0  0
 16 40  1  0  0  0  0
 17 18  1  0  0  0  0
 18 41  1  0  0  0  0
 18 42  1  0  0  0  0
 19 24  1  0  0  0  0
 19 20  1  0  0  0  0
 19 51  1  0  0  0  0
 20 21  1  0  0  0  0
 20 43  1  0  0  0  0
 20 44  1  0  0  0  0
 21 22  1  0  0  0  0
 21 45  1  0  0  0  0
 21 46  1  0  0  0  0
 22 23  1  0  0  0  0
 23 24  1  0  0  0  0
 23 47  1  0  0  0  0
 23 48  1  0  0  0  0
 24 49  1  0  0  0  0
 24 50  1  0  0  0  0
M  CHG  1  19   1
M  END
> <s_m_source_file>
AV-unprocessed.smi

> <i_m_source_file_index>
1734

> <i_lp_mmshare_version>
43012

> <i_f3d_flags>
0

> <s_epik_input>
W0NIM11jMVtjSF1bY0hdW2NIXW5jMVtOSF1DKD1PKVtOSF1bQ0gyXVtDQEhdKFtDQEBIXTJbQ0gyXVtDSDJdT1tDSDJdMilOM1tDSDJdW0NIMl1PW0NIMl1bQ0gyXTM=

> <s_epik_cmdline>
J2VwaWtfcHl0aG9uJywgJy1waCcsICc3LjAnLCAnLXRuJywgJzgnLCAnLW1hJywgJzIwMCcsICctbWV0YWxfYmluZGluZycsICctaW1hZScsICc8aW5maWxlLm1hZT4nLCAnLW9tYWUnLCAnPG91dGZpbGUubWFlPic=

> <r_epik_Ionization_Penalty>
0.983302

> <r_epik_Ionization_Penalty_Charging>
0.98326

> <r_epik_Ionization_Penalty_Neutral>
4.21967e-05

> <r_epik_State_Penalty>
1.0303

> <r_epik_Charging_Adjusted_Penalty>
2.01356

> <i_epik_Tot_Q>
1

> <i_epik_Tot_abs_Q>
1

> <r_epik_Metal_State_Penalty>
1.03031

> <b_epik_Metal_Only>
0

> <s_lp_Force_Field>
OPLS_2005

> <r_lp_Energy>
39.7986

> <b_lp_Chiralities_Consistent>
1

> <s_lp_Variant>
AV-unprocessed.smi:1734-6

> <Gold.Version>
5.8.1

> <Gold.Id.Protein>
6NUR|6NUR_protein|mol2

> <Gold.PLP.Fitness>
49.8099

> <Gold.PLP.PLP>
-36.8367

> <Gold.PLP.part.hbond>
-3.8044

> <Gold.PLP.part.metal>
0.0000

> <Gold.PLP.part.buried>
-1.8487

> <Gold.PLP.part.nonpolar>
-32.0970

> <Gold.PLP.part.repulsive>
0.8496

> <Gold.PLP.ligand.clash>
0.0000

> <Gold.PLP.ligand.torsion>
0.8912

> <Gold.PLP.Chemscore.Hbond>
3.7920

> <Gold.PLP.Chemscore.CHOScore>
1.0000

> <Gold.PLP.Chemscore.Metal>
0.0000

> <Gold.Chemscore.Hbonds>
donor molecule, donor type, donor heavy atom, donor atom, acceptor molecule, acceptor atom, score
      L1  H     8    31       P1  7948  0.61
      L1  H    11    32       P1  7948  0.72
      L1  H    19    51       P1  7948  1.66
      L1  C     5    30       P1 10186  0.74

> <Gold.PLP.Chemscore.Internal.Correction>
0.3796

> <Gold.Rescore>
     Score         DG    S(hbond)    S(metal)    S(lipo)     H(rot)  DE(clash)    DE(int)     intcor
     17.40     -19.62       2.33        0.00      91.51       1.70       1.21       1.00       ----

> <Gold.Chemscore.Fitness>
17.4000

> <Gold.Chemscore.DG>
-19.6153

> <Gold.Chemscore.ZeroCoef>
-5.4800

> <Gold.Chemscore.Hbond>
2.3286

> <Gold.Chemscore.Metal>
0.0000

> <Gold.Chemscore.Lipo>
91.5079

> <Gold.Chemscore.Internal_Hbond>
0.0000

> <Gold.Chemscore.DEClash>
1.2111

> <Gold.Chemscore.DEInternal>
1.0042

> <Gold.Chemscore.Rot>
1.6986

> <Gold.Chemscore.Internal.Correction>
   9.000000E+99

> <Gold.Chemscore.Hbonds>
donor molecule, donor type, donor heavy atom, donor atom, acceptor molecule, acceptor atom, score
      L1  H     8    31       P1  7948  0.18
      L1  H    11    32       P1  7948  0.71
      L1  H    19    51       P1  7948  0.78

> <Gold.Chemscore.Hbond.Weighted>
-7.7774

> <Gold.Chemscore.Metal.Weighted>
-0.0000

> <Gold.Chemscore.Lipo.Weighted>
-10.7064

> <Gold.Chemscore.Internal_Hbond.Weighted>
0.0000

> <Gold.Chemscore.DEClash.Weighted>
1.2111

> <Gold.Chemscore.DEInternal.Weighted>
1.0042

> <Gold.Chemscore.Rot.Weighted>
4.3485

> <Gold.Chemscore.Internal.Correction.Weighted>
   9.000000E+99

> <Gold.Protein.RotatedTorsions>
[ 6907 6896 6895 6894 ] final  175.56 input  -60.11 | X-H torsion
[ 7974 7965 7964 7962 ] final  140.09 input  175.53 | X-H torsion
[ 8008 7997 7996 7995 ] final   16.88 input   59.86 | X-H torsion
[ 10167 10162 10161 10158 ] final  138.74 input  -65.29 | X-H torsion
[ 10718 10713 10712 10709 ] final  -44.90 input   66.30 | X-H torsion
[ 10763 10752 10751 10750 ] final   33.64 input  -60.55 | X-H torsion
[ 11005 11000 10999 10996 ] final  132.57 input  -57.11 | X-H torsion

> <Gold.Protein.ActiveResidues>
 VAL166  LYS551  ARG553  GLY616  TRP617  ASP618  TYR619  PRO620  LYS621  CYS622 
 ASP623  PHE694  ASN695  SER759  ASP760  ASP761  ALA762  ILE779  LEU786  VAL792 
 PHE793  MET794  SER795  GLU796  ALA797  LYS798  CYS799  TRP800  GLU811  SER814 

> <Gold.Protein.RotatedAtoms>
  151.7342  133.3319  159.3348 H   0  0  0  0  0  0  0  0  0  0  0  0  # atno 6907 bound_to 6896
  150.7600  134.6336  159.6209 H   0  0  0  0  0  0  0  0  0  0  0  0  # atno 6908 bound_to 6896
  152.3572  134.6925  160.0270 H   0  0  0  0  0  0  0  0  0  0  0  0  # atno 6909 bound_to 6896
  144.9218  139.5158  143.5659 H   0  0  0  0  0  0  0  0  0  0  0  0  # atno 7974 bound_to 7965
  154.8833  140.2976  155.5412 H   0  0  0  0  0  0  0  0  0  0  0  0  # atno 8008 bound_to 7997
  156.3022  140.2438  156.3772 H   0  0  0  0  0  0  0  0  0  0  0  0  # atno 8009 bound_to 7997
  154.8694  140.0402  157.1704 H   0  0  0  0  0  0  0  0  0  0  0  0  # atno 8010 bound_to 7997
  139.5101  144.6336  151.5755 H   0  0  0  0  0  0  0  0  0  0  0  0  # atno 10167 bound_to 10162
  156.2338  130.4174  149.8842 H   0  0  0  0  0  0  0  0  0  0  0  0  # atno 10718 bound_to 10713
  153.0202  135.6382  154.1542 H   0  0  0  0  0  0  0  0  0  0  0  0  # atno 10763 bound_to 10752
  154.1278  135.2842  155.3194 H   0  0  0  0  0  0  0  0  0  0  0  0  # atno 10764 bound_to 10752
  154.6217  135.5522  153.7644 H   0  0  0  0  0  0  0  0  0  0  0  0  # atno 10765 bound_to 10752
  139.9798  134.9552  156.9600 H   0  0  0  0  0  0  0  0  0  0  0  0  # atno 11005 bound_to 11000
  146.3208  139.8103  142.8947 LP  0  0  0  0  0  0  0  0  0  0  0  0  # atno 17320 bound_to 7965
  145.3284  141.0260  143.3460 LP  0  0  0  0  0  0  0  0  0  0  0  0  # atno 17321 bound_to 7965
  140.6077  143.9494  150.6430 LP  0  0  0  0  0  0  0  0  0  0  0  0  # atno 17342 bound_to 10162
  140.2726  143.3445  152.1224 LP  0  0  0  0  0  0  0  0  0  0  0  0  # atno 17343 bound_to 10162
  156.6447  130.8719  151.3520 LP  0  0  0  0  0  0  0  0  0  0  0  0  # atno 17370 bound_to 10713
  157.7145  130.9480  150.1206 LP  0  0  0  0  0  0  0  0  0  0  0  0  # atno 17371 bound_to 10713
  140.5120  134.0993  155.7272 LP  0  0  0  0  0  0  0  0  0  0  0  0  # atno 17394 bound_to 11000
  141.1471  133.9035  157.2188 LP  0  0  0  0  0  0  0  0  0  0  0  0  # atno 17395 bound_to 11000

$$$$
