AV-unprocessed.smi:1041|AV-procd|sdf|4528|dock10
  -GOLD-   22720 2553D 1   1.00000     0.00000
 Structure written by MMmdl.
 53 54  0  0  0  0  0  0  0  0  2 V2000
  144.1622  133.0002  151.3489 C   0  0  0  0  0  0  0  0  0  0  0  0
  145.4857  133.2367  150.9004 O   0  0  0  0  0  0  0  0  0  0  0  0
  146.1435  134.2407  151.6552 C   0  0  0  0  0  0  0  0  0  0  0  0
  145.5236  135.6063  151.3188 C   0  0  0  0  0  0  0  0  0  0  0  0
  146.3316  136.7445  151.8271 N   0  3  2  0  0  0  0  0  0  0  0  0
  146.2802  136.8486  153.3081 C   0  0  0  0  0  0  0  0  0  0  0  0
  147.2258  137.9449  153.8270 C   0  0  0  0  0  0  0  0  0  0  0  0
  146.9121  139.3103  153.1831 C   0  0  1  0  0  0  0  0  0  0  0  0
  147.8696  140.4224  153.6508 C   0  0  0  0  0  0  0  0  0  0  0  0
  148.3442  140.1706  155.0039 N   0  0  0  0  0  0  0  0  0  0  0  0
  149.6315  140.0590  155.3596 C   0  0  0  0  0  0  0  0  0  0  0  0
  150.5682  140.2046  154.5752 O   0  0  0  0  0  0  0  0  0  0  0  0
  149.8982  139.7258  156.8280 C   0  0  0  0  0  0  0  0  0  0  0  0
  150.5808  140.8319  157.6316 C   0  0  0  0  0  0  0  0  0  0  0  0
  149.9014  141.8900  158.1633 C   0  0  0  0  0  0  0  0  0  0  0  0
  148.4001  142.0640  158.0126 C   0  0  0  0  0  0  0  0  0  0  0  0
  150.5569  142.8926  158.8915 N   0  0  0  0  0  0  0  0  0  0  0  0
  151.8350  142.8039  159.0607 C   0  0  0  0  0  0  0  0  0  0  0  0
  152.6579  143.8168  159.8282 C   0  0  0  0  0  0  0  0  0  0  0  0
  152.5878  141.7519  158.5419 N   0  0  0  0  0  0  0  0  0  0  0  0
  152.0423  140.7476  157.8203 C   0  0  0  0  0  0  0  0  0  0  0  0
  152.7535  139.8556  157.3603 O   0  0  0  0  0  0  0  0  0  0  0  0
  146.9411  139.1582  151.6531 C   0  0  0  0  0  0  0  0  0  0  0  0
  145.9965  138.0410  151.1804 C   0  0  0  0  0  0  0  0  0  0  0  0
  153.5843  141.7375  158.7027 H   0  0  0  0  0  0  0  0  0  0  0  0
  143.7022  132.2212  150.7411 H   0  0  0  0  0  0  0  0  0  0  0  0
  143.5501  133.8992  151.2630 H   0  0  0  0  0  0  0  0  0  0  0  0
  144.1502  132.6667  152.3874 H   0  0  0  0  0  0  0  0  0  0  0  0
  146.0851  134.0228  152.7215 H   0  0  0  0  0  0  0  0  0  0  0  0
  147.2025  134.2537  151.3927 H   0  0  0  0  0  0  0  0  0  0  0  0
  145.3876  135.7075  150.2411 H   0  0  0  0  0  0  0  0  0  0  0  0
  144.5250  135.6383  151.7570 H   0  0  0  0  0  0  0  0  0  0  0  0
  145.2563  137.0547  153.6242 H   0  0  0  0  0  0  0  0  0  0  0  0
  146.5641  135.8947  153.7546 H   0  0  0  0  0  0  0  0  0  0  0  0
  147.1395  138.0052  154.9125 H   0  0  0  0  0  0  0  0  0  0  0  0
  148.2592  137.6651  153.6168 H   0  0  0  0  0  0  0  0  0  0  0  0
  145.8995  139.5971  153.4720 H   0  0  0  0  0  0  0  0  0  0  0  0
  148.7176  140.4962  152.9675 H   0  0  0  0  0  0  0  0  0  0  0  0
  147.3624  141.3880  153.6352 H   0  0  0  0  0  0  0  0  0  0  0  0
  147.6434  140.0468  155.7207 H   0  0  0  0  0  0  0  0  0  0  0  0
  148.9496  139.4747  157.3033 H   0  0  0  0  0  0  0  0  0  0  0  0
  150.4804  138.8047  156.8754 H   0  0  0  0  0  0  0  0  0  0  0  0
  147.8700  141.2528  158.5118 H   0  0  0  0  0  0  0  0  0  0  0  0
  148.1149  142.0704  156.9604 H   0  0  0  0  0  0  0  0  0  0  0  0
  148.0638  143.0029  158.4540 H   0  0  0  0  0  0  0  0  0  0  0  0
  152.5928  144.7936  159.3486 H   0  0  0  0  0  0  0  0  0  0  0  0
  153.7090  143.5290  159.8768 H   0  0  0  0  0  0  0  0  0  0  0  0
  152.2827  143.9096  160.8476 H   0  0  0  0  0  0  0  0  0  0  0  0
  146.6566  140.0989  151.1804 H   0  0  0  0  0  0  0  0  0  0  0  0
  147.9574  138.9410  151.3207 H   0  0  0  0  0  0  0  0  0  0  0  0
  146.0701  137.9575  150.0969 H   0  0  0  0  0  0  0  0  0  0  0  0
  144.9621  138.3057  151.4063 H   0  0  0  0  0  0  0  0  0  0  0  0
  147.2923  136.5363  151.5936 H   0  0  0  0  0  0  0  0  0  0  0  0
  1  2  1  0  0  0  0
  1 26  1  0  0  0  0
  1 27  1  0  0  0  0
  1 28  1  0  0  0  0
  2  3  1  0  0  0  0
  3  4  1  0  0  0  0
  3 29  1  0  0  0  0
  3 30  1  0  0  0  0
  4  5  1  0  0  0  0
  4 31  1  0  0  0  0
  4 32  1  0  0  0  0
  5 24  1  0  0  0  0
  5  6  1  0  0  0  0
  5 53  1  0  0  0  0
  6  7  1  0  0  0  0
  6 33  1  0  0  0  0
  6 34  1  0  0  0  0
  7  8  1  0  0  0  0
  7 35  1  0  0  0  0
  7 36  1  0  0  0  0
  8  9  1  0  0  0  0
  8 23  1  0  0  0  0
  8 37  1  0  0  0  0
  9 10  1  0  0  0  0
  9 38  1  0  0  0  0
  9 39  1  0  0  0  0
 10 11  1  0  0  0  0
 10 40  1  0  0  0  0
 11 12  2  0  0  0  0
 11 13  1  0  0  0  0
 13 14  1  0  0  0  0
 13 41  1  0  0  0  0
 13 42  1  0  0  0  0
 14 21  1  0  0  0  0
 14 15  2  0  0  0  0
 15 16  1  0  0  0  0
 15 17  1  0  0  0  0
 16 43  1  0  0  0  0
 16 44  1  0  0  0  0
 16 45  1  0  0  0  0
 17 18  2  0  0  0  0
 18 19  1  0  0  0  0
 18 20  1  0  0  0  0
 19 46  1  0  0  0  0
 19 47  1  0  0  0  0
 19 48  1  0  0  0  0
 20 25  1  0  0  0  0
 20 21  1  0  0  0  0
 21 22  2  0  0  0  0
 23 24  1  0  0  0  0
 23 49  1  0  0  0  0
 23 50  1  0  0  0  0
 24 51  1  0  0  0  0
 24 52  1  0  0  0  0
M  CHG  1   5   1
M  END
> <s_m_source_file>
AV-unprocessed.smi

> <i_m_source_file_index>
1041

> <i_lp_mmshare_version>
43012

> <i_f3d_flags>
0

> <s_epik_input>
W0NIM11PW0NIMl1bQ0gyXU4xW0NIMl1bQ0gyXVtDSF0oW0NIMl1bQ0gyXTEpW0NIMl1bTkhdQyg9TylbQ0gyXWMyYyhbQ0gzXSluYyhbQ0gzXSlbbkhdYzI9Tw==

> <s_epik_cmdline>
J2VwaWtfcHl0aG9uJywgJy1waCcsICc3LjAnLCAnLXRuJywgJzgnLCAnLW1hJywgJzIwMCcsICctbWV0YWxfYmluZGluZycsICctaW1hZScsICc8aW5maWxlLm1hZT4nLCAnLW9tYWUnLCAnPG91dGZpbGUubWFlPic=

> <r_lp_tautomer_probability>
0.839158

> <r_epik_Ionization_Penalty>
0.00964357

> <r_epik_Ionization_Penalty_Charging>
0.00961423

> <r_epik_Ionization_Penalty_Neutral>
2.93415e-05

> <r_epik_State_Penalty>
0.0972512

> <r_epik_Charging_Adjusted_Penalty>
0.106865

> <i_epik_Tot_Q>
1

> <i_epik_Tot_abs_Q>
1

> <r_epik_Metal_State_Penalty>
0.270886

> <b_epik_Metal_Only>
0

> <s_lp_Force_Field>
OPLS_2005

> <r_lp_Energy>
21.4676

> <b_lp_Chiralities_Consistent>
1

> <s_lp_Variant>
AV-unprocessed.smi:1041-1

> <Gold.Version>
5.8.1

> <Gold.Id.Protein>
6NUR|6NUR_protein|mol2

> <Gold.PLP.Fitness>
45.5067

> <Gold.PLP.PLP>
-35.1233

> <Gold.PLP.part.hbond>
-3.0000

> <Gold.PLP.part.metal>
0.0000

> <Gold.PLP.part.buried>
0.8994

> <Gold.PLP.part.nonpolar>
-34.4282

> <Gold.PLP.part.repulsive>
0.5029

> <Gold.PLP.ligand.clash>
0.0000

> <Gold.PLP.ligand.torsion>
0.8814

> <Gold.PLP.Chemscore.Hbond>
4.0000

> <Gold.PLP.Chemscore.CHOScore>
0.0000

> <Gold.PLP.Chemscore.Metal>
0.0000

> <Gold.Chemscore.Hbonds>
donor molecule, donor type, donor heavy atom, donor atom, acceptor molecule, acceptor atom, score
      L1  H     5    53       P1  7948  2.00
      P1  H  7989  7998       L1    12  1.00
      P1  H  7997  8008       L1    22  1.00

> <Gold.PLP.Chemscore.Internal.Correction>
0.1461

> <Gold.Rescore>
     Score         DG    S(hbond)    S(metal)    S(lipo)     H(rot)  DE(clash)    DE(int)     intcor
     15.58     -19.52       2.97        0.00      88.50       2.43       2.78       1.17       ----

> <Gold.Chemscore.Fitness>
15.5803

> <Gold.Chemscore.DG>
-19.5241

> <Gold.Chemscore.ZeroCoef>
-5.4800

> <Gold.Chemscore.Hbond>
2.9667

> <Gold.Chemscore.Metal>
0.0000

> <Gold.Chemscore.Lipo>
88.4952

> <Gold.Chemscore.Internal_Hbond>
0.0000

> <Gold.Chemscore.DEClash>
2.7757

> <Gold.Chemscore.DEInternal>
1.1682

> <Gold.Chemscore.Rot>
2.4291

> <Gold.Chemscore.Internal.Correction>
   9.000000E+99

> <Gold.Chemscore.Hbonds>
donor molecule, donor type, donor heavy atom, donor atom, acceptor molecule, acceptor atom, score
      L1  H     5    53       P1  7948  0.99
      P1  H  7989  7998       L1    12  0.99
      P1  H  7997  8008       L1    22  0.98

> <Gold.Chemscore.Hbond.Weighted>
-9.9088

> <Gold.Chemscore.Metal.Weighted>
-0.0000

> <Gold.Chemscore.Lipo.Weighted>
-10.3539

> <Gold.Chemscore.Internal_Hbond.Weighted>
0.0000

> <Gold.Chemscore.DEClash.Weighted>
2.7757

> <Gold.Chemscore.DEInternal.Weighted>
1.1682

> <Gold.Chemscore.Rot.Weighted>
6.2186

> <Gold.Chemscore.Internal.Correction.Weighted>
   9.000000E+99

> <Gold.Protein.RotatedTorsions>
[ 6907 6896 6895 6894 ] final  -36.99 input  -60.11 | X-H torsion
[ 7974 7965 7964 7962 ] final  129.68 input  175.53 | X-H torsion
[ 8008 7997 7996 7995 ] final  -53.70 input   59.86 | X-H torsion
[ 10167 10162 10161 10158 ] final -150.44 input  -65.29 | X-H torsion
[ 10718 10713 10712 10709 ] final  150.15 input   66.30 | X-H torsion
[ 10763 10752 10751 10750 ] final  104.11 input  -60.55 | X-H torsion
[ 11005 11000 10999 10996 ] final -102.57 input  -57.11 | X-H torsion

> <Gold.Protein.ActiveResidues>
 VAL166  LYS551  ARG553  GLY616  TRP617  ASP618  TYR619  PRO620  LYS621  CYS622 
 ASP623  PHE694  ASN695  SER759  ASP760  ASP761  ALA762  ILE779  LEU786  VAL792 
 PHE793  MET794  SER795  GLU796  ALA797  LYS798  CYS799  TRP800  GLU811  SER814 

> <Gold.Protein.RotatedAtoms>
  151.0203  134.9464  159.8055 H   0  0  0  0  0  0  0  0  0  0  0  0  # atno 6907 bound_to 6896
  152.5323  134.2912  159.9054 H   0  0  0  0  0  0  0  0  0  0  0  0  # atno 6908 bound_to 6896
  151.2920  133.4119  159.2668 H   0  0  0  0  0  0  0  0  0  0  0  0  # atno 6909 bound_to 6896
  145.0260  139.4088  143.5173 H   0  0  0  0  0  0  0  0  0  0  0  0  # atno 7974 bound_to 7965
  154.4141  140.1194  156.5196 H   0  0  0  0  0  0  0  0  0  0  0  0  # atno 8008 bound_to 7997
  155.6716  140.3496  155.4801 H   0  0  0  0  0  0  0  0  0  0  0  0  # atno 8009 bound_to 7997
  155.9628  140.1126  157.0871 H   0  0  0  0  0  0  0  0  0  0  0  0  # atno 8010 bound_to 7997
  139.7354  143.8743  152.2547 H   0  0  0  0  0  0  0  0  0  0  0  0  # atno 10167 bound_to 10162
  157.2872  131.0846  151.1489 H   0  0  0  0  0  0  0  0  0  0  0  0  # atno 10718 bound_to 10713
  153.3616  135.3954  155.1722 H   0  0  0  0  0  0  0  0  0  0  0  0  # atno 10763 bound_to 10752
  154.8680  135.3681  154.5092 H   0  0  0  0  0  0  0  0  0  0  0  0  # atno 10764 bound_to 10752
  153.5552  135.7082  153.5633 H   0  0  0  0  0  0  0  0  0  0  0  0  # atno 10765 bound_to 10752
  141.1183  133.8569  157.1376 H   0  0  0  0  0  0  0  0  0  0  0  0  # atno 11005 bound_to 11000
  146.3492  139.9784  142.8698 LP  0  0  0  0  0  0  0  0  0  0  0  0  # atno 17320 bound_to 7965
  145.1833  140.9777  143.4254 LP  0  0  0  0  0  0  0  0  0  0  0  0  # atno 17321 bound_to 7965
  139.8678  144.7084  150.9023 LP  0  0  0  0  0  0  0  0  0  0  0  0  # atno 17342 bound_to 10162
  140.7778  143.3763  151.1557 LP  0  0  0  0  0  0  0  0  0  0  0  0  # atno 17343 bound_to 10162
  157.2900  130.6791  149.6109 LP  0  0  0  0  0  0  0  0  0  0  0  0  # atno 17370 bound_to 10713
  155.9666  130.4424  150.5378 LP  0  0  0  0  0  0  0  0  0  0  0  0  # atno 17371 bound_to 10713
  140.0122  134.9983  157.0418 LP  0  0  0  0  0  0  0  0  0  0  0  0  # atno 17394 bound_to 11000
  140.4581  134.1513  155.7188 LP  0  0  0  0  0  0  0  0  0  0  0  0  # atno 17395 bound_to 11000

$$$$
