AV-unprocessed.smi:1174|AV-procd|sdf|4949|dock6
  -GOLD-   22720 3533D 1   1.00000     0.00000
 Structure written by MMmdl.
 41 42  0  0  0  0  0  0  0  0  1 V2000
  151.5095  143.7526  157.4537 C   0  0  0  0  0  0  0  0  0  0  0  0
  151.2148  142.2682  157.1985 C   0  0  1  0  0  0  0  0  0  0  0  0
  150.9757  141.5123  158.5239 C   0  0  0  0  0  0  0  0  0  0  0  0
  152.0246  141.7369  159.5022 N   0  0  0  0  0  0  0  0  0  0  0  0
  153.3666  141.4344  159.4082 C   0  0  0  0  0  0  0  0  0  0  0  0
  153.9540  141.8298  160.5757 C   0  0  0  0  0  0  0  0  0  0  0  0
  152.8765  142.3696  161.3313 C   0  0  0  0  0  0  0  0  0  0  0  0
  151.7217  142.3064  160.6891 N   0  0  0  0  0  0  0  0  0  0  0  0
  150.0543  142.1683  156.3143 N   0  0  0  0  0  0  0  0  0  0  0  0
  149.9401  141.3597  155.2482 C   0  0  0  0  0  0  0  0  0  0  0  0
  150.8147  140.5597  154.9160 O   0  0  0  0  0  0  0  0  0  0  0  0
  148.6383  141.4897  154.4346 C   0  0  1  0  0  0  0  0  0  0  0  0
  148.1383  140.1235  153.9026 C   0  0  0  0  0  0  0  0  0  0  0  0
  147.3955  139.2863  154.9640 C   0  0  0  0  0  0  0  0  0  0  0  0
  146.3283  140.1280  155.6824 C   0  0  0  0  0  0  0  0  0  0  0  0
  146.9590  141.3255  156.2635 N   0  0  0  0  0  0  0  0  0  0  0  0
  146.9744  141.6612  157.5773 C   0  0  0  0  0  0  0  0  0  0  0  0
  147.8075  142.6554  157.8998 N   0  0  0  0  0  0  0  0  0  0  0  0
  146.2423  141.1502  158.4229 O   0  0  0  0  0  0  0  0  0  0  0  0
  147.5146  142.2060  155.2243 C   0  0  0  0  0  0  0  0  0  0  0  0
  152.3954  143.8747  158.0775 H   0  0  0  0  0  0  0  0  0  0  0  0
  150.6766  144.2428  157.9592 H   0  0  0  0  0  0  0  0  0  0  0  0
  151.6922  144.2838  156.5189 H   0  0  0  0  0  0  0  0  0  0  0  0
  152.0918  141.8500  156.7009 H   0  0  0  0  0  0  0  0  0  0  0  0
  150.0337  141.8327  158.9715 H   0  0  0  0  0  0  0  0  0  0  0  0
  150.8826  140.4401  158.3451 H   0  0  0  0  0  0  0  0  0  0  0  0
  153.7888  140.9745  158.5267 H   0  0  0  0  0  0  0  0  0  0  0  0
  154.9967  141.7505  160.8455 H   0  0  0  0  0  0  0  0  0  0  0  0
  152.8986  142.8002  162.3214 H   0  0  0  0  0  0  0  0  0  0  0  0
  149.2828  142.7881  156.5139 H   0  0  0  0  0  0  0  0  0  0  0  0
  148.8697  142.1072  153.5649 H   0  0  0  0  0  0  0  0  0  0  0  0
  147.4593  140.3068  153.0690 H   0  0  0  0  0  0  0  0  0  0  0  0
  148.9658  139.5460  153.4879 H   0  0  0  0  0  0  0  0  0  0  0  0
  146.9298  138.4217  154.4899 H   0  0  0  0  0  0  0  0  0  0  0  0
  148.0998  138.8870  155.6940 H   0  0  0  0  0  0  0  0  0  0  0  0
  145.5660  140.4436  154.9687 H   0  0  0  0  0  0  0  0  0  0  0  0
  145.8022  139.5099  156.4097 H   0  0  0  0  0  0  0  0  0  0  0  0
  147.8857  142.9541  158.8608 H   0  0  0  0  0  0  0  0  0  0  0  0
  148.3647  143.0939  157.1813 H   0  0  0  0  0  0  0  0  0  0  0  0
  147.8977  143.1440  155.6299 H   0  0  0  0  0  0  0  0  0  0  0  0
  146.7123  142.4931  154.5434 H   0  0  0  0  0  0  0  0  0  0  0  0
  1  2  1  0  0  0  0
  1 21  1  0  0  0  0
  1 22  1  0  0  0  0
  1 23  1  0  0  0  0
  2  3  1  0  0  0  0
  2  9  1  0  0  0  0
  2 24  1  0  0  0  0
  3  4  1  0  0  0  0
  3 25  1  0  0  0  0
  3 26  1  0  0  0  0
  4  8  1  0  0  0  0
  4  5  1  0  0  0  0
  5  6  2  0  0  0  0
  5 27  1  0  0  0  0
  6  7  1  0  0  0  0
  6 28  1  0  0  0  0
  7  8  2  0  0  0  0
  7 29  1  0  0  0  0
  9 10  1  0  0  0  0
  9 30  1  0  0  0  0
 10 11  2  0  0  0  0
 10 12  1  0  0  0  0
 12 20  1  0  0  0  0
 12 13  1  0  0  0  0
 12 31  1  0  0  0  0
 13 14  1  0  0  0  0
 13 32  1  0  0  0  0
 13 33  1  0  0  0  0
 14 15  1  0  0  0  0
 14 34  1  0  0  0  0
 14 35  1  0  0  0  0
 15 16  1  0  0  0  0
 15 36  1  0  0  0  0
 15 37  1  0  0  0  0
 16 17  1  0  0  0  0
 16 20  1  0  0  0  0
 17 18  1  0  0  0  0
 17 19  2  0  0  0  0
 18 38  1  0  0  0  0
 18 39  1  0  0  0  0
 20 40  1  0  0  0  0
 20 41  1  0  0  0  0
M  END
> <s_m_source_file>
AV-unprocessed.smi

> <i_m_source_file_index>
1174

> <i_lp_mmshare_version>
43012

> <i_f3d_flags>
0

> <s_epik_input>
bjFbY0hdW2NIXVtjSF1uMVtDSDJdW0NAQEhdKFtDSDNdKVtOSF1DKD1PKVtDQEBIXTJbQ0gyXVtDSDJdW0NIMl1OKFtDSDJdMilDKD1PKVtOSDJd

> <s_epik_cmdline>
J2VwaWtfcHl0aG9uJywgJy1waCcsICc3LjAnLCAnLXRuJywgJzgnLCAnLW1hJywgJzIwMCcsICctbWV0YWxfYmluZGluZycsICctaW1hZScsICc8aW5maWxlLm1hZT4nLCAnLW9tYWUnLCAnPG91dGZpbGUubWFlPic=

> <r_lp_tautomer_probability>
1

> <r_epik_Ionization_Penalty>
0.000372452

> <r_epik_Ionization_Penalty_Charging>
0

> <r_epik_Ionization_Penalty_Neutral>
0.000372452

> <r_epik_State_Penalty>
-0

> <r_epik_Charging_Adjusted_Penalty>
0

> <i_epik_Tot_Q>
0

> <i_epik_Tot_abs_Q>
0

> <r_epik_Metal_State_Penalty>
-0

> <b_epik_Metal_Only>
0

> <s_lp_Force_Field>
OPLS_2005

> <r_lp_Energy>
22.2792

> <b_lp_Chiralities_Consistent>
1

> <s_lp_Variant>
AV-unprocessed.smi:1174-4

> <Gold.Version>
5.8.1

> <Gold.Id.Protein>
6NUR|6NUR_protein|mol2

> <Gold.PLP.Fitness>
42.2164

> <Gold.PLP.PLP>
-36.5409

> <Gold.PLP.part.hbond>
-4.9034

> <Gold.PLP.part.metal>
0.0000

> <Gold.PLP.part.buried>
-0.0733

> <Gold.PLP.part.nonpolar>
-29.6144

> <Gold.PLP.part.repulsive>
0.2708

> <Gold.PLP.ligand.clash>
0.7675

> <Gold.PLP.ligand.torsion>
0.9263

> <Gold.PLP.Chemscore.Hbond>
2.7494

> <Gold.PLP.Chemscore.CHOScore>
0.0000

> <Gold.PLP.Chemscore.Metal>
0.0000

> <Gold.Chemscore.Hbonds>
donor molecule, donor type, donor heavy atom, donor atom, acceptor molecule, acceptor atom, score
      L1  H     9    30       P1  8028  0.39
      L1  H    18    39       P1  8028  0.41
      P1  H  6933  6945       L1     8  0.06
      P1  H  6934  6946       L1    19  0.06
      P1  H  7989  7998       L1    11  1.00

> <Gold.PLP.Chemscore.Internal.Correction>
0.0475

> <Gold.Rescore>
     Score         DG    S(hbond)    S(metal)    S(lipo)     H(rot)  DE(clash)    DE(int)     intcor
     12.90     -15.44       1.66        0.00      77.65       1.82       0.26       2.29       ----

> <Gold.Chemscore.Fitness>
12.8982

> <Gold.Chemscore.DG>
-15.4411

> <Gold.Chemscore.ZeroCoef>
-5.4800

> <Gold.Chemscore.Hbond>
1.6577

> <Gold.Chemscore.Metal>
0.0000

> <Gold.Chemscore.Lipo>
77.6490

> <Gold.Chemscore.Internal_Hbond>
0.0000

> <Gold.Chemscore.DEClash>
0.2562

> <Gold.Chemscore.DEInternal>
2.2866

> <Gold.Chemscore.Rot>
1.8206

> <Gold.Chemscore.Internal.Correction>
   9.000000E+99

> <Gold.Chemscore.Hbonds>
donor molecule, donor type, donor heavy atom, donor atom, acceptor molecule, acceptor atom, score
      L1  H     9    30       P1  8028  0.40
      L1  H    18    39       P1  8028  0.10
      P1  H  6933  6945       L1     8  0.04
      P1  H  6934  6946       L1    19  0.08
      P1  H  7989  7998       L1    11  0.89

> <Gold.Chemscore.Hbond.Weighted>
-5.5368

> <Gold.Chemscore.Metal.Weighted>
-0.0000

> <Gold.Chemscore.Lipo.Weighted>
-9.0849

> <Gold.Chemscore.Internal_Hbond.Weighted>
0.0000

> <Gold.Chemscore.DEClash.Weighted>
0.2562

> <Gold.Chemscore.DEInternal.Weighted>
2.2866

> <Gold.Chemscore.Rot.Weighted>
4.6607

> <Gold.Chemscore.Internal.Correction.Weighted>
   9.000000E+99

> <Gold.Protein.RotatedTorsions>
[ 6907 6896 6895 6894 ] final  177.95 input  -60.11 | X-H torsion
[ 7974 7965 7964 7962 ] final -145.02 input  175.53 | X-H torsion
[ 8008 7997 7996 7995 ] final   49.04 input   59.86 | X-H torsion
[ 10167 10162 10161 10158 ] final   29.68 input  -65.29 | X-H torsion
[ 10718 10713 10712 10709 ] final  -57.65 input   66.30 | X-H torsion
[ 10763 10752 10751 10750 ] final -178.52 input  -60.55 | X-H torsion
[ 11005 11000 10999 10996 ] final   15.44 input  -57.11 | X-H torsion

> <Gold.Protein.ActiveResidues>
 VAL166  LYS551  ARG553  GLY616  TRP617  ASP618  TYR619  PRO620  LYS621  CYS622 
 ASP623  PHE694  ASN695  SER759  ASP760  ASP761  ALA762  ILE779  LEU786  VAL792 
 PHE793  MET794  SER795  GLU796  ALA797  LYS798  CYS799  TRP800  GLU811  SER814 

> <Gold.Protein.RotatedAtoms>
  151.6958  133.3311  159.3253 H   0  0  0  0  0  0  0  0  0  0  0  0  # atno 6907 bound_to 6896
  150.7758  134.6659  159.6374 H   0  0  0  0  0  0  0  0  0  0  0  0  # atno 6908 bound_to 6896
  152.3800  134.6608  160.0198 H   0  0  0  0  0  0  0  0  0  0  0  0  # atno 6909 bound_to 6896
  144.8256  140.5636  143.5549 H   0  0  0  0  0  0  0  0  0  0  0  0  # atno 7974 bound_to 7965
  155.3956  140.3435  155.4254 H   0  0  0  0  0  0  0  0  0  0  0  0  # atno 8008 bound_to 7997
  156.1532  140.1577  156.8767 H   0  0  0  0  0  0  0  0  0  0  0  0  # atno 8009 bound_to 7997
  154.5071  140.0799  156.7898 H   0  0  0  0  0  0  0  0  0  0  0  0  # atno 8010 bound_to 7997
  140.4745  144.0712  150.6246 H   0  0  0  0  0  0  0  0  0  0  0  0  # atno 10167 bound_to 10162
  156.1195  130.4167  150.0469 H   0  0  0  0  0  0  0  0  0  0  0  0  # atno 10718 bound_to 10713
  154.5467  135.2810  155.1046 H   0  0  0  0  0  0  0  0  0  0  0  0  # atno 10763 bound_to 10752
  154.2508  135.6340  153.5243 H   0  0  0  0  0  0  0  0  0  0  0  0  # atno 10764 bound_to 10752
  152.9992  135.5582  154.6021 H   0  0  0  0  0  0  0  0  0  0  0  0  # atno 10765 bound_to 10752
  140.4583  134.1153  155.7712 H   0  0  0  0  0  0  0  0  0  0  0  0  # atno 11005 bound_to 11000
  145.5008  139.1483  143.3658 LP  0  0  0  0  0  0  0  0  0  0  0  0  # atno 17320 bound_to 7965
  146.2561  140.5147  142.8873 LP  0  0  0  0  0  0  0  0  0  0  0  0  # atno 17321 bound_to 7965
  140.3936  143.2740  152.0031 LP  0  0  0  0  0  0  0  0  0  0  0  0  # atno 17342 bound_to 10162
  139.4823  144.6057  151.7526 LP  0  0  0  0  0  0  0  0  0  0  0  0  # atno 17343 bound_to 10162
  156.8411  130.9426  151.3632 LP  0  0  0  0  0  0  0  0  0  0  0  0  # atno 17370 bound_to 10713
  157.6378  130.8781  149.9391 LP  0  0  0  0  0  0  0  0  0  0  0  0  # atno 17371 bound_to 10713
  141.1633  133.8752  157.1787 LP  0  0  0  0  0  0  0  0  0  0  0  0  # atno 17394 bound_to 11000
  139.9962  135.0046  157.0087 LP  0  0  0  0  0  0  0  0  0  0  0  0  # atno 17395 bound_to 11000

$$$$
