AV-unprocessed.smi:1005|AV-procd|sdf|4383|dock5
  -GOLD-   22720 2303D 1   1.00000     0.00000
 Structure written by MMmdl.
 58 60  0  0  0  0  0  0  0  0  4 V2000
  151.7413  144.5582  160.6537 C   0  0  0  0  0  0  0  0  0  0  0  0
  151.7661  143.4481  159.6168 C   0  0  0  0  0  0  0  0  0  0  0  0
  150.9471  143.5753  158.4724 C   0  0  0  0  0  0  0  0  0  0  0  0
  150.9930  142.5446  157.5415 C   0  0  0  0  0  0  0  0  0  0  0  0
  150.3192  142.3778  156.3302 N   0  3  0  0  0  0  0  0  0  0  0  0
  150.6935  141.1994  155.7602 C   0  0  0  0  0  0  0  0  0  0  0  0
  151.5981  140.6095  156.5888 N   0  0  0  0  0  0  0  0  0  0  0  0
  152.3110  139.3316  156.4409 C   0  0  0  0  0  0  0  0  0  0  0  0
  152.2073  138.7486  155.0169 C   0  0  1  0  0  0  0  0  0  0  0  0
  153.3661  137.9905  154.7278 O   0  0  0  0  0  0  0  0  0  0  0  0
  150.9696  137.8431  154.8521 C   0  0  0  0  0  0  0  0  0  0  0  0
  151.1074  136.5565  155.5878 N   0  3  1  0  0  0  0  0  0  0  0  0
  150.8533  136.6686  157.0446 C   0  0  0  0  0  0  0  0  0  0  0  0
  149.3453  136.7045  157.3442 C   0  0  0  0  0  0  0  0  0  0  0  0
  148.7338  135.5384  156.8061 O   0  0  0  0  0  0  0  0  0  0  0  0
  148.8493  135.4644  155.3884 C   0  0  2  0  0  0  0  0  0  0  0  0
  148.1115  134.1961  154.9171 C   0  0  0  0  0  0  0  0  0  0  0  0
  148.4725  133.7896  153.5340 N   0  3  0  0  0  0  0  0  0  0  0  0
  147.3091  133.2527  152.7934 C   0  0  0  0  0  0  0  0  0  0  0  0
  149.6282  132.8650  153.4692 C   0  0  0  0  0  0  0  0  0  0  0  0
  150.3480  135.4174  155.0096 C   0  0  0  0  0  0  0  0  0  0  0  0
  151.8137  141.4129  157.7164 C   0  0  0  0  0  0  0  0  0  0  0  0
  152.6250  141.2716  158.8405 C   0  0  0  0  0  0  0  0  0  0  0  0
  152.5948  142.3108  159.7978 C   0  0  0  0  0  0  0  0  0  0  0  0
  153.4730  142.1854  161.0312 C   0  0  0  0  0  0  0  0  0  0  0  0
  151.0624  145.3608  160.3635 H   0  0  0  0  0  0  0  0  0  0  0  0
  152.7342  144.9913  160.7769 H   0  0  0  0  0  0  0  0  0  0  0  0
  151.4088  144.1734  161.6182 H   0  0  0  0  0  0  0  0  0  0  0  0
  150.3137  144.4384  158.3273 H   0  0  0  0  0  0  0  0  0  0  0  0
  150.3367  140.8061  154.8192 H   0  0  0  0  0  0  0  0  0  0  0  0
  153.3496  139.4602  156.7462 H   0  0  0  0  0  0  0  0  0  0  0  0
  151.8686  138.6375  157.1565 H   0  0  0  0  0  0  0  0  0  0  0  0
  152.1646  139.5769  154.3101 H   0  0  0  0  0  0  0  0  0  0  0  0
  154.0935  138.5808  154.6016 H   0  0  0  0  0  0  0  0  0  0  0  0
  150.0982  138.3862  155.2216 H   0  0  0  0  0  0  0  0  0  0  0  0
  150.7767  137.6515  153.7965 H   0  0  0  0  0  0  0  0  0  0  0  0
  151.2964  135.8019  157.5370 H   0  0  0  0  0  0  0  0  0  0  0  0
  151.3547  137.5432  157.4606 H   0  0  0  0  0  0  0  0  0  0  0  0
  149.1789  136.7231  158.4214 H   0  0  0  0  0  0  0  0  0  0  0  0
  148.8798  137.6026  156.9356 H   0  0  0  0  0  0  0  0  0  0  0  0
  148.3908  136.3449  154.9393 H   0  0  0  0  0  0  0  0  0  0  0  0
  148.3025  133.3661  155.5991 H   0  0  0  0  0  0  0  0  0  0  0  0
  147.0386  134.3894  154.9635 H   0  0  0  0  0  0  0  0  0  0  0  0
  146.9406  132.3360  153.2556 H   0  0  0  0  0  0  0  0  0  0  0  0
  147.5771  133.0304  151.7600 H   0  0  0  0  0  0  0  0  0  0  0  0
  146.4943  133.9769  152.7711 H   0  0  0  0  0  0  0  0  0  0  0  0
  149.4235  131.9423  154.0134 H   0  0  0  0  0  0  0  0  0  0  0  0
  150.5278  133.3164  153.8850 H   0  0  0  0  0  0  0  0  0  0  0  0
  149.8512  132.6037  152.4342 H   0  0  0  0  0  0  0  0  0  0  0  0
  150.4684  135.3761  153.9276 H   0  0  0  0  0  0  0  0  0  0  0  0
  150.7888  134.4976  155.3968 H   0  0  0  0  0  0  0  0  0  0  0  0
  153.2583  140.4089  158.9816 H   0  0  0  0  0  0  0  0  0  0  0  0
  154.0503  141.2606  161.0183 H   0  0  0  0  0  0  0  0  0  0  0  0
  152.8646  142.1854  161.9359 H   0  0  0  0  0  0  0  0  0  0  0  0
  154.1771  143.0158  161.0866 H   0  0  0  0  0  0  0  0  0  0  0  0
  148.7434  134.6324  153.0472 H   0  0  0  0  0  0  0  0  0  0  0  0
  152.0865  136.3209  155.5017 H   0  0  0  0  0  0  0  0  0  0  0  0
  149.6526  143.0202  155.9208 H   0  0  0  0  0  0  0  0  0  0  0  0
  1  2  1  0  0  0  0
  1 26  1  0  0  0  0
  1 27  1  0  0  0  0
  1 28  1  0  0  0  0
  2 24  1  0  0  0  0
  2  3  2  0  0  0  0
  3  4  1  0  0  0  0
  3 29  1  0  0  0  0
  4 22  2  0  0  0  0
  4  5  1  0  0  0  0
  5  6  2  0  0  0  0
  5 58  1  0  0  0  0
  6  7  1  0  0  0  0
  6 30  1  0  0  0  0
  7  8  1  0  0  0  0
  7 22  1  0  0  0  0
  8  9  1  0  0  0  0
  8 31  1  0  0  0  0
  8 32  1  0  0  0  0
  9 10  1  0  0  0  0
  9 11  1  0  0  0  0
  9 33  1  0  0  0  0
 10 34  1  0  0  0  0
 11 12  1  0  0  0  0
 11 35  1  0  0  0  0
 11 36  1  0  0  0  0
 12 21  1  0  0  0  0
 12 13  1  0  0  0  0
 12 57  1  0  0  0  0
 13 14  1  0  0  0  0
 13 37  1  0  0  0  0
 13 38  1  0  0  0  0
 14 15  1  0  0  0  0
 14 39  1  0  0  0  0
 14 40  1  0  0  0  0
 15 16  1  0  0  0  0
 16 17  1  0  0  0  0
 16 21  1  0  0  0  0
 16 41  1  0  0  0  0
 17 18  1  0  0  0  0
 17 42  1  0  0  0  0
 17 43  1  0  0  0  0
 18 19  1  0  0  0  0
 18 20  1  0  0  0  0
 18 56  1  0  0  0  0
 19 44  1  0  0  0  0
 19 45  1  0  0  0  0
 19 46  1  0  0  0  0
 20 47  1  0  0  0  0
 20 48  1  0  0  0  0
 20 49  1  0  0  0  0
 21 50  1  0  0  0  0
 21 51  1  0  0  0  0
 22 23  1  0  0  0  0
 23 24  2  0  0  0  0
 23 52  1  0  0  0  0
 24 25  1  0  0  0  0
 25 53  1  0  0  0  0
 25 54  1  0  0  0  0
 25 55  1  0  0  0  0
M  CHG  1   5   1
M  CHG  1  12   1
M  CHG  1  18   1
M  END
> <s_m_source_file>
AV-unprocessed.smi

> <i_m_source_file_index>
1005

> <i_lp_mmshare_version>
43012

> <i_f3d_flags>
0

> <s_epik_input>
W0NIM11jKFtjSF0xKWMoW0NIM10pW2NIXWMoYzEyKW4oW2NIXW4yKVtDSDJdW0NASF0oW09IXSlbQ0gyXU4zW0NIMl1bQ0gyXU9bQ0BIXShbQ0gyXTMpW0NIMl1OKFtDSDNdKVtDSDNd

> <s_epik_cmdline>
J2VwaWtfcHl0aG9uJywgJy1waCcsICc3LjAnLCAnLXRuJywgJzgnLCAnLW1hJywgJzIwMCcsICctbWV0YWxfYmluZGluZycsICctaW1hZScsICc8aW5maWxlLm1hZT4nLCAnLW9tYWUnLCAnPG91dGZpbGUubWFlPic=

> <r_epik_Ionization_Penalty>
2.30802

> <r_epik_Ionization_Penalty_Charging>
2.30798

> <r_epik_Ionization_Penalty_Neutral>
3.4851e-05

> <r_epik_State_Penalty>
2.52618

> <r_epik_Charging_Adjusted_Penalty>
4.83416

> <i_epik_Tot_Q>
3

> <i_epik_Tot_abs_Q>
3

> <r_epik_Metal_State_Penalty>
6.53149

> <b_epik_Metal_Only>
0

> <s_lp_Force_Field>
OPLS_2005

> <r_lp_Energy>
46.6994

> <b_lp_Chiralities_Consistent>
1

> <s_lp_Variant>
AV-unprocessed.smi:1005-22

> <Gold.Version>
5.8.1

> <Gold.Id.Protein>
6NUR|6NUR_protein|mol2

> <Gold.PLP.Fitness>
58.0138

> <Gold.PLP.PLP>
-48.3816

> <Gold.PLP.part.hbond>
-3.0000

> <Gold.PLP.part.metal>
0.0000

> <Gold.PLP.part.buried>
-7.2496

> <Gold.PLP.part.nonpolar>
-38.9067

> <Gold.PLP.part.repulsive>
0.1676

> <Gold.PLP.ligand.clash>
0.0000

> <Gold.PLP.ligand.torsion>
1.3881

> <Gold.PLP.Chemscore.Hbond>
4.0764

> <Gold.PLP.Chemscore.CHOScore>
0.0000

> <Gold.PLP.Chemscore.Metal>
0.0000

> <Gold.Chemscore.Hbonds>
donor molecule, donor type, donor heavy atom, donor atom, acceptor molecule, acceptor atom, score
      L1  H     5    58       P1  8028  2.00
      L1  H    18    56       P1  7948  1.70
      P1  H 10752 10765       L1    10  0.02

> <Gold.PLP.Chemscore.Internal.Correction>
0.1790

> <Gold.Rescore>
     Score         DG    S(hbond)    S(metal)    S(lipo)     H(rot)  DE(clash)    DE(int)     intcor
     19.60     -20.98       2.23        0.00     124.68       2.56       0.02       1.36       ----

> <Gold.Chemscore.Fitness>
19.5971

> <Gold.Chemscore.DG>
-20.9794

> <Gold.Chemscore.ZeroCoef>
-5.4800

> <Gold.Chemscore.Hbond>
2.2324

> <Gold.Chemscore.Metal>
0.0000

> <Gold.Chemscore.Lipo>
124.6846

> <Gold.Chemscore.Internal_Hbond>
0.0000

> <Gold.Chemscore.DEClash>
0.0197

> <Gold.Chemscore.DEInternal>
1.3626

> <Gold.Chemscore.Rot>
2.5566

> <Gold.Chemscore.Internal.Correction>
   9.000000E+99

> <Gold.Chemscore.Hbonds>
donor molecule, donor type, donor heavy atom, donor atom, acceptor molecule, acceptor atom, score
      L1  H     5    58       P1  8028  0.97
      L1  H    18    56       P1  7948  0.14
      P1  H 10752 10765       L1    10  0.02

> <Gold.Chemscore.Hbond.Weighted>
-7.4563

> <Gold.Chemscore.Metal.Weighted>
-0.0000

> <Gold.Chemscore.Lipo.Weighted>
-14.5881

> <Gold.Chemscore.Internal_Hbond.Weighted>
0.0000

> <Gold.Chemscore.DEClash.Weighted>
0.0197

> <Gold.Chemscore.DEInternal.Weighted>
1.3626

> <Gold.Chemscore.Rot.Weighted>
6.5450

> <Gold.Chemscore.Internal.Correction.Weighted>
   9.000000E+99

> <Gold.Protein.RotatedTorsions>
[ 6907 6896 6895 6894 ] final   10.32 input  -60.11 | X-H torsion
[ 7974 7965 7964 7962 ] final  -47.63 input  175.53 | X-H torsion
[ 8008 7997 7996 7995 ] final  -71.50 input   59.86 | X-H torsion
[ 10167 10162 10161 10158 ] final -153.37 input  -65.29 | X-H torsion
[ 10718 10713 10712 10709 ] final -102.64 input   66.30 | X-H torsion
[ 10763 10752 10751 10750 ] final  155.00 input  -60.55 | X-H torsion
[ 11005 11000 10999 10996 ] final  -70.43 input  -57.11 | X-H torsion

> <Gold.Protein.ActiveResidues>
 VAL166  LYS551  ARG553  GLY616  TRP617  ASP618  TYR619  PRO620  LYS621  CYS622 
 ASP623  PHE694  ASN695  SER759  ASP760  ASP761  ALA762  ILE779  LEU786  VAL792 
 PHE793  MET794  SER795  GLU796  ALA797  LYS798  CYS799  TRP800  GLU811  SER814 

> <Gold.Protein.RotatedAtoms>
  151.7364  135.0864  160.0308 H   0  0  0  0  0  0  0  0  0  0  0  0  # atno 6907 bound_to 6896
  152.3508  133.6172  159.5951 H   0  0  0  0  0  0  0  0  0  0  0  0  # atno 6908 bound_to 6896
  150.7538  133.9494  159.3522 H   0  0  0  0  0  0  0  0  0  0  0  0  # atno 6909 bound_to 6896
  145.9596  140.7492  142.9464 H   0  0  0  0  0  0  0  0  0  0  0  0  # atno 7974 bound_to 7965
  154.5093  140.0814  156.7957 H   0  0  0  0  0  0  0  0  0  0  0  0  # atno 8008 bound_to 7997
  155.3822  140.3428  155.4229 H   0  0  0  0  0  0  0  0  0  0  0  0  # atno 8009 bound_to 7997
  156.1553  140.1571  156.8689 H   0  0  0  0  0  0  0  0  0  0  0  0  # atno 8010 bound_to 7997
  139.7102  143.9120  152.2465 H   0  0  0  0  0  0  0  0  0  0  0  0  # atno 10167 bound_to 10162
  156.0236  130.5430  150.7138 H   0  0  0  0  0  0  0  0  0  0  0  0  # atno 10718 bound_to 10713
  154.1613  135.2809  155.3108 H   0  0  0  0  0  0  0  0  0  0  0  0  # atno 10763 bound_to 10752
  154.6144  135.5488  153.7511 H   0  0  0  0  0  0  0  0  0  0  0  0  # atno 10764 bound_to 10752
  153.0191  135.6423  154.1755 H   0  0  0  0  0  0  0  0  0  0  0  0  # atno 10765 bound_to 10752
  141.1574  133.6790  156.6752 H   0  0  0  0  0  0  0  0  0  0  0  0  # atno 11005 bound_to 11000
  144.6812  140.2569  143.7324 LP  0  0  0  0  0  0  0  0  0  0  0  0  # atno 17320 bound_to 7965
  145.8058  139.1983  143.2021 LP  0  0  0  0  0  0  0  0  0  0  0  0  # atno 17321 bound_to 7965
  139.8987  144.6924  150.8689 LP  0  0  0  0  0  0  0  0  0  0  0  0  # atno 17342 bound_to 10162
  140.7731  143.3530  151.1976 LP  0  0  0  0  0  0  0  0  0  0  0  0  # atno 17343 bound_to 10162
  157.4770  131.0898  151.0579 LP  0  0  0  0  0  0  0  0  0  0  0  0  # atno 17370 bound_to 10713
  157.1023  130.5987  149.5463 LP  0  0  0  0  0  0  0  0  0  0  0  0  # atno 17371 bound_to 10713
  140.3144  134.8059  157.4202 LP  0  0  0  0  0  0  0  0  0  0  0  0  # atno 17394 bound_to 11000
  140.1150  134.5295  155.8232 LP  0  0  0  0  0  0  0  0  0  0  0  0  # atno 17395 bound_to 11000

$$$$
