AV-unprocessed.smi:946|AV-procd|sdf|4234|dock10
  -GOLD-   22720 2143D 1   1.00000     0.00000
 Structure written by MMmdl.
 42 43  0  0  0  0  0  0  0  0  1 V2000
  152.1998  138.9568  154.8569 C   0  0  0  0  0  0  0  0  0  0  0  0
  150.8873  139.3232  155.5658 C   0  0  2  0  0  0  0  0  0  0  0  0
  149.9434  139.6829  154.5612 O   0  0  0  0  0  0  0  0  0  0  0  0
  148.5764  139.5842  154.9439 C   0  0  0  0  0  0  0  0  0  0  0  0
  148.0790  138.1681  154.6275 C   0  0  2  0  0  0  0  0  0  0  0  0
  146.6166  138.1662  154.1399 C   0  0  0  0  0  0  0  0  0  0  0  0
  146.1230  136.7312  153.9210 C   0  0  0  0  0  0  0  0  0  0  0  0
  146.3638  135.9024  155.1873 C   0  0  0  0  0  0  0  0  0  0  0  0
  147.8298  136.0223  155.6318 C   0  0  0  0  0  0  0  0  0  0  0  0
  148.1657  137.3932  155.8217 O   0  0  0  0  0  0  0  0  0  0  0  0
  151.0860  140.4854  156.5523 C   0  0  0  0  0  0  0  0  0  0  0  0
  150.4261  141.5169  156.4209 O   0  0  0  0  0  0  0  0  0  0  0  0
  151.9859  140.2736  157.5311 N   0  0  0  0  0  0  0  0  0  0  0  0
  152.3839  141.1605  158.5659 C   0  0  0  0  0  0  0  0  0  0  0  0
  153.5217  140.7562  159.2983 C   0  0  0  0  0  0  0  0  0  0  0  0
  153.9961  141.5704  160.3440 C   0  0  0  0  0  0  0  0  0  0  0  0
  153.3223  142.7708  160.6304 C   0  0  0  0  0  0  0  0  0  0  0  0
  152.1944  143.1069  159.8517 C   0  0  0  0  0  0  0  0  0  0  0  0
  151.4106  144.3893  160.0926 C   0  0  0  0  0  0  0  0  0  0  0  0
  151.8448  145.0378  161.1741 F   0  0  0  0  0  0  0  0  0  0  0  0
  151.5354  145.1965  159.0389 F   0  0  0  0  0  0  0  0  0  0  0  0
  150.1199  144.1020  160.2635 F   0  0  0  0  0  0  0  0  0  0  0  0
  151.7422  142.3206  158.8490 N   0  0  0  0  0  0  0  0  0  0  0  0
  152.9782  138.6933  155.5740 H   0  0  0  0  0  0  0  0  0  0  0  0
  152.5704  139.7810  154.2462 H   0  0  0  0  0  0  0  0  0  0  0  0
  152.0556  138.1000  154.1983 H   0  0  0  0  0  0  0  0  0  0  0  0
  150.5326  138.4392  156.0998 H   0  0  0  0  0  0  0  0  0  0  0  0
  148.4547  139.8007  156.0065 H   0  0  0  0  0  0  0  0  0  0  0  0
  147.9803  140.3106  154.3907 H   0  0  0  0  0  0  0  0  0  0  0  0
  148.7179  137.7318  153.8576 H   0  0  0  0  0  0  0  0  0  0  0  0
  145.9819  138.6616  154.8758 H   0  0  0  0  0  0  0  0  0  0  0  0
  146.5247  138.7353  153.2143 H   0  0  0  0  0  0  0  0  0  0  0  0
  145.0650  136.7265  153.6571 H   0  0  0  0  0  0  0  0  0  0  0  0
  146.6583  136.2841  153.0825 H   0  0  0  0  0  0  0  0  0  0  0  0
  145.7113  136.2552  155.9868 H   0  0  0  0  0  0  0  0  0  0  0  0
  146.1061  134.8581  155.0099 H   0  0  0  0  0  0  0  0  0  0  0  0
  147.9815  135.4889  156.5702 H   0  0  0  0  0  0  0  0  0  0  0  0
  148.4988  135.5708  154.8976 H   0  0  0  0  0  0  0  0  0  0  0  0
  152.4359  139.3700  157.5350 H   0  0  0  0  0  0  0  0  0  0  0  0
  154.0288  139.8310  159.0657 H   0  0  0  0  0  0  0  0  0  0  0  0
  154.8635  141.2779  160.9169 H   0  0  0  0  0  0  0  0  0  0  0  0
  153.6688  143.4116  161.4279 H   0  0  0  0  0  0  0  0  0  0  0  0
  1  2  1  0  0  0  0
  1 24  1  0  0  0  0
  1 25  1  0  0  0  0
  1 26  1  0  0  0  0
  2  3  1  0  0  0  0
  2 11  1  0  0  0  0
  2 27  1  0  0  0  0
  3  4  1  0  0  0  0
  4  5  1  0  0  0  0
  4 28  1  0  0  0  0
  4 29  1  0  0  0  0
  5 10  1  0  0  0  0
  5  6  1  0  0  0  0
  5 30  1  0  0  0  0
  6  7  1  0  0  0  0
  6 31  1  0  0  0  0
  6 32  1  0  0  0  0
  7  8  1  0  0  0  0
  7 33  1  0  0  0  0
  7 34  1  0  0  0  0
  8  9  1  0  0  0  0
  8 35  1  0  0  0  0
  8 36  1  0  0  0  0
  9 10  1  0  0  0  0
  9 37  1  0  0  0  0
  9 38  1  0  0  0  0
 11 12  2  0  0  0  0
 11 13  1  0  0  0  0
 13 14  1  0  0  0  0
 13 39  1  0  0  0  0
 14 23  1  0  0  0  0
 14 15  2  0  0  0  0
 15 16  1  0  0  0  0
 15 40  1  0  0  0  0
 16 17  2  0  0  0  0
 16 41  1  0  0  0  0
 17 18  1  0  0  0  0
 17 42  1  0  0  0  0
 18 19  1  0  0  0  0
 18 23  2  0  0  0  0
 19 20  1  0  0  0  0
 19 21  1  0  0  0  0
 19 22  1  0  0  0  0
M  END
> <s_m_source_file>
AV-unprocessed.smi

> <i_m_source_file_index>
946

> <i_lp_mmshare_version>
43012

> <i_f3d_flags>
0

> <s_epik_input>
TzFbQ0gyXVtDSDJdW0NIMl1bQ0gyXVtDQEhdMVtDSDJdT1tDQEBIXShbQ0gzXSlDKD1PKVtOSF1jMltjSF1bY0hdW2NIXWMobjIpQyhGKShGKUY=

> <s_epik_cmdline>
J2VwaWtfcHl0aG9uJywgJy1waCcsICc3LjAnLCAnLXRuJywgJzgnLCAnLW1hJywgJzIwMCcsICctbWV0YWxfYmluZGluZycsICctaW1hZScsICc8aW5maWxlLm1hZT4nLCAnLW9tYWUnLCAnPG91dGZpbGUubWFlPic=

> <r_lp_tautomer_probability>
1

> <r_epik_Ionization_Penalty>
1.32683e-06

> <r_epik_Ionization_Penalty_Charging>
0

> <r_epik_Ionization_Penalty_Neutral>
1.32683e-06

> <r_epik_State_Penalty>
-0

> <r_epik_Charging_Adjusted_Penalty>
0

> <i_epik_Tot_Q>
0

> <i_epik_Tot_abs_Q>
0

> <r_epik_Metal_State_Penalty>
-0

> <b_epik_Metal_Only>
0

> <s_lp_Force_Field>
OPLS_2005

> <r_lp_Energy>
15.1486

> <b_lp_Chiralities_Consistent>
1

> <s_lp_Variant>
AV-unprocessed.smi:946-1

> <Gold.Version>
5.8.1

> <Gold.Id.Protein>
6NUR|6NUR_protein|mol2

> <Gold.PLP.Fitness>
49.2489

> <Gold.PLP.PLP>
-48.2827

> <Gold.PLP.part.hbond>
-1.0000

> <Gold.PLP.part.metal>
0.0000

> <Gold.PLP.part.buried>
-3.3620

> <Gold.PLP.part.nonpolar>
-44.4743

> <Gold.PLP.part.repulsive>
0.8533

> <Gold.PLP.ligand.clash>
0.0000

> <Gold.PLP.ligand.torsion>
1.0299

> <Gold.PLP.Chemscore.Hbond>
1.0000

> <Gold.PLP.Chemscore.CHOScore>
0.0000

> <Gold.PLP.Chemscore.Metal>
0.0000

> <Gold.Chemscore.Hbonds>
donor molecule, donor type, donor heavy atom, donor atom, acceptor molecule, acceptor atom, score
      P1  H  7989  7998       L1     3  0.13

> <Gold.PLP.Chemscore.Internal.Correction>
0.0259

> <Gold.Rescore>
     Score         DG    S(hbond)    S(metal)    S(lipo)     H(rot)  DE(clash)    DE(int)     intcor
     11.21     -15.06       0.81        0.00      97.03       1.76       0.51       3.34       ----

> <Gold.Chemscore.Fitness>
11.2123

> <Gold.Chemscore.DG>
-15.0560

> <Gold.Chemscore.ZeroCoef>
-5.4800

> <Gold.Chemscore.Hbond>
0.8138

> <Gold.Chemscore.Metal>
0.0000

> <Gold.Chemscore.Lipo>
97.0294

> <Gold.Chemscore.Internal_Hbond>
0.0000

> <Gold.Chemscore.DEClash>
0.5075

> <Gold.Chemscore.DEInternal>
3.3362

> <Gold.Chemscore.Rot>
1.7557

> <Gold.Chemscore.Internal.Correction>
   9.000000E+99

> <Gold.Chemscore.Hbond.Weighted>
-2.7182

> <Gold.Chemscore.Metal.Weighted>
-0.0000

> <Gold.Chemscore.Lipo.Weighted>
-11.3524

> <Gold.Chemscore.Internal_Hbond.Weighted>
0.0000

> <Gold.Chemscore.DEClash.Weighted>
0.5075

> <Gold.Chemscore.DEInternal.Weighted>
3.3362

> <Gold.Chemscore.Rot.Weighted>
4.4946

> <Gold.Chemscore.Internal.Correction.Weighted>
   9.000000E+99

> <Gold.Protein.RotatedTorsions>
[ 6907 6896 6895 6894 ] final   99.76 input  -60.11 | X-H torsion
[ 7974 7965 7964 7962 ] final   90.43 input  175.53 | X-H torsion
[ 8008 7997 7996 7995 ] final   78.22 input   59.86 | X-H torsion
[ 10167 10162 10161 10158 ] final  -32.38 input  -65.29 | X-H torsion
[ 10718 10713 10712 10709 ] final  171.74 input   66.30 | X-H torsion
[ 10763 10752 10751 10750 ] final  153.01 input  -60.55 | X-H torsion
[ 11005 11000 10999 10996 ] final  157.12 input  -57.11 | X-H torsion

> <Gold.Protein.ActiveResidues>
 VAL166  LYS551  ARG553  GLY616  TRP617  ASP618  TYR619  PRO620  LYS621  CYS622 
 ASP623  PHE694  ASN695  SER759  ASP760  ASP761  ALA762  ILE779  LEU786  VAL792 
 PHE793  MET794  SER795  GLU796  ALA797  LYS798  CYS799  TRP800  GLU811  SER814 

> <Gold.Protein.RotatedAtoms>
  152.5386  134.0379  159.8054 H   0  0  0  0  0  0  0  0  0  0  0  0  # atno 6907 bound_to 6896
  151.0540  133.5592  159.2647 H   0  0  0  0  0  0  0  0  0  0  0  0  # atno 6908 bound_to 6896
  151.2516  135.0632  159.9118 H   0  0  0  0  0  0  0  0  0  0  0  0  # atno 6909 bound_to 6896
  145.5191  139.2279  143.2681 H   0  0  0  0  0  0  0  0  0  0  0  0  # atno 7974 bound_to 7965
  155.8526  140.3457  155.5703 H   0  0  0  0  0  0  0  0  0  0  0  0  # atno 8008 bound_to 7997
  155.8021  140.0886  157.1971 H   0  0  0  0  0  0  0  0  0  0  0  0  # atno 8009 bound_to 7997
  154.4008  140.1463  156.3274 H   0  0  0  0  0  0  0  0  0  0  0  0  # atno 8010 bound_to 7997
  140.7222  143.3699  151.1798 H   0  0  0  0  0  0  0  0  0  0  0  0  # atno 10167 bound_to 10162
  156.9891  131.0142  151.2861 H   0  0  0  0  0  0  0  0  0  0  0  0  # atno 10718 bound_to 10713
  154.1293  135.2827  155.3189 H   0  0  0  0  0  0  0  0  0  0  0  0  # atno 10763 bound_to 10752
  154.6367  135.5416  153.7745 H   0  0  0  0  0  0  0  0  0  0  0  0  # atno 10764 bound_to 10752
  153.0286  135.6476  154.1444 H   0  0  0  0  0  0  0  0  0  0  0  0  # atno 10765 bound_to 10752
  140.1739  134.8523  157.2724 H   0  0  0  0  0  0  0  0  0  0  0  0  # atno 11005 bound_to 11000
  146.2117  140.6002  142.9056 LP  0  0  0  0  0  0  0  0  0  0  0  0  # atno 17320 bound_to 7965
  144.7685  140.5586  143.6686 LP  0  0  0  0  0  0  0  0  0  0  0  0  # atno 17321 bound_to 7965
  139.7268  143.9135  152.3005 LP  0  0  0  0  0  0  0  0  0  0  0  0  # atno 17342 bound_to 10162
  139.8911  144.6965  150.8770 LP  0  0  0  0  0  0  0  0  0  0  0  0  # atno 17343 bound_to 10162
  157.5472  130.8158  149.8100 LP  0  0  0  0  0  0  0  0  0  0  0  0  # atno 17370 bound_to 10713
  156.0214  130.3794  150.1950 LP  0  0  0  0  0  0  0  0  0  0  0  0  # atno 17371 bound_to 10713
  140.2345  134.3870  155.7507 LP  0  0  0  0  0  0  0  0  0  0  0  0  # atno 17394 bound_to 11000
  141.2219  133.7232  156.8692 LP  0  0  0  0  0  0  0  0  0  0  0  0  # atno 17395 bound_to 11000

$$$$
