AV-unprocessed.smi:101|AV-procd|sdf|925|dock5
  -GOLD-   2262017433D 1   1.00000     0.00000
 Structure written by MMmdl.
 44 46  0  0  0  0  0  0  0  0  1 V2000
  144.9444  136.8025  155.7045 C   0  0  0  0  0  0  0  0  0  0  0  0
  145.5061  137.3963  154.4232 C   0  0  0  0  0  0  0  0  0  0  0  0
  146.6235  138.1673  154.4087 C   0  0  0  0  0  0  0  0  0  0  0  0
  147.1631  138.7210  153.2536 N   0  0  0  0  0  0  0  0  0  0  0  0
  148.4205  139.5721  153.2660 C   0  0  2  0  0  0  0  0  0  0  0  0
  149.3319  139.0446  154.1858 O   0  0  0  0  0  0  0  0  0  0  0  0
  149.4114  139.8915  155.3275 C   0  0  1  0  0  0  0  0  0  0  0  0
  150.7390  139.6502  156.0522 C   0  0  0  0  0  0  0  0  0  0  0  0
  150.9662  140.7385  156.9320 O   0  0  0  0  0  0  0  0  0  0  0  0
  152.0083  140.7199  157.7830 C   0  0  0  0  0  0  0  0  0  0  0  0
  152.7859  139.7695  157.8900 O   0  0  0  0  0  0  0  0  0  0  0  0
  152.1194  141.9724  158.5854 C   0  0  0  0  0  0  0  0  0  0  0  0
  151.5974  143.1789  158.0637 C   0  0  0  0  0  0  0  0  0  0  0  0
  151.6913  144.3775  158.7977 C   0  0  0  0  0  0  0  0  0  0  0  0
  152.3071  144.3839  160.0627 C   0  0  0  0  0  0  0  0  0  0  0  0
  152.8293  143.1899  160.5933 C   0  0  0  0  0  0  0  0  0  0  0  0
  152.7372  141.9905  159.8608 C   0  0  0  0  0  0  0  0  0  0  0  0
  149.2751  141.2728  154.6952 C   0  0  2  0  0  0  0  0  0  0  0  0
  148.9877  142.2947  155.6322 O   0  0  0  0  0  0  0  0  0  0  0  0
  148.1624  141.0445  153.6752 C   0  0  2  0  0  0  0  0  0  0  0  0
  146.8756  141.2584  154.2375 O   0  0  0  0  0  0  0  0  0  0  0  0
  146.5306  138.4841  152.0162 C   0  0  0  0  0  0  0  0  0  0  0  0
  146.9474  138.9512  150.9569 O   0  0  0  0  0  0  0  0  0  0  0  0
  145.3842  137.6924  152.0304 N   0  0  0  0  0  0  0  0  0  0  0  0
  144.8088  137.1161  153.1651 C   0  0  0  0  0  0  0  0  0  0  0  0
  143.7914  136.4346  153.0504 O   0  0  0  0  0  0  0  0  0  0  0  0
  144.9296  137.5208  151.1455 H   0  0  0  0  0  0  0  0  0  0  0  0
  145.5430  137.0756  156.5743 H   0  0  0  0  0  0  0  0  0  0  0  0
  144.9240  135.7139  155.6424 H   0  0  0  0  0  0  0  0  0  0  0  0
  143.9271  137.1557  155.8753 H   0  0  0  0  0  0  0  0  0  0  0  0
  147.1073  138.3490  155.3557 H   0  0  0  0  0  0  0  0  0  0  0  0
  148.8620  139.4677  152.2730 H   0  0  0  0  0  0  0  0  0  0  0  0
  148.5673  139.7059  155.9945 H   0  0  0  0  0  0  0  0  0  0  0  0
  150.7144  138.7046  156.5959 H   0  0  0  0  0  0  0  0  0  0  0  0
  151.5569  139.5996  155.3326 H   0  0  0  0  0  0  0  0  0  0  0  0
  151.1207  143.1989  157.0943 H   0  0  0  0  0  0  0  0  0  0  0  0
  151.2905  145.2932  158.3881 H   0  0  0  0  0  0  0  0  0  0  0  0
  152.3794  145.3031  160.6250 H   0  0  0  0  0  0  0  0  0  0  0  0
  153.3025  143.1930  161.5643 H   0  0  0  0  0  0  0  0  0  0  0  0
  153.1490  141.0925  160.2979 H   0  0  0  0  0  0  0  0  0  0  0  0
  150.1981  141.5245  154.1705 H   0  0  0  0  0  0  0  0  0  0  0  0
  148.9588  143.1223  155.1776 H   0  0  0  0  0  0  0  0  0  0  0  0
  148.2738  141.6937  152.8062 H   0  0  0  0  0  0  0  0  0  0  0  0
  146.7083  142.1883  154.2539 H   0  0  0  0  0  0  0  0  0  0  0  0
  1  2  1  0  0  0  0
  1 28  1  0  0  0  0
  1 29  1  0  0  0  0
  1 30  1  0  0  0  0
  2 25  1  0  0  0  0
  2  3  2  0  0  0  0
  3  4  1  0  0  0  0
  3 31  1  0  0  0  0
  4  5  1  0  0  0  0
  4 22  1  0  0  0  0
  5 20  1  0  0  0  0
  5  6  1  0  0  0  0
  5 32  1  0  0  0  0
  6  7  1  0  0  0  0
  7  8  1  0  0  0  0
  7 18  1  0  0  0  0
  7 33  1  0  0  0  0
  8  9  1  0  0  0  0
  8 34  1  0  0  0  0
  8 35  1  0  0  0  0
  9 10  1  0  0  0  0
 10 11  2  0  0  0  0
 10 12  1  0  0  0  0
 12 17  1  0  0  0  0
 12 13  2  0  0  0  0
 13 14  1  0  0  0  0
 13 36  1  0  0  0  0
 14 15  2  0  0  0  0
 14 37  1  0  0  0  0
 15 16  1  0  0  0  0
 15 38  1  0  0  0  0
 16 17  2  0  0  0  0
 16 39  1  0  0  0  0
 17 40  1  0  0  0  0
 18 19  1  0  0  0  0
 18 20  1  0  0  0  0
 18 41  1  0  0  0  0
 19 42  1  0  0  0  0
 20 21  1  0  0  0  0
 20 43  1  0  0  0  0
 21 44  1  0  0  0  0
 22 23  2  0  0  0  0
 22 24  1  0  0  0  0
 24 27  1  0  0  0  0
 24 25  1  0  0  0  0
 25 26  2  0  0  0  0
M  END
> <s_m_source_file>
AV-unprocessed.smi

> <i_m_source_file_index>
101

> <i_lp_mmshare_version>
43012

> <i_f3d_flags>
0

> <s_epik_input>
Tz1jMVtuSF1jKD1PKW4oW2NIXWMxW0NIM10pW0NAQEhdMk9bQ0BIXShbQ0BASF0oW09IXSlbQ0BIXTJbT0hdKVtDSDJdT0MoPU8pYzNbY0hdW2NIXVtjSF1bY0hdW2NIXTM=

> <s_epik_cmdline>
J2VwaWtfcHl0aG9uJywgJy1waCcsICc3LjAnLCAnLXRuJywgJzgnLCAnLW1hJywgJzIwMCcsICctbWV0YWxfYmluZGluZycsICctaW1hZScsICc8aW5maWxlLm1hZT4nLCAnLW9tYWUnLCAnPG91dGZpbGUubWFlPic=

> <r_lp_tautomer_probability>
0.999537

> <r_epik_Ionization_Penalty>
0.00263537

> <r_epik_Ionization_Penalty_Charging>
0.00263428

> <r_epik_Ionization_Penalty_Neutral>
1.09111e-06

> <r_epik_State_Penalty>
0.00183335

> <r_epik_Charging_Adjusted_Penalty>
0.00446763

> <i_epik_Tot_Q>
0

> <i_epik_Tot_abs_Q>
0

> <r_epik_Metal_State_Penalty>
1.00528

> <b_epik_Metal_Only>
0

> <s_epik_Chemistry_Notes>
This compound has an ester and may undergo hydrolysis at high or low pH. This compound contains an acetal/aminal-like group ( X-CH(R)-Y where X, Y are N, S, or O) that may be acid/base labile, releasing an aldehyde.

> <s_lp_Force_Field>
OPLS_2005

> <r_lp_Energy>
40.9352

> <b_lp_Chiralities_Consistent>
1

> <s_lp_Variant>
AV-unprocessed.smi:101-13

> <Gold.Version>
5.8.1

> <Gold.Id.Protein>
6NUR|6NUR_protein|mol2

> <Gold.PLP.Fitness>
50.2462

> <Gold.PLP.PLP>
-42.0504

> <Gold.PLP.part.hbond>
-3.9233

> <Gold.PLP.part.metal>
0.0000

> <Gold.PLP.part.buried>
-2.4043

> <Gold.PLP.part.nonpolar>
-38.4104

> <Gold.PLP.part.repulsive>
2.2264

> <Gold.PLP.ligand.clash>
0.0000

> <Gold.PLP.ligand.torsion>
1.0002

> <Gold.PLP.Chemscore.Hbond>
3.3520

> <Gold.PLP.Chemscore.CHOScore>
0.0000

> <Gold.PLP.Chemscore.Metal>
0.0000

> <Gold.Chemscore.Hbonds>
donor molecule, donor type, donor heavy atom, donor atom, acceptor molecule, acceptor atom, score
      L1  H    19    42       P1  8028  0.70
      L1  H    24    27       P1 10171  0.74
      P1  H  7954  7966       L1    23  0.80
      P1  H  7997  8009       L1    11  1.00

> <Gold.PLP.Chemscore.Internal.Correction>
0.1402

> <Gold.Rescore>
     Score         DG    S(hbond)    S(metal)    S(lipo)     H(rot)  DE(clash)    DE(int)     intcor
     13.79     -18.97       3.17        0.00      97.29       3.32       2.82       2.35       ----

> <Gold.Chemscore.Fitness>
13.7945

> <Gold.Chemscore.DG>
-18.9664

> <Gold.Chemscore.ZeroCoef>
-5.4800

> <Gold.Chemscore.Hbond>
3.1724

> <Gold.Chemscore.Metal>
0.0000

> <Gold.Chemscore.Lipo>
97.2885

> <Gold.Chemscore.Internal_Hbond>
0.0000

> <Gold.Chemscore.DEClash>
2.8220

> <Gold.Chemscore.DEInternal>
2.3500

> <Gold.Chemscore.Rot>
3.3172

> <Gold.Chemscore.Internal.Correction>
   9.000000E+99

> <Gold.Chemscore.Hbonds>
donor molecule, donor type, donor heavy atom, donor atom, acceptor molecule, acceptor atom, score
      L1  H    19    42       P1  8028  0.72
      L1  H    24    27       P1 10171  0.70
      P1  H  7954  7966       L1    23  0.77
      P1  H  7997  8009       L1    11  0.79

> <Gold.Chemscore.Hbond.Weighted>
-10.5957

> <Gold.Chemscore.Metal.Weighted>
-0.0000

> <Gold.Chemscore.Lipo.Weighted>
-11.3828

> <Gold.Chemscore.Internal_Hbond.Weighted>
0.0000

> <Gold.Chemscore.DEClash.Weighted>
2.8220

> <Gold.Chemscore.DEInternal.Weighted>
2.3500

> <Gold.Chemscore.Rot.Weighted>
8.4920

> <Gold.Chemscore.Internal.Correction.Weighted>
   9.000000E+99

> <Gold.Protein.RotatedTorsions>
[ 6907 6896 6895 6894 ] final  108.46 input  -60.11 | X-H torsion
[ 7974 7965 7964 7962 ] final  140.68 input  175.53 | X-H torsion
[ 8008 7997 7996 7995 ] final  166.35 input   59.86 | X-H torsion
[ 10167 10162 10161 10158 ] final  -35.49 input  -65.29 | X-H torsion
[ 10718 10713 10712 10709 ] final -101.62 input   66.30 | X-H torsion
[ 10763 10752 10751 10750 ] final   44.81 input  -60.55 | X-H torsion
[ 11005 11000 10999 10996 ] final   90.54 input  -57.11 | X-H torsion

> <Gold.Protein.ActiveResidues>
 VAL166  LYS551  ARG553  GLY616  TRP617  ASP618  TYR619  PRO620  LYS621  CYS622 
 ASP623  PHE694  ASN695  SER759  ASP760  ASP761  ALA762  ILE779  LEU786  VAL792 
 PHE793  MET794  SER795  GLU796  ALA797  LYS798  CYS799  TRP800  GLU811  SER814 

> <Gold.Protein.RotatedAtoms>
  152.5111  133.9085  159.7476 H   0  0  0  0  0  0  0  0  0  0  0  0  # atno 6907 bound_to 6896
  150.9484  133.6568  159.2783 H   0  0  0  0  0  0  0  0  0  0  0  0  # atno 6908 bound_to 6896
  151.3855  135.0952  159.9562 H   0  0  0  0  0  0  0  0  0  0  0  0  # atno 6909 bound_to 6896
  144.9165  139.5224  143.5684 H   0  0  0  0  0  0  0  0  0  0  0  0  # atno 7974 bound_to 7965
  156.1725  140.1646  156.8421 H   0  0  0  0  0  0  0  0  0  0  0  0  # atno 8008 bound_to 7997
  154.5272  140.0765  156.8314 H   0  0  0  0  0  0  0  0  0  0  0  0  # atno 8009 bound_to 7997
  155.3482  140.3388  155.4241 H   0  0  0  0  0  0  0  0  0  0  0  0  # atno 8010 bound_to 7997
  140.7164  143.3473  151.2228 H   0  0  0  0  0  0  0  0  0  0  0  0  # atno 10167 bound_to 10162
  156.0201  130.5382  150.6990 H   0  0  0  0  0  0  0  0  0  0  0  0  # atno 10718 bound_to 10713
  152.9835  135.6059  154.3335 H   0  0  0  0  0  0  0  0  0  0  0  0  # atno 10763 bound_to 10752
  154.3037  135.2772  155.2601 H   0  0  0  0  0  0  0  0  0  0  0  0  # atno 10764 bound_to 10752
  154.4842  135.5909  153.6467 H   0  0  0  0  0  0  0  0  0  0  0  0  # atno 10765 bound_to 10752
  139.8854  134.8620  156.3300 H   0  0  0  0  0  0  0  0  0  0  0  0  # atno 11005 bound_to 11000
  146.3184  139.8012  142.8965 LP  0  0  0  0  0  0  0  0  0  0  0  0  # atno 17320 bound_to 7965
  145.3367  141.0278  143.3416 LP  0  0  0  0  0  0  0  0  0  0  0  0  # atno 17321 bound_to 7965
  139.6996  143.9555  152.2899 LP  0  0  0  0  0  0  0  0  0  0  0  0  # atno 17342 bound_to 10162
  139.9244  144.6780  150.8428 LP  0  0  0  0  0  0  0  0  0  0  0  0  # atno 17343 bound_to 10162
  157.4654  131.0887  151.0700 LP  0  0  0  0  0  0  0  0  0  0  0  0  # atno 17370 bound_to 10713
  157.1176  130.6048  149.5497 LP  0  0  0  0  0  0  0  0  0  0  0  0  # atno 17371 bound_to 10713
  140.9729  133.7316  156.0561 LP  0  0  0  0  0  0  0  0  0  0  0  0  # atno 17394 bound_to 11000
  140.7847  134.3685  157.5479 LP  0  0  0  0  0  0  0  0  0  0  0  0  # atno 17395 bound_to 11000

$$$$
