AV-unprocessed.smi:2786|AV-procd|sdf|10753|dock1
  -GOLD-   2272015183D 1   1.00000     0.00000
 Structure written by MMmdl.
 27 28  0  0  0  0  0  0  0  0  2 V2000
  152.8282  141.9975  159.9514 C   0  0  0  0  0  0  0  0  0  0  0  0
  152.1979  143.0364  159.1345 N   0  0  0  0  0  0  0  0  0  0  0  0
  152.2240  144.3873  159.3698 C   0  0  0  0  0  0  0  0  0  0  0  0
  151.5024  144.9755  158.3645 C   0  0  0  0  0  0  0  0  0  0  0  0
  151.0676  143.9602  157.5571 N   0  3  0  0  0  0  0  0  0  0  0  0
  151.4965  142.7782  158.0178 C   0  0  0  0  0  0  0  0  0  0  0  0
  151.2087  141.4396  157.4040 C   0  0  1  0  0  0  0  0  0  0  0  0
  150.4923  141.5949  156.0445 C   0  0  0  0  0  0  0  0  0  0  0  0
  150.1982  140.2874  155.4558 N   0  0  0  0  0  0  0  0  0  0  0  0
  151.4186  139.4949  155.3013 C   0  0  0  0  0  0  0  0  0  0  0  0
  152.1308  139.3293  156.6559 C   0  0  0  0  0  0  0  0  0  0  0  0
  152.4268  140.6344  157.2511 N   0  0  0  0  0  0  0  0  0  0  0  0
  153.2363  142.4435  160.8590 H   0  0  0  0  0  0  0  0  0  0  0  0
  153.6342  141.5328  159.3828 H   0  0  0  0  0  0  0  0  0  0  0  0
  152.0851  141.2473  160.2229 H   0  0  0  0  0  0  0  0  0  0  0  0
  152.7391  144.8195  160.2155 H   0  0  0  0  0  0  0  0  0  0  0  0
  151.2706  146.0125  158.1691 H   0  0  0  0  0  0  0  0  0  0  0  0
  150.5389  140.9304  158.0977 H   0  0  0  0  0  0  0  0  0  0  0  0
  149.5652  142.1538  156.1737 H   0  0  0  0  0  0  0  0  0  0  0  0
  151.1127  142.1775  155.3618 H   0  0  0  0  0  0  0  0  0  0  0  0
  149.7610  140.4142  154.5482 H   0  0  0  0  0  0  0  0  0  0  0  0
  151.1759  138.5154  154.8885 H   0  0  0  0  0  0  0  0  0  0  0  0
  152.0885  139.9754  154.5869 H   0  0  0  0  0  0  0  0  0  0  0  0
  151.5051  138.7448  157.3319 H   0  0  0  0  0  0  0  0  0  0  0  0
  153.0536  138.7649  156.5217 H   0  0  0  0  0  0  0  0  0  0  0  0
  152.8499  140.4903  158.1624 H   0  0  0  0  0  0  0  0  0  0  0  0
  150.5039  144.0784  156.7245 H   0  0  0  0  0  0  0  0  0  0  0  0
  1  2  1  0  0  0  0
  1 13  1  0  0  0  0
  1 14  1  0  0  0  0
  1 15  1  0  0  0  0
  2  6  1  0  0  0  0
  2  3  1  0  0  0  0
  3  4  2  0  0  0  0
  3 16  1  0  0  0  0
  4  5  1  0  0  0  0
  4 17  1  0  0  0  0
  5  6  2  0  0  0  0
  5 27  1  0  0  0  0
  6  7  1  0  0  0  0
  7 12  1  0  0  0  0
  7  8  1  0  0  0  0
  7 18  1  0  0  0  0
  8  9  1  0  0  0  0
  8 19  1  0  0  0  0
  8 20  1  0  0  0  0
  9 10  1  0  0  0  0
  9 21  1  0  0  0  0
 10 11  1  0  0  0  0
 10 22  1  0  0  0  0
 10 23  1  0  0  0  0
 11 12  1  0  0  0  0
 11 24  1  0  0  0  0
 11 25  1  0  0  0  0
 12 26  1  0  0  0  0
M  CHG  1   5   1
M  END
> <s_m_source_file>
AV-unprocessed.smi

> <i_m_source_file_index>
2786

> <i_lp_mmshare_version>
43012

> <i_f3d_flags>
0

> <s_epik_input>
W0NIM11uMVtjSF1bY0hdbmMxW0NAQEhdMltDSDJdW05IXVtDSDJdW0NIMl1bTkhdMg==

> <s_epik_cmdline>
J2VwaWtfcHl0aG9uJywgJy1waCcsICc3LjAnLCAnLXRuJywgJzgnLCAnLW1hJywgJzIwMCcsICctbWV0YWxfYmluZGluZycsICctaW1hZScsICc8aW5maWxlLm1hZT4nLCAnLW9tYWUnLCAnPG91dGZpbGUubWFlPic=

> <r_epik_Ionization_Penalty>
1.38811

> <r_epik_Ionization_Penalty_Charging>
0

> <r_epik_Ionization_Penalty_Neutral>
1.38811

> <r_epik_State_Penalty>
1.49833

> <r_epik_Charging_Adjusted_Penalty>
1.49833

> <i_epik_Tot_Q>
1

> <i_epik_Tot_abs_Q>
1

> <r_epik_Metal_State_Penalty>
3.89997

> <b_epik_Metal_Only>
0

> <s_lp_Force_Field>
OPLS_2005

> <r_lp_Energy>
24.8343

> <b_lp_Chiralities_Consistent>
1

> <s_lp_Variant>
AV-unprocessed.smi:2786-6

> <Gold.Version>
5.8.1

> <Gold.Id.Protein>
6NUR|6NUR_protein|mol2

> <Gold.PLP.Fitness>
34.5752

> <Gold.PLP.PLP>
-28.8271

> <Gold.PLP.part.hbond>
-2.0000

> <Gold.PLP.part.metal>
0.0000

> <Gold.PLP.part.buried>
-1.2837

> <Gold.PLP.part.nonpolar>
-24.9280

> <Gold.PLP.part.repulsive>
0.0173

> <Gold.PLP.ligand.clash>
0.0000

> <Gold.PLP.ligand.torsion>
0.1463

> <Gold.PLP.Chemscore.Hbond>
2.0076

> <Gold.PLP.Chemscore.CHOScore>
0.0000

> <Gold.PLP.Chemscore.Metal>
0.0000

> <Gold.Chemscore.Hbonds>
donor molecule, donor type, donor heavy atom, donor atom, acceptor molecule, acceptor atom, score
      L1  H     5    27       P1  8028  2.00

> <Gold.PLP.Chemscore.Internal.Correction>
0.0177

> <Gold.Rescore>
     Score         DG    S(hbond)    S(metal)    S(lipo)     H(rot)  DE(clash)    DE(int)     intcor
     13.23     -13.41       0.97        0.00      61.96       1.00       0.14       0.04       ----

> <Gold.Chemscore.Fitness>
13.2299

> <Gold.Chemscore.DG>
-13.4091

> <Gold.Chemscore.ZeroCoef>
-5.4800

> <Gold.Chemscore.Hbond>
0.9699

> <Gold.Chemscore.Metal>
0.0000

> <Gold.Chemscore.Lipo>
61.9622

> <Gold.Chemscore.Internal_Hbond>
0.0000

> <Gold.Chemscore.DEClash>
0.1363

> <Gold.Chemscore.DEInternal>
0.0429

> <Gold.Chemscore.Rot>
1.0000

> <Gold.Chemscore.Internal.Correction>
   9.000000E+99

> <Gold.Chemscore.Hbonds>
donor molecule, donor type, donor heavy atom, donor atom, acceptor molecule, acceptor atom, score
      L1  H     5    27       P1  8028  0.92

> <Gold.Chemscore.Hbond.Weighted>
-3.2395

> <Gold.Chemscore.Metal.Weighted>
-0.0000

> <Gold.Chemscore.Lipo.Weighted>
-7.2496

> <Gold.Chemscore.Internal_Hbond.Weighted>
0.0000

> <Gold.Chemscore.DEClash.Weighted>
0.1363

> <Gold.Chemscore.DEInternal.Weighted>
0.0429

> <Gold.Chemscore.Rot.Weighted>
2.5600

> <Gold.Chemscore.Internal.Correction.Weighted>
   9.000000E+99

> <Gold.Protein.RotatedTorsions>
[ 6907 6896 6895 6894 ] final   81.24 input  -60.11 | X-H torsion
[ 7974 7965 7964 7962 ] final   75.27 input  175.53 | X-H torsion
[ 8008 7997 7996 7995 ] final -171.82 input   59.86 | X-H torsion
[ 10167 10162 10161 10158 ] final  -80.81 input  -65.29 | X-H torsion
[ 10718 10713 10712 10709 ] final   25.16 input   66.30 | X-H torsion
[ 10763 10752 10751 10750 ] final  -12.51 input  -60.55 | X-H torsion
[ 11005 11000 10999 10996 ] final  151.85 input  -57.11 | X-H torsion

> <Gold.Protein.ActiveResidues>
 VAL166  LYS551  ARG553  GLY616  TRP617  ASP618  TYR619  PRO620  LYS621  CYS622 
 ASP623  PHE694  ASN695  SER759  ASP760  ASP761  ALA762  ILE779  LEU786  VAL792 
 PHE793  MET794  SER795  GLU796  ALA797  LYS798  CYS799  TRP800  GLU811  SER814 

> <Gold.Protein.RotatedAtoms>
  152.5262  134.3234  159.9156 H   0  0  0  0  0  0  0  0  0  0  0  0  # atno 6907 bound_to 6896
  151.3184  133.4044  159.2660 H   0  0  0  0  0  0  0  0  0  0  0  0  # atno 6908 bound_to 6896
  150.9980  134.9316  159.7995 H   0  0  0  0  0  0  0  0  0  0  0  0  # atno 6909 bound_to 6896
  145.7177  139.2637  143.1614 H   0  0  0  0  0  0  0  0  0  0  0  0  # atno 7974 bound_to 7965
  155.9365  140.1101  157.1090 H   0  0  0  0  0  0  0  0  0  0  0  0  # atno 8008 bound_to 7997
  154.4081  140.1227  156.4937 H   0  0  0  0  0  0  0  0  0  0  0  0  # atno 8009 bound_to 7997
  155.7015  140.3472  155.4937 H   0  0  0  0  0  0  0  0  0  0  0  0  # atno 8010 bound_to 7997
  140.4469  143.2496  151.8545 H   0  0  0  0  0  0  0  0  0  0  0  0  # atno 10167 bound_to 10162
  157.1896  130.6840  149.6144 H   0  0  0  0  0  0  0  0  0  0  0  0  # atno 10718 bound_to 10713
  153.4996  135.7017  153.5839 H   0  0  0  0  0  0  0  0  0  0  0  0  # atno 10763 bound_to 10752
  153.3976  135.3880  155.1966 H   0  0  0  0  0  0  0  0  0  0  0  0  # atno 10764 bound_to 10752
  154.8711  135.3873  154.4465 H   0  0  0  0  0  0  0  0  0  0  0  0  # atno 10765 bound_to 10752
  140.1255  134.8836  157.2131 H   0  0  0  0  0  0  0  0  0  0  0  0  # atno 11005 bound_to 11000
  146.0654  140.7926  142.9714 LP  0  0  0  0  0  0  0  0  0  0  0  0  # atno 17320 bound_to 7965
  144.6925  140.3261  143.7224 LP  0  0  0  0  0  0  0  0  0  0  0  0  # atno 17321 bound_to 7965
  139.4793  144.5165  151.8861 LP  0  0  0  0  0  0  0  0  0  0  0  0  # atno 17342 bound_to 10162
  140.4253  144.2189  150.5887 LP  0  0  0  0  0  0  0  0  0  0  0  0  # atno 17343 bound_to 10162
  155.9713  130.4619  150.6127 LP  0  0  0  0  0  0  0  0  0  0  0  0  # atno 17370 bound_to 10713
  157.3874  131.0790  151.1424 LP  0  0  0  0  0  0  0  0  0  0  0  0  # atno 17371 bound_to 10713
  140.2910  134.3241  155.7315 LP  0  0  0  0  0  0  0  0  0  0  0  0  # atno 17394 bound_to 11000
  141.2160  133.7534  156.9502 LP  0  0  0  0  0  0  0  0  0  0  0  0  # atno 17395 bound_to 11000

$$$$
