AV-unprocessed.smi:1830|AV-procd|sdf|7439|dock10
  -GOLD-   22720 9123D 1   1.00000     0.00000
 Structure written by MMmdl.
 53 56  0  0  0  0  0  0  0  0  2 V2000
  149.4906  132.8831  158.3237 O   0  0  0  0  0  0  0  0  0  0  0  0
  149.1031  133.7949  157.5933 C   0  0  0  0  0  0  0  0  0  0  0  0
  149.2201  133.7757  156.2582 N   0  0  0  0  0  0  0  0  0  0  0  0
  149.8012  132.6857  155.4812 C   0  0  0  0  0  0  0  0  0  0  0  0
  149.0744  132.4866  154.1386 C   0  0  1  0  0  0  0  0  0  0  0  0
  148.2976  131.1488  154.1014 C   0  0  0  0  0  0  0  0  0  0  0  0
  147.5443  131.0838  152.8355 N   0  3  1  0  0  0  0  0  0  0  0  0
  146.7374  129.8824  152.5610 C   0  0  0  0  0  0  0  0  0  0  0  0
  145.6612  130.3512  151.5607 C   0  0  0  0  0  0  0  0  0  0  0  0
  145.8298  131.8779  151.4495 C   0  0  0  0  0  0  0  0  0  0  0  0
  146.6369  132.2246  152.6963 C   0  0  2  0  0  0  0  0  0  0  0  0
  147.4593  133.5189  152.6940 C   0  0  0  0  0  0  0  0  0  0  0  0
  148.1669  133.5759  153.9329 O   0  0  0  0  0  0  0  0  0  0  0  0
  148.4951  134.9175  158.0108 N   0  0  0  0  0  0  0  0  0  0  0  0
  148.0886  135.2510  159.3332 C   0  0  0  0  0  0  0  0  0  0  0  0
  147.6674  134.2574  160.2506 C   0  0  0  0  0  0  0  0  0  0  0  0
  147.3368  134.6279  161.5655 C   0  0  0  0  0  0  0  0  0  0  0  0
  147.4555  135.9808  161.9241 C   0  0  0  0  0  0  0  0  0  0  0  0
  147.8696  136.9359  161.0677 N   0  0  0  0  0  0  0  0  0  0  0  0
  148.1784  136.5967  159.7918 C   0  0  0  0  0  0  0  0  0  0  0  0
  148.5920  137.6433  158.9357 N   0  0  0  0  0  0  0  0  0  0  0  0
  147.7581  138.0530  157.8105 C   0  0  0  0  0  0  0  0  0  0  0  0
  148.6738  138.8954  156.9274 C   0  0  0  0  0  0  0  0  0  0  0  0
  150.0175  138.1907  157.0878 C   0  0  0  0  0  0  0  0  0  0  0  0
  149.9957  137.6943  158.5374 C   0  0  0  0  0  0  0  0  0  0  0  0
  148.8756  134.5711  155.7406 H   0  0  0  0  0  0  0  0  0  0  0  0
  150.8450  132.9412  155.2974 H   0  0  0  0  0  0  0  0  0  0  0  0
  149.8091  131.7589  156.0577 H   0  0  0  0  0  0  0  0  0  0  0  0
  149.8121  132.4906  153.3338 H   0  0  0  0  0  0  0  0  0  0  0  0
  148.9838  130.3034  154.1633 H   0  0  0  0  0  0  0  0  0  0  0  0
  147.6117  131.0762  154.9472 H   0  0  0  0  0  0  0  0  0  0  0  0
  147.3567  129.0777  152.1640 H   0  0  0  0  0  0  0  0  0  0  0  0
  146.2674  129.5294  153.4802 H   0  0  0  0  0  0  0  0  0  0  0  0
  145.7785  129.8741  150.5873 H   0  0  0  0  0  0  0  0  0  0  0  0
  144.6679  130.0974  151.9330 H   0  0  0  0  0  0  0  0  0  0  0  0
  146.3983  132.1244  150.5515 H   0  0  0  0  0  0  0  0  0  0  0  0
  144.8780  132.4079  151.4018 H   0  0  0  0  0  0  0  0  0  0  0  0
  145.9574  132.2374  153.5516 H   0  0  0  0  0  0  0  0  0  0  0  0
  148.1564  133.5517  151.8552 H   0  0  0  0  0  0  0  0  0  0  0  0
  146.8069  134.3885  152.6127 H   0  0  0  0  0  0  0  0  0  0  0  0
  148.1642  135.5403  157.2884 H   0  0  0  0  0  0  0  0  0  0  0  0
  147.6138  133.2157  159.9738 H   0  0  0  0  0  0  0  0  0  0  0  0
  147.0123  133.8902  162.2843 H   0  0  0  0  0  0  0  0  0  0  0  0
  147.2178  136.3046  162.9265 H   0  0  0  0  0  0  0  0  0  0  0  0
  147.4112  137.1847  157.2486 H   0  0  0  0  0  0  0  0  0  0  0  0
  146.8864  138.6162  158.1452 H   0  0  0  0  0  0  0  0  0  0  0  0
  148.3370  138.9462  155.8916 H   0  0  0  0  0  0  0  0  0  0  0  0
  148.7369  139.9127  157.3162 H   0  0  0  0  0  0  0  0  0  0  0  0
  150.0658  137.3382  156.4088 H   0  0  0  0  0  0  0  0  0  0  0  0
  150.8675  138.8391  156.8743 H   0  0  0  0  0  0  0  0  0  0  0  0
  150.5167  138.4046  159.1793 H   0  0  0  0  0  0  0  0  0  0  0  0
  150.4870  136.7250  158.6343 H   0  0  0  0  0  0  0  0  0  0  0  0
  148.2133  131.1575  152.0823 H   0  0  0  0  0  0  0  0  0  0  0  0
  1  2  2  0  0  0  0
  2  3  1  0  0  0  0
  2 14  1  0  0  0  0
  3  4  1  0  0  0  0
  3 26  1  0  0  0  0
  4  5  1  0  0  0  0
  4 27  1  0  0  0  0
  4 28  1  0  0  0  0
  5 13  1  0  0  0  0
  5  6  1  0  0  0  0
  5 29  1  0  0  0  0
  6  7  1  0  0  0  0
  6 30  1  0  0  0  0
  6 31  1  0  0  0  0
  7 11  1  0  0  0  0
  7  8  1  0  0  0  0
  7 53  1  0  0  0  0
  8  9  1  0  0  0  0
  8 32  1  0  0  0  0
  8 33  1  0  0  0  0
  9 10  1  0  0  0  0
  9 34  1  0  0  0  0
  9 35  1  0  0  0  0
 10 11  1  0  0  0  0
 10 36  1  0  0  0  0
 10 37  1  0  0  0  0
 11 12  1  0  0  0  0
 11 38  1  0  0  0  0
 12 13  1  0  0  0  0
 12 39  1  0  0  0  0
 12 40  1  0  0  0  0
 14 15  1  0  0  0  0
 14 41  1  0  0  0  0
 15 20  1  0  0  0  0
 15 16  2  0  0  0  0
 16 17  1  0  0  0  0
 16 42  1  0  0  0  0
 17 18  2  0  0  0  0
 17 43  1  0  0  0  0
 18 19  1  0  0  0  0
 18 44  1  0  0  0  0
 19 20  2  0  0  0  0
 20 21  1  0  0  0  0
 21 25  1  0  0  0  0
 21 22  1  0  0  0  0
 22 23  1  0  0  0  0
 22 45  1  0  0  0  0
 22 46  1  0  0  0  0
 23 24  1  0  0  0  0
 23 47  1  0  0  0  0
 23 48  1  0  0  0  0
 24 25  1  0  0  0  0
 24 49  1  0  0  0  0
 24 50  1  0  0  0  0
 25 51  1  0  0  0  0
 25 52  1  0  0  0  0
M  CHG  1   7   1
M  END
> <s_m_source_file>
AV-unprocessed.smi

> <i_m_source_file_index>
1830

> <i_lp_mmshare_version>
43012

> <i_f3d_flags>
0

> <s_epik_input>
W0NIMl0xW0NIMl1bQ0gyXVtDQEhdKE4xMilbQ0gyXU9bQ0BASF0oW0NIMl0yKVtDSDJdW05IXUMoPU8pW05IXWMzW2NIXVtjSF1bY0hdbmMzTjRbQ0gyXVtDSDJdW0NIMl1bQ0gyXTQ=

> <s_epik_cmdline>
J2VwaWtfcHl0aG9uJywgJy1waCcsICc3LjAnLCAnLXRuJywgJzgnLCAnLW1hJywgJzIwMCcsICctbWV0YWxfYmluZGluZycsICctaW1hZScsICc8aW5maWxlLm1hZT4nLCAnLW9tYWUnLCAnPG91dGZpbGUubWFlPic=

> <r_lp_tautomer_probability>
1

> <r_epik_Ionization_Penalty>
0.193547

> <r_epik_Ionization_Penalty_Charging>
0.10673

> <r_epik_Ionization_Penalty_Neutral>
0.0868166

> <r_epik_State_Penalty>
0.173595

> <r_epik_Charging_Adjusted_Penalty>
0.280326

> <i_epik_Tot_Q>
1

> <i_epik_Tot_abs_Q>
1

> <r_epik_Metal_State_Penalty>
0.164683

> <b_epik_Metal_Only>
0

> <s_lp_Force_Field>
OPLS_2005

> <r_lp_Energy>
64.524

> <b_lp_Chiralities_Consistent>
1

> <s_lp_Variant>
AV-unprocessed.smi:1830-8

> <Gold.Version>
5.8.1

> <Gold.Id.Protein>
6NUR|6NUR_protein|mol2

> <Gold.PLP.Fitness>
44.9908

> <Gold.PLP.PLP>
-35.5467

> <Gold.PLP.part.hbond>
-4.6655

> <Gold.PLP.part.metal>
0.0000

> <Gold.PLP.part.buried>
-4.5986

> <Gold.PLP.part.nonpolar>
-26.8018

> <Gold.PLP.part.repulsive>
0.2210

> <Gold.PLP.ligand.clash>
0.0000

> <Gold.PLP.ligand.torsion>
1.2820

> <Gold.PLP.Chemscore.Hbond>
3.8880

> <Gold.PLP.Chemscore.CHOScore>
0.0000

> <Gold.PLP.Chemscore.Metal>
0.0000

> <Gold.Chemscore.Hbonds>
donor molecule, donor type, donor heavy atom, donor atom, acceptor molecule, acceptor atom, score
      L1  H     7    53       P1 10747  1.00
      P1  H  6896  6907       L1     1  0.90
      P1  H  6931  6943       L1    19  1.00
      P1  H  6934  6947       L1    19  0.49

> <Gold.PLP.Chemscore.Internal.Correction>
0.3441

> <Gold.Rescore>
     Score         DG    S(hbond)    S(metal)    S(lipo)     H(rot)  DE(clash)    DE(int)     intcor
     19.55     -21.68       3.02        0.00      83.04       1.41       0.00       2.13       ----

> <Gold.Chemscore.Fitness>
19.5490

> <Gold.Chemscore.DG>
-21.6831

> <Gold.Chemscore.ZeroCoef>
-5.4800

> <Gold.Chemscore.Hbond>
3.0205

> <Gold.Chemscore.Metal>
0.0000

> <Gold.Chemscore.Lipo>
83.0392

> <Gold.Chemscore.Internal_Hbond>
0.0000

> <Gold.Chemscore.DEClash>
0.0000

> <Gold.Chemscore.DEInternal>
2.1341

> <Gold.Chemscore.Rot>
1.4067

> <Gold.Chemscore.Internal.Correction>
   9.000000E+99

> <Gold.Chemscore.Hbonds>
donor molecule, donor type, donor heavy atom, donor atom, acceptor molecule, acceptor atom, score
      L1  H     7    53       P1 10747  0.97
      P1  H  6896  6907       L1     1  0.18
      P1  H  6931  6943       L1    19  0.76
      P1  H  6934  6947       L1    19  0.24

> <Gold.Chemscore.Hbond.Weighted>
-10.0886

> <Gold.Chemscore.Metal.Weighted>
-0.0000

> <Gold.Chemscore.Lipo.Weighted>
-9.7156

> <Gold.Chemscore.Internal_Hbond.Weighted>
0.0000

> <Gold.Chemscore.DEClash.Weighted>
0.0000

> <Gold.Chemscore.DEInternal.Weighted>
2.1341

> <Gold.Chemscore.Rot.Weighted>
3.6011

> <Gold.Chemscore.Internal.Correction.Weighted>
   9.000000E+99

> <Gold.Protein.RotatedTorsions>
[ 6907 6896 6895 6894 ] final -115.17 input  -60.11 | X-H torsion
[ 7974 7965 7964 7962 ] final  149.79 input  175.53 | X-H torsion
[ 8008 7997 7996 7995 ] final  -99.20 input   59.86 | X-H torsion
[ 10167 10162 10161 10158 ] final   77.05 input  -65.29 | X-H torsion
[ 10718 10713 10712 10709 ] final -142.03 input   66.30 | X-H torsion
[ 10763 10752 10751 10750 ] final   82.26 input  -60.55 | X-H torsion
[ 11005 11000 10999 10996 ] final  -48.12 input  -57.11 | X-H torsion

> <Gold.Protein.ActiveResidues>
 VAL166  LYS551  ARG553  GLY616  TRP617  ASP618  TYR619  PRO620  LYS621  CYS622 
 ASP623  PHE694  ASN695  SER759  ASP760  ASP761  ALA762  ILE779  LEU786  VAL792 
 PHE793  MET794  SER795  GLU796  ALA797  LYS798  CYS799  TRP800  GLU811  SER814 

> <Gold.Protein.RotatedAtoms>
  150.7957  133.8697  159.3254 H   0  0  0  0  0  0  0  0  0  0  0  0  # atno 6907 bound_to 6896
  151.6522  135.0998  160.0172 H   0  0  0  0  0  0  0  0  0  0  0  0  # atno 6908 bound_to 6896
  152.4038  133.6819  159.6374 H   0  0  0  0  0  0  0  0  0  0  0  0  # atno 6909 bound_to 6896
  144.8412  139.6325  143.6016 H   0  0  0  0  0  0  0  0  0  0  0  0  # atno 7974 bound_to 7965
  154.8116  140.0449  157.1347 H   0  0  0  0  0  0  0  0  0  0  0  0  # atno 8008 bound_to 7997
  154.9362  140.3046  155.5123 H   0  0  0  0  0  0  0  0  0  0  0  0  # atno 8009 bound_to 7997
  156.2972  140.2314  156.4426 H   0  0  0  0  0  0  0  0  0  0  0  0  # atno 8010 bound_to 7997
  139.9857  144.5794  150.7862 H   0  0  0  0  0  0  0  0  0  0  0  0  # atno 10167 bound_to 10162
  156.3411  130.7638  151.1774 H   0  0  0  0  0  0  0  0  0  0  0  0  # atno 10718 bound_to 10713
  153.1188  135.4735  154.9160 H   0  0  0  0  0  0  0  0  0  0  0  0  # atno 10763 bound_to 10752
  154.7555  135.3117  154.8481 H   0  0  0  0  0  0  0  0  0  0  0  0  # atno 10764 bound_to 10752
  153.9051  135.6871  153.4807 H   0  0  0  0  0  0  0  0  0  0  0  0  # atno 10765 bound_to 10752
  141.0681  133.6687  156.3395 H   0  0  0  0  0  0  0  0  0  0  0  0  # atno 11005 bound_to 11000
  146.2704  139.6621  142.9300 LP  0  0  0  0  0  0  0  0  0  0  0  0  # atno 17320 bound_to 7965
  145.4690  141.0435  143.2709 LP  0  0  0  0  0  0  0  0  0  0  0  0  # atno 17321 bound_to 7965
  140.7473  143.2904  151.3346 LP  0  0  0  0  0  0  0  0  0  0  0  0  # atno 17342 bound_to 10162
  139.6377  144.0599  152.2529 LP  0  0  0  0  0  0  0  0  0  0  0  0  # atno 17343 bound_to 10162
  157.7447  131.0454  150.4843 LP  0  0  0  0  0  0  0  0  0  0  0  0  # atno 17370 bound_to 10713
  156.5023  130.4120  149.6346 LP  0  0  0  0  0  0  0  0  0  0  0  0  # atno 17371 bound_to 10713
  140.5730  134.5821  157.5462 LP  0  0  0  0  0  0  0  0  0  0  0  0  # atno 17394 bound_to 11000
  139.9496  134.7640  156.0479 LP  0  0  0  0  0  0  0  0  0  0  0  0  # atno 17395 bound_to 11000

$$$$
