AV-unprocessed.smi:1046|AV-procd|sdf|4552|dock6
  -GOLD-   22720 2583D 1   1.00000     0.00000
 Structure written by MMmdl.
 54 56  0  0  0  0  0  0  0  0  3 V2000
  152.1569  144.0747  161.1143 C   0  0  0  0  0  0  0  0  0  0  0  0
  152.0460  143.1432  159.9192 C   0  0  0  0  0  0  0  0  0  0  0  0
  151.1302  143.4683  158.8934 C   0  0  0  0  0  0  0  0  0  0  0  0
  151.0536  142.5983  157.8123 C   0  0  0  0  0  0  0  0  0  0  0  0
  150.2630  142.6388  156.6623 N   0  3  0  0  0  0  0  0  0  0  0  0
  150.5423  141.5598  155.8805 C   0  0  0  0  0  0  0  0  0  0  0  0
  151.4989  140.8282  156.5147 N   0  0  0  0  0  0  0  0  0  0  0  0
  152.1516  139.5785  156.0971 C   0  0  0  0  0  0  0  0  0  0  0  0
  151.1830  138.3799  156.0575 C   0  0  2  0  0  0  0  0  0  0  0  0
  151.6543  137.3585  156.9157 O   0  0  0  0  0  0  0  0  0  0  0  0
  151.0433  137.8073  154.6324 C   0  0  0  0  0  0  0  0  0  0  0  0
  149.9794  136.7759  154.5268 N   0  3  0  0  0  0  0  0  0  0  0  0
  148.7518  137.1519  155.2751 C   0  0  0  0  0  0  0  0  0  0  0  0
  147.6536  136.0858  155.0824 C   0  0  0  0  0  0  0  0  0  0  0  0
  148.0756  134.7430  155.4799 N   0  0  0  0  0  0  0  0  0  0  0  0
  148.1971  134.5940  156.9339 C   0  0  0  0  0  0  0  0  0  0  0  0
  148.6898  133.2162  157.4050 C   0  0  0  0  0  0  0  0  0  0  0  0
  148.7707  133.2060  158.8134 O   0  0  0  0  0  0  0  0  0  0  0  0
  149.2847  134.3958  154.7294 C   0  0  0  0  0  0  0  0  0  0  0  0
  150.4308  135.4113  154.9118 C   0  0  0  0  0  0  0  0  0  0  0  0
  151.8485  141.4384  157.7264 C   0  0  0  0  0  0  0  0  0  0  0  0
  152.7537  141.1024  158.7309 C   0  0  0  0  0  0  0  0  0  0  0  0
  152.8453  141.9737  159.8399 C   0  0  0  0  0  0  0  0  0  0  0  0
  153.8243  141.6311  160.9504 C   0  0  0  0  0  0  0  0  0  0  0  0
  151.5253  144.9553  160.9935 H   0  0  0  0  0  0  0  0  0  0  0  0
  153.1841  144.4177  161.2405 H   0  0  0  0  0  0  0  0  0  0  0  0
  151.8467  143.5638  162.0263 H   0  0  0  0  0  0  0  0  0  0  0  0
  150.5163  144.3556  158.9482 H   0  0  0  0  0  0  0  0  0  0  0  0
  150.0870  141.3281  154.9284 H   0  0  0  0  0  0  0  0  0  0  0  0
  152.5614  139.7534  155.1014 H   0  0  0  0  0  0  0  0  0  0  0  0
  153.0057  139.3803  156.7450 H   0  0  0  0  0  0  0  0  0  0  0  0
  150.2147  138.7126  156.4302 H   0  0  0  0  0  0  0  0  0  0  0  0
  152.4018  136.9428  156.5129 H   0  0  0  0  0  0  0  0  0  0  0  0
  150.8371  138.6054  153.9173 H   0  0  0  0  0  0  0  0  0  0  0  0
  152.0020  137.3778  154.3369 H   0  0  0  0  0  0  0  0  0  0  0  0
  148.9860  137.2845  156.3324 H   0  0  0  0  0  0  0  0  0  0  0  0
  148.3837  138.1125  154.9126 H   0  0  0  0  0  0  0  0  0  0  0  0
  146.7579  136.3719  155.6352 H   0  0  0  0  0  0  0  0  0  0  0  0
  147.3593  136.0683  154.0320 H   0  0  0  0  0  0  0  0  0  0  0  0
  148.8441  135.3675  157.3468 H   0  0  0  0  0  0  0  0  0  0  0  0
  147.2160  134.7611  157.3811 H   0  0  0  0  0  0  0  0  0  0  0  0
  148.0054  132.4310  157.0824 H   0  0  0  0  0  0  0  0  0  0  0  0
  149.6755  132.9819  157.0040 H   0  0  0  0  0  0  0  0  0  0  0  0
  147.9329  132.9404  159.1616 H   0  0  0  0  0  0  0  0  0  0  0  0
  149.6265  133.3964  154.9955 H   0  0  0  0  0  0  0  0  0  0  0  0
  149.0351  134.3406  153.6688 H   0  0  0  0  0  0  0  0  0  0  0  0
  151.2714  135.1038  154.2912 H   0  0  0  0  0  0  0  0  0  0  0  0
  150.7890  135.4113  155.9418 H   0  0  0  0  0  0  0  0  0  0  0  0
  153.3639  140.2139  158.6754 H   0  0  0  0  0  0  0  0  0  0  0  0
  154.3065  140.6689  160.7748 H   0  0  0  0  0  0  0  0  0  0  0  0
  153.3129  141.5742  161.9116 H   0  0  0  0  0  0  0  0  0  0  0  0
  154.6054  142.3890  161.0172 H   0  0  0  0  0  0  0  0  0  0  0  0
  149.7128  136.7351  153.5531 H   0  0  0  0  0  0  0  0  0  0  0  0
  149.5834  143.3504  156.4254 H   0  0  0  0  0  0  0  0  0  0  0  0
  1  2  1  0  0  0  0
  1 25  1  0  0  0  0
  1 26  1  0  0  0  0
  1 27  1  0  0  0  0
  2 23  1  0  0  0  0
  2  3  2  0  0  0  0
  3  4  1  0  0  0  0
  3 28  1  0  0  0  0
  4 21  2  0  0  0  0
  4  5  1  0  0  0  0
  5  6  2  0  0  0  0
  5 54  1  0  0  0  0
  6  7  1  0  0  0  0
  6 29  1  0  0  0  0
  7  8  1  0  0  0  0
  7 21  1  0  0  0  0
  8  9  1  0  0  0  0
  8 30  1  0  0  0  0
  8 31  1  0  0  0  0
  9 10  1  0  0  0  0
  9 11  1  0  0  0  0
  9 32  1  0  0  0  0
 10 33  1  0  0  0  0
 11 12  1  0  0  0  0
 11 34  1  0  0  0  0
 11 35  1  0  0  0  0
 12 20  1  0  0  0  0
 12 13  1  0  0  0  0
 12 53  1  0  0  0  0
 13 14  1  0  0  0  0
 13 36  1  0  0  0  0
 13 37  1  0  0  0  0
 14 15  1  0  0  0  0
 14 38  1  0  0  0  0
 14 39  1  0  0  0  0
 15 16  1  0  0  0  0
 15 19  1  0  0  0  0
 16 17  1  0  0  0  0
 16 40  1  0  0  0  0
 16 41  1  0  0  0  0
 17 18  1  0  0  0  0
 17 42  1  0  0  0  0
 17 43  1  0  0  0  0
 18 44  1  0  0  0  0
 19 20  1  0  0  0  0
 19 45  1  0  0  0  0
 19 46  1  0  0  0  0
 20 47  1  0  0  0  0
 20 48  1  0  0  0  0
 21 22  1  0  0  0  0
 22 23  2  0  0  0  0
 22 49  1  0  0  0  0
 23 24  1  0  0  0  0
 24 50  1  0  0  0  0
 24 51  1  0  0  0  0
 24 52  1  0  0  0  0
M  CHG  1   5   1
M  CHG  1  12   1
M  END
> <s_m_source_file>
AV-unprocessed.smi

> <i_m_source_file_index>
1046

> <i_lp_mmshare_version>
43012

> <i_f3d_flags>
0

> <s_epik_input>
W0NIM11jKFtjSF0xKWMoW0NIM10pW2NIXWMoYzEyKW4oW2NIXW4yKVtDSDJdW0NASF0oW09IXSlbQ0gyXU4zW0NIMl1bQ0gyXU4oW0NIMl1bQ0gyXTMpW0NIMl1bQ0gyXVtPSF0=

> <s_epik_cmdline>
J2VwaWtfcHl0aG9uJywgJy1waCcsICc3LjAnLCAnLXRuJywgJzgnLCAnLW1hJywgJzIwMCcsICctbWV0YWxfYmluZGluZycsICctaW1hZScsICc8aW5maWxlLm1hZT4nLCAnLW9tYWUnLCAnPG91dGZpbGUubWFlPic=

> <r_epik_Ionization_Penalty>
1.22056

> <r_epik_Ionization_Penalty_Charging>
1.17959

> <r_epik_Ionization_Penalty_Neutral>
0.0409743

> <r_epik_State_Penalty>
1.27074

> <r_epik_Charging_Adjusted_Penalty>
2.45032

> <i_epik_Tot_Q>
2

> <i_epik_Tot_abs_Q>
2

> <r_epik_Metal_State_Penalty>
5.26922

> <b_epik_Metal_Only>
0

> <s_lp_Force_Field>
OPLS_2005

> <r_lp_Energy>
41.2385

> <b_lp_Chiralities_Consistent>
1

> <s_lp_Variant>
AV-unprocessed.smi:1046-5

> <Gold.Version>
5.8.1

> <Gold.Id.Protein>
6NUR|6NUR_protein|mol2

> <Gold.PLP.Fitness>
56.0772

> <Gold.PLP.PLP>
-43.0505

> <Gold.PLP.part.hbond>
-3.0000

> <Gold.PLP.part.metal>
0.0000

> <Gold.PLP.part.buried>
-5.7997

> <Gold.PLP.part.nonpolar>
-33.8143

> <Gold.PLP.part.repulsive>
0.1453

> <Gold.PLP.ligand.clash>
0.0000

> <Gold.PLP.ligand.torsion>
1.0376

> <Gold.PLP.Chemscore.Hbond>
5.0000

> <Gold.PLP.Chemscore.CHOScore>
0.0000

> <Gold.PLP.Chemscore.Metal>
0.0000

> <Gold.Chemscore.Hbonds>
donor molecule, donor type, donor heavy atom, donor atom, acceptor molecule, acceptor atom, score
      L1  H     5    54       P1  8028  2.00
      L1  H    12    53       P1  7948  2.00
      P1  H  6896  6908       L1    18  0.76

> <Gold.PLP.Chemscore.Internal.Correction>
0.1020

> <Gold.Rescore>
     Score         DG    S(hbond)    S(metal)    S(lipo)     H(rot)  DE(clash)    DE(int)     intcor
     19.34     -20.65       2.88        0.00     119.57       3.29       0.14       1.17       ----

> <Gold.Chemscore.Fitness>
19.3366

> <Gold.Chemscore.DG>
-20.6518

> <Gold.Chemscore.ZeroCoef>
-5.4800

> <Gold.Chemscore.Hbond>
2.8755

> <Gold.Chemscore.Metal>
0.0000

> <Gold.Chemscore.Lipo>
119.5661

> <Gold.Chemscore.Internal_Hbond>
0.0000

> <Gold.Chemscore.DEClash>
0.1442

> <Gold.Chemscore.DEInternal>
1.1710

> <Gold.Chemscore.Rot>
3.2896

> <Gold.Chemscore.Internal.Correction>
   9.000000E+99

> <Gold.Chemscore.Hbonds>
donor molecule, donor type, donor heavy atom, donor atom, acceptor molecule, acceptor atom, score
      L1  H     5    54       P1  8028  1.00
      L1  H    12    53       P1  7948  0.55
      P1  H  6896  6908       L1    18  0.41

> <Gold.Chemscore.Hbond.Weighted>
-9.6041

> <Gold.Chemscore.Metal.Weighted>
-0.0000

> <Gold.Chemscore.Lipo.Weighted>
-13.9892

> <Gold.Chemscore.Internal_Hbond.Weighted>
0.0000

> <Gold.Chemscore.DEClash.Weighted>
0.1442

> <Gold.Chemscore.DEInternal.Weighted>
1.1710

> <Gold.Chemscore.Rot.Weighted>
8.4215

> <Gold.Chemscore.Internal.Correction.Weighted>
   9.000000E+99

> <Gold.Protein.RotatedTorsions>
[ 6907 6896 6895 6894 ] final  123.85 input  -60.11 | X-H torsion
[ 7974 7965 7964 7962 ] final -146.90 input  175.53 | X-H torsion
[ 8008 7997 7996 7995 ] final -172.43 input   59.86 | X-H torsion
[ 10167 10162 10161 10158 ] final  164.55 input  -65.29 | X-H torsion
[ 10718 10713 10712 10709 ] final  -91.38 input   66.30 | X-H torsion
[ 10763 10752 10751 10750 ] final   54.23 input  -60.55 | X-H torsion
[ 11005 11000 10999 10996 ] final   81.72 input  -57.11 | X-H torsion

> <Gold.Protein.ActiveResidues>
 VAL166  LYS551  ARG553  GLY616  TRP617  ASP618  TYR619  PRO620  LYS621  CYS622 
 ASP623  PHE694  ASN695  SER759  ASP760  ASP761  ALA762  ILE779  LEU786  VAL792 
 PHE793  MET794  SER795  GLU796  ALA797  LYS798  CYS799  TRP800  GLU811  SER814 

> <Gold.Protein.RotatedAtoms>
  152.4127  133.6989  159.6411 H   0  0  0  0  0  0  0  0  0  0  0  0  # atno 6907 bound_to 6896
  150.8006  133.8595  159.3236 H   0  0  0  0  0  0  0  0  0  0  0  0  # atno 6908 bound_to 6896
  151.6333  135.1022  160.0178 H   0  0  0  0  0  0  0  0  0  0  0  0  # atno 6909 bound_to 6896
  144.8129  140.5397  143.5630 H   0  0  0  0  0  0  0  0  0  0  0  0  # atno 7974 bound_to 7965
  155.9444  140.1114  157.1029 H   0  0  0  0  0  0  0  0  0  0  0  0  # atno 8008 bound_to 7997
  154.4096  140.1213  156.5036 H   0  0  0  0  0  0  0  0  0  0  0  0  # atno 8009 bound_to 7997
  155.6921  140.3472  155.4900 H   0  0  0  0  0  0  0  0  0  0  0  0  # atno 8010 bound_to 7997
  139.4891  144.4223  151.9171 H   0  0  0  0  0  0  0  0  0  0  0  0  # atno 10167 bound_to 10162
  155.9993  130.4946  150.5465 H   0  0  0  0  0  0  0  0  0  0  0  0  # atno 10718 bound_to 10713
  152.9802  135.5752  154.4871 H   0  0  0  0  0  0  0  0  0  0  0  0  # atno 10763 bound_to 10752
  154.4411  135.2776  155.1849 H   0  0  0  0  0  0  0  0  0  0  0  0  # atno 10764 bound_to 10752
  154.3516  135.6208  153.5699 H   0  0  0  0  0  0  0  0  0  0  0  0  # atno 10765 bound_to 10752
  139.9088  134.8018  156.2079 H   0  0  0  0  0  0  0  0  0  0  0  0  # atno 11005 bound_to 11000
  145.5282  139.1475  143.3514 LP  0  0  0  0  0  0  0  0  0  0  0  0  # atno 17320 bound_to 7965
  146.2429  140.5423  142.8926 LP  0  0  0  0  0  0  0  0  0  0  0  0  # atno 17321 bound_to 7965
  140.3668  144.2905  150.5925 LP  0  0  0  0  0  0  0  0  0  0  0  0  # atno 17342 bound_to 10162
  140.5354  143.2234  151.8171 LP  0  0  0  0  0  0  0  0  0  0  0  0  # atno 17343 bound_to 10162
  157.3394  131.0714  151.1799 LP  0  0  0  0  0  0  0  0  0  0  0  0  # atno 17370 bound_to 10713
  157.2653  130.6678  149.5993 LP  0  0  0  0  0  0  0  0  0  0  0  0  # atno 17371 bound_to 10713
  141.0484  133.6901  156.1725 LP  0  0  0  0  0  0  0  0  0  0  0  0  # atno 17394 bound_to 11000
  140.6849  134.4728  157.5589 LP  0  0  0  0  0  0  0  0  0  0  0  0  # atno 17395 bound_to 11000

$$$$
