AV-unprocessed.smi:1758|AV-procd|sdf|7083|dock1
  -GOLD-   22720 8303D 1   1.00000     0.00000
 Structure written by MMmdl.
 44 46  0  0  0  0  0  0  0  0  2 V2000
  151.0314  141.0608  157.4958 C   0  0  0  0  0  0  0  0  0  0  0  0
  151.7871  139.7654  157.1773 C   0  0  0  0  0  0  0  0  0  0  0  0
  151.1804  139.0437  156.0755 N   0  0  0  0  0  0  0  0  0  0  0  0
  150.7031  137.7481  156.0634 C   0  0  0  0  0  0  0  0  0  0  0  0
  150.2389  137.5368  154.7957 C   0  0  0  0  0  0  0  0  0  0  0  0
  149.6544  136.3736  154.2330 N   0  0  0  0  0  0  0  0  0  0  0  0
  149.1998  135.2927  154.8882 C   0  0  0  0  0  0  0  0  0  0  0  0
  149.1859  135.1633  156.1122 O   0  0  0  0  0  0  0  0  0  0  0  0
  148.7501  134.3602  154.0358 N   0  0  0  0  0  0  0  0  0  0  0  0
  148.1807  133.0649  154.4085 C   0  0  2  0  0  0  0  0  0  0  0  0
  149.1964  131.9094  154.3169 C   0  0  0  0  0  0  0  0  0  0  0  0
  148.4143  130.7542  153.6828 C   0  0  0  0  0  0  0  0  0  0  0  0
  147.4784  131.4442  152.7873 N   0  3  1  0  0  0  0  0  0  0  0  0
  146.3797  130.6677  152.1779 C   0  0  0  0  0  0  0  0  0  0  0  0
  145.6541  131.5687  151.1550 C   0  0  0  0  0  0  0  0  0  0  0  0
  145.2199  132.9209  151.7666 C   0  0  0  0  0  0  0  0  0  0  0  0
  146.3863  133.6211  152.4975 C   0  0  0  0  0  0  0  0  0  0  0  0
  147.0010  132.6369  153.5078 C   0  0  2  0  0  0  0  0  0  0  0  0
  150.4664  138.7491  154.0936 C   0  0  0  0  0  0  0  0  0  0  0  0
  151.0339  139.6558  154.8743 N   0  0  0  0  0  0  0  0  0  0  0  0
  151.4958  141.5831  158.3325 H   0  0  0  0  0  0  0  0  0  0  0  0
  149.9947  140.8562  157.7649 H   0  0  0  0  0  0  0  0  0  0  0  0
  151.0292  141.7381  156.6413 H   0  0  0  0  0  0  0  0  0  0  0  0
  152.8255  139.9845  156.9248 H   0  0  0  0  0  0  0  0  0  0  0  0
  151.8051  139.1147  158.0525 H   0  0  0  0  0  0  0  0  0  0  0  0
  150.7423  137.1147  156.9374 H   0  0  0  0  0  0  0  0  0  0  0  0
  149.5872  136.3604  153.2259 H   0  0  0  0  0  0  0  0  0  0  0  0
  148.8069  134.5626  153.0483 H   0  0  0  0  0  0  0  0  0  0  0  0
  147.8110  133.1022  155.4349 H   0  0  0  0  0  0  0  0  0  0  0  0
  150.0259  132.1838  153.6630 H   0  0  0  0  0  0  0  0  0  0  0  0
  149.6174  131.6431  155.2871 H   0  0  0  0  0  0  0  0  0  0  0  0
  149.0558  130.0552  153.1455 H   0  0  0  0  0  0  0  0  0  0  0  0
  147.8591  130.2027  154.4435 H   0  0  0  0  0  0  0  0  0  0  0  0
  146.7834  129.7845  151.6818 H   0  0  0  0  0  0  0  0  0  0  0  0
  145.6908  130.3202  152.9494 H   0  0  0  0  0  0  0  0  0  0  0  0
  146.3201  131.7591  150.3122 H   0  0  0  0  0  0  0  0  0  0  0  0
  144.7874  131.0479  150.7470 H   0  0  0  0  0  0  0  0  0  0  0  0
  144.8190  133.5722  150.9895 H   0  0  0  0  0  0  0  0  0  0  0  0
  144.4056  132.7489  152.4718 H   0  0  0  0  0  0  0  0  0  0  0  0
  147.1364  133.9464  151.7755 H   0  0  0  0  0  0  0  0  0  0  0  0
  146.0247  134.5150  153.0071 H   0  0  0  0  0  0  0  0  0  0  0  0
  146.2048  132.3128  154.1821 H   0  0  0  0  0  0  0  0  0  0  0  0
  150.2451  138.9965  153.0659 H   0  0  0  0  0  0  0  0  0  0  0  0
  148.0430  131.7877  152.0236 H   0  0  0  0  0  0  0  0  0  0  0  0
  1  2  1  0  0  0  0
  1 21  1  0  0  0  0
  1 22  1  0  0  0  0
  1 23  1  0  0  0  0
  2  3  1  0  0  0  0
  2 24  1  0  0  0  0
  2 25  1  0  0  0  0
  3 20  1  0  0  0  0
  3  4  1  0  0  0  0
  4  5  2  0  0  0  0
  4 26  1  0  0  0  0
  5  6  1  0  0  0  0
  5 19  1  0  0  0  0
  6  7  1  0  0  0  0
  6 27  1  0  0  0  0
  7  8  2  0  0  0  0
  7  9  1  0  0  0  0
  9 10  1  0  0  0  0
  9 28  1  0  0  0  0
 10 18  1  0  0  0  0
 10 11  1  0  0  0  0
 10 29  1  0  0  0  0
 11 12  1  0  0  0  0
 11 30  1  0  0  0  0
 11 31  1  0  0  0  0
 12 13  1  0  0  0  0
 12 32  1  0  0  0  0
 12 33  1  0  0  0  0
 13 18  1  0  0  0  0
 13 14  1  0  0  0  0
 13 44  1  0  0  0  0
 14 15  1  0  0  0  0
 14 34  1  0  0  0  0
 14 35  1  0  0  0  0
 15 16  1  0  0  0  0
 15 36  1  0  0  0  0
 15 37  1  0  0  0  0
 16 17  1  0  0  0  0
 16 38  1  0  0  0  0
 16 39  1  0  0  0  0
 17 18  1  0  0  0  0
 17 40  1  0  0  0  0
 17 41  1  0  0  0  0
 18 42  1  0  0  0  0
 19 20  2  0  0  0  0
 19 43  1  0  0  0  0
M  CHG  1  13   1
M  END
> <s_m_source_file>
AV-unprocessed.smi

> <i_m_source_file_index>
1758

> <i_lp_mmshare_version>
43012

> <i_f3d_flags>
0

> <s_epik_input>
W0NIM11bQ0gyXW4xW2NIXWMoW2NIXW4xKVtOSF1DKD1PKVtOSF1bQ0BIXShbQ0gyXVtDSDJdMilbQ0BASF0oTjIzKVtDSDJdW0NIMl1bQ0gyXVtDSDJdMw==

> <s_epik_cmdline>
J2VwaWtfcHl0aG9uJywgJy1waCcsICc3LjAnLCAnLXRuJywgJzgnLCAnLW1hJywgJzIwMCcsICctbWV0YWxfYmluZGluZycsICctaW1hZScsICc8aW5maWxlLm1hZT4nLCAnLW9tYWUnLCAnPG91dGZpbGUubWFlPic=

> <r_lp_tautomer_probability>
1

> <r_epik_Ionization_Penalty>
0.00111541

> <r_epik_Ionization_Penalty_Charging>
0.000974069

> <r_epik_Ionization_Penalty_Neutral>
0.000141346

> <r_epik_State_Penalty>
0.000633842

> <r_epik_Charging_Adjusted_Penalty>
0.00160791

> <i_epik_Tot_Q>
1

> <i_epik_Tot_abs_Q>
1

> <r_epik_Metal_State_Penalty>
-0

> <b_epik_Metal_Only>
0

> <s_lp_Force_Field>
OPLS_2005

> <r_lp_Energy>
45.8918

> <b_lp_Chiralities_Consistent>
1

> <s_lp_Variant>
AV-unprocessed.smi:1758-5

> <Gold.Version>
5.8.1

> <Gold.Id.Protein>
6NUR|6NUR_protein|mol2

> <Gold.PLP.Fitness>
42.1667

> <Gold.PLP.PLP>
-31.0795

> <Gold.PLP.part.hbond>
-4.9275

> <Gold.PLP.part.metal>
0.0000

> <Gold.PLP.part.buried>
-2.9180

> <Gold.PLP.part.nonpolar>
-23.6439

> <Gold.PLP.part.repulsive>
0.1320

> <Gold.PLP.ligand.clash>
0.0000

> <Gold.PLP.ligand.torsion>
0.3581

> <Gold.PLP.Chemscore.Hbond>
2.9333

> <Gold.PLP.Chemscore.CHOScore>
1.0000

> <Gold.PLP.Chemscore.Metal>
0.0000

> <Gold.Chemscore.Hbonds>
donor molecule, donor type, donor heavy atom, donor atom, acceptor molecule, acceptor atom, score
      L1  H     6    27       P1  7948  0.86
      L1  H     9    28       P1  7948  0.58
      L1  H    13    44       P1 10747  0.42
      P1  H  7989  7998       L1    20  0.90
      L1  C    19    43       P1  7957  1.00

> <Gold.PLP.Chemscore.Internal.Correction>
0.0032

> <Gold.Rescore>
     Score         DG    S(hbond)    S(metal)    S(lipo)     H(rot)  DE(clash)    DE(int)     intcor
     15.35     -17.33       1.84        0.00      74.85       1.19       0.57       1.41       ----

> <Gold.Chemscore.Fitness>
15.3453

> <Gold.Chemscore.DG>
-17.3280

> <Gold.Chemscore.ZeroCoef>
-5.4800

> <Gold.Chemscore.Hbond>
1.8363

> <Gold.Chemscore.Metal>
0.0000

> <Gold.Chemscore.Lipo>
74.8459

> <Gold.Chemscore.Internal_Hbond>
0.0000

> <Gold.Chemscore.DEClash>
0.5736

> <Gold.Chemscore.DEInternal>
1.4090

> <Gold.Chemscore.Rot>
1.1884

> <Gold.Chemscore.Internal.Correction>
   9.000000E+99

> <Gold.Chemscore.Hbonds>
donor molecule, donor type, donor heavy atom, donor atom, acceptor molecule, acceptor atom, score
      L1  H     6    27       P1  7948  0.29
      L1  H     9    28       P1  7948  0.07
      L1  H    13    44       P1 10747  0.43
      P1  H  7989  7998       L1    20  0.18

> <Gold.Chemscore.Hbond.Weighted>
-6.1333

> <Gold.Chemscore.Metal.Weighted>
-0.0000

> <Gold.Chemscore.Lipo.Weighted>
-8.7570

> <Gold.Chemscore.Internal_Hbond.Weighted>
0.0000

> <Gold.Chemscore.DEClash.Weighted>
0.5736

> <Gold.Chemscore.DEInternal.Weighted>
1.4090

> <Gold.Chemscore.Rot.Weighted>
3.0423

> <Gold.Chemscore.Internal.Correction.Weighted>
   9.000000E+99

> <Gold.Protein.RotatedTorsions>
[ 6907 6896 6895 6894 ] final  128.82 input  -60.11 | X-H torsion
[ 7974 7965 7964 7962 ] final -102.16 input  175.53 | X-H torsion
[ 8008 7997 7996 7995 ] final  145.08 input   59.86 | X-H torsion
[ 10167 10162 10161 10158 ] final  133.65 input  -65.29 | X-H torsion
[ 10718 10713 10712 10709 ] final   -3.38 input   66.30 | X-H torsion
[ 10763 10752 10751 10750 ] final  -76.28 input  -60.55 | X-H torsion
[ 11005 11000 10999 10996 ] final -159.69 input  -57.11 | X-H torsion

> <Gold.Protein.ActiveResidues>
 VAL166  LYS551  ARG553  GLY616  TRP617  ASP618  TYR619  PRO620  LYS621  CYS622 
 ASP623  PHE694  ASN695  SER759  ASP760  ASP761  ALA762  ILE779  LEU786  VAL792 
 PHE793  MET794  SER795  GLU796  ALA797  LYS798  CYS799  TRP800  GLU811  SER814 

> <Gold.Protein.RotatedAtoms>
  152.3683  133.6386  159.6067 H   0  0  0  0  0  0  0  0  0  0  0  0  # atno 6907 bound_to 6896
  150.7650  133.9311  159.3436 H   0  0  0  0  0  0  0  0  0  0  0  0  # atno 6908 bound_to 6896
  151.7138  135.0908  160.0323 H   0  0  0  0  0  0  0  0  0  0  0  0  # atno 6909 bound_to 6896
  145.2723  140.9302  143.2979 H   0  0  0  0  0  0  0  0  0  0  0  0  # atno 7974 bound_to 7965
  156.2892  140.2218  156.5158 H   0  0  0  0  0  0  0  0  0  0  0  0  # atno 8008 bound_to 7997
  154.7570  140.0476  157.0963 H   0  0  0  0  0  0  0  0  0  0  0  0  # atno 8009 bound_to 7997
  155.0038  140.3105  155.4860 H   0  0  0  0  0  0  0  0  0  0  0  0  # atno 8010 bound_to 7997
  139.5288  144.6605  151.5027 H   0  0  0  0  0  0  0  0  0  0  0  0  # atno 10167 bound_to 10162
  156.7769  130.5318  149.5757 H   0  0  0  0  0  0  0  0  0  0  0  0  # atno 10718 bound_to 10713
  154.4977  135.5803  153.6507 H   0  0  0  0  0  0  0  0  0  0  0  0  # atno 10763 bound_to 10752
  152.9873  135.6128  154.3043 H   0  0  0  0  0  0  0  0  0  0  0  0  # atno 10764 bound_to 10752
  154.2948  135.2848  155.2618 H   0  0  0  0  0  0  0  0  0  0  0  0  # atno 10765 bound_to 10752
  140.6397  134.4564  157.5233 H   0  0  0  0  0  0  0  0  0  0  0  0  # atno 11005 bound_to 11000
  144.9325  139.4282  143.6488 LP  0  0  0  0  0  0  0  0  0  0  0  0  # atno 17320 bound_to 7965
  146.3243  139.8243  142.8921 LP  0  0  0  0  0  0  0  0  0  0  0  0  # atno 17321 bound_to 7965
  140.6451  143.8810  150.6730 LP  0  0  0  0  0  0  0  0  0  0  0  0  # atno 17342 bound_to 10162
  140.2157  143.3848  152.1683 LP  0  0  0  0  0  0  0  0  0  0  0  0  # atno 17343 bound_to 10162
  156.1243  130.6132  151.0240 LP  0  0  0  0  0  0  0  0  0  0  0  0  # atno 17370 bound_to 10713
  157.6665  131.0870  150.7716 LP  0  0  0  0  0  0  0  0  0  0  0  0  # atno 17371 bound_to 10713
  139.9085  134.8397  156.1617 LP  0  0  0  0  0  0  0  0  0  0  0  0  # atno 17394 bound_to 11000
  141.0615  133.6839  156.1962 LP  0  0  0  0  0  0  0  0  0  0  0  0  # atno 17395 bound_to 11000

$$$$
