AV-unprocessed.smi:49|AV-procd|sdf|469|dock1
  -GOLD-   2262016333D 1   1.00000     0.00000
 Structure written by MMmdl.
 28 29  0  0  0  0  0  0  0  0  2 V2000
  152.2208  143.7545  161.5194 C   0  0  0  0  0  0  0  0  0  0  0  0
  152.7686  143.3810  160.1374 C   0  0  0  0  0  0  0  0  0  0  0  0
  151.6811  143.1659  159.1374 C   0  0  0  0  0  0  0  0  0  0  0  0
  151.4179  141.9447  158.5815 N   0  0  0  0  0  0  0  0  0  0  0  0
  150.4302  142.2696  157.7492 C   0  0  0  0  0  0  0  0  0  0  0  0
  149.6872  141.3271  156.8497 C   0  0  2  0  0  0  0  0  0  0  0  0
  150.4317  140.9301  155.5733 C   0  0  0  0  0  0  0  0  0  0  0  0
  149.2879  140.7204  154.5858 C   0  0  2  0  0  0  0  0  0  0  0  0
  149.7153  140.8345  153.2453 O   0  0  0  0  0  0  0  0  0  0  0  0
  148.2862  141.8157  154.9701 C   0  0  0  0  0  0  0  0  0  0  0  0
  148.4838  142.0657  156.4123 N   0  3  0  0  0  0  0  0  0  0  0  0
  150.1334  143.5702  157.8009 N   0  0  0  0  0  0  0  0  0  0  0  0
  150.9442  144.1810  158.6898 N   0  0  0  0  0  0  0  0  0  0  0  0
  149.3718  140.4401  157.4013 H   0  0  0  0  0  0  0  0  0  0  0  0
  148.8404  139.7381  154.7438 H   0  0  0  0  0  0  0  0  0  0  0  0
  149.4266  144.0628  157.2734 H   0  0  0  0  0  0  0  0  0  0  0  0
  153.0328  143.9019  162.2319 H   0  0  0  0  0  0  0  0  0  0  0  0
  151.5723  142.9702  161.9113 H   0  0  0  0  0  0  0  0  0  0  0  0
  151.6429  144.6781  161.4770 H   0  0  0  0  0  0  0  0  0  0  0  0
  153.4328  144.1675  159.7776 H   0  0  0  0  0  0  0  0  0  0  0  0
  153.3732  142.4761  160.2114 H   0  0  0  0  0  0  0  0  0  0  0  0
  151.0587  141.7566  155.2329 H   0  0  0  0  0  0  0  0  0  0  0  0
  151.0698  140.0552  155.7018 H   0  0  0  0  0  0  0  0  0  0  0  0
  149.3972  140.0881  152.7598 H   0  0  0  0  0  0  0  0  0  0  0  0
  148.5052  142.7434  154.4392 H   0  0  0  0  0  0  0  0  0  0  0  0
  147.2566  141.5355  154.7467 H   0  0  0  0  0  0  0  0  0  0  0  0
  147.6811  141.7604  156.9437 H   0  0  0  0  0  0  0  0  0  0  0  0
  148.6321  143.0550  156.5550 H   0  0  0  0  0  0  0  0  0  0  0  0
  1  2  1  0  0  0  0
  1 17  1  0  0  0  0
  1 18  1  0  0  0  0
  1 19  1  0  0  0  0
  2 20  1  0  0  0  0
  2 21  1  0  0  0  0
  2  3  1  0  0  0  0
  3  4  1  0  0  0  0
  3 13  2  0  0  0  0
  4  5  2  0  0  0  0
  5  6  1  0  0  0  0
  5 12  1  0  0  0  0
  6 14  1  0  0  0  0
  6 11  1  0  0  0  0
  6  7  1  0  0  0  0
  7  8  1  0  0  0  0
  7 22  1  0  0  0  0
  7 23  1  0  0  0  0
  8 15  1  0  0  0  0
  8  9  1  0  0  0  0
  8 10  1  0  0  0  0
  9 24  1  0  0  0  0
 10 11  1  0  0  0  0
 10 25  1  0  0  0  0
 10 26  1  0  0  0  0
 11 27  1  0  0  0  0
 11 28  1  0  0  0  0
 12 13  1  0  0  0  0
 12 16  1  0  0  0  0
M  CHG  1  11   1
M  END
> <s_m_source_file>
AV-unprocessed.smi

> <i_m_source_file_index>
49

> <i_lp_mmshare_version>
43012

> <i_f3d_flags>
0

> <s_epik_input>
W0NIM11bQ0gyXWMxbmMobltuSF0xKVtDQEBIXTJbQ0gyXVtDQEBIXShbT0hdKVtDSDJdW05IXTI=

> <s_epik_cmdline>
J2VwaWtfcHl0aG9uJywgJy1waCcsICc3LjAnLCAnLXRuJywgJzgnLCAnLW1hJywgJzIwMCcsICctbWV0YWxfYmluZGluZycsICctaW1hZScsICc8aW5maWxlLm1hZT4nLCAnLW9tYWUnLCAnPG91dGZpbGUubWFlPic=

> <r_epik_Ionization_Penalty>
0.372103

> <r_epik_Ionization_Penalty_Charging>
0.0688988

> <r_epik_Ionization_Penalty_Neutral>
0.303204

> <r_epik_State_Penalty>
0.737493

> <r_epik_Charging_Adjusted_Penalty>
0.806392

> <i_epik_Tot_Q>
1

> <i_epik_Tot_abs_Q>
1

> <r_epik_Metal_State_Penalty>
1.01235

> <b_epik_Metal_Only>
0

> <s_lp_Force_Field>
OPLS_2005

> <r_lp_Energy>
17.8034

> <b_lp_Chiralities_Consistent>
1

> <s_lp_Variant>
AV-unprocessed.smi:49-7

> <Gold.Version>
5.8.1

> <Gold.Id.Protein>
6NUR|6NUR_protein|mol2

> <Gold.PLP.Fitness>
39.6286

> <Gold.PLP.PLP>
-27.2104

> <Gold.PLP.part.hbond>
-4.1619

> <Gold.PLP.part.metal>
0.0000

> <Gold.PLP.part.buried>
-1.8184

> <Gold.PLP.part.nonpolar>
-20.7919

> <Gold.PLP.part.repulsive>
0.1844

> <Gold.PLP.ligand.clash>
0.0000

> <Gold.PLP.ligand.torsion>
0.4720

> <Gold.PLP.Chemscore.Hbond>
4.4480

> <Gold.PLP.Chemscore.CHOScore>
0.0000

> <Gold.PLP.Chemscore.Metal>
0.0000

> <Gold.Chemscore.Hbonds>
donor molecule, donor type, donor heavy atom, donor atom, acceptor molecule, acceptor atom, score
      L1  H     9    24       P1  7957  0.38
      L1  H    11    28       P1  8028  1.76
      L1  H    12    16       P1  8028  0.98
      P1  H  7989  7998       L1     9  0.22
      P1  H  8011  8017       L1     9  1.00

> <Gold.PLP.Chemscore.Internal.Correction>
0.0181

> <Gold.Rescore>
     Score         DG    S(hbond)    S(metal)    S(lipo)     H(rot)  DE(clash)    DE(int)     intcor
     15.63     -16.78       3.08        0.00      50.01       1.89       0.15       1.01       ----

> <Gold.Chemscore.Fitness>
15.6316

> <Gold.Chemscore.DG>
-16.7835

> <Gold.Chemscore.ZeroCoef>
-5.4800

> <Gold.Chemscore.Hbond>
3.0796

> <Gold.Chemscore.Metal>
0.0000

> <Gold.Chemscore.Lipo>
50.0150

> <Gold.Chemscore.Internal_Hbond>
0.0000

> <Gold.Chemscore.DEClash>
0.1465

> <Gold.Chemscore.DEInternal>
1.0054

> <Gold.Chemscore.Rot>
1.8883

> <Gold.Chemscore.Internal.Correction>
   9.000000E+99

> <Gold.Chemscore.Hbonds>
donor molecule, donor type, donor heavy atom, donor atom, acceptor molecule, acceptor atom, score
      L1  H     9    24       P1  7957  0.38
      L1  H    11    28       P1  8028  0.74
      L1  H    12    16       P1  8028  0.28
      P1  H  7989  7998       L1     9  0.07
      P1  H  8011  8017       L1     9  0.92

> <Gold.Chemscore.Hbond.Weighted>
-10.2858

> <Gold.Chemscore.Metal.Weighted>
-0.0000

> <Gold.Chemscore.Lipo.Weighted>
-5.8518

> <Gold.Chemscore.Internal_Hbond.Weighted>
0.0000

> <Gold.Chemscore.DEClash.Weighted>
0.1465

> <Gold.Chemscore.DEInternal.Weighted>
1.0054

> <Gold.Chemscore.Rot.Weighted>
4.8340

> <Gold.Chemscore.Internal.Correction.Weighted>
   9.000000E+99

> <Gold.Protein.RotatedTorsions>
[ 6907 6896 6895 6894 ] final -118.07 input  -60.11 | X-H torsion
[ 7974 7965 7964 7962 ] final  101.50 input  175.53 | X-H torsion
[ 8008 7997 7996 7995 ] final -169.85 input   59.86 | X-H torsion
[ 10167 10162 10161 10158 ] final  162.82 input  -65.29 | X-H torsion
[ 10718 10713 10712 10709 ] final  124.52 input   66.30 | X-H torsion
[ 10763 10752 10751 10750 ] final -114.56 input  -60.55 | X-H torsion
[ 11005 11000 10999 10996 ] final  -31.75 input  -57.11 | X-H torsion

> <Gold.Protein.ActiveResidues>
 VAL166  LYS551  ARG553  GLY616  TRP617  ASP618  TYR619  PRO620  LYS621  CYS622 
 ASP623  PHE694  ASN695  SER759  ASP760  ASP761  ALA762  ILE779  LEU786  VAL792 
 PHE793  MET794  SER795  GLU796  ALA797  LYS798  CYS799  TRP800  GLU811  SER814 

> <Gold.Protein.RotatedAtoms>
  150.8189  133.8288  159.3147 H   0  0  0  0  0  0  0  0  0  0  0  0  # atno 6907 bound_to 6896
  151.6052  135.1043  160.0078 H   0  0  0  0  0  0  0  0  0  0  0  0  # atno 6908 bound_to 6896
  152.4279  133.7186  159.6577 H   0  0  0  0  0  0  0  0  0  0  0  0  # atno 6909 bound_to 6896
  145.3715  139.2397  143.3453 H   0  0  0  0  0  0  0  0  0  0  0  0  # atno 7974 bound_to 7965
  155.9106  140.1056  157.1282 H   0  0  0  0  0  0  0  0  0  0  0  0  # atno 8008 bound_to 7997
  154.4039  140.1275  156.4616 H   0  0  0  0  0  0  0  0  0  0  0  0  # atno 8009 bound_to 7997
  155.7315  140.3468  155.5064 H   0  0  0  0  0  0  0  0  0  0  0  0  # atno 8010 bound_to 7997
  139.4865  144.4399  151.8964 H   0  0  0  0  0  0  0  0  0  0  0  0  # atno 10167 bound_to 10162
  157.5578  131.1091  150.8591 H   0  0  0  0  0  0  0  0  0  0  0  0  # atno 10718 bound_to 10713
  154.8445  135.4413  154.1525 H   0  0  0  0  0  0  0  0  0  0  0  0  # atno 10763 bound_to 10752
  153.2682  135.6942  153.7514 H   0  0  0  0  0  0  0  0  0  0  0  0  # atno 10764 bound_to 10752
  153.6764  135.3410  155.3142 H   0  0  0  0  0  0  0  0  0  0  0  0  # atno 10765 bound_to 10752
  140.9494  133.7230  156.1197 H   0  0  0  0  0  0  0  0  0  0  0  0  # atno 11005 bound_to 11000
  146.2883  140.4367  142.8749 LP  0  0  0  0  0  0  0  0  0  0  0  0  # atno 17320 bound_to 7965
  144.8573  140.7089  143.6130 LP  0  0  0  0  0  0  0  0  0  0  0  0  # atno 17321 bound_to 7965
  140.3851  144.2687  150.5905 LP  0  0  0  0  0  0  0  0  0  0  0  0  # atno 17342 bound_to 10162
  140.5198  143.2269  151.8407 LP  0  0  0  0  0  0  0  0  0  0  0  0  # atno 17343 bound_to 10162
  156.9097  130.5276  149.5280 LP  0  0  0  0  0  0  0  0  0  0  0  0  # atno 17370 bound_to 10713
  156.0635  130.5683  150.9240 LP  0  0  0  0  0  0  0  0  0  0  0  0  # atno 17371 bound_to 10713
  140.7623  134.3925  157.5523 LP  0  0  0  0  0  0  0  0  0  0  0  0  # atno 17394 bound_to 11000
  139.8843  134.8969  156.2712 LP  0  0  0  0  0  0  0  0  0  0  0  0  # atno 17395 bound_to 11000

$$$$
