AV-unprocessed.smi:3274|AV-procd|sdf|12524|dock2
  -GOLD-   2272018433D 1   1.00000     0.00000
 Structure written by MMmdl.
 43 44  0  0  0  0  0  0  0  0  2 V2000
  153.6970  140.6592  160.7871 C   0  0  0  0  0  0  0  0  0  0  0  0
  152.9644  141.9799  160.6164 C   0  0  0  0  0  0  0  0  0  0  0  0
  152.8414  142.8155  161.6655 C   0  0  0  0  0  0  0  0  0  0  0  0
  152.2016  144.1830  161.5964 C   0  0  0  0  0  0  0  0  0  0  0  0
  152.1620  144.7002  160.1566 C   0  0  0  0  0  0  0  0  0  0  0  0
  151.5858  143.6456  159.1983 C   0  0  1  0  0  0  0  0  0  0  0  0
  151.4651  144.2483  157.7846 C   0  0  0  0  0  0  0  0  0  0  0  0
  152.4076  142.3193  159.2185 C   0  0  2  0  0  0  0  0  0  0  0  0
  151.5732  141.1652  158.6040 C   0  0  0  0  0  0  0  0  0  0  0  0
  151.8848  140.9253  157.1779 N   0  3  0  0  0  0  0  0  0  0  0  0
  150.7331  140.5080  156.3468 C   0  0  2  0  0  0  0  0  0  0  0  0
  151.2093  139.5105  155.2826 C   0  0  0  0  0  0  0  0  0  0  0  0
  150.0517  141.7269  155.6904 C   0  0  0  0  0  0  0  0  0  0  0  0
  148.7611  141.4064  155.1081 N   0  0  0  0  0  0  0  0  0  0  0  0
  148.4402  140.5993  154.0958 C   0  0  0  0  0  0  0  0  0  0  0  0
  147.1387  140.5419  153.8508 N   0  0  0  0  0  0  0  0  0  0  0  0
  146.6860  141.4050  154.8082 C   0  0  0  0  0  0  0  0  0  0  0  0
  147.6178  141.9454  155.5936 N   0  0  0  0  0  0  0  0  0  0  0  0
  154.4630  140.5450  160.0197 H   0  0  0  0  0  0  0  0  0  0  0  0
  153.0053  139.8189  160.7281 H   0  0  0  0  0  0  0  0  0  0  0  0
  154.1922  140.6034  161.7571 H   0  0  0  0  0  0  0  0  0  0  0  0
  153.2274  142.5274  162.6328 H   0  0  0  0  0  0  0  0  0  0  0  0
  151.1964  144.1205  162.0146 H   0  0  0  0  0  0  0  0  0  0  0  0
  152.7669  144.8750  162.2213 H   0  0  0  0  0  0  0  0  0  0  0  0
  151.5706  145.6159  160.1193 H   0  0  0  0  0  0  0  0  0  0  0  0
  153.1699  144.9707  159.8380 H   0  0  0  0  0  0  0  0  0  0  0  0
  150.5762  143.4227  159.5476 H   0  0  0  0  0  0  0  0  0  0  0  0
  152.4464  144.4473  157.3526 H   0  0  0  0  0  0  0  0  0  0  0  0
  150.9204  145.1926  157.8087 H   0  0  0  0  0  0  0  0  0  0  0  0
  150.9263  143.5966  157.0996 H   0  0  0  0  0  0  0  0  0  0  0  0
  153.2845  142.4762  158.5880 H   0  0  0  0  0  0  0  0  0  0  0  0
  151.7321  140.2470  159.1711 H   0  0  0  0  0  0  0  0  0  0  0  0
  150.5092  141.3808  158.6720 H   0  0  0  0  0  0  0  0  0  0  0  0
  152.2741  141.7690  156.7814 H   0  0  0  0  0  0  0  0  0  0  0  0
  150.0044  139.9901  156.9730 H   0  0  0  0  0  0  0  0  0  0  0  0
  150.3758  139.1576  154.6745 H   0  0  0  0  0  0  0  0  0  0  0  0
  151.6727  138.6368  155.7423 H   0  0  0  0  0  0  0  0  0  0  0  0
  151.9418  139.9621  154.6125 H   0  0  0  0  0  0  0  0  0  0  0  0
  149.9212  142.5316  156.4162 H   0  0  0  0  0  0  0  0  0  0  0  0
  150.6850  142.1257  154.8970 H   0  0  0  0  0  0  0  0  0  0  0  0
  149.1707  140.0377  153.5317 H   0  0  0  0  0  0  0  0  0  0  0  0
  145.6384  141.6343  154.9363 H   0  0  0  0  0  0  0  0  0  0  0  0
  152.5861  140.1997  157.1366 H   0  0  0  0  0  0  0  0  0  0  0  0
  1  2  1  0  0  0  0
  1 19  1  0  0  0  0
  1 20  1  0  0  0  0
  1 21  1  0  0  0  0
  2  8  1  0  0  0  0
  2  3  2  0  0  0  0
  3  4  1  0  0  0  0
  3 22  1  0  0  0  0
  4  5  1  0  0  0  0
  4 23  1  0  0  0  0
  4 24  1  0  0  0  0
  5  6  1  0  0  0  0
  5 25  1  0  0  0  0
  5 26  1  0  0  0  0
  6  7  1  0  0  0  0
  6  8  1  0  0  0  0
  6 27  1  0  0  0  0
  7 28  1  0  0  0  0
  7 29  1  0  0  0  0
  7 30  1  0  0  0  0
  8  9  1  0  0  0  0
  8 31  1  0  0  0  0
  9 10  1  0  0  0  0
  9 32  1  0  0  0  0
  9 33  1  0  0  0  0
 10 11  1  0  0  0  0
 10 34  1  0  0  0  0
 10 43  1  0  0  0  0
 11 12  1  0  0  0  0
 11 13  1  0  0  0  0
 11 35  1  0  0  0  0
 12 36  1  0  0  0  0
 12 37  1  0  0  0  0
 12 38  1  0  0  0  0
 13 14  1  0  0  0  0
 13 39  1  0  0  0  0
 13 40  1  0  0  0  0
 14 18  1  0  0  0  0
 14 15  1  0  0  0  0
 15 16  2  0  0  0  0
 15 41  1  0  0  0  0
 16 17  1  0  0  0  0
 17 18  2  0  0  0  0
 17 42  1  0  0  0  0
M  CHG  1  10   1
M  END
> <s_m_source_file>
AV-unprocessed.smi

> <i_m_source_file_index>
3274

> <i_lp_mmshare_version>
43012

> <i_f3d_flags>
0

> <s_epik_input>
W0NIM11DMT1bQ0hdW0NIMl1bQ0gyXVtDQEBIXShbQ0gzXSlbQ0BIXTFbQ0gyXVtOSF1bQ0BIXShbQ0gzXSlbQ0gyXW4yW2NIXW5bY0hdbjI=

> <s_epik_cmdline>
J2VwaWtfcHl0aG9uJywgJy1waCcsICc3LjAnLCAnLXRuJywgJzgnLCAnLW1hJywgJzIwMCcsICctbWV0YWxfYmluZGluZycsICctaW1hZScsICc8aW5maWxlLm1hZT4nLCAnLW9tYWUnLCAnPG91dGZpbGUubWFlPic=

> <r_lp_tautomer_probability>
1

> <r_epik_Ionization_Penalty>
0.0017527

> <r_epik_Ionization_Penalty_Charging>
0.00175191

> <r_epik_Ionization_Penalty_Neutral>
7.94565e-07

> <r_epik_State_Penalty>
0.00118605

> <r_epik_Charging_Adjusted_Penalty>
0.00293796

> <i_epik_Tot_Q>
1

> <i_epik_Tot_abs_Q>
1

> <r_epik_Metal_State_Penalty>
-0

> <b_epik_Metal_Only>
0

> <s_lp_Force_Field>
OPLS_2005

> <r_lp_Energy>
18.1094

> <b_lp_Chiralities_Consistent>
1

> <s_lp_Variant>
AV-unprocessed.smi:3274-3

> <Gold.Version>
5.8.1

> <Gold.Id.Protein>
6NUR|6NUR_protein|mol2

> <Gold.PLP.Fitness>
45.0157

> <Gold.PLP.PLP>
-44.5918

> <Gold.PLP.part.hbond>
0.0000

> <Gold.PLP.part.metal>
0.0000

> <Gold.PLP.part.buried>
-3.7711

> <Gold.PLP.part.nonpolar>
-41.8898

> <Gold.PLP.part.repulsive>
1.0108

> <Gold.PLP.ligand.clash>
0.0000

> <Gold.PLP.ligand.torsion>
1.3384

> <Gold.PLP.Chemscore.Hbond>
0.0000

> <Gold.PLP.Chemscore.CHOScore>
0.9898

> <Gold.PLP.Chemscore.Metal>
0.0000

> <Gold.Chemscore.Hbonds>
donor molecule, donor type, donor heavy atom, donor atom, acceptor molecule, acceptor atom, score
      L1  C    15    41       P1  7957  0.99

> <Gold.PLP.Chemscore.Internal.Correction>
0.1312

> <Gold.Rescore>
     Score         DG    S(hbond)    S(metal)    S(lipo)     H(rot)  DE(clash)    DE(int)     intcor
     12.44     -13.67       0.00        0.00     121.65       2.36       0.12       1.11       ----

> <Gold.Chemscore.Fitness>
12.4381

> <Gold.Chemscore.DG>
-13.6682

> <Gold.Chemscore.ZeroCoef>
-5.4800

> <Gold.Chemscore.Hbond>
0.0000

> <Gold.Chemscore.Metal>
0.0000

> <Gold.Chemscore.Lipo>
121.6547

> <Gold.Chemscore.Internal_Hbond>
0.0000

> <Gold.Chemscore.DEClash>
0.1172

> <Gold.Chemscore.DEInternal>
1.1129

> <Gold.Chemscore.Rot>
2.3615

> <Gold.Chemscore.Internal.Correction>
   9.000000E+99

> <Gold.Chemscore.Hbond.Weighted>
-0.0000

> <Gold.Chemscore.Metal.Weighted>
-0.0000

> <Gold.Chemscore.Lipo.Weighted>
-14.2336

> <Gold.Chemscore.Internal_Hbond.Weighted>
0.0000

> <Gold.Chemscore.DEClash.Weighted>
0.1172

> <Gold.Chemscore.DEInternal.Weighted>
1.1129

> <Gold.Chemscore.Rot.Weighted>
6.0454

> <Gold.Chemscore.Internal.Correction.Weighted>
   9.000000E+99

> <Gold.Protein.RotatedTorsions>
[ 6907 6896 6895 6894 ] final   80.51 input  -60.11 | X-H torsion
[ 7974 7965 7964 7962 ] final  110.84 input  175.53 | X-H torsion
[ 8008 7997 7996 7995 ] final  -72.33 input   59.86 | X-H torsion
[ 10167 10162 10161 10158 ] final   23.30 input  -65.29 | X-H torsion
[ 10718 10713 10712 10709 ] final -158.70 input   66.30 | X-H torsion
[ 10763 10752 10751 10750 ] final  -67.59 input  -60.55 | X-H torsion
[ 11005 11000 10999 10996 ] final  158.05 input  -57.11 | X-H torsion

> <Gold.Protein.ActiveResidues>
 VAL166  LYS551  ARG553  GLY616  TRP617  ASP618  TYR619  PRO620  LYS621  CYS622 
 ASP623  PHE694  ASN695  SER759  ASP760  ASP761  ALA762  ILE779  LEU786  VAL792 
 PHE793  MET794  SER795  GLU796  ALA797  LYS798  CYS799  TRP800  GLU811  SER814 

> <Gold.Protein.RotatedAtoms>
  152.5237  134.3346  159.9194 H   0  0  0  0  0  0  0  0  0  0  0  0  # atno 6907 bound_to 6896
  151.3295  133.4000  159.2669 H   0  0  0  0  0  0  0  0  0  0  0  0  # atno 6908 bound_to 6896
  150.9892  134.9248  159.7947 H   0  0  0  0  0  0  0  0  0  0  0  0  # atno 6909 bound_to 6896
  145.2498  139.2744  143.4073 H   0  0  0  0  0  0  0  0  0  0  0  0  # atno 7974 bound_to 7965
  154.5158  140.0799  156.8077 H   0  0  0  0  0  0  0  0  0  0  0  0  # atno 8008 bound_to 7997
  155.3685  140.3421  155.4224 H   0  0  0  0  0  0  0  0  0  0  0  0  # atno 8009 bound_to 7997
  156.1625  140.1593  156.8575 H   0  0  0  0  0  0  0  0  0  0  0  0  # atno 8010 bound_to 7997
  140.5280  143.9891  150.6450 H   0  0  0  0  0  0  0  0  0  0  0  0  # atno 10167 bound_to 10162
  156.5579  130.8634  151.2800 H   0  0  0  0  0  0  0  0  0  0  0  0  # atno 10718 bound_to 10713
  154.3766  135.6083  153.5768 H   0  0  0  0  0  0  0  0  0  0  0  0  # atno 10763 bound_to 10752
  152.9789  135.5851  154.4459 H   0  0  0  0  0  0  0  0  0  0  0  0  # atno 10764 bound_to 10752
  154.4221  135.2846  155.1946 H   0  0  0  0  0  0  0  0  0  0  0  0  # atno 10765 bound_to 10752
  140.1828  134.8463  157.2822 H   0  0  0  0  0  0  0  0  0  0  0  0  # atno 11005 bound_to 11000
  146.3305  140.2886  142.8614 LP  0  0  0  0  0  0  0  0  0  0  0  0  # atno 17320 bound_to 7965
  144.9513  140.8181  143.5570 LP  0  0  0  0  0  0  0  0  0  0  0  0  # atno 17321 bound_to 7965
  140.3258  143.3109  152.0738 LP  0  0  0  0  0  0  0  0  0  0  0  0  # atno 17342 bound_to 10162
  139.4944  144.6543  151.6607 LP  0  0  0  0  0  0  0  0  0  0  0  0  # atno 17343 bound_to 10162
  157.7374  130.9796  150.2194 LP  0  0  0  0  0  0  0  0  0  0  0  0  # atno 17370 bound_to 10713
  156.2826  130.3735  149.7920 LP  0  0  0  0  0  0  0  0  0  0  0  0  # atno 17371 bound_to 10713
  140.2248  134.3980  155.7549 LP  0  0  0  0  0  0  0  0  0  0  0  0  # atno 17394 bound_to 11000
  141.2223  133.7184  156.8548 LP  0  0  0  0  0  0  0  0  0  0  0  0  # atno 17395 bound_to 11000

$$$$
