#       Name:                AV-unprocessed.smi:1227
#       Creating user name   scv26
#       Creation time:       Fri Mar 27 04:21:40 2020


#       File generated by GOLD software.
#

@<TRIPOS>MOLECULE
AV-unprocessed.smi:1227
    51    52     1
SMALL
NO_CHARGES


@<TRIPOS>ATOM
      1 ****        -4.0774  -5.2740  -0.9618 C.3            1 S1                 0.0000
      2 ****        -3.4375  -4.0027  -0.9368 O.3            1 S1                 0.0000
      3 ****        -4.2104  -2.8707  -1.1136 C.ar           1 S1                 0.0000
      4 ****        -5.5474  -3.0247  -1.2847 N.ar           1 S1                 0.0000
      5 ****        -6.3043  -1.9229  -1.4615 C.ar           1 S1                 0.0000
      6 ****        -5.7739  -0.6205  -1.4811 C.ar           1 S1                 0.0000
      7 ****        -4.3875  -0.4573  -1.3045 C.ar           1 S1                 0.0000
      8 ****        -3.5787  -1.6043  -1.1084 C.ar           1 S1                 0.0000
      9 ****        -2.1660  -1.5697  -0.9328 N.am           1 S1                 0.0000
     10 ****        -1.3579  -0.5236  -0.6891 C.2            1 S1                 0.0000
     11 ****        -1.7164   0.6464  -0.5589 O.2            1 S1                 0.0000
     12 ****        -0.0805  -0.9173  -0.5909 N.am           1 S1                 0.0000
     13 ****         1.0517  -0.0335  -0.3416 C.3            1 S1                 0.0000
     14 ****         1.1607   0.3475   1.1470 C.3            1 S1                 0.0000
     15 ****         2.3439   1.1841   1.3964 N.am           1 S1                 0.0000
     16 ****         2.1100   2.6365   1.3882 C.3            1 S1                 0.0000
     17 ****         2.8470   3.3506   0.2383 C.3            1 S1                 0.0000
     18 ****         4.3276   3.6393   0.5277 C.3            1 S1                 0.0000
     19 ****         5.1910   2.3845   0.7208 C.3            1 S1                 0.0000
     20 ****         4.7569   1.5295   1.9228 C.3            1 S1                 0.0000
     21 ****         3.5604   0.6247   1.6021 C.2            1 S1                 0.0000
     22 ****         3.7476  -0.5920   1.5586 O.2            1 S1                 0.0000
     23 ****        -3.3325  -6.0554  -0.8116 H              1 S1                 0.0000
     24 ****        -4.5598  -5.4583  -1.9227 H              1 S1                 0.0000
     25 ****        -4.8175  -5.3651  -0.1656 H              1 S1                 0.0000
     26 ****        -7.3636  -2.0849  -1.5960 H              1 S1                 0.0000
     27 ****        -6.4156   0.2348  -1.6327 H              1 S1                 0.0000
     28 ****        -3.9818   0.5409  -1.3353 H              1 S1                 0.0000
     29 ****        -1.7141  -2.4719  -0.9652 H              1 S1                 0.0000
     30 ****         0.1255  -1.8991  -0.7044 H              1 S1                 0.0000
     31 ****         1.9542  -0.5519  -0.6663 H              1 S1                 0.0000
     32 ****         0.9695   0.8616  -0.9605 H              1 S1                 0.0000
     33 ****         0.2532   0.8565   1.4732 H              1 S1                 0.0000
     34 ****         1.2031  -0.5561   1.7578 H              1 S1                 0.0000
     35 ****         1.0458   2.8447   1.2750 H              1 S1                 0.0000
     36 ****         2.3828   3.0678   2.3522 H              1 S1                 0.0000
     37 ****         2.7450   2.7818  -0.6870 H              1 S1                 0.0000
     38 ****         2.3522   4.3050   0.0555 H              1 S1                 0.0000
     39 ****         4.7381   4.2223  -0.2974 H              1 S1                 0.0000
     40 ****         4.4081   4.2754   1.4101 H              1 S1                 0.0000
     41 ****         5.1882   1.7869  -0.1922 H              1 S1                 0.0000
     42 ****         6.2257   2.6954   0.8683 H              1 S1                 0.0000
     43 ****         5.5906   0.8897   2.2156 H              1 S1                 0.0000
     44 ****         4.5425   2.1508   2.7930 H              1 S1                 0.0000
     45 ****        -2.7480  -4.0052  -1.6611 LP             1 S1                 0.0000
     46 ****        -2.9871  -3.9166  -0.0481 LP             1 S1                 0.0000
     47 ****        -5.9621  -3.9347  -1.2798 LP             1 S1                 0.0000
     48 ****        -2.6849   0.8838  -0.6335 LP             1 S1                 0.0000
     49 ****        -1.0392   1.3597  -0.3785 LP             1 S1                 0.0000
     50 ****         2.9845  -1.2087   1.3653 LP             1 S1                 0.0000
     51 ****         4.6627  -0.9631   1.7166 LP             1 S1                 0.0000
@<TRIPOS>BOND
    1    1    2 1     
    2    1   23 1     
    3    1   24 1     
    4    1   25 1     
    5    2    3 1     
    6    3    8 ar    
    7    3    4 ar    
    8    4    5 ar    
    9    5    6 ar    
   10    5   26 1     
   11    6    7 ar    
   12    6   27 1     
   13    7    8 ar    
   14    7   28 1     
   15    8    9 1     
   16    9   10 am    
   17    9   29 1     
   18   10   11 2     
   19   10   12 am    
   20   12   13 1     
   21   12   30 1     
   22   13   14 1     
   23   13   31 1     
   24   13   32 1     
   25   14   15 1     
   26   14   33 1     
   27   14   34 1     
   28   15   21 am    
   29   15   16 1     
   30   16   17 1     
   31   16   35 1     
   32   16   36 1     
   33   17   18 1     
   34   17   37 1     
   35   17   38 1     
   36   18   19 1     
   37   18   39 1     
   38   18   40 1     
   39   19   20 1     
   40   19   41 1     
   41   19   42 1     
   42   20   21 1     
   43   20   43 1     
   44   20   44 1     
   45   21   22 2     
   46    2   45 1     
   47    2   46 1     
   48    4   47 1     
   49   11   48 1     
   50   11   49 1     
   51   22   50 1     
   52   22   51 1     
@<TRIPOS>SUBSTRUCTURE
      1 S1             1
@<TRIPOS>SET
LONE_PAIRS      STATIC     ATOMS    <user>   **** ""
7 45 46 47 48 49 50 51
DONOR_HYDROGENS      STATIC     ATOMS    <user>   **** ""
2 29 30
ATOM$BLUE        STATIC     ATOMS    COLORGROUP SYSTEM
7 45 46 47 48 49 50 51
ATOM$RED        STATIC     ATOMS    COLORGROUP SYSTEM
2 29 30
