AV-unprocessed.smi:2067|AV-procd|sdf|8423|dock1
  -GOLD-   2272011113D 1   1.00000     0.00000
 Structure written by MMmdl.
 47 48  0  0  0  0  0  0  0  0  1 V2000
  151.2828  145.1846  159.3084 C   0  0  0  0  0  0  0  0  0  0  0  0
  151.6191  143.8297  159.9529 C   0  0  2  0  0  0  0  0  0  0  0  0
  152.2412  144.0333  161.3492 C   0  0  0  0  0  0  0  0  0  0  0  0
  152.5930  142.6960  162.0182 C   0  0  0  0  0  0  0  0  0  0  0  0
  153.5234  141.8627  161.1264 C   0  0  0  0  0  0  0  0  0  0  0  0
  152.9055  141.6425  159.7379 C   0  0  0  0  0  0  0  0  0  0  0  0
  152.5513  142.9823  159.0564 C   0  0  1  0  0  0  0  0  0  0  0  0
  151.8708  142.7455  157.8294 O   0  0  0  0  0  0  0  0  0  0  0  0
  150.6751  141.9879  157.9454 C   0  0  0  0  0  0  0  0  0  0  0  0
  150.3988  141.3033  156.6041 C   0  0  0  0  0  0  0  0  0  0  0  0
  149.3680  140.2864  156.7369 N   0  0  0  0  0  0  0  0  0  0  0  0
  149.4184  138.9680  156.2952 C   0  0  0  0  0  0  0  0  0  0  0  0
  150.5011  138.4782  155.6274 C   0  0  0  0  0  0  0  0  0  0  0  0
  151.6490  139.2649  155.3004 C   0  0  0  0  0  0  0  0  0  0  0  0
  152.5904  139.8842  155.0327 N   0  0  0  0  0  0  0  0  0  0  0  0
  150.5541  137.1011  155.1419 C   0  0  0  0  0  0  0  0  0  0  0  0
  151.5215  136.6182  154.5481 O   0  0  0  0  0  0  0  0  0  0  0  0
  149.3972  136.3385  155.3991 N   0  0  0  0  0  0  0  0  0  0  0  0
  149.4105  134.9711  154.9177 C   0  0  0  0  0  0  0  0  0  0  0  0
  148.2603  136.8218  156.0802 C   0  0  0  0  0  0  0  0  0  0  0  0
  147.2701  136.1112  156.2776 O   0  0  0  0  0  0  0  0  0  0  0  0
  148.3003  138.1632  156.5342 N   0  0  0  0  0  0  0  0  0  0  0  0
  147.1123  138.5941  157.2440 C   0  0  0  0  0  0  0  0  0  0  0  0
  152.1827  145.7758  159.1354 H   0  0  0  0  0  0  0  0  0  0  0  0
  150.6189  145.7683  159.9465 H   0  0  0  0  0  0  0  0  0  0  0  0
  150.7802  145.0558  158.3495 H   0  0  0  0  0  0  0  0  0  0  0  0
  150.6834  143.2832  160.0809 H   0  0  0  0  0  0  0  0  0  0  0  0
  153.1412  144.6444  161.2659 H   0  0  0  0  0  0  0  0  0  0  0  0
  151.5514  144.5875  161.9866 H   0  0  0  0  0  0  0  0  0  0  0  0
  153.0660  142.8762  162.9839 H   0  0  0  0  0  0  0  0  0  0  0  0
  151.6794  142.1357  162.2210 H   0  0  0  0  0  0  0  0  0  0  0  0
  154.4833  142.3700  161.0232 H   0  0  0  0  0  0  0  0  0  0  0  0
  153.7299  140.9019  161.5988 H   0  0  0  0  0  0  0  0  0  0  0  0
  153.6047  141.0715  159.1279 H   0  0  0  0  0  0  0  0  0  0  0  0
  152.0072  141.0310  159.8320 H   0  0  0  0  0  0  0  0  0  0  0  0
  153.4643  143.5517  158.8716 H   0  0  0  0  0  0  0  0  0  0  0  0
  150.7933  141.2274  158.7183 H   0  0  0  0  0  0  0  0  0  0  0  0
  149.8299  142.6159  158.2282 H   0  0  0  0  0  0  0  0  0  0  0  0
  150.0956  142.0350  155.8548 H   0  0  0  0  0  0  0  0  0  0  0  0
  151.3229  140.8433  156.2543 H   0  0  0  0  0  0  0  0  0  0  0  0
  148.7849  140.4370  157.5482 H   0  0  0  0  0  0  0  0  0  0  0  0
  148.4636  134.4678  155.1094 H   0  0  0  0  0  0  0  0  0  0  0  0
  150.2185  134.4543  155.4387 H   0  0  0  0  0  0  0  0  0  0  0  0
  149.5900  135.0069  153.8414 H   0  0  0  0  0  0  0  0  0  0  0  0
  146.2835  138.5722  156.5340 H   0  0  0  0  0  0  0  0  0  0  0  0
  147.2417  139.5998  157.6376 H   0  0  0  0  0  0  0  0  0  0  0  0
  146.9527  137.9041  158.0748 H   0  0  0  0  0  0  0  0  0  0  0  0
  1  2  1  0  0  0  0
  1 24  1  0  0  0  0
  1 25  1  0  0  0  0
  1 26  1  0  0  0  0
  2  7  1  0  0  0  0
  2  3  1  0  0  0  0
  2 27  1  0  0  0  0
  3  4  1  0  0  0  0
  3 28  1  0  0  0  0
  3 29  1  0  0  0  0
  4  5  1  0  0  0  0
  4 30  1  0  0  0  0
  4 31  1  0  0  0  0
  5  6  1  0  0  0  0
  5 32  1  0  0  0  0
  5 33  1  0  0  0  0
  6  7  1  0  0  0  0
  6 34  1  0  0  0  0
  6 35  1  0  0  0  0
  7  8  1  0  0  0  0
  7 36  1  0  0  0  0
  8  9  1  0  0  0  0
  9 10  1  0  0  0  0
  9 37  1  0  0  0  0
  9 38  1  0  0  0  0
 10 11  1  0  0  0  0
 10 39  1  0  0  0  0
 10 40  1  0  0  0  0
 11 12  1  0  0  0  0
 11 41  1  0  0  0  0
 12 22  1  0  0  0  0
 12 13  2  0  0  0  0
 13 14  1  0  0  0  0
 13 16  1  0  0  0  0
 14 15  3  0  0  0  0
 16 17  2  0  0  0  0
 16 18  1  0  0  0  0
 18 19  1  0  0  0  0
 18 20  1  0  0  0  0
 19 42  1  0  0  0  0
 19 43  1  0  0  0  0
 19 44  1  0  0  0  0
 20 21  2  0  0  0  0
 20 22  1  0  0  0  0
 22 23  1  0  0  0  0
 23 45  1  0  0  0  0
 23 46  1  0  0  0  0
 23 47  1  0  0  0  0
M  END
> <s_m_source_file>
AV-unprocessed.smi

> <i_m_source_file_index>
2067

> <i_lp_mmshare_version>
43012

> <i_f3d_flags>
0

> <s_epik_input>
W0NIM11bQ0BASF0xW0NIMl1bQ0gyXVtDSDJdW0NIMl1bQ0BIXTFPW0NIMl1bQ0gyXVtOSF1jMmMoQyNOKWMoPU8pbihbQ0gzXSljKD1PKW4yW0NIM10=

> <s_epik_cmdline>
J2VwaWtfcHl0aG9uJywgJy1waCcsICc3LjAnLCAnLXRuJywgJzgnLCAnLW1hJywgJzIwMCcsICctbWV0YWxfYmluZGluZycsICctaW1hZScsICc8aW5maWxlLm1hZT4nLCAnLW9tYWUnLCAnPG91dGZpbGUubWFlPic=

> <r_epik_Ionization_Penalty>
0.00056529

> <r_epik_Ionization_Penalty_Charging>
3.94678e-10

> <r_epik_Ionization_Penalty_Neutral>
0.000565289

> <r_epik_State_Penalty>
0.000354611

> <r_epik_Charging_Adjusted_Penalty>
0.000354611

> <i_epik_Tot_Q>
0

> <i_epik_Tot_abs_Q>
0

> <r_epik_Metal_State_Penalty>
-0

> <b_epik_Metal_Only>
0

> <s_lp_Force_Field>
OPLS_2005

> <r_lp_Energy>
32.0891

> <b_lp_Chiralities_Consistent>
1

> <s_lp_Variant>
AV-unprocessed.smi:2067-1

> <Gold.Version>
5.8.1

> <Gold.Id.Protein>
6NUR|6NUR_protein|mol2

> <Gold.PLP.Fitness>
49.5284

> <Gold.PLP.PLP>
-42.6909

> <Gold.PLP.part.hbond>
-3.0000

> <Gold.PLP.part.metal>
0.0000

> <Gold.PLP.part.buried>
-5.0199

> <Gold.PLP.part.nonpolar>
-35.7993

> <Gold.PLP.part.repulsive>
0.2511

> <Gold.PLP.ligand.clash>
8.7922

> <Gold.PLP.ligand.torsion>
0.2260

> <Gold.PLP.Chemscore.Hbond>
2.4044

> <Gold.PLP.Chemscore.CHOScore>
0.0000

> <Gold.PLP.Chemscore.Metal>
0.0000

> <Gold.Chemscore.Hbonds>
donor molecule, donor type, donor heavy atom, donor atom, acceptor molecule, acceptor atom, score
      P1  H  7989  7998       L1    15  0.39
      P1  H  7997  8009       L1    15  0.91
      P1  H 10752 10765       L1    17  1.00

> <Gold.PLP.Chemscore.Internal.Correction>
8.8686

> <Gold.Rescore>
     Score         DG    S(hbond)    S(metal)    S(lipo)     H(rot)  DE(clash)    DE(int)     intcor
     17.05     -19.81       2.02        0.00     103.41       1.76       0.23       2.53       ----

> <Gold.Chemscore.Fitness>
17.0540

> <Gold.Chemscore.DG>
-19.8110

> <Gold.Chemscore.ZeroCoef>
-5.4800

> <Gold.Chemscore.Hbond>
2.0158

> <Gold.Chemscore.Metal>
0.0000

> <Gold.Chemscore.Lipo>
103.4144

> <Gold.Chemscore.Internal_Hbond>
0.0000

> <Gold.Chemscore.DEClash>
0.2282

> <Gold.Chemscore.DEInternal>
2.5288

> <Gold.Chemscore.Rot>
1.7583

> <Gold.Chemscore.Internal.Correction>
   9.000000E+99

> <Gold.Chemscore.Hbonds>
donor molecule, donor type, donor heavy atom, donor atom, acceptor molecule, acceptor atom, score
      P1  H  7989  7998       L1    15  0.04
      P1  H  7997  8009       L1    15  0.87
      P1  H 10752 10765       L1    17  0.99

> <Gold.Chemscore.Hbond.Weighted>
-6.7327

> <Gold.Chemscore.Metal.Weighted>
-0.0000

> <Gold.Chemscore.Lipo.Weighted>
-12.0995

> <Gold.Chemscore.Internal_Hbond.Weighted>
0.0000

> <Gold.Chemscore.DEClash.Weighted>
0.2282

> <Gold.Chemscore.DEInternal.Weighted>
2.5288

> <Gold.Chemscore.Rot.Weighted>
4.5012

> <Gold.Chemscore.Internal.Correction.Weighted>
   9.000000E+99

> <Gold.Protein.RotatedTorsions>
[ 6907 6896 6895 6894 ] final   76.74 input  -60.11 | X-H torsion
[ 7974 7965 7964 7962 ] final  -39.40 input  175.53 | X-H torsion
[ 8008 7997 7996 7995 ] final -139.57 input   59.86 | X-H torsion
[ 10167 10162 10161 10158 ] final   20.88 input  -65.29 | X-H torsion
[ 10718 10713 10712 10709 ] final  157.57 input   66.30 | X-H torsion
[ 10763 10752 10751 10750 ] final -175.90 input  -60.55 | X-H torsion
[ 11005 11000 10999 10996 ] final   48.26 input  -57.11 | X-H torsion

> <Gold.Protein.ActiveResidues>
 VAL166  LYS551  ARG553  GLY616  TRP617  ASP618  TYR619  PRO620  LYS621  CYS622 
 ASP623  PHE694  ASN695  SER759  ASP760  ASP761  ALA762  ILE779  LEU786  VAL792 
 PHE793  MET794  SER795  GLU796  ALA797  LYS798  CYS799  TRP800  GLU811  SER814 

> <Gold.Protein.RotatedAtoms>
  152.5086  134.3923  159.9388 H   0  0  0  0  0  0  0  0  0  0  0  0  # atno 6907 bound_to 6896
  151.3884  133.3791  159.2726 H   0  0  0  0  0  0  0  0  0  0  0  0  # atno 6908 bound_to 6896
  150.9451  134.8877  159.7696 H   0  0  0  0  0  0  0  0  0  0  0  0  # atno 6909 bound_to 6896
  146.0400  140.6621  142.9092 H   0  0  0  0  0  0  0  0  0  0  0  0  # atno 7974 bound_to 7965
  155.4470  140.0536  157.3005 H   0  0  0  0  0  0  0  0  0  0  0  0  # atno 8008 bound_to 7997
  154.4793  140.2074  155.9758 H   0  0  0  0  0  0  0  0  0  0  0  0  # atno 8009 bound_to 7997
  156.1181  140.3193  155.8173 H   0  0  0  0  0  0  0  0  0  0  0  0  # atno 8010 bound_to 7997
  140.5470  143.9577  150.6554 H   0  0  0  0  0  0  0  0  0  0  0  0  # atno 10167 bound_to 10162
  157.1897  131.0651  151.2086 H   0  0  0  0  0  0  0  0  0  0  0  0  # atno 10718 bound_to 10713
  154.5788  135.2834  155.0753 H   0  0  0  0  0  0  0  0  0  0  0  0  # atno 10763 bound_to 10752
  154.2097  135.6410  153.5115 H   0  0  0  0  0  0  0  0  0  0  0  0  # atno 10764 bound_to 10752
  153.0081  135.5489  154.6436 H   0  0  0  0  0  0  0  0  0  0  0  0  # atno 10765 bound_to 10752
  140.1207  134.4834  155.8600 H   0  0  0  0  0  0  0  0  0  0  0  0  # atno 11005 bound_to 11000
  144.7070  140.3890  143.7110 LP  0  0  0  0  0  0  0  0  0  0  0  0  # atno 17320 bound_to 7965
  145.6900  139.1637  143.2652 LP  0  0  0  0  0  0  0  0  0  0  0  0  # atno 17321 bound_to 7965
  140.2992  143.3271  152.0988 LP  0  0  0  0  0  0  0  0  0  0  0  0  # atno 17342 bound_to 10162
  139.5011  144.6707  151.6249 LP  0  0  0  0  0  0  0  0  0  0  0  0  # atno 17343 bound_to 10162
  157.3873  130.7263  149.6672 LP  0  0  0  0  0  0  0  0  0  0  0  0  # atno 17370 bound_to 10713
  155.9713  130.4156  150.4190 LP  0  0  0  0  0  0  0  0  0  0  0  0  # atno 17371 bound_to 10713
  141.2151  133.6759  156.6882 LP  0  0  0  0  0  0  0  0  0  0  0  0  # atno 17394 bound_to 11000
  140.2969  134.8195  157.4065 LP  0  0  0  0  0  0  0  0  0  0  0  0  # atno 17395 bound_to 11000

$$$$
