AV-unprocessed.smi:1810|AV-procd|sdf|7333|dock7
  -GOLD-   22720 8593D 1   1.00000     0.00000
 Structure written by MMmdl.
 40 41  0  0  0  0  0  0  0  0  1 V2000
  152.0058  144.8332  159.7797 C   0  0  0  0  0  0  0  0  0  0  0  0
  151.9310  143.4290  159.2428 C   0  0  0  0  0  0  0  0  0  0  0  0
  151.2480  143.2570  158.1590 N   0  0  0  0  0  0  0  0  0  0  0  0
  151.1170  142.0094  157.5820 N   0  0  0  0  0  0  0  0  0  0  0  0
  150.2976  141.9968  156.3654 C   0  0  0  0  0  0  0  0  0  0  0  0
  148.9861  141.2248  156.5763 C   0  0  0  0  0  0  0  0  0  0  0  0
  148.3143  141.1207  155.3285 O   0  0  0  0  0  0  0  0  0  0  0  0
  147.3213  142.0337  155.0443 C   0  0  0  0  0  0  0  0  0  0  0  0
  146.9704  142.4473  153.7334 C   0  0  0  0  0  0  0  0  0  0  0  0
  145.9420  143.3885  153.5334 C   0  0  0  0  0  0  0  0  0  0  0  0
  145.2566  143.9217  154.6411 C   0  0  0  0  0  0  0  0  0  0  0  0
  143.9535  145.1170  154.3719 S   0  0  0  0  0  0  0  0  0  0  0  0
  142.5675  144.1085  154.2240 N   0  0  0  0  0  0  0  0  0  0  0  0
  143.7931  145.9118  155.5993 O   0  0  0  0  0  0  0  0  0  0  0  0
  144.1650  145.7736  153.0726 O   0  0  0  0  0  0  0  0  0  0  0  0
  145.5930  143.5208  155.9482 C   0  0  0  0  0  0  0  0  0  0  0  0
  146.6229  142.5802  156.1419 C   0  0  0  0  0  0  0  0  0  0  0  0
  151.6701  140.8641  158.0732 C   0  0  0  0  0  0  0  0  0  0  0  0
  151.5224  139.7698  157.5272 O   0  0  0  0  0  0  0  0  0  0  0  0
  152.4421  141.0657  159.3016 C   0  0  0  0  0  0  0  0  0  0  0  0
  153.0379  139.8908  159.8512 C   0  0  0  0  0  0  0  0  0  0  0  0
  153.5086  138.9263  160.2850 N   0  0  0  0  0  0  0  0  0  0  0  0
  152.5791  142.2861  159.8781 C   0  0  0  0  0  0  0  0  0  0  0  0
  153.3692  142.5488  161.1530 C   0  0  0  0  0  0  0  0  0  0  0  0
  153.0403  145.1726  159.8345 H   0  0  0  0  0  0  0  0  0  0  0  0
  151.5777  144.8877  160.7807 H   0  0  0  0  0  0  0  0  0  0  0  0
  151.4613  145.5389  159.1504 H   0  0  0  0  0  0  0  0  0  0  0  0
  150.0686  143.0198  156.0608 H   0  0  0  0  0  0  0  0  0  0  0  0
  150.8569  141.5652  155.5335 H   0  0  0  0  0  0  0  0  0  0  0  0
  149.1977  140.2306  156.9728 H   0  0  0  0  0  0  0  0  0  0  0  0
  148.3594  141.7538  157.2961 H   0  0  0  0  0  0  0  0  0  0  0  0
  147.4759  142.0580  152.8629 H   0  0  0  0  0  0  0  0  0  0  0  0
  145.6825  143.6984  152.5317 H   0  0  0  0  0  0  0  0  0  0  0  0
  142.3346  143.6409  155.0997 H   0  0  0  0  0  0  0  0  0  0  0  0
  142.6372  143.4703  153.4319 H   0  0  0  0  0  0  0  0  0  0  0  0
  145.0709  143.9273  156.8017 H   0  0  0  0  0  0  0  0  0  0  0  0
  146.8801  142.2737  157.1453 H   0  0  0  0  0  0  0  0  0  0  0  0
  153.8094  141.6395  161.5613 H   0  0  0  0  0  0  0  0  0  0  0  0
  152.7241  142.9738  161.9228 H   0  0  0  0  0  0  0  0  0  0  0  0
  154.1834  143.2482  160.9605 H   0  0  0  0  0  0  0  0  0  0  0  0
  1  2  1  0  0  0  0
  1 25  1  0  0  0  0
  1 26  1  0  0  0  0
  1 27  1  0  0  0  0
  2 23  1  0  0  0  0
  2  3  2  0  0  0  0
  3  4  1  0  0  0  0
  4  5  1  0  0  0  0
  4 18  1  0  0  0  0
  5  6  1  0  0  0  0
  5 28  1  0  0  0  0
  5 29  1  0  0  0  0
  6  7  1  0  0  0  0
  6 30  1  0  0  0  0
  6 31  1  0  0  0  0
  7  8  1  0  0  0  0
  8 17  1  0  0  0  0
  8  9  2  0  0  0  0
  9 10  1  0  0  0  0
  9 32  1  0  0  0  0
 10 11  2  0  0  0  0
 10 33  1  0  0  0  0
 11 12  1  0  0  0  0
 11 16  1  0  0  0  0
 12 13  1  0  0  0  0
 12 14  2  0  0  0  0
 12 15  2  0  0  0  0
 13 34  1  0  0  0  0
 13 35  1  0  0  0  0
 16 17  2  0  0  0  0
 16 36  1  0  0  0  0
 17 37  1  0  0  0  0
 18 19  2  0  0  0  0
 18 20  1  0  0  0  0
 20 21  1  0  0  0  0
 20 23  2  0  0  0  0
 21 22  3  0  0  0  0
 23 24  1  0  0  0  0
 24 38  1  0  0  0  0
 24 39  1  0  0  0  0
 24 40  1  0  0  0  0
M  END
> <s_m_source_file>
AV-unprocessed.smi

> <i_m_source_file_index>
1810

> <i_lp_mmshare_version>
43012

> <i_f3d_flags>
0

> <s_epik_input>
TiNDYyhjMVtDSDNdKWMoPU8pbihuYzFbQ0gzXSlbQ0gyXVtDSDJdT2MyW2NIXVtjSF1jKFMoPU8pKD1PKVtOSDJdKVtjSF1bY0hdMg==

> <s_epik_cmdline>
J2VwaWtfcHl0aG9uJywgJy1waCcsICc3LjAnLCAnLXRuJywgJzgnLCAnLW1hJywgJzIwMCcsICctbWV0YWxfYmluZGluZycsICctaW1hZScsICc8aW5maWxlLm1hZT4nLCAnLW9tYWUnLCAnPG91dGZpbGUubWFlPic=

> <r_lp_tautomer_probability>
1

> <r_epik_Ionization_Penalty>
0.000347403

> <r_epik_Ionization_Penalty_Charging>
5.27838e-11

> <r_epik_Ionization_Penalty_Neutral>
0.000347403

> <r_epik_State_Penalty>
0.00021091

> <r_epik_Charging_Adjusted_Penalty>
0.000210911

> <i_epik_Tot_Q>
0

> <i_epik_Tot_abs_Q>
0

> <r_epik_Metal_State_Penalty>
0.18648

> <b_epik_Metal_Only>
0

> <s_lp_Force_Field>
OPLS_2005

> <r_lp_Energy>
32.1268

> <b_lp_Chiralities_Consistent>
1

> <s_lp_Variant>
AV-unprocessed.smi:1810-1

> <Gold.Version>
5.8.1

> <Gold.Id.Protein>
6NUR|6NUR_protein|mol2

> <Gold.PLP.Fitness>
47.5700

> <Gold.PLP.PLP>
-45.9291

> <Gold.PLP.part.hbond>
-2.0245

> <Gold.PLP.part.metal>
0.0000

> <Gold.PLP.part.buried>
-7.4122

> <Gold.PLP.part.nonpolar>
-35.4175

> <Gold.PLP.part.repulsive>
0.3277

> <Gold.PLP.ligand.clash>
0.0000

> <Gold.PLP.ligand.torsion>
1.6736

> <Gold.PLP.Chemscore.Hbond>
1.0000

> <Gold.PLP.Chemscore.CHOScore>
0.0000

> <Gold.PLP.Chemscore.Metal>
0.0000

> <Gold.Chemscore.Hbonds>
donor molecule, donor type, donor heavy atom, donor atom, acceptor molecule, acceptor atom, score
      L1  H    13    35       P1 10174  1.00

> <Gold.PLP.Chemscore.Internal.Correction>
1.9881

> <Gold.Rescore>
     Score         DG    S(hbond)    S(metal)    S(lipo)     H(rot)  DE(clash)    DE(int)     intcor
     12.91     -14.85       1.00        0.00      95.11       1.99       0.25       1.69       ----

> <Gold.Chemscore.Fitness>
12.9072

> <Gold.Chemscore.DG>
-14.8457

> <Gold.Chemscore.ZeroCoef>
-5.4800

> <Gold.Chemscore.Hbond>
0.9995

> <Gold.Chemscore.Metal>
0.0000

> <Gold.Chemscore.Lipo>
95.1114

> <Gold.Chemscore.Internal_Hbond>
0.0000

> <Gold.Chemscore.DEClash>
0.2495

> <Gold.Chemscore.DEInternal>
1.6890

> <Gold.Chemscore.Rot>
1.9925

> <Gold.Chemscore.Internal.Correction>
   9.000000E+99

> <Gold.Chemscore.Hbonds>
donor molecule, donor type, donor heavy atom, donor atom, acceptor molecule, acceptor atom, score
      L1  H    13    35       P1 10174  0.99

> <Gold.Chemscore.Hbond.Weighted>
-3.3384

> <Gold.Chemscore.Metal.Weighted>
-0.0000

> <Gold.Chemscore.Lipo.Weighted>
-11.1280

> <Gold.Chemscore.Internal_Hbond.Weighted>
0.0000

> <Gold.Chemscore.DEClash.Weighted>
0.2495

> <Gold.Chemscore.DEInternal.Weighted>
1.6890

> <Gold.Chemscore.Rot.Weighted>
5.1007

> <Gold.Chemscore.Internal.Correction.Weighted>
   9.000000E+99

> <Gold.Protein.RotatedTorsions>
[ 6907 6896 6895 6894 ] final  -38.80 input  -60.11 | X-H torsion
[ 7974 7965 7964 7962 ] final  -57.44 input  175.53 | X-H torsion
[ 8008 7997 7996 7995 ] final   63.67 input   59.86 | X-H torsion
[ 10167 10162 10161 10158 ] final   21.27 input  -65.29 | X-H torsion
[ 10718 10713 10712 10709 ] final   85.35 input   66.30 | X-H torsion
[ 10763 10752 10751 10750 ] final   75.70 input  -60.55 | X-H torsion
[ 11005 11000 10999 10996 ] final    1.23 input  -57.11 | X-H torsion

> <Gold.Protein.ActiveResidues>
 VAL166  LYS551  ARG553  GLY616  TRP617  ASP618  TYR619  PRO620  LYS621  CYS622 
 ASP623  PHE694  ASN695  SER759  ASP760  ASP761  ALA762  ILE779  LEU786  VAL792 
 PHE793  MET794  SER795  GLU796  ALA797  LYS798  CYS799  TRP800  GLU811  SER814 

> <Gold.Protein.RotatedAtoms>
  150.9980  134.9299  159.7937 H   0  0  0  0  0  0  0  0  0  0  0  0  # atno 6907 bound_to 6896
  152.5270  134.3192  159.9152 H   0  0  0  0  0  0  0  0  0  0  0  0  # atno 6908 bound_to 6896
  151.3198  133.4003  159.2688 H   0  0  0  0  0  0  0  0  0  0  0  0  # atno 6909 bound_to 6896
  145.8510  140.8352  142.9986 H   0  0  0  0  0  0  0  0  0  0  0  0  # atno 7974 bound_to 7965
  155.6339  140.3496  155.4692 H   0  0  0  0  0  0  0  0  0  0  0  0  # atno 8008 bound_to 7997
  155.9981  140.1207  157.0598 H   0  0  0  0  0  0  0  0  0  0  0  0  # atno 8009 bound_to 7997
  154.4240  140.1106  156.5644 H   0  0  0  0  0  0  0  0  0  0  0  0  # atno 8010 bound_to 7997
  140.5439  143.9628  150.6536 H   0  0  0  0  0  0  0  0  0  0  0  0  # atno 10167 bound_to 10162
  157.6913  131.0171  150.2809 H   0  0  0  0  0  0  0  0  0  0  0  0  # atno 10718 bound_to 10713
  153.0673  135.4979  154.8228 H   0  0  0  0  0  0  0  0  0  0  0  0  # atno 10763 bound_to 10752
  154.6972  135.2995  154.9396 H   0  0  0  0  0  0  0  0  0  0  0  0  # atno 10764 bound_to 10752
  154.0132  135.6751  153.4819 H   0  0  0  0  0  0  0  0  0  0  0  0  # atno 10765 bound_to 10752
  140.6178  133.9689  155.8209 H   0  0  0  0  0  0  0  0  0  0  0  0  # atno 11005 bound_to 11000
  144.6729  140.0953  143.7463 LP  0  0  0  0  0  0  0  0  0  0  0  0  # atno 17320 bound_to 7965
  145.9358  139.2636  143.1298 LP  0  0  0  0  0  0  0  0  0  0  0  0  # atno 17321 bound_to 7965
  140.3036  143.3244  152.0947 LP  0  0  0  0  0  0  0  0  0  0  0  0  # atno 17342 bound_to 10162
  139.5000  144.6681  151.6308 LP  0  0  0  0  0  0  0  0  0  0  0  0  # atno 17343 bound_to 10162
  156.3356  130.3807  149.7453 LP  0  0  0  0  0  0  0  0  0  0  0  0  # atno 17370 bound_to 10713
  156.4979  130.8115  151.3121 LP  0  0  0  0  0  0  0  0  0  0  0  0  # atno 17371 bound_to 10713
  141.0764  134.0129  157.3452 LP  0  0  0  0  0  0  0  0  0  0  0  0  # atno 17394 bound_to 11000
  139.9166  135.0197  156.7904 LP  0  0  0  0  0  0  0  0  0  0  0  0  # atno 17395 bound_to 11000

$$$$
