#       Name:                AV-unprocessed.smi:2718
#       Creating user name   scv26
#       Creation time:       Fri Mar 27 14:54:10 2020


#       File generated by GOLD software.
#

@<TRIPOS>MOLECULE
AV-unprocessed.smi:2718
    51    52     1
SMALL
NO_CHARGES


@<TRIPOS>ATOM
      1 ****        -3.9106  -1.9394  -4.1207 C.3            1 S1                 0.0000
      2 ****        -2.9564  -1.9851  -2.9438 C.2            1 S1                 0.0000
      3 ****        -3.2258  -3.1019  -1.9505 C.3            1 S1                 0.0000
      4 ****        -1.9568  -1.0929  -2.8093 C.2            1 S1                 0.0000
      5 ****        -0.9647  -1.0317  -1.7038 C.3            1 S1                 0.0000
      6 ****        -0.4153   0.3020  -1.2304 C.3            1 S1                 0.0000
      7 ****         1.0327   0.4005  -0.8649 C.2            1 S1                 0.0000
      8 ****         1.7827  -0.5727  -0.7823 O.2            1 S1                 0.0000
      9 ****         1.4398   1.6577  -0.6368 N.am           1 S1                 0.0000
     10 ****         2.7936   2.0661  -0.2696 C.3            1 S1                 0.0000
     11 ****         3.2100   1.6377   1.1574 C.3            1 S1                 0.0000
     12 ****         4.5536   2.2573   1.5670 C.3            1 S1                 0.0000
     13 ****         2.1439   1.8987   2.1881 C.2            1 S1                 0.0000
     14 ****         1.6092   3.1068   2.4112 N.2            1 S1                 0.0000
     15 ****         0.6859   2.9268   3.4210 N.2            1 S1                 0.0000
     16 ****         0.7657   1.6314   3.7203 C.2            1 S1                 0.0000
     17 ****         1.6574   0.9356   2.9995 N.pl3          1 S1                 0.0000
     18 ****         1.9909  -0.4717   3.0968 C.3            1 S1                 0.0000
     19 ****        -1.3480  -0.5019  -0.3321 C.3            1 S1                 0.0000
     20 ****        -2.7297   0.0748  -0.0626 C.3            1 S1                 0.0000
     21 ****        -0.8707  -1.2585   0.9007 C.3            1 S1                 0.0000
     22 ****        -3.8639  -2.8730  -4.6821 H              1 S1                 0.0000
     23 ****        -3.6699  -1.1224  -4.8018 H              1 S1                 0.0000
     24 ****        -4.9335  -1.7986  -3.7714 H              1 S1                 0.0000
     25 ****        -4.2202  -2.9866  -1.5188 H              1 S1                 0.0000
     26 ****        -2.5056  -3.1176  -1.1331 H              1 S1                 0.0000
     27 ****        -3.1820  -4.0687  -2.4523 H              1 S1                 0.0000
     28 ****        -1.8390  -0.3349  -3.5701 H              1 S1                 0.0000
     29 ****        -0.2751  -1.8735  -1.7397 H              1 S1                 0.0000
     30 ****        -0.8435   1.2002  -1.6737 H              1 S1                 0.0000
     31 ****         0.7550   2.3952  -0.7219 H              1 S1                 0.0000
     32 ****         3.5075   1.6934  -1.0057 H              1 S1                 0.0000
     33 ****         2.8198   3.1539  -0.3417 H              1 S1                 0.0000
     34 ****         3.3767   0.5621   1.1158 H              1 S1                 0.0000
     35 ****         4.8808   1.8762   2.5347 H              1 S1                 0.0000
     36 ****         4.4837   3.3428   1.6430 H              1 S1                 0.0000
     37 ****         5.3316   2.0236   0.8400 H              1 S1                 0.0000
     38 ****         0.1605   1.1793   4.4923 H              1 S1                 0.0000
     39 ****         1.3381  -0.9635   3.8183 H              1 S1                 0.0000
     40 ****         3.0259  -0.5811   3.4213 H              1 S1                 0.0000
     41 ****         1.8670  -0.9517   2.1265 H              1 S1                 0.0000
     42 ****        -2.7022   0.7307   0.8079 H              1 S1                 0.0000
     43 ****        -3.4460  -0.7252   0.1264 H              1 S1                 0.0000
     44 ****        -3.0860   0.6568  -0.9129 H              1 S1                 0.0000
     45 ****        -0.6746  -0.5631   1.7169 H              1 S1                 0.0000
     46 ****         0.0372  -1.8252   0.6975 H              1 S1                 0.0000
     47 ****        -1.6313  -1.9680   1.2274 H              1 S1                 0.0000
     48 ****         1.4318  -1.4913  -0.9641 LP             1 S1                 0.0000
     49 ****         2.7427  -0.4444  -0.5334 LP             1 S1                 0.0000
     50 ****         1.8328   3.9617   1.9431 LP             1 S1                 0.0000
     51 ****         0.0903   3.6149   3.8353 LP             1 S1                 0.0000
@<TRIPOS>BOND
    1    1    2 1     
    2    1   22 1     
    3    1   23 1     
    4    1   24 1     
    5    2    3 1     
    6    2    4 2     
    7    3   25 1     
    8    3   26 1     
    9    3   27 1     
   10    4    5 1     
   11    4   28 1     
   12    5   19 1     
   13    5    6 1     
   14    5   29 1     
   15    6    7 1     
   16    6   19 1     
   17    6   30 1     
   18    7    8 2     
   19    7    9 am    
   20    9   10 1     
   21    9   31 1     
   22   10   11 1     
   23   10   32 1     
   24   10   33 1     
   25   11   12 1     
   26   11   13 1     
   27   11   34 1     
   28   12   35 1     
   29   12   36 1     
   30   12   37 1     
   31   13   17 1     
   32   13   14 2     
   33   14   15 1     
   34   15   16 2     
   35   16   17 1     
   36   16   38 1     
   37   17   18 1     
   38   18   39 1     
   39   18   40 1     
   40   18   41 1     
   41   19   20 1     
   42   19   21 1     
   43   20   42 1     
   44   20   43 1     
   45   20   44 1     
   46   21   45 1     
   47   21   46 1     
   48   21   47 1     
   49    8   48 1     
   50    8   49 1     
   51   14   50 1     
   52   15   51 1     
@<TRIPOS>SUBSTRUCTURE
      1 S1             1
@<TRIPOS>SET
LONE_PAIRS      STATIC     ATOMS    <user>   **** ""
4 48 49 50 51
DONOR_HYDROGENS      STATIC     ATOMS    <user>   **** ""
1 31
ATOM$BLUE        STATIC     ATOMS    COLORGROUP SYSTEM
4 48 49 50 51
ATOM$RED        STATIC     ATOMS    COLORGROUP SYSTEM
1 31
