AV-unprocessed.smi:3130|AV-procd|sdf|11926|dock3
  -GOLD-   2272017313D 1   1.00000     0.00000
 Structure written by MMmdl.
 40 40  0  0  0  0  0  0  0  0  2 V2000
  152.0683  145.4011  159.1709 C   0  0  0  0  0  0  0  0  0  0  0  0
  151.9912  143.9541  158.7779 C   0  0  0  0  0  0  0  0  0  0  0  0
  152.9346  142.9218  159.0467 C   0  0  0  0  0  0  0  0  0  0  0  0
  152.5679  141.7495  158.5543 N   0  0  0  0  0  0  0  0  0  0  0  0
  151.3806  141.9899  157.9594 N   0  0  0  0  0  0  0  0  0  0  0  0
  150.6781  140.9110  157.2917 C   0  0  0  0  0  0  0  0  0  0  0  0
  150.4143  141.2276  155.8122 C   0  0  0  0  0  0  0  0  0  0  0  0
  149.0951  141.8642  155.6334 N   0  3  0  0  0  0  0  0  0  0  0  0
  148.5383  141.7190  154.2743 C   0  0  0  0  0  0  0  0  0  0  0  0
  147.0818  142.2108  154.2193 C   0  0  0  0  0  0  0  0  0  0  0  0
  146.2517  141.7418  155.4178 C   0  0  0  0  0  0  0  0  0  0  0  0
  146.6170  141.9952  156.5658 O   0  0  0  0  0  0  0  0  0  0  0  0
  145.1352  141.0526  155.1343 N   0  0  0  0  0  0  0  0  0  0  0  0
  144.2033  140.5061  156.1171 C   0  0  0  0  0  0  0  0  0  0  0  0
  144.1474  138.9795  155.9716 C   0  0  0  0  0  0  0  0  0  0  0  0
  142.8133  141.1415  155.9541 C   0  0  0  0  0  0  0  0  0  0  0  0
  151.0100  143.3128  158.0763 C   0  0  0  0  0  0  0  0  0  0  0  0
  152.9108  145.5981  159.8344 H   0  0  0  0  0  0  0  0  0  0  0  0
  151.1672  145.7255  159.6918 H   0  0  0  0  0  0  0  0  0  0  0  0
  152.1876  146.0467  158.3005 H   0  0  0  0  0  0  0  0  0  0  0  0
  153.8713  142.9904  159.5802 H   0  0  0  0  0  0  0  0  0  0  0  0
  151.2728  140.0012  157.3849 H   0  0  0  0  0  0  0  0  0  0  0  0
  149.7400  140.7324  157.8194 H   0  0  0  0  0  0  0  0  0  0  0  0
  151.1864  141.8952  155.4272 H   0  0  0  0  0  0  0  0  0  0  0  0
  150.4540  140.3117  155.2208 H   0  0  0  0  0  0  0  0  0  0  0  0
  148.4488  141.4543  156.2926 H   0  0  0  0  0  0  0  0  0  0  0  0
  149.1583  142.2866  153.5786 H   0  0  0  0  0  0  0  0  0  0  0  0
  148.5925  140.6705  153.9762 H   0  0  0  0  0  0  0  0  0  0  0  0
  147.0651  143.3010  154.1747 H   0  0  0  0  0  0  0  0  0  0  0  0
  146.5998  141.8523  153.3091 H   0  0  0  0  0  0  0  0  0  0  0  0
  144.9134  140.8886  154.1630 H   0  0  0  0  0  0  0  0  0  0  0  0
  144.5723  140.7304  157.1195 H   0  0  0  0  0  0  0  0  0  0  0  0
  143.4783  138.5392  156.7114 H   0  0  0  0  0  0  0  0  0  0  0  0
  145.1326  138.5342  156.1144 H   0  0  0  0  0  0  0  0  0  0  0  0
  143.7888  138.6869  154.9842 H   0  0  0  0  0  0  0  0  0  0  0  0
  142.1121  140.7397  156.6861 H   0  0  0  0  0  0  0  0  0  0  0  0
  142.4029  140.9511  154.9620 H   0  0  0  0  0  0  0  0  0  0  0  0
  142.8511  142.2219  156.0977 H   0  0  0  0  0  0  0  0  0  0  0  0
  150.0888  143.6870  157.6541 H   0  0  0  0  0  0  0  0  0  0  0  0
  149.1850  142.8493  155.8385 H   0  0  0  0  0  0  0  0  0  0  0  0
  1  2  1  0  0  0  0
  1 18  1  0  0  0  0
  1 19  1  0  0  0  0
  1 20  1  0  0  0  0
  2 17  2  0  0  0  0
  2  3  1  0  0  0  0
  3  4  2  0  0  0  0
  3 21  1  0  0  0  0
  4  5  1  0  0  0  0
  5  6  1  0  0  0  0
  5 17  1  0  0  0  0
  6  7  1  0  0  0  0
  6 22  1  0  0  0  0
  6 23  1  0  0  0  0
  7  8  1  0  0  0  0
  7 24  1  0  0  0  0
  7 25  1  0  0  0  0
  8  9  1  0  0  0  0
  8 26  1  0  0  0  0
  8 40  1  0  0  0  0
  9 10  1  0  0  0  0
  9 27  1  0  0  0  0
  9 28  1  0  0  0  0
 10 11  1  0  0  0  0
 10 29  1  0  0  0  0
 10 30  1  0  0  0  0
 11 12  2  0  0  0  0
 11 13  1  0  0  0  0
 13 14  1  0  0  0  0
 13 31  1  0  0  0  0
 14 15  1  0  0  0  0
 14 16  1  0  0  0  0
 14 32  1  0  0  0  0
 15 33  1  0  0  0  0
 15 34  1  0  0  0  0
 15 35  1  0  0  0  0
 16 36  1  0  0  0  0
 16 37  1  0  0  0  0
 16 38  1  0  0  0  0
 17 39  1  0  0  0  0
M  CHG  1   8   1
M  END
> <s_m_source_file>
AV-unprocessed.smi

> <i_m_source_file_index>
3130

> <i_lp_mmshare_version>
43012

> <i_f3d_flags>
0

> <s_epik_input>
W0NIM11jMVtjSF1ubihbY0hdMSlbQ0gyXVtDSDJdW05IXVtDSDJdW0NIMl1DKD1PKVtOSF1bQ0hdKFtDSDNdKVtDSDNd

> <s_epik_cmdline>
J2VwaWtfcHl0aG9uJywgJy1waCcsICc3LjAnLCAnLXRuJywgJzgnLCAnLW1hJywgJzIwMCcsICctbWV0YWxfYmluZGluZycsICctaW1hZScsICc8aW5maWxlLm1hZT4nLCAnLW9tYWUnLCAnPG91dGZpbGUubWFlPic=

> <r_lp_tautomer_probability>
1

> <r_epik_Ionization_Penalty>
0.00578341

> <r_epik_Ionization_Penalty_Charging>
0.00577767

> <r_epik_Ionization_Penalty_Neutral>
5.73237e-06

> <r_epik_State_Penalty>
-0

> <r_epik_Charging_Adjusted_Penalty>
0.00577767

> <i_epik_Tot_Q>
1

> <i_epik_Tot_abs_Q>
1

> <r_epik_Metal_State_Penalty>
-0

> <b_epik_Metal_Only>
0

> <s_lp_Force_Field>
OPLS_2005

> <r_lp_Energy>
3.33075

> <b_lp_Chiralities_Consistent>
1

> <s_lp_Variant>
AV-unprocessed.smi:3130-1

> <Gold.Version>
5.8.1

> <Gold.Id.Protein>
6NUR|6NUR_protein|mol2

> <Gold.PLP.Fitness>
44.7486

> <Gold.PLP.PLP>
-33.4888

> <Gold.PLP.part.hbond>
-2.0000

> <Gold.PLP.part.metal>
0.0000

> <Gold.PLP.part.buried>
-4.0225

> <Gold.PLP.part.nonpolar>
-28.5860

> <Gold.PLP.part.repulsive>
0.2354

> <Gold.PLP.ligand.clash>
0.0000

> <Gold.PLP.ligand.torsion>
0.4373

> <Gold.PLP.Chemscore.Hbond>
3.0000

> <Gold.PLP.Chemscore.CHOScore>
1.0000

> <Gold.PLP.Chemscore.Metal>
0.0000

> <Gold.Chemscore.Hbonds>
donor molecule, donor type, donor heavy atom, donor atom, acceptor molecule, acceptor atom, score
      L1  H     8    40       P1  8028  2.00
      L1  H    13    31       P1 10175  0.80
      L1  C    17    39       P1  8028  1.00

> <Gold.PLP.Chemscore.Internal.Correction>
0.1343

> <Gold.Rescore>
     Score         DG    S(hbond)    S(metal)    S(lipo)     H(rot)  DE(clash)    DE(int)     intcor
     13.11     -15.21       1.95        0.00      77.04       2.26       0.07       2.04       ----

> <Gold.Chemscore.Fitness>
13.1066

> <Gold.Chemscore.DG>
-15.2107

> <Gold.Chemscore.ZeroCoef>
-5.4800

> <Gold.Chemscore.Hbond>
1.9463

> <Gold.Chemscore.Metal>
0.0000

> <Gold.Chemscore.Lipo>
77.0390

> <Gold.Chemscore.Internal_Hbond>
0.0000

> <Gold.Chemscore.DEClash>
0.0689

> <Gold.Chemscore.DEInternal>
2.0351

> <Gold.Chemscore.Rot>
2.2591

> <Gold.Chemscore.Internal.Correction>
   9.000000E+99

> <Gold.Chemscore.Hbonds>
donor molecule, donor type, donor heavy atom, donor atom, acceptor molecule, acceptor atom, score
      L1  H     8    40       P1  8028  0.99
      L1  H    13    31       P1 10175  0.73

> <Gold.Chemscore.Hbond.Weighted>
-6.5005

> <Gold.Chemscore.Metal.Weighted>
-0.0000

> <Gold.Chemscore.Lipo.Weighted>
-9.0136

> <Gold.Chemscore.Internal_Hbond.Weighted>
0.0000

> <Gold.Chemscore.DEClash.Weighted>
0.0689

> <Gold.Chemscore.DEInternal.Weighted>
2.0351

> <Gold.Chemscore.Rot.Weighted>
5.7834

> <Gold.Chemscore.Internal.Correction.Weighted>
   9.000000E+99

> <Gold.Protein.RotatedTorsions>
[ 6907 6896 6895 6894 ] final -148.29 input  -60.11 | X-H torsion
[ 7974 7965 7964 7962 ] final   36.32 input  175.53 | X-H torsion
[ 8008 7997 7996 7995 ] final  -82.37 input   59.86 | X-H torsion
[ 10167 10162 10161 10158 ] final  -30.04 input  -65.29 | X-H torsion
[ 10718 10713 10712 10709 ] final   55.81 input   66.30 | X-H torsion
[ 10763 10752 10751 10750 ] final  114.46 input  -60.55 | X-H torsion
[ 11005 11000 10999 10996 ] final  169.64 input  -57.11 | X-H torsion

> <Gold.Protein.ActiveResidues>
 VAL166  LYS551  ARG553  GLY616  TRP617  ASP618  TYR619  PRO620  LYS621  CYS622 
 ASP623  PHE694  ASN695  SER759  ASP760  ASP761  ALA762  ILE779  LEU786  VAL792 
 PHE793  MET794  SER795  GLU796  ALA797  LYS798  CYS799  TRP800  GLU811  SER814 

> <Gold.Protein.RotatedAtoms>
  151.1678  133.4804  159.2593 H   0  0  0  0  0  0  0  0  0  0  0  0  # atno 6907 bound_to 6896
  151.1388  135.0168  159.8626 H   0  0  0  0  0  0  0  0  0  0  0  0  # atno 6908 bound_to 6896
  152.5462  134.1573  159.8596 H   0  0  0  0  0  0  0  0  0  0  0  0  # atno 6909 bound_to 6896
  146.1220  139.6033  142.9283 H   0  0  0  0  0  0  0  0  0  0  0  0  # atno 7974 bound_to 7965
  154.6079  140.0634  156.9455 H   0  0  0  0  0  0  0  0  0  0  0  0  # atno 8008 bound_to 7997
  155.2022  140.3316  155.4323 H   0  0  0  0  0  0  0  0  0  0  0  0  # atno 8009 bound_to 7997
  156.2359  140.1862  156.7104 H   0  0  0  0  0  0  0  0  0  0  0  0  # atno 8010 bound_to 7997
  140.7254  143.3880  151.1480 H   0  0  0  0  0  0  0  0  0  0  0  0  # atno 10167 bound_to 10162
  157.5377  130.8675  149.8777 H   0  0  0  0  0  0  0  0  0  0  0  0  # atno 10718 bound_to 10713
  153.5077  135.3624  155.2571 H   0  0  0  0  0  0  0  0  0  0  0  0  # atno 10763 bound_to 10752
  154.8744  135.4015  154.3405 H   0  0  0  0  0  0  0  0  0  0  0  0  # atno 10764 bound_to 10752
  153.4053  135.7076  153.6464 H   0  0  0  0  0  0  0  0  0  0  0  0  # atno 10765 bound_to 10752
  140.2999  134.7604  157.3907 H   0  0  0  0  0  0  0  0  0  0  0  0  # atno 11005 bound_to 11000
  145.5446  141.0418  143.2312 LP  0  0  0  0  0  0  0  0  0  0  0  0  # atno 17320 bound_to 7965
  144.7606  139.6966  143.7236 LP  0  0  0  0  0  0  0  0  0  0  0  0  # atno 17321 bound_to 7965
  139.7481  143.8821  152.3069 LP  0  0  0  0  0  0  0  0  0  0  0  0  # atno 17342 bound_to 10162
  139.8665  144.7090  150.9037 LP  0  0  0  0  0  0  0  0  0  0  0  0  # atno 17343 bound_to 10162
  156.0472  130.3725  150.1289 LP  0  0  0  0  0  0  0  0  0  0  0  0  # atno 17370 bound_to 10713
  156.9471  130.9763  151.3505 LP  0  0  0  0  0  0  0  0  0  0  0  0  # atno 17371 bound_to 10713
  140.1119  134.5334  155.8258 LP  0  0  0  0  0  0  0  0  0  0  0  0  # atno 17394 bound_to 11000
  141.2130  133.6727  156.6705 LP  0  0  0  0  0  0  0  0  0  0  0  0  # atno 17395 bound_to 11000

$$$$
