AV-unprocessed.smi:2299|AV-procd|sdf|9228|dock2
  -GOLD-   2272012443D 1   1.00000     0.00000
 Structure written by MMmdl.
 43 44  0  0  0  0  0  0  0  0  2 V2000
  148.2949  141.3461  154.9100 C   0  0  0  0  0  0  0  0  0  0  0  0
  147.5672  139.9962  154.9968 C   0  0  0  0  0  0  0  0  0  0  0  0
  148.3812  138.9612  155.7863 C   0  0  0  0  0  0  0  0  0  0  0  0
  147.2036  139.4791  153.6323 C   0  0  0  0  0  0  0  0  0  0  0  0
  147.5524  140.0582  152.4761 N   0  3  0  0  0  0  0  0  0  0  0  0
  147.0696  139.3441  151.4148 C   0  0  0  0  0  0  0  0  0  0  0  0
  146.3998  138.2731  151.9434 C   0  0  0  0  0  0  0  0  0  0  0  0
  146.5014  138.3758  153.3082 N   0  0  0  0  0  0  0  0  0  0  0  0
  145.9294  137.4334  154.2836 C   0  0  0  0  0  0  0  0  0  0  0  0
  145.1093  136.3132  153.6314 C   0  0  0  0  0  0  0  0  0  0  0  0
  143.8876  136.2510  153.7769 O   0  0  0  0  0  0  0  0  0  0  0  0
  145.8090  135.4263  152.9063 N   0  0  0  0  0  0  0  0  0  0  0  0
  145.2451  134.2867  152.1784 C   0  0  2  0  0  0  0  0  0  0  0  0
  146.4230  133.5133  151.5422 C   0  0  0  0  0  0  0  0  0  0  0  0
  146.0972  132.0467  151.2107 C   0  0  0  0  0  0  0  0  0  0  0  0
  145.0244  131.8488  150.1291 C   0  0  0  0  0  0  0  0  0  0  0  0
  143.6452  132.4093  150.5160 C   0  0  0  0  0  0  0  0  0  0  0  0
  143.5819  133.8580  150.3737 N   0  0  0  0  0  0  0  0  0  0  0  0
  144.2889  134.7678  151.0614 C   0  0  0  0  0  0  0  0  0  0  0  0
  144.1780  135.9664  150.8027 O   0  0  0  0  0  0  0  0  0  0  0  0
  147.6843  142.0859  154.3906 H   0  0  0  0  0  0  0  0  0  0  0  0
  149.2409  141.2586  154.3744 H   0  0  0  0  0  0  0  0  0  0  0  0
  148.5118  141.7391  155.9036 H   0  0  0  0  0  0  0  0  0  0  0  0
  146.6355  140.1674  155.5337 H   0  0  0  0  0  0  0  0  0  0  0  0
  147.8315  138.0248  155.8878 H   0  0  0  0  0  0  0  0  0  0  0  0
  148.6046  139.3214  156.7910 H   0  0  0  0  0  0  0  0  0  0  0  0
  149.3291  138.7400  155.2947 H   0  0  0  0  0  0  0  0  0  0  0  0
  147.2353  139.6437  150.3902 H   0  0  0  0  0  0  0  0  0  0  0  0
  145.8708  137.4638  151.4610 H   0  0  0  0  0  0  0  0  0  0  0  0
  146.7533  136.9919  154.8459 H   0  0  0  0  0  0  0  0  0  0  0  0
  145.3215  137.9907  154.9970 H   0  0  0  0  0  0  0  0  0  0  0  0
  146.8076  135.5572  152.8333 H   0  0  0  0  0  0  0  0  0  0  0  0
  144.7091  133.6453  152.8804 H   0  0  0  0  0  0  0  0  0  0  0  0
  146.7946  134.0274  150.6537 H   0  0  0  0  0  0  0  0  0  0  0  0
  147.2599  133.5019  152.2425 H   0  0  0  0  0  0  0  0  0  0  0  0
  147.0130  131.5545  150.8817 H   0  0  0  0  0  0  0  0  0  0  0  0
  145.7941  131.5284  152.1214 H   0  0  0  0  0  0  0  0  0  0  0  0
  145.3562  132.2825  149.1846 H   0  0  0  0  0  0  0  0  0  0  0  0
  144.9227  130.7786  149.9464 H   0  0  0  0  0  0  0  0  0  0  0  0
  142.8894  131.9894  149.8520 H   0  0  0  0  0  0  0  0  0  0  0  0
  143.3651  132.1102  151.5270 H   0  0  0  0  0  0  0  0  0  0  0  0
  142.9589  134.2073  149.6597 H   0  0  0  0  0  0  0  0  0  0  0  0
  148.0939  140.9102  152.4025 H   0  0  0  0  0  0  0  0  0  0  0  0
  1  2  1  0  0  0  0
  1 21  1  0  0  0  0
  1 22  1  0  0  0  0
  1 23  1  0  0  0  0
  2  3  1  0  0  0  0
  2  4  1  0  0  0  0
  2 24  1  0  0  0  0
  3 25  1  0  0  0  0
  3 26  1  0  0  0  0
  3 27  1  0  0  0  0
  4  8  1  0  0  0  0
  4  5  2  0  0  0  0
  5  6  1  0  0  0  0
  5 43  1  0  0  0  0
  6  7  2  0  0  0  0
  6 28  1  0  0  0  0
  7  8  1  0  0  0  0
  7 29  1  0  0  0  0
  8  9  1  0  0  0  0
  9 10  1  0  0  0  0
  9 30  1  0  0  0  0
  9 31  1  0  0  0  0
 10 11  2  0  0  0  0
 10 12  1  0  0  0  0
 12 13  1  0  0  0  0
 12 32  1  0  0  0  0
 13 19  1  0  0  0  0
 13 14  1  0  0  0  0
 13 33  1  0  0  0  0
 14 15  1  0  0  0  0
 14 34  1  0  0  0  0
 14 35  1  0  0  0  0
 15 16  1  0  0  0  0
 15 36  1  0  0  0  0
 15 37  1  0  0  0  0
 16 17  1  0  0  0  0
 16 38  1  0  0  0  0
 16 39  1  0  0  0  0
 17 18  1  0  0  0  0
 17 40  1  0  0  0  0
 17 41  1  0  0  0  0
 18 19  1  0  0  0  0
 18 42  1  0  0  0  0
 19 20  2  0  0  0  0
M  CHG  1   5   1
M  END
> <s_m_source_file>
AV-unprocessed.smi

> <i_m_source_file_index>
2299

> <i_lp_mmshare_version>
43012

> <i_f3d_flags>
0

> <s_epik_input>
W0NIM11bQ0hdKFtDSDNdKWMxbltjSF1bY0hdbjFbQ0gyXUMoPU8pW05IXVtDQEBIXTJbQ0gyXVtDSDJdW0NIMl1bQ0gyXVtOSF1DMj1P

> <s_epik_cmdline>
J2VwaWtfcHl0aG9uJywgJy1waCcsICc3LjAnLCAnLXRuJywgJzgnLCAnLW1hJywgJzIwMCcsICctbWV0YWxfYmluZGluZycsICctaW1hZScsICc8aW5maWxlLm1hZT4nLCAnLW9tYWUnLCAnPG91dGZpbGUubWFlPic=

> <r_lp_tautomer_probability>
1

> <r_epik_Ionization_Penalty>
0.292878

> <r_epik_Ionization_Penalty_Charging>
0

> <r_epik_Ionization_Penalty_Neutral>
0.292878

> <r_epik_State_Penalty>
0.286008

> <r_epik_Charging_Adjusted_Penalty>
0.286008

> <i_epik_Tot_Q>
1

> <i_epik_Tot_abs_Q>
1

> <r_epik_Metal_State_Penalty>
0.563502

> <b_epik_Metal_Only>
0

> <s_lp_Force_Field>
OPLS_2005

> <r_lp_Energy>
16.2332

> <b_lp_Chiralities_Consistent>
1

> <s_lp_Variant>
AV-unprocessed.smi:2299-1

> <Gold.Version>
5.8.1

> <Gold.Id.Protein>
6NUR|6NUR_protein|mol2

> <Gold.PLP.Fitness>
40.6247

> <Gold.PLP.PLP>
-33.9322

> <Gold.PLP.part.hbond>
-2.5904

> <Gold.PLP.part.metal>
0.0000

> <Gold.PLP.part.buried>
-0.0133

> <Gold.PLP.part.nonpolar>
-32.5607

> <Gold.PLP.part.repulsive>
0.7861

> <Gold.PLP.ligand.clash>
0.0000

> <Gold.PLP.ligand.torsion>
0.1056

> <Gold.PLP.Chemscore.Hbond>
2.0000

> <Gold.PLP.Chemscore.CHOScore>
0.2844

> <Gold.PLP.Chemscore.Metal>
0.0000

> <Gold.Chemscore.Hbonds>
donor molecule, donor type, donor heavy atom, donor atom, acceptor molecule, acceptor atom, score
      L1  H    18    42       P1 10186  0.69
      L1  C     7    29       P1 10171  0.15

> <Gold.PLP.Chemscore.Internal.Correction>
0.0506

> <Gold.Rescore>
     Score         DG    S(hbond)    S(metal)    S(lipo)     H(rot)  DE(clash)    DE(int)     intcor
     13.83     -16.35       1.84        0.00      78.79       1.75       0.97       1.55       ----

> <Gold.Chemscore.Fitness>
13.8259

> <Gold.Chemscore.DG>
-16.3526

> <Gold.Chemscore.ZeroCoef>
-5.4800

> <Gold.Chemscore.Hbond>
1.8372

> <Gold.Chemscore.Metal>
0.0000

> <Gold.Chemscore.Lipo>
78.7900

> <Gold.Chemscore.Internal_Hbond>
0.0000

> <Gold.Chemscore.DEClash>
0.9723

> <Gold.Chemscore.DEInternal>
1.5544

> <Gold.Chemscore.Rot>
1.7508

> <Gold.Chemscore.Internal.Correction>
   9.000000E+99

> <Gold.Chemscore.Hbonds>
donor molecule, donor type, donor heavy atom, donor atom, acceptor molecule, acceptor atom, score
      L1  H     5    43       P1  7957  0.01
      L1  H    12    32       P1  7948  0.06
      L1  H    18    42       P1 10186  0.67

> <Gold.Chemscore.Hbond.Weighted>
-6.1363

> <Gold.Chemscore.Metal.Weighted>
-0.0000

> <Gold.Chemscore.Lipo.Weighted>
-9.2184

> <Gold.Chemscore.Internal_Hbond.Weighted>
0.0000

> <Gold.Chemscore.DEClash.Weighted>
0.9723

> <Gold.Chemscore.DEInternal.Weighted>
1.5544

> <Gold.Chemscore.Rot.Weighted>
4.4821

> <Gold.Chemscore.Internal.Correction.Weighted>
   9.000000E+99

> <Gold.Protein.RotatedTorsions>
[ 6907 6896 6895 6894 ] final -148.54 input  -60.11 | X-H torsion
[ 7974 7965 7964 7962 ] final -113.07 input  175.53 | X-H torsion
[ 8008 7997 7996 7995 ] final  127.70 input   59.86 | X-H torsion
[ 10167 10162 10161 10158 ] final  111.67 input  -65.29 | X-H torsion
[ 10718 10713 10712 10709 ] final   47.13 input   66.30 | X-H torsion
[ 10763 10752 10751 10750 ] final   73.10 input  -60.55 | X-H torsion
[ 11005 11000 10999 10996 ] final  141.53 input  -57.11 | X-H torsion

> <Gold.Protein.ActiveResidues>
 VAL166  LYS551  ARG553  GLY616  TRP617  ASP618  TYR619  PRO620  LYS621  CYS622 
 ASP623  PHE694  ASN695  SER759  ASP760  ASP761  ALA762  ILE779  LEU786  VAL792 
 PHE793  MET794  SER795  GLU796  ALA797  LYS798  CYS799  TRP800  GLU811  SER814 

> <Gold.Protein.RotatedAtoms>
  151.1713  133.4782  159.2593 H   0  0  0  0  0  0  0  0  0  0  0  0  # atno 6907 bound_to 6896
  151.1353  135.0151  159.8611 H   0  0  0  0  0  0  0  0  0  0  0  0  # atno 6908 bound_to 6896
  152.5461  134.1612  159.8611 H   0  0  0  0  0  0  0  0  0  0  0  0  # atno 6909 bound_to 6896
  145.1364  140.8753  143.3728 H   0  0  0  0  0  0  0  0  0  0  0  0  # atno 7974 bound_to 7965
  156.2897  140.2662  156.2316 H   0  0  0  0  0  0  0  0  0  0  0  0  # atno 8008 bound_to 7997
  155.0067  140.0387  157.2400 H   0  0  0  0  0  0  0  0  0  0  0  0  # atno 8009 bound_to 7997
  154.7554  140.2751  155.6263 H   0  0  0  0  0  0  0  0  0  0  0  0  # atno 8010 bound_to 7997
  139.6594  144.7129  151.1894 H   0  0  0  0  0  0  0  0  0  0  0  0  # atno 10167 bound_to 10162
  157.4553  130.8163  149.7830 H   0  0  0  0  0  0  0  0  0  0  0  0  # atno 10718 bound_to 10713
  153.0500  135.5075  154.7843 H   0  0  0  0  0  0  0  0  0  0  0  0  # atno 10763 bound_to 10752
  154.6712  135.2953  154.9741 H   0  0  0  0  0  0  0  0  0  0  0  0  # atno 10764 bound_to 10752
  154.0559  135.6697  153.4858 H   0  0  0  0  0  0  0  0  0  0  0  0  # atno 10765 bound_to 10752
  140.0408  134.9305  157.0840 H   0  0  0  0  0  0  0  0  0  0  0  0  # atno 11005 bound_to 11000
  145.0579  139.3128  143.5895 LP  0  0  0  0  0  0  0  0  0  0  0  0  # atno 17320 bound_to 7965
  146.3509  140.0011  142.8676 LP  0  0  0  0  0  0  0  0  0  0  0  0  # atno 17321 bound_to 7965
  140.7573  143.6019  150.8691 LP  0  0  0  0  0  0  0  0  0  0  0  0  # atno 17342 bound_to 10162
  139.9675  143.6094  152.2984 LP  0  0  0  0  0  0  0  0  0  0  0  0  # atno 17343 bound_to 10162
  156.0005  130.3883  150.2626 LP  0  0  0  0  0  0  0  0  0  0  0  0  # atno 17370 bound_to 10713
  157.0800  131.0141  151.3160 LP  0  0  0  0  0  0  0  0  0  0  0  0  # atno 17371 bound_to 10713
  140.4072  134.2020  155.7163 LP  0  0  0  0  0  0  0  0  0  0  0  0  # atno 17394 bound_to 11000
  141.1882  133.8265  157.1003 LP  0  0  0  0  0  0  0  0  0  0  0  0  # atno 17395 bound_to 11000

$$$$
