AV-unprocessed.smi:229|AV-procd|sdf|1758|dock7
  -GOLD-   2262020283D 1   1.00000     0.00000
 Structure written by MMmdl.
 58 62  0  0  0  0  0  0  0  0  1 V2000
  148.3157  134.7683  159.9442 C   0  0  0  0  0  0  0  0  0  0  0  0
  148.3262  133.6886  158.8549 C   0  0  0  0  0  0  0  0  0  0  0  0
  148.4323  134.2702  157.4372 C   0  0  1  0  0  0  0  0  0  0  0  0
  149.4003  135.4630  157.3803 C   0  0  0  0  0  0  0  0  0  0  0  0
  149.5526  135.9142  156.0043 N   0  0  0  0  0  0  0  0  0  0  0  0
  150.0432  137.1565  155.7575 C   0  0  0  0  0  0  0  0  0  0  0  0
  150.2256  137.5021  154.4561 N   0  0  0  0  0  0  0  0  0  0  0  0
  150.6898  138.7118  154.1319 C   0  0  0  0  0  0  0  0  0  0  0  0
  151.0322  139.7171  154.9382 N   0  0  0  0  0  0  0  0  0  0  0  0
  150.8584  139.3794  156.2475 C   0  0  0  0  0  0  0  0  0  0  0  0
  150.3743  138.1343  156.7450 C   0  0  0  0  0  0  0  0  0  0  0  0
  150.3507  138.1712  158.1362 N   0  0  0  0  0  0  0  0  0  0  0  0
  150.7819  139.3646  158.4394 C   0  0  0  0  0  0  0  0  0  0  0  0
  151.1071  140.1572  157.3639 N   0  0  0  0  0  0  0  0  0  0  0  0
  151.6071  141.5203  157.4046 C   0  0  0  0  0  0  0  0  0  0  0  0
  151.9850  141.9664  158.8314 C   0  0  1  0  0  0  0  0  0  0  0  0
  153.2313  141.3943  159.1821 O   0  0  0  0  0  0  0  0  0  0  0  0
  152.0891  143.4978  158.9575 C   0  0  2  0  0  0  0  0  0  0  0  0
  152.5044  143.9915  160.3439 C   0  0  0  0  0  0  0  0  0  0  0  0
  151.9927  145.4135  160.3258 C   0  0  0  0  0  0  0  0  0  0  0  0
  150.6809  145.2707  159.5578 C   0  0  0  0  0  0  0  0  0  0  0  0
  150.8183  144.1071  158.7449 O   0  0  0  0  0  0  0  0  0  0  0  0
  149.9695  134.8582  155.0872 C   0  0  0  0  0  0  0  0  0  0  0  0
  149.0311  133.6331  155.1911 C   0  0  2  0  0  0  0  0  0  0  0  0
  149.5987  132.4415  154.4256 C   0  0  0  0  0  0  0  0  0  0  0  0
  148.8954  132.5209  153.0794 C   0  0  0  0  0  0  0  0  0  0  0  0
  147.5804  132.8903  153.4488 O   0  0  0  0  0  0  0  0  0  0  0  0
  147.6680  133.8533  154.4929 C   0  0  0  0  0  0  0  0  0  0  0  0
  148.9004  133.2428  156.5615 O   0  0  0  0  0  0  0  0  0  0  0  0
  148.2566  134.3181  160.9351 H   0  0  0  0  0  0  0  0  0  0  0  0
  147.4611  135.4362  159.8320 H   0  0  0  0  0  0  0  0  0  0  0  0
  149.2218  135.3736  159.9069 H   0  0  0  0  0  0  0  0  0  0  0  0
  149.1686  133.0199  159.0343 H   0  0  0  0  0  0  0  0  0  0  0  0
  147.4268  133.0773  158.9368 H   0  0  0  0  0  0  0  0  0  0  0  0
  147.4421  134.6054  157.1275 H   0  0  0  0  0  0  0  0  0  0  0  0
  149.0134  136.2717  158.0014 H   0  0  0  0  0  0  0  0  0  0  0  0
  150.3752  135.1766  157.7767 H   0  0  0  0  0  0  0  0  0  0  0  0
  150.8002  138.9020  153.0744 H   0  0  0  0  0  0  0  0  0  0  0  0
  150.8725  139.7017  159.4618 H   0  0  0  0  0  0  0  0  0  0  0  0
  152.4678  141.5967  156.7387 H   0  0  0  0  0  0  0  0  0  0  0  0
  150.8370  142.1743  156.9937 H   0  0  0  0  0  0  0  0  0  0  0  0
  151.2362  141.5979  159.5338 H   0  0  0  0  0  0  0  0  0  0  0  0
  153.2120  140.4757  158.9613 H   0  0  0  0  0  0  0  0  0  0  0  0
  152.7800  143.8951  158.2117 H   0  0  0  0  0  0  0  0  0  0  0  0
  151.9977  143.4217  161.1243 H   0  0  0  0  0  0  0  0  0  0  0  0
  153.5794  143.9277  160.5153 H   0  0  0  0  0  0  0  0  0  0  0  0
  151.8608  145.8369  161.3219 H   0  0  0  0  0  0  0  0  0  0  0  0
  152.6844  146.0502  159.7724 H   0  0  0  0  0  0  0  0  0  0  0  0
  149.8476  145.1168  160.2439 H   0  0  0  0  0  0  0  0  0  0  0  0
  150.4627  146.1513  158.9531 H   0  0  0  0  0  0  0  0  0  0  0  0
  150.0068  135.2070  154.0546 H   0  0  0  0  0  0  0  0  0  0  0  0
  150.9874  134.5705  155.3542 H   0  0  0  0  0  0  0  0  0  0  0  0
  150.6857  132.4503  154.3396 H   0  0  0  0  0  0  0  0  0  0  0  0
  149.3154  131.5095  154.9173 H   0  0  0  0  0  0  0  0  0  0  0  0
  149.3356  133.2941  152.4476 H   0  0  0  0  0  0  0  0  0  0  0  0
  148.9119  131.5755  152.5369 H   0  0  0  0  0  0  0  0  0  0  0  0
  146.8182  133.7204  155.1616 H   0  0  0  0  0  0  0  0  0  0  0  0
  147.5974  134.8539  154.0642 H   0  0  0  0  0  0  0  0  0  0  0  0
  1  2  1  0  0  0  0
  1 30  1  0  0  0  0
  1 31  1  0  0  0  0
  1 32  1  0  0  0  0
  2  3  1  0  0  0  0
  2 33  1  0  0  0  0
  2 34  1  0  0  0  0
  3 29  1  0  0  0  0
  3  4  1  0  0  0  0
  3 35  1  0  0  0  0
  4  5  1  0  0  0  0
  4 36  1  0  0  0  0
  4 37  1  0  0  0  0
  5  6  1  0  0  0  0
  5 23  1  0  0  0  0
  6 11  1  0  0  0  0
  6  7  2  0  0  0  0
  7  8  1  0  0  0  0
  8  9  2  0  0  0  0
  8 38  1  0  0  0  0
  9 10  1  0  0  0  0
 10 14  1  0  0  0  0
 10 11  2  0  0  0  0
 11 12  1  0  0  0  0
 12 13  2  0  0  0  0
 13 14  1  0  0  0  0
 13 39  1  0  0  0  0
 14 15  1  0  0  0  0
 15 16  1  0  0  0  0
 15 40  1  0  0  0  0
 15 41  1  0  0  0  0
 16 17  1  0  0  0  0
 16 18  1  0  0  0  0
 16 42  1  0  0  0  0
 17 43  1  0  0  0  0
 18 22  1  0  0  0  0
 18 19  1  0  0  0  0
 18 44  1  0  0  0  0
 19 20  1  0  0  0  0
 19 45  1  0  0  0  0
 19 46  1  0  0  0  0
 20 21  1  0  0  0  0
 20 47  1  0  0  0  0
 20 48  1  0  0  0  0
 21 22  1  0  0  0  0
 21 49  1  0  0  0  0
 21 50  1  0  0  0  0
 23 24  1  0  0  0  0
 23 51  1  0  0  0  0
 23 52  1  0  0  0  0
 24 28  1  0  0  0  0
 24 25  1  0  0  0  0
 24 29  1  0  0  0  0
 25 26  1  0  0  0  0
 25 53  1  0  0  0  0
 25 54  1  0  0  0  0
 26 27  1  0  0  0  0
 26 55  1  0  0  0  0
 26 56  1  0  0  0  0
 27 28  1  0  0  0  0
 28 57  1  0  0  0  0
 28 58  1  0  0  0  0
M  END
> <s_m_source_file>
AV-unprocessed.smi

> <i_m_source_file_index>
229

> <i_lp_mmshare_version>
43012

> <i_f3d_flags>
0

> <s_epik_input>
W0NIMl0xT1tDSDJdW0NIMl1bQ0BdMTJbQ0gyXU4oW0NIMl1bQ0BIXShPMilbQ0gyXVtDSDNdKWMobltjSF1uMyljKGMzNCluW2NIXW40W0NIMl1bQ0BIXShbT0hdKVtDQEBIXTVbQ0gyXVtDSDJdW0NIMl1PNQ==

> <s_epik_cmdline>
J2VwaWtfcHl0aG9uJywgJy1waCcsICc3LjAnLCAnLXRuJywgJzgnLCAnLW1hJywgJzIwMCcsICctbWV0YWxfYmluZGluZycsICctaW1hZScsICc8aW5maWxlLm1hZT4nLCAnLW9tYWUnLCAnPG91dGZpbGUubWFlPic=

> <r_lp_tautomer_probability>
1

> <r_epik_Ionization_Penalty>
0.00318402

> <r_epik_Ionization_Penalty_Charging>
0

> <r_epik_Ionization_Penalty_Neutral>
0.00318402

> <r_epik_State_Penalty>
0.00215642

> <r_epik_Charging_Adjusted_Penalty>
0.00215642

> <i_epik_Tot_Q>
0

> <i_epik_Tot_abs_Q>
0

> <r_epik_Metal_State_Penalty>
-0

> <b_epik_Metal_Only>
0

> <s_lp_Force_Field>
OPLS_2005

> <r_lp_Energy>
55.1094

> <b_lp_Chiralities_Consistent>
1

> <s_lp_Variant>
AV-unprocessed.smi:229-12

> <Gold.Version>
5.8.1

> <Gold.Id.Protein>
6NUR|6NUR_protein|mol2

> <Gold.PLP.Fitness>
44.5252

> <Gold.PLP.PLP>
-40.4065

> <Gold.PLP.part.hbond>
-1.0000

> <Gold.PLP.part.metal>
0.0000

> <Gold.PLP.part.buried>
-8.0596

> <Gold.PLP.part.nonpolar>
-31.5306

> <Gold.PLP.part.repulsive>
0.6020

> <Gold.PLP.ligand.clash>
0.0000

> <Gold.PLP.ligand.torsion>
0.8143

> <Gold.PLP.Chemscore.Hbond>
0.7500

> <Gold.PLP.Chemscore.CHOScore>
1.0000

> <Gold.PLP.Chemscore.Metal>
0.0000

> <Gold.Chemscore.Hbonds>
donor molecule, donor type, donor heavy atom, donor atom, acceptor molecule, acceptor atom, score
      P1  H  7989  7998       L1     9  0.70
      L1  C     8    38       P1  7957  1.00

> <Gold.PLP.Chemscore.Internal.Correction>
0.4972

> <Gold.Rescore>
     Score         DG    S(hbond)    S(metal)    S(lipo)     H(rot)  DE(clash)    DE(int)     intcor
      9.92     -12.42       0.56        0.00      97.14       2.46       0.49       2.00       ----

> <Gold.Chemscore.Fitness>
9.9212

> <Gold.Chemscore.DG>
-12.4165

> <Gold.Chemscore.ZeroCoef>
-5.4800

> <Gold.Chemscore.Hbond>
0.5587

> <Gold.Chemscore.Metal>
0.0000

> <Gold.Chemscore.Lipo>
97.1438

> <Gold.Chemscore.Internal_Hbond>
0.0000

> <Gold.Chemscore.DEClash>
0.4940

> <Gold.Chemscore.DEInternal>
2.0013

> <Gold.Chemscore.Rot>
2.4591

> <Gold.Chemscore.Internal.Correction>
   9.000000E+99

> <Gold.Chemscore.Hbonds>
donor molecule, donor type, donor heavy atom, donor atom, acceptor molecule, acceptor atom, score
      P1  H  7989  7998       L1     9  0.07

> <Gold.Chemscore.Hbond.Weighted>
-1.8660

> <Gold.Chemscore.Metal.Weighted>
-0.0000

> <Gold.Chemscore.Lipo.Weighted>
-11.3658

> <Gold.Chemscore.Internal_Hbond.Weighted>
0.0000

> <Gold.Chemscore.DEClash.Weighted>
0.4940

> <Gold.Chemscore.DEInternal.Weighted>
2.0013

> <Gold.Chemscore.Rot.Weighted>
6.2953

> <Gold.Chemscore.Internal.Correction.Weighted>
   9.000000E+99

> <Gold.Protein.RotatedTorsions>
[ 6907 6896 6895 6894 ] final -142.09 input  -60.11 | X-H torsion
[ 7974 7965 7964 7962 ] final  106.09 input  175.53 | X-H torsion
[ 8008 7997 7996 7995 ] final  110.77 input   59.86 | X-H torsion
[ 10167 10162 10161 10158 ] final  -42.14 input  -65.29 | X-H torsion
[ 10718 10713 10712 10709 ] final   21.22 input   66.30 | X-H torsion
[ 10763 10752 10751 10750 ] final -136.77 input  -60.55 | X-H torsion
[ 11005 11000 10999 10996 ] final  -64.98 input  -57.11 | X-H torsion

> <Gold.Protein.ActiveResidues>
 VAL166  LYS551  ARG553  GLY616  TRP617  ASP618  TYR619  PRO620  LYS621  CYS622 
 ASP623  PHE694  ASN695  SER759  ASP760  ASP761  ALA762  ILE779  LEU786  VAL792 
 PHE793  MET794  SER795  GLU796  ALA797  LYS798  CYS799  TRP800  GLU811  SER814 

> <Gold.Protein.RotatedAtoms>
  151.0824  133.5380  159.2619 H   0  0  0  0  0  0  0  0  0  0  0  0  # atno 6907 bound_to 6896
  151.2278  135.0542  159.8985 H   0  0  0  0  0  0  0  0  0  0  0  0  # atno 6908 bound_to 6896
  152.5425  134.0617  159.8209 H   0  0  0  0  0  0  0  0  0  0  0  0  # atno 6909 bound_to 6896
  145.3112  139.2540  143.3762 H   0  0  0  0  0  0  0  0  0  0  0  0  # atno 7974 bound_to 7965
  156.2076  140.3032  155.9662 H   0  0  0  0  0  0  0  0  0  0  0  0  # atno 8008 bound_to 7997
  155.2802  140.0437  157.3032 H   0  0  0  0  0  0  0  0  0  0  0  0  # atno 8009 bound_to 7997
  154.5655  140.2333  155.8278 H   0  0  0  0  0  0  0  0  0  0  0  0  # atno 8010 bound_to 7997
  140.6979  143.3054  151.3167 H   0  0  0  0  0  0  0  0  0  0  0  0  # atno 10167 bound_to 10162
  157.1354  130.6609  149.5964 H   0  0  0  0  0  0  0  0  0  0  0  0  # atno 10718 bound_to 10713
  154.8676  135.3662  154.5115 H   0  0  0  0  0  0  0  0  0  0  0  0  # atno 10763 bound_to 10752
  153.5750  135.7020  153.5493 H   0  0  0  0  0  0  0  0  0  0  0  0  # atno 10764 bound_to 10752
  153.3508  135.4072  155.1607 H   0  0  0  0  0  0  0  0  0  0  0  0  # atno 10765 bound_to 10752
  141.1441  133.6674  156.5915 H   0  0  0  0  0  0  0  0  0  0  0  0  # atno 11005 bound_to 11000
  146.3117  140.3649  142.8668 LP  0  0  0  0  0  0  0  0  0  0  0  0  # atno 17320 bound_to 7965
  144.9014  140.7647  143.5864 LP  0  0  0  0  0  0  0  0  0  0  0  0  # atno 17321 bound_to 7965
  139.6458  144.0454  152.2589 LP  0  0  0  0  0  0  0  0  0  0  0  0  # atno 17342 bound_to 10162
  139.9974  144.6318  150.7760 LP  0  0  0  0  0  0  0  0  0  0  0  0  # atno 17343 bound_to 10162
  155.9799  130.4796  150.6743 LP  0  0  0  0  0  0  0  0  0  0  0  0  # atno 17370 bound_to 10713
  157.4355  131.0854  151.0996 LP  0  0  0  0  0  0  0  0  0  0  0  0  # atno 17371 bound_to 10713
  140.3759  134.7565  157.4629 LP  0  0  0  0  0  0  0  0  0  0  0  0  # atno 17394 bound_to 11000
  140.0675  134.5909  155.8679 LP  0  0  0  0  0  0  0  0  0  0  0  0  # atno 17395 bound_to 11000

$$$$
