#       Name:                AV-unprocessed.smi:1686
#       Creating user name   scv26
#       Creation time:       Fri Mar 27 07:52:42 2020


#       File generated by GOLD software.
#

@<TRIPOS>MOLECULE
AV-unprocessed.smi:1686
    46    48     1
SMALL
NO_CHARGES


@<TRIPOS>ATOM
      1 ****        -3.3537   2.5696  -1.5626 C.3            1 S1                 0.0000
      2 ****        -3.5753   2.9062  -0.1161 C.2            1 S1                 0.0000
      3 ****        -4.0496   4.1034   0.2029 N.2            1 S1                 0.0000
      4 ****        -4.1395   4.1329   1.5993 O.3            1 S1                 0.0000
      5 ****        -3.7094   2.9320   2.0494 C.2            1 S1                 0.0000
      6 ****        -3.6478   2.5448   3.7233 Cl             1 S1                 0.0000
      7 ****        -3.3398   2.0971   1.0346 C.2            1 S1                 0.0000
      8 ****        -2.8099   0.6848   1.1019 C.3            1 S1                 0.0000
      9 ****        -1.2770   0.6490   1.0897 C.2            1 S1                 0.0000
     10 ****        -0.6141   1.6850   1.0143 O.2            1 S1                 0.0000
     11 ****        -0.7288  -0.5743   1.1563 N.am           1 S1                 0.0000
     12 ****         0.7005  -0.8839   1.1437 C.3            1 S1                 0.0000
     13 ****         1.0271  -1.7423   2.3753 C.3            1 S1                 0.0000
     14 ****         1.0692  -1.5884  -0.1849 C.3            1 S1                 0.0000
     15 ****         0.8448  -0.7413  -1.4596 C.3            1 S1                 0.0000
     16 ****         2.1752  -0.8964  -2.2191 C.3            1 S1                 0.0000
     17 ****         3.2553  -0.0567  -1.5131 C.3            1 S1                 0.0000
     18 ****         3.5282  -0.8664  -0.2324 C.3            1 S1                 0.0000
     19 ****         2.5401  -2.0448  -0.3547 C.3            1 S1                 0.0000
     20 ****         2.5919  -2.3167  -1.8550 C.3            1 S1                 0.0000
     21 ****        -2.8179   1.6273  -1.6759 H              1 S1                 0.0000
     22 ****        -2.7658   3.3413  -2.0601 H              1 S1                 0.0000
     23 ****        -4.3020   2.4788  -2.0924 H              1 S1                 0.0000
     24 ****        -3.1592   0.1776   2.0019 H              1 S1                 0.0000
     25 ****        -3.1748   0.0920   0.2625 H              1 S1                 0.0000
     26 ****        -1.3567  -1.3629   1.2150 H              1 S1                 0.0000
     27 ****         1.2705   0.0413   1.2283 H              1 S1                 0.0000
     28 ****         2.0960  -1.9434   2.4468 H              1 S1                 0.0000
     29 ****         0.5086  -2.7010   2.3415 H              1 S1                 0.0000
     30 ****         0.7321  -1.2354   3.2947 H              1 S1                 0.0000
     31 ****         0.4454  -2.4811  -0.2649 H              1 S1                 0.0000
     32 ****         0.0112  -1.1381  -2.0400 H              1 S1                 0.0000
     33 ****         0.6285   0.3062  -1.2470 H              1 S1                 0.0000
     34 ****         2.0953  -0.6961  -3.2880 H              1 S1                 0.0000
     35 ****         4.1570   0.0125  -2.1229 H              1 S1                 0.0000
     36 ****         2.9176   0.9581  -1.2996 H              1 S1                 0.0000
     37 ****         4.5556  -1.2327  -0.2318 H              1 S1                 0.0000
     38 ****         3.3966  -0.2805   0.6762 H              1 S1                 0.0000
     39 ****         2.8056  -2.9022   0.2643 H              1 S1                 0.0000
     40 ****         1.8799  -3.0750  -2.1857 H              1 S1                 0.0000
     41 ****         3.5880  -2.5809  -2.2149 H              1 S1                 0.0000
     42 ****        -4.2943   4.8388  -0.4290 LP             1 S1                 0.0000
     43 ****        -5.0874   4.2850   1.8791 LP             1 S1                 0.0000
     44 ****        -3.5627   4.8633   1.9651 LP             1 S1                 0.0000
     45 ****        -1.0751   2.5707   0.9596 LP             1 S1                 0.0000
     46 ****         0.3849   1.6400   1.0078 LP             1 S1                 0.0000
@<TRIPOS>BOND
    1    1    2 1     
    2    1   21 1     
    3    1   22 1     
    4    1   23 1     
    5    2    7 1     
    6    2    3 2     
    7    3    4 1     
    8    4    5 1     
    9    5    6 1     
   10    5    7 2     
   11    7    8 1     
   12    8    9 1     
   13    8   24 1     
   14    8   25 1     
   15    9   10 2     
   16    9   11 am    
   17   11   12 1     
   18   11   26 1     
   19   12   13 1     
   20   12   14 1     
   21   12   27 1     
   22   13   28 1     
   23   13   29 1     
   24   13   30 1     
   25   14   19 1     
   26   14   15 1     
   27   14   31 1     
   28   15   16 1     
   29   15   32 1     
   30   15   33 1     
   31   16   20 1     
   32   16   17 1     
   33   16   34 1     
   34   17   18 1     
   35   17   35 1     
   36   17   36 1     
   37   18   19 1     
   38   18   37 1     
   39   18   38 1     
   40   19   20 1     
   41   19   39 1     
   42   20   40 1     
   43   20   41 1     
   44    3   42 1     
   45    4   43 1     
   46    4   44 1     
   47   10   45 1     
   48   10   46 1     
@<TRIPOS>SUBSTRUCTURE
      1 S1             1
@<TRIPOS>SET
LONE_PAIRS      STATIC     ATOMS    <user>   **** ""
5 42 43 44 45 46
DONOR_HYDROGENS      STATIC     ATOMS    <user>   **** ""
1 26
ATOM$BLUE        STATIC     ATOMS    COLORGROUP SYSTEM
5 42 43 44 45 46
ATOM$RED        STATIC     ATOMS    COLORGROUP SYSTEM
1 26
