AV-unprocessed.smi:701|AV-procd|sdf|3413|dock5
  -GOLD-   22720 0393D 1   1.00000     0.00000
 Structure written by MMmdl.
 48 50  0  0  0  0  0  0  0  0  2 V2000
  151.0769  138.4507  154.4930 C   0  0  0  0  0  0  0  0  0  0  0  0
  152.2715  139.2640  154.9953 C   0  0  0  0  0  0  0  0  0  0  0  0
  151.9703  139.7571  156.2896 O   0  0  0  0  0  0  0  0  0  0  0  0
  151.5938  141.1287  156.2972 C   0  0  1  0  0  0  0  0  0  0  0  0
  150.3289  141.3877  155.4695 C   0  0  0  0  0  0  0  0  0  0  0  0
  149.5132  141.1994  156.7566 C   0  0  1  0  0  0  0  0  0  0  0  0
  149.0496  139.8198  156.9088 N   0  0  0  0  0  0  0  0  0  0  0  0
  147.9056  139.4594  157.5066 C   0  0  0  0  0  0  0  0  0  0  0  0
  147.1223  140.2717  158.0012 O   0  0  0  0  0  0  0  0  0  0  0  0
  147.5989  137.9551  157.5109 C   0  0  0  0  0  0  0  0  0  0  0  0
  147.5920  137.3654  158.8593 N   0  0  0  0  0  0  0  0  0  0  0  0
  146.3491  136.9897  159.3986 C   0  0  0  0  0  0  0  0  0  0  0  0
  146.2413  136.4534  160.6288 C   0  0  0  0  0  0  0  0  0  0  0  0
  147.4587  136.2635  161.4075 C   0  0  0  0  0  0  0  0  0  0  0  0
  147.3800  135.7699  162.5309 O   0  0  0  0  0  0  0  0  0  0  0  0
  148.6404  136.6481  160.8423 N   0  5  0  0  0  0  0  0  0  0  0  0
  148.7341  137.1975  159.5916 C   0  0  0  0  0  0  0  0  0  0  0  0
  149.8101  137.5445  159.1033 O   0  0  0  0  0  0  0  0  0  0  0  0
  150.7981  141.5182  157.5717 C   0  0  0  0  0  0  0  0  0  0  0  0
  151.0701  140.6925  158.8492 C   0  0  0  0  0  0  0  0  0  0  0  0
  152.4481  140.9845  159.4658 C   0  0  0  0  0  0  0  0  0  0  0  0
  152.5962  142.4713  159.8101 C   0  0  0  0  0  0  0  0  0  0  0  0
  152.2911  143.3523  158.5929 C   0  0  0  0  0  0  0  0  0  0  0  0
  150.9242  143.0024  157.9780 C   0  0  0  0  0  0  0  0  0  0  0  0
  151.2685  138.0500  153.4975 H   0  0  0  0  0  0  0  0  0  0  0  0
  150.1796  139.0676  154.4392 H   0  0  0  0  0  0  0  0  0  0  0  0
  150.8681  137.6116  155.1572 H   0  0  0  0  0  0  0  0  0  0  0  0
  153.1625  138.6358  155.0325 H   0  0  0  0  0  0  0  0  0  0  0  0
  152.4751  140.0849  154.3071 H   0  0  0  0  0  0  0  0  0  0  0  0
  152.4226  141.8007  156.0707 H   0  0  0  0  0  0  0  0  0  0  0  0
  150.2792  142.4082  155.0878 H   0  0  0  0  0  0  0  0  0  0  0  0
  150.1294  140.6644  154.6782 H   0  0  0  0  0  0  0  0  0  0  0  0
  148.7227  141.9412  156.8818 H   0  0  0  0  0  0  0  0  0  0  0  0
  149.6340  139.0937  156.5204 H   0  0  0  0  0  0  0  0  0  0  0  0
  146.6312  137.8043  157.0307 H   0  0  0  0  0  0  0  0  0  0  0  0
  148.3173  137.4378  156.8722 H   0  0  0  0  0  0  0  0  0  0  0  0
  145.4974  137.1715  158.7598 H   0  0  0  0  0  0  0  0  0  0  0  0
  145.2784  136.1748  161.0305 H   0  0  0  0  0  0  0  0  0  0  0  0
  150.2961  140.8918  159.5916 H   0  0  0  0  0  0  0  0  0  0  0  0
  151.0096  139.6227  158.6496 H   0  0  0  0  0  0  0  0  0  0  0  0
  152.5904  140.3811  160.3627 H   0  0  0  0  0  0  0  0  0  0  0  0
  153.2320  140.6889  158.7673 H   0  0  0  0  0  0  0  0  0  0  0  0
  151.9114  142.7246  160.6202 H   0  0  0  0  0  0  0  0  0  0  0  0
  153.6018  142.6745  160.1791 H   0  0  0  0  0  0  0  0  0  0  0  0
  152.3099  144.4030  158.8833 H   0  0  0  0  0  0  0  0  0  0  0  0
  153.0762  143.2273  157.8467 H   0  0  0  0  0  0  0  0  0  0  0  0
  150.7535  143.6521  157.1191 H   0  0  0  0  0  0  0  0  0  0  0  0
  150.1395  143.2574  158.6918 H   0  0  0  0  0  0  0  0  0  0  0  0
  1  2  1  0  0  0  0
  1 25  1  0  0  0  0
  1 26  1  0  0  0  0
  1 27  1  0  0  0  0
  2  3  1  0  0  0  0
  2 28  1  0  0  0  0
  2 29  1  0  0  0  0
  3  4  1  0  0  0  0
  4 19  1  0  0  0  0
  4  5  1  0  0  0  0
  4 30  1  0  0  0  0
  5  6  1  0  0  0  0
  5 31  1  0  0  0  0
  5 32  1  0  0  0  0
  6  7  1  0  0  0  0
  6 19  1  0  0  0  0
  6 33  1  0  0  0  0
  7  8  1  0  0  0  0
  7 34  1  0  0  0  0
  8  9  2  0  0  0  0
  8 10  1  0  0  0  0
 10 11  1  0  0  0  0
 10 35  1  0  0  0  0
 10 36  1  0  0  0  0
 11 17  1  0  0  0  0
 11 12  1  0  0  0  0
 12 13  2  0  0  0  0
 12 37  1  0  0  0  0
 13 14  1  0  0  0  0
 13 38  1  0  0  0  0
 14 15  2  0  0  0  0
 14 16  1  0  0  0  0
 16 17  1  0  0  0  0
 17 18  2  0  0  0  0
 19 24  1  0  0  0  0
 19 20  1  0  0  0  0
 20 21  1  0  0  0  0
 20 39  1  0  0  0  0
 20 40  1  0  0  0  0
 21 22  1  0  0  0  0
 21 41  1  0  0  0  0
 21 42  1  0  0  0  0
 22 23  1  0  0  0  0
 22 43  1  0  0  0  0
 22 44  1  0  0  0  0
 23 24  1  0  0  0  0
 23 45  1  0  0  0  0
 23 46  1  0  0  0  0
 24 47  1  0  0  0  0
 24 48  1  0  0  0  0
M  CHG  1  16  -1
M  END
> <s_m_source_file>
AV-unprocessed.smi

> <i_m_source_file_index>
701

> <i_lp_mmshare_version>
43012

> <i_f3d_flags>
0

> <s_epik_input>
W0NIMl0xW0NIMl1bQ0gyXVtDSDJdW0NIMl1DMTJbQ0BIXShPW0NIMl1bQ0gzXSlbQ0gyXVtDQEhdMltOSF1DKD1PKVtDSDJdbjNbY0hdW2NIXWMoPU8pW25IXWMzPU8=

> <s_epik_cmdline>
J2VwaWtfcHl0aG9uJywgJy1waCcsICc3LjAnLCAnLXRuJywgJzgnLCAnLW1hJywgJzIwMCcsICctbWV0YWxfYmluZGluZycsICctaW1hZScsICc8aW5maWxlLm1hZT4nLCAnLW9tYWUnLCAnPG91dGZpbGUubWFlPic=

> <r_lp_tautomer_probability>
0.999537

> <r_epik_Ionization_Penalty>
3.12423

> <r_epik_Ionization_Penalty_Charging>
2.92877e-08

> <r_epik_Ionization_Penalty_Neutral>
3.12423

> <r_epik_State_Penalty>
3.12332

> <r_epik_Charging_Adjusted_Penalty>
3.12332

> <i_epik_Tot_Q>
-1

> <i_epik_Tot_abs_Q>
1

> <r_epik_Metal_State_Penalty>
0.463873

> <b_epik_Metal_Only>
1

> <s_lp_Force_Field>
OPLS_2005

> <r_lp_Energy>
39.3964

> <b_lp_Chiralities_Consistent>
1

> <s_lp_Variant>
AV-unprocessed.smi:701-6

> <Gold.Version>
5.8.1

> <Gold.Id.Protein>
6NUR|6NUR_protein|mol2

> <Gold.PLP.Fitness>
41.6505

> <Gold.PLP.PLP>
-37.0941

> <Gold.PLP.part.hbond>
-2.0267

> <Gold.PLP.part.metal>
0.0000

> <Gold.PLP.part.buried>
-4.6318

> <Gold.PLP.part.nonpolar>
-29.4378

> <Gold.PLP.part.repulsive>
0.0310

> <Gold.PLP.ligand.clash>
0.0000

> <Gold.PLP.ligand.torsion>
0.7539

> <Gold.PLP.Chemscore.Hbond>
1.9000

> <Gold.PLP.Chemscore.CHOScore>
0.0000

> <Gold.PLP.Chemscore.Metal>
0.0000

> <Gold.Chemscore.Hbonds>
donor molecule, donor type, donor heavy atom, donor atom, acceptor molecule, acceptor atom, score
      P1  H  6931  6943       L1    16  1.90

> <Gold.PLP.Chemscore.Internal.Correction>
0.3643

> <Gold.Rescore>
     Score         DG    S(hbond)    S(metal)    S(lipo)     H(rot)  DE(clash)    DE(int)     intcor
     10.18     -11.29       0.06        0.00      92.46       2.04       0.34       0.77       ----

> <Gold.Chemscore.Fitness>
10.1785

> <Gold.Chemscore.DG>
-11.2909

> <Gold.Chemscore.ZeroCoef>
-5.4800

> <Gold.Chemscore.Hbond>
0.0643

> <Gold.Chemscore.Metal>
0.0000

> <Gold.Chemscore.Lipo>
92.4636

> <Gold.Chemscore.Internal_Hbond>
0.0000

> <Gold.Chemscore.DEClash>
0.3386

> <Gold.Chemscore.DEInternal>
0.7738

> <Gold.Chemscore.Rot>
2.0399

> <Gold.Chemscore.Internal.Correction>
   9.000000E+99

> <Gold.Chemscore.Hbonds>
donor molecule, donor type, donor heavy atom, donor atom, acceptor molecule, acceptor atom, score
      P1  H  6931  6943       L1    16  0.06

> <Gold.Chemscore.Hbond.Weighted>
-0.2148

> <Gold.Chemscore.Metal.Weighted>
-0.0000

> <Gold.Chemscore.Lipo.Weighted>
-10.8182

> <Gold.Chemscore.Internal_Hbond.Weighted>
0.0000

> <Gold.Chemscore.DEClash.Weighted>
0.3386

> <Gold.Chemscore.DEInternal.Weighted>
0.7738

> <Gold.Chemscore.Rot.Weighted>
5.2222

> <Gold.Chemscore.Internal.Correction.Weighted>
   9.000000E+99

> <Gold.Protein.RotatedTorsions>
[ 6907 6896 6895 6894 ] final  105.86 input  -60.11 | X-H torsion
[ 7974 7965 7964 7962 ] final   -3.67 input  175.53 | X-H torsion
[ 8008 7997 7996 7995 ] final   40.26 input   59.86 | X-H torsion
[ 10167 10162 10161 10158 ] final   42.55 input  -65.29 | X-H torsion
[ 10718 10713 10712 10709 ] final   29.20 input   66.30 | X-H torsion
[ 10763 10752 10751 10750 ] final  -96.31 input  -60.55 | X-H torsion
[ 11005 11000 10999 10996 ] final  179.82 input  -57.11 | X-H torsion

> <Gold.Protein.ActiveResidues>
 VAL166  LYS551  ARG553  GLY616  TRP617  ASP618  TYR619  PRO620  LYS621  CYS622 
 ASP623  PHE694  ASN695  SER759  ASP760  ASP761  ALA762  ILE779  LEU786  VAL792 
 PHE793  MET794  SER795  GLU796  ALA797  LYS798  CYS799  TRP800  GLU811  SER814 

> <Gold.Protein.RotatedAtoms>
  152.5215  133.9466  159.7651 H   0  0  0  0  0  0  0  0  0  0  0  0  # atno 6907 bound_to 6896
  150.9785  133.6262  159.2733 H   0  0  0  0  0  0  0  0  0  0  0  0  # atno 6908 bound_to 6896
  151.3448  135.0877  159.9436 H   0  0  0  0  0  0  0  0  0  0  0  0  # atno 6909 bound_to 6896
  146.2386  140.1756  142.8332 H   0  0  0  0  0  0  0  0  0  0  0  0  # atno 7974 bound_to 7965
  155.2502  140.3352  155.4283 H   0  0  0  0  0  0  0  0  0  0  0  0  # atno 8008 bound_to 7997
  156.2219  140.1812  156.7500 H   0  0  0  0  0  0  0  0  0  0  0  0  # atno 8009 bound_to 7997
  154.5838  140.0649  156.9127 H   0  0  0  0  0  0  0  0  0  0  0  0  # atno 8010 bound_to 7997
  140.3533  144.2323  150.6144 H   0  0  0  0  0  0  0  0  0  0  0  0  # atno 10167 bound_to 10162
  157.2434  130.7080  149.6370 H   0  0  0  0  0  0  0  0  0  0  0  0  # atno 10718 bound_to 10713
  154.7228  135.5088  153.8838 H   0  0  0  0  0  0  0  0  0  0  0  0  # atno 10763 bound_to 10752
  153.0877  135.6650  153.9924 H   0  0  0  0  0  0  0  0  0  0  0  0  # atno 10764 bound_to 10752
  153.9743  135.3035  155.3404 H   0  0  0  0  0  0  0  0  0  0  0  0  # atno 10765 bound_to 10752
  140.4104  134.6697  157.4611 H   0  0  0  0  0  0  0  0  0  0  0  0  # atno 11005 bound_to 11000
  144.9976  140.8603  143.5301 LP  0  0  0  0  0  0  0  0  0  0  0  0  # atno 17320 bound_to 7965
  145.1770  139.2372  143.5312 LP  0  0  0  0  0  0  0  0  0  0  0  0  # atno 17321 bound_to 7965
  140.5198  143.2268  151.8406 LP  0  0  0  0  0  0  0  0  0  0  0  0  # atno 17342 bound_to 10162
  139.4823  144.4850  151.9258 LP  0  0  0  0  0  0  0  0  0  0  0  0  # atno 17343 bound_to 10162
  155.9669  130.4450  150.5486 LP  0  0  0  0  0  0  0  0  0  0  0  0  # atno 17370 bound_to 10713
  157.3354  131.0707  151.1829 LP  0  0  0  0  0  0  0  0  0  0  0  0  # atno 17371 bound_to 10713
  140.0271  134.6460  155.9157 LP  0  0  0  0  0  0  0  0  0  0  0  0  # atno 17394 bound_to 11000
  141.1823  133.6549  156.5071 LP  0  0  0  0  0  0  0  0  0  0  0  0  # atno 17395 bound_to 11000

$$$$
