AV-unprocessed.smi:1738|AV-procd|sdf|7002|dock4
  -GOLD-   22720 8213D 1   1.00000     0.00000
 Structure written by MMmdl.
 46 48  0  0  0  0  0  0  0  0  2 V2000
  152.1540  138.8092  159.2473 C   0  0  0  0  0  0  0  0  0  0  0  0
  152.9719  137.4778  158.2778 S   0  0  0  0  0  0  0  0  0  0  0  0
  154.0245  138.0887  157.4509 O   0  0  0  0  0  0  0  0  0  0  0  0
  153.3176  136.3904  159.2066 O   0  0  0  0  0  0  0  0  0  0  0  0
  151.6816  136.8944  157.1841 C   0  0  0  0  0  0  0  0  0  0  0  0
  150.4091  136.5660  157.6928 C   0  0  0  0  0  0  0  0  0  0  0  0
  149.4186  136.1458  156.7845 C   0  0  0  0  0  0  0  0  0  0  0  0
  149.7345  136.0879  155.4040 C   0  0  0  0  0  0  0  0  0  0  0  0
  148.8367  135.6670  154.3845 N   0  0  0  0  0  0  0  0  0  0  0  0
  147.6729  135.0039  154.4987 C   0  0  0  0  0  0  0  0  0  0  0  0
  147.1484  134.6545  155.5553 O   0  0  0  0  0  0  0  0  0  0  0  0
  147.1308  134.7688  153.2954 N   0  0  0  0  0  0  0  0  0  0  0  0
  145.8717  134.0665  153.0635 C   0  0  1  0  0  0  0  0  0  0  0  0
  144.9277  134.8249  152.1138 C   0  0  0  0  0  0  0  0  0  0  0  0
  144.2453  133.7374  151.2606 C   0  0  0  0  0  0  0  0  0  0  0  0
  144.7361  132.4535  151.7968 N   0  3  1  0  0  0  0  0  0  0  0  0
  144.7175  131.2899  150.8837 C   0  0  0  0  0  0  0  0  0  0  0  0
  145.1820  130.0351  151.6499 C   0  0  0  0  0  0  0  0  0  0  0  0
  146.5434  130.2570  152.3393 C   0  0  0  0  0  0  0  0  0  0  0  0
  146.5296  131.5341  153.2014 C   0  0  0  0  0  0  0  0  0  0  0  0
  146.0719  132.7285  152.3470 C   0  0  2  0  0  0  0  0  0  0  0  0
  151.0425  136.4474  155.0129 C   0  0  0  0  0  0  0  0  0  0  0  0
  151.9995  136.8527  155.8732 N   0  0  0  0  0  0  0  0  0  0  0  0
  152.8669  139.2330  159.9539 H   0  0  0  0  0  0  0  0  0  0  0  0
  151.3056  138.3943  159.7912 H   0  0  0  0  0  0  0  0  0  0  0  0
  151.8056  139.5897  158.5711 H   0  0  0  0  0  0  0  0  0  0  0  0
  150.1935  136.6262  158.7492 H   0  0  0  0  0  0  0  0  0  0  0  0
  148.4498  135.8713  157.1699 H   0  0  0  0  0  0  0  0  0  0  0  0
  149.1015  135.9334  153.4473 H   0  0  0  0  0  0  0  0  0  0  0  0
  147.6271  135.0971  152.4797 H   0  0  0  0  0  0  0  0  0  0  0  0
  145.3453  133.8998  154.0059 H   0  0  0  0  0  0  0  0  0  0  0  0
  144.2024  135.4172  152.6722 H   0  0  0  0  0  0  0  0  0  0  0  0
  145.4788  135.5083  151.4657 H   0  0  0  0  0  0  0  0  0  0  0  0
  143.1576  133.7872  151.3161 H   0  0  0  0  0  0  0  0  0  0  0  0
  144.5368  133.8450  150.2145 H   0  0  0  0  0  0  0  0  0  0  0  0
  143.7084  131.1431  150.4974 H   0  0  0  0  0  0  0  0  0  0  0  0
  145.3676  131.4781  150.0279 H   0  0  0  0  0  0  0  0  0  0  0  0
  144.4368  129.7771  152.4036 H   0  0  0  0  0  0  0  0  0  0  0  0
  145.2407  129.1830  150.9721 H   0  0  0  0  0  0  0  0  0  0  0  0
  146.7991  129.3925  152.9525 H   0  0  0  0  0  0  0  0  0  0  0  0
  147.3230  130.3399  151.5812 H   0  0  0  0  0  0  0  0  0  0  0  0
  145.8612  131.4021  154.0534 H   0  0  0  0  0  0  0  0  0  0  0  0
  147.5244  131.7157  153.6080 H   0  0  0  0  0  0  0  0  0  0  0  0
  146.7679  132.8680  151.5162 H   0  0  0  0  0  0  0  0  0  0  0  0
  151.3314  136.4125  153.9725 H   0  0  0  0  0  0  0  0  0  0  0  0
  144.1452  132.2271  152.5843 H   0  0  0  0  0  0  0  0  0  0  0  0
  1  2  1  0  0  0  0
  1 24  1  0  0  0  0
  1 25  1  0  0  0  0
  1 26  1  0  0  0  0
  2  3  2  0  0  0  0
  2  4  2  0  0  0  0
  2  5  1  0  0  0  0
  5 23  1  0  0  0  0
  5  6  2  0  0  0  0
  6  7  1  0  0  0  0
  6 27  1  0  0  0  0
  7  8  2  0  0  0  0
  7 28  1  0  0  0  0
  8  9  1  0  0  0  0
  8 22  1  0  0  0  0
  9 10  1  0  0  0  0
  9 29  1  0  0  0  0
 10 11  2  0  0  0  0
 10 12  1  0  0  0  0
 12 13  1  0  0  0  0
 12 30  1  0  0  0  0
 13 21  1  0  0  0  0
 13 14  1  0  0  0  0
 13 31  1  0  0  0  0
 14 15  1  0  0  0  0
 14 32  1  0  0  0  0
 14 33  1  0  0  0  0
 15 16  1  0  0  0  0
 15 34  1  0  0  0  0
 15 35  1  0  0  0  0
 16 21  1  0  0  0  0
 16 17  1  0  0  0  0
 16 46  1  0  0  0  0
 17 18  1  0  0  0  0
 17 36  1  0  0  0  0
 17 37  1  0  0  0  0
 18 19  1  0  0  0  0
 18 38  1  0  0  0  0
 18 39  1  0  0  0  0
 19 20  1  0  0  0  0
 19 40  1  0  0  0  0
 19 41  1  0  0  0  0
 20 21  1  0  0  0  0
 20 42  1  0  0  0  0
 20 43  1  0  0  0  0
 21 44  1  0  0  0  0
 22 23  2  0  0  0  0
 22 45  1  0  0  0  0
M  CHG  1  16   1
M  END
> <s_m_source_file>
AV-unprocessed.smi

> <i_m_source_file_index>
1738

> <i_lp_mmshare_version>
43012

> <i_f3d_flags>
0

> <s_epik_input>
W0NIM11TKD1PKSg9TyljMVtjSF1bY0hdYyhbY0hdbjEpW05IXUMoPU8pW05IXVtDQEhdKFtDSDJdW0NIMl0yKVtDQEBIXShOMjMpW0NIMl1bQ0gyXVtDSDJdW0NIMl0z

> <s_epik_cmdline>
J2VwaWtfcHl0aG9uJywgJy1waCcsICc3LjAnLCAnLXRuJywgJzgnLCAnLW1hJywgJzIwMCcsICctbWV0YWxfYmluZGluZycsICctaW1hZScsICc8aW5maWxlLm1hZT4nLCAnLW9tYWUnLCAnPG91dGZpbGUubWFlPic=

> <r_epik_Ionization_Penalty>
0.00100042

> <r_epik_Ionization_Penalty_Charging>
0.000974069

> <r_epik_Ionization_Penalty_Neutral>
2.63543e-05

> <r_epik_State_Penalty>
0.000633842

> <r_epik_Charging_Adjusted_Penalty>
0.00160791

> <i_epik_Tot_Q>
1

> <i_epik_Tot_abs_Q>
1

> <r_epik_Metal_State_Penalty>
-0

> <b_epik_Metal_Only>
0

> <s_lp_Force_Field>
OPLS_2005

> <r_lp_Energy>
37.3337

> <b_lp_Chiralities_Consistent>
1

> <s_lp_Variant>
AV-unprocessed.smi:1738-6

> <Gold.Version>
5.8.1

> <Gold.Id.Protein>
6NUR|6NUR_protein|mol2

> <Gold.PLP.Fitness>
42.3245

> <Gold.PLP.PLP>
-27.1978

> <Gold.PLP.part.hbond>
-5.0000

> <Gold.PLP.part.metal>
0.0000

> <Gold.PLP.part.buried>
-4.0361

> <Gold.PLP.part.nonpolar>
-18.2025

> <Gold.PLP.part.repulsive>
0.0558

> <Gold.PLP.ligand.clash>
0.0000

> <Gold.PLP.ligand.torsion>
1.2272

> <Gold.PLP.Chemscore.Hbond>
4.1836

> <Gold.PLP.Chemscore.CHOScore>
1.0000

> <Gold.PLP.Chemscore.Metal>
0.0000

> <Gold.Chemscore.Hbonds>
donor molecule, donor type, donor heavy atom, donor atom, acceptor molecule, acceptor atom, score
      L1  H     9    29       P1  7948  1.00
      L1  H    12    30       P1  7948  0.93
      P1  H  6896  6908       L1     4  0.98
      P1  H  7997  8009       L1     3  0.75
      P1  H 10752 10765       L1    23  0.48
      L1  C    22    45       P1  7949  1.00

> <Gold.PLP.Chemscore.Internal.Correction>
2.0303

> <Gold.Rescore>
     Score         DG    S(hbond)    S(metal)    S(lipo)     H(rot)  DE(clash)    DE(int)     intcor
     21.36     -23.79       3.87        0.00      67.80       1.00       0.08       2.35       ----

> <Gold.Chemscore.Fitness>
21.3606

> <Gold.Chemscore.DG>
-23.7937

> <Gold.Chemscore.ZeroCoef>
-5.4800

> <Gold.Chemscore.Hbond>
3.8747

> <Gold.Chemscore.Metal>
0.0000

> <Gold.Chemscore.Lipo>
67.7955

> <Gold.Chemscore.Internal_Hbond>
0.0000

> <Gold.Chemscore.DEClash>
0.0785

> <Gold.Chemscore.DEInternal>
2.3546

> <Gold.Chemscore.Rot>
1.0000

> <Gold.Chemscore.Internal.Correction>
   9.000000E+99

> <Gold.Chemscore.Hbonds>
donor molecule, donor type, donor heavy atom, donor atom, acceptor molecule, acceptor atom, score
      L1  H     9    29       P1  7948  0.86
      L1  H    12    30       P1  7948  0.90
      P1  H  6896  6908       L1     4  0.88
      P1  H  7997  8009       L1     3  0.71
      P1  H 10752 10765       L1    23  0.03

> <Gold.Chemscore.Hbond.Weighted>
-12.9416

> <Gold.Chemscore.Metal.Weighted>
-0.0000

> <Gold.Chemscore.Lipo.Weighted>
-7.9321

> <Gold.Chemscore.Internal_Hbond.Weighted>
0.0000

> <Gold.Chemscore.DEClash.Weighted>
0.0785

> <Gold.Chemscore.DEInternal.Weighted>
2.3546

> <Gold.Chemscore.Rot.Weighted>
2.5600

> <Gold.Chemscore.Internal.Correction.Weighted>
   9.000000E+99

> <Gold.Protein.RotatedTorsions>
[ 6907 6896 6895 6894 ] final  -88.31 input  -60.11 | X-H torsion
[ 7974 7965 7964 7962 ] final   97.25 input  175.53 | X-H torsion
[ 8008 7997 7996 7995 ] final  148.66 input   59.86 | X-H torsion
[ 10167 10162 10161 10158 ] final   95.42 input  -65.29 | X-H torsion
[ 10718 10713 10712 10709 ] final  152.84 input   66.30 | X-H torsion
[ 10763 10752 10751 10750 ] final -138.90 input  -60.55 | X-H torsion
[ 11005 11000 10999 10996 ] final  158.53 input  -57.11 | X-H torsion

> <Gold.Protein.ActiveResidues>
 VAL166  LYS551  ARG553  GLY616  TRP617  ASP618  TYR619  PRO620  LYS621  CYS622 
 ASP623  PHE694  ASN695  SER759  ASP760  ASP761  ALA762  ILE779  LEU786  VAL792 
 PHE793  MET794  SER795  GLU796  ALA797  LYS798  CYS799  TRP800  GLU811  SER814 

> <Gold.Protein.RotatedAtoms>
  150.6868  134.2762  159.4608 H   0  0  0  0  0  0  0  0  0  0  0  0  # atno 6907 bound_to 6896
  152.0680  134.9549  160.0584 H   0  0  0  0  0  0  0  0  0  0  0  0  # atno 6908 bound_to 6896
  152.0950  133.4185  159.4598 H   0  0  0  0  0  0  0  0  0  0  0  0  # atno 6909 bound_to 6896
  145.4281  139.2313  143.3159 H   0  0  0  0  0  0  0  0  0  0  0  0  # atno 7974 bound_to 7965
  156.2783  140.2123  156.5733 H   0  0  0  0  0  0  0  0  0  0  0  0  # atno 8008 bound_to 7997
  154.7117  140.0511  157.0580 H   0  0  0  0  0  0  0  0  0  0  0  0  # atno 8009 bound_to 7997
  155.0596  140.3165  155.4668 H   0  0  0  0  0  0  0  0  0  0  0  0  # atno 8010 bound_to 7997
  139.7990  144.6821  150.9790 H   0  0  0  0  0  0  0  0  0  0  0  0  # atno 10167 bound_to 10162
  157.2525  131.0782  151.1720 H   0  0  0  0  0  0  0  0  0  0  0  0  # atno 10718 bound_to 10713
  154.8624  135.3598  154.5459 H   0  0  0  0  0  0  0  0  0  0  0  0  # atno 10763 bound_to 10752
  153.6079  135.7010  153.5363 H   0  0  0  0  0  0  0  0  0  0  0  0  # atno 10764 bound_to 10752
  153.3234  135.4145  155.1397 H   0  0  0  0  0  0  0  0  0  0  0  0  # atno 10765 bound_to 10752
  140.1874  134.8432  157.2872 H   0  0  0  0  0  0  0  0  0  0  0  0  # atno 11005 bound_to 11000
  146.2622  140.5014  142.8849 LP  0  0  0  0  0  0  0  0  0  0  0  0  # atno 17320 bound_to 7965
  144.8201  140.6535  143.6358 LP  0  0  0  0  0  0  0  0  0  0  0  0  # atno 17321 bound_to 7965
  140.7820  143.4301  151.0707 LP  0  0  0  0  0  0  0  0  0  0  0  0  # atno 17342 bound_to 10162
  139.7974  143.8132  152.3159 LP  0  0  0  0  0  0  0  0  0  0  0  0  # atno 17343 bound_to 10162
  157.3262  130.6962  149.6298 LP  0  0  0  0  0  0  0  0  0  0  0  0  # atno 17370 bound_to 10713
  155.9666  130.4321  150.4947 LP  0  0  0  0  0  0  0  0  0  0  0  0  # atno 17371 bound_to 10713
  140.2199  134.4036  155.7571 LP  0  0  0  0  0  0  0  0  0  0  0  0  # atno 17394 bound_to 11000
  141.2225  133.7160  156.8473 LP  0  0  0  0  0  0  0  0  0  0  0  0  # atno 17395 bound_to 11000

$$$$
