AV-unprocessed.smi:2288|AV-procd|sdf|9207|dock10
  -GOLD-   2272012423D 1   1.00000     0.00000
 Structure written by MMmdl.
 40 41  0  0  0  0  0  0  0  0  1 V2000
  151.4159  145.5729  159.6181 C   0  0  0  0  0  0  0  0  0  0  0  0
  151.9926  144.2373  160.0405 C   0  0  0  0  0  0  0  0  0  0  0  0
  152.5107  144.0622  161.3401 C   0  0  0  0  0  0  0  0  0  0  0  0
  153.0508  142.8190  161.7259 C   0  0  0  0  0  0  0  0  0  0  0  0
  153.6088  142.6399  163.1227 C   0  0  0  0  0  0  0  0  0  0  0  0
  153.0671  141.7474  160.8098 C   0  0  0  0  0  0  0  0  0  0  0  0
  152.5461  141.9123  159.5090 C   0  0  0  0  0  0  0  0  0  0  0  0
  152.5840  140.7498  158.5282 C   0  0  1  0  0  0  0  0  0  0  0  0
  153.5851  139.8124  158.8741 O   0  0  0  0  0  0  0  0  0  0  0  0
  151.2210  140.0247  158.4816 C   0  0  0  0  0  0  0  0  0  0  0  0
  150.4178  140.4154  157.3107 N   0  0  0  0  0  0  0  0  0  0  0  0
  150.9730  140.1312  156.0524 C   0  0  0  0  0  0  0  0  0  0  0  0
  150.3549  140.4247  154.9553 N   0  0  0  0  0  0  0  0  0  0  0  0
  149.1026  141.0437  155.0049 C   0  0  0  0  0  0  0  0  0  0  0  0
  148.4639  141.3405  153.6596 C   0  0  0  0  0  0  0  0  0  0  0  0
  148.5128  141.3523  156.1921 C   0  0  0  0  0  0  0  0  0  0  0  0
  147.1518  142.0275  156.3075 C   0  0  0  0  0  0  0  0  0  0  0  0
  149.2064  141.0279  157.4491 C   0  0  0  0  0  0  0  0  0  0  0  0
  148.7360  141.2882  158.5585 O   0  0  0  0  0  0  0  0  0  0  0  0
  152.0134  143.1635  159.1279 C   0  0  0  0  0  0  0  0  0  0  0  0
  151.4363  146.2929  160.4368 H   0  0  0  0  0  0  0  0  0  0  0  0
  150.3811  145.4527  159.2967 H   0  0  0  0  0  0  0  0  0  0  0  0
  151.9885  145.9854  158.7871 H   0  0  0  0  0  0  0  0  0  0  0  0
  152.4970  144.8821  162.0435 H   0  0  0  0  0  0  0  0  0  0  0  0
  154.1781  141.7136  163.2070 H   0  0  0  0  0  0  0  0  0  0  0  0
  152.7982  142.6115  163.8511 H   0  0  0  0  0  0  0  0  0  0  0  0
  154.2711  143.4678  163.3774 H   0  0  0  0  0  0  0  0  0  0  0  0
  153.4840  140.7951  161.1044 H   0  0  0  0  0  0  0  0  0  0  0  0
  152.8352  141.1466  157.5438 H   0  0  0  0  0  0  0  0  0  0  0  0
  153.2077  139.1767  159.4632 H   0  0  0  0  0  0  0  0  0  0  0  0
  151.3591  138.9436  158.5522 H   0  0  0  0  0  0  0  0  0  0  0  0
  150.6500  140.2793  159.3768 H   0  0  0  0  0  0  0  0  0  0  0  0
  151.9542  139.6534  156.0684 H   0  0  0  0  0  0  0  0  0  0  0  0
  147.5133  140.8152  153.5637 H   0  0  0  0  0  0  0  0  0  0  0  0
  149.1055  141.0236  152.8365 H   0  0  0  0  0  0  0  0  0  0  0  0
  148.2847  142.4103  153.5497 H   0  0  0  0  0  0  0  0  0  0  0  0
  147.2488  142.9820  156.8259 H   0  0  0  0  0  0  0  0  0  0  0  0
  146.4677  141.3996  156.8794 H   0  0  0  0  0  0  0  0  0  0  0  0
  146.6861  142.2235  155.3432 H   0  0  0  0  0  0  0  0  0  0  0  0
  151.6207  143.3031  158.1309 H   0  0  0  0  0  0  0  0  0  0  0  0
  1  2  1  0  0  0  0
  1 21  1  0  0  0  0
  1 22  1  0  0  0  0
  1 23  1  0  0  0  0
  2 20  1  0  0  0  0
  2  3  2  0  0  0  0
  3  4  1  0  0  0  0
  3 24  1  0  0  0  0
  4  5  1  0  0  0  0
  4  6  2  0  0  0  0
  5 25  1  0  0  0  0
  5 26  1  0  0  0  0
  5 27  1  0  0  0  0
  6  7  1  0  0  0  0
  6 28  1  0  0  0  0
  7  8  1  0  0  0  0
  7 20  2  0  0  0  0
  8  9  1  0  0  0  0
  8 10  1  0  0  0  0
  8 29  1  0  0  0  0
  9 30  1  0  0  0  0
 10 11  1  0  0  0  0
 10 31  1  0  0  0  0
 10 32  1  0  0  0  0
 11 18  1  0  0  0  0
 11 12  1  0  0  0  0
 12 13  2  0  0  0  0
 12 33  1  0  0  0  0
 13 14  1  0  0  0  0
 14 15  1  0  0  0  0
 14 16  2  0  0  0  0
 15 34  1  0  0  0  0
 15 35  1  0  0  0  0
 15 36  1  0  0  0  0
 16 17  1  0  0  0  0
 16 18  1  0  0  0  0
 17 37  1  0  0  0  0
 17 38  1  0  0  0  0
 17 39  1  0  0  0  0
 18 19  2  0  0  0  0
 20 40  1  0  0  0  0
M  END
> <s_m_source_file>
AV-unprocessed.smi

> <i_m_source_file_index>
2288

> <i_lp_mmshare_version>
43012

> <i_f3d_flags>
0

> <s_epik_input>
W0NIM11jMVtjSF1jKFtDSDNdKVtjSF1jKFtjSF0xKVtDQEhdKFtPSF0pW0NIMl1uMltjSF1uYyhbQ0gzXSljKFtDSDNdKWMyPU8=

> <s_epik_cmdline>
J2VwaWtfcHl0aG9uJywgJy1waCcsICc3LjAnLCAnLXRuJywgJzgnLCAnLW1hJywgJzIwMCcsICctbWV0YWxfYmluZGluZycsICctaW1hZScsICc8aW5maWxlLm1hZT4nLCAnLW9tYWUnLCAnPG91dGZpbGUubWFlPic=

> <r_lp_tautomer_probability>
1

> <r_epik_Ionization_Penalty>
5.07027e-05

> <r_epik_Ionization_Penalty_Charging>
7.56727e-08

> <r_epik_Ionization_Penalty_Neutral>
5.06271e-05

> <r_epik_State_Penalty>
-0

> <r_epik_Charging_Adjusted_Penalty>
7.56727e-08

> <i_epik_Tot_Q>
0

> <i_epik_Tot_abs_Q>
0

> <r_epik_Metal_State_Penalty>
-0

> <b_epik_Metal_Only>
0

> <s_lp_Force_Field>
OPLS_2005

> <r_lp_Energy>
19.2499

> <b_lp_Chiralities_Consistent>
1

> <s_lp_Variant>
AV-unprocessed.smi:2288-2

> <Gold.Version>
5.8.1

> <Gold.Id.Protein>
6NUR|6NUR_protein|mol2

> <Gold.PLP.Fitness>
49.0131

> <Gold.PLP.PLP>
-45.5984

> <Gold.PLP.part.hbond>
-3.6191

> <Gold.PLP.part.metal>
0.0000

> <Gold.PLP.part.buried>
-2.1981

> <Gold.PLP.part.nonpolar>
-37.4948

> <Gold.PLP.part.repulsive>
0.1060

> <Gold.PLP.ligand.clash>
0.0000

> <Gold.PLP.ligand.torsion>
1.2351

> <Gold.PLP.Chemscore.Hbond>
1.9600

> <Gold.PLP.Chemscore.CHOScore>
0.0000

> <Gold.PLP.Chemscore.Metal>
0.0000

> <Gold.Chemscore.Hbonds>
donor molecule, donor type, donor heavy atom, donor atom, acceptor molecule, acceptor atom, score
      P1  H  7989  7998       L1    13  1.00
      P1  H  7997  8008       L1     9  0.76

> <Gold.PLP.Chemscore.Internal.Correction>
0.0050

> <Gold.Rescore>
     Score         DG    S(hbond)    S(metal)    S(lipo)     H(rot)  DE(clash)    DE(int)     intcor
     16.86     -18.68       1.12        0.00     122.28       1.89       0.47       1.35       ----

> <Gold.Chemscore.Fitness>
16.8619

> <Gold.Chemscore.DG>
-18.6779

> <Gold.Chemscore.ZeroCoef>
-5.4800

> <Gold.Chemscore.Hbond>
1.1170

> <Gold.Chemscore.Metal>
0.0000

> <Gold.Chemscore.Lipo>
122.2841

> <Gold.Chemscore.Internal_Hbond>
0.0000

> <Gold.Chemscore.DEClash>
0.4651

> <Gold.Chemscore.DEInternal>
1.3509

> <Gold.Chemscore.Rot>
1.8907

> <Gold.Chemscore.Internal.Correction>
   9.000000E+99

> <Gold.Chemscore.Hbonds>
donor molecule, donor type, donor heavy atom, donor atom, acceptor molecule, acceptor atom, score
      P1  H  7989  7998       L1    13  0.75
      P1  H  7997  8008       L1     9  0.13

> <Gold.Chemscore.Hbond.Weighted>
-3.7307

> <Gold.Chemscore.Metal.Weighted>
-0.0000

> <Gold.Chemscore.Lipo.Weighted>
-14.3072

> <Gold.Chemscore.Internal_Hbond.Weighted>
0.0000

> <Gold.Chemscore.DEClash.Weighted>
0.4651

> <Gold.Chemscore.DEInternal.Weighted>
1.3509

> <Gold.Chemscore.Rot.Weighted>
4.8401

> <Gold.Chemscore.Internal.Correction.Weighted>
   9.000000E+99

> <Gold.Protein.RotatedTorsions>
[ 6907 6896 6895 6894 ] final  148.70 input  -60.11 | X-H torsion
[ 7974 7965 7964 7962 ] final   71.99 input  175.53 | X-H torsion
[ 8008 7997 7996 7995 ] final  -98.20 input   59.86 | X-H torsion
[ 10167 10162 10161 10158 ] final  -43.67 input  -65.29 | X-H torsion
[ 10718 10713 10712 10709 ] final -179.85 input   66.30 | X-H torsion
[ 10763 10752 10751 10750 ] final -135.09 input  -60.55 | X-H torsion
[ 11005 11000 10999 10996 ] final  120.89 input  -57.11 | X-H torsion

> <Gold.Protein.ActiveResidues>
 VAL166  LYS551  ARG553  GLY616  TRP617  ASP618  TYR619  PRO620  LYS621  CYS622 
 ASP623  PHE694  ASN695  SER759  ASP760  ASP761  ALA762  ILE779  LEU786  VAL792 
 PHE793  MET794  SER795  GLU796  ALA797  LYS798  CYS799  TRP800  GLU811  SER814 

> <Gold.Protein.RotatedAtoms>
  152.1379  133.4446  159.4752 H   0  0  0  0  0  0  0  0  0  0  0  0  # atno 6907 bound_to 6896
  150.6883  134.2341  159.4455 H   0  0  0  0  0  0  0  0  0  0  0  0  # atno 6908 bound_to 6896
  152.0230  134.9811  160.0621 H   0  0  0  0  0  0  0  0  0  0  0  0  # atno 6909 bound_to 6896
  145.7589  139.2792  143.1387 H   0  0  0  0  0  0  0  0  0  0  0  0  # atno 7974 bound_to 7965
  154.7980  140.0457  157.1251 H   0  0  0  0  0  0  0  0  0  0  0  0  # atno 8008 bound_to 7997
  154.9513  140.3065  155.5054 H   0  0  0  0  0  0  0  0  0  0  0  0  # atno 8009 bound_to 7997
  156.2958  140.2287  156.4591 H   0  0  0  0  0  0  0  0  0  0  0  0  # atno 8010 bound_to 7997
  140.6925  143.2971  151.3385 H   0  0  0  0  0  0  0  0  0  0  0  0  # atno 10167 bound_to 10162
  156.8652  130.9765  151.3079 H   0  0  0  0  0  0  0  0  0  0  0  0  # atno 10718 bound_to 10713
  154.8709  135.3714  154.4842 H   0  0  0  0  0  0  0  0  0  0  0  0  # atno 10763 bound_to 10752
  153.5493  135.7025  153.5604 H   0  0  0  0  0  0  0  0  0  0  0  0  # atno 10764 bound_to 10752
  153.3730  135.4016  155.1766 H   0  0  0  0  0  0  0  0  0  0  0  0  # atno 10765 bound_to 10752
  139.9203  134.9637  156.7875 H   0  0  0  0  0  0  0  0  0  0  0  0  # atno 11005 bound_to 11000
  146.0283  140.8282  142.9888 LP  0  0  0  0  0  0  0  0  0  0  0  0  # atno 17320 bound_to 7965
  144.6834  140.2731  143.7303 LP  0  0  0  0  0  0  0  0  0  0  0  0  # atno 17321 bound_to 7965
  139.6344  144.0659  152.2503 LP  0  0  0  0  0  0  0  0  0  0  0  0  # atno 17342 bound_to 10162
  140.0144  144.6200  150.7619 LP  0  0  0  0  0  0  0  0  0  0  0  0  # atno 17343 bound_to 10162
  157.6227  130.8668  149.9136 LP  0  0  0  0  0  0  0  0  0  0  0  0  # atno 17370 bound_to 10713
  156.0755  130.3679  150.0686 LP  0  0  0  0  0  0  0  0  0  0  0  0  # atno 17371 bound_to 10713
  140.6494  133.9745  155.7747 LP  0  0  0  0  0  0  0  0  0  0  0  0  # atno 17394 bound_to 11000
  141.0718  134.0194  157.3515 LP  0  0  0  0  0  0  0  0  0  0  0  0  # atno 17395 bound_to 11000

$$$$
