#       Name:                AV-unprocessed.smi:1560
#       Creating user name   scv26
#       Creation time:       Fri Mar 27 06:48:07 2020


#       File generated by GOLD software.
#

@<TRIPOS>MOLECULE
AV-unprocessed.smi:1560
    56    57     1
SMALL
NO_CHARGES


@<TRIPOS>ATOM
      1 ****        -2.2432  -2.1491  -0.7656 C.3            1 S1                 0.0000
      2 ****        -0.7540  -1.7605  -0.7480 C.3            1 S1                 0.0000
      3 ****        -0.2937  -0.9077   0.4746 C.3            1 S1                 0.0000
      4 ****        -0.9973   0.4714   0.3618 C.3            1 S1                 0.0000
      5 ****         1.2552  -0.7170   0.4096 C.3            1 S1                 0.0000
      6 ****         1.7054  -0.0625  -0.8168 N.am           1 S1                 0.0000
      7 ****         2.0139   1.2367  -0.9424 C.2            1 S1                 0.0000
      8 ****         2.0239   2.0277   0.0011 O.2            1 S1                 0.0000
      9 ****         2.3605   1.7165  -2.3553 C.3            1 S1                 0.0000
     10 ****         1.4456   2.7783  -2.8007 N.am           1 S1                 0.0000
     11 ****         1.8866   4.1096  -2.7030 C.2            1 S1                 0.0000
     12 ****         1.1081   5.1443  -3.0728 C.2            1 S1                 0.0000
     13 ****        -0.2254   4.8562  -3.5864 C.2            1 S1                 0.0000
     14 ****        -0.9491   5.7884  -3.9313 O.2            1 S1                 0.0000
     15 ****        -0.6090   3.5479  -3.6585 N.pl3          1 S1                -1.0000
     16 ****         0.1921   2.5060  -3.2760 C.2            1 S1                 0.0000
     17 ****        -0.1772   1.3323  -3.3413 O.2            1 S1                 0.0000
     18 ****        -0.6925  -1.5850   1.7624 N.4            1 S1                 1.0000
     19 ****        -0.1190  -2.9418   1.9892 C.3            1 S1                 0.0000
     20 ****        -0.7663  -3.6011   3.2177 C.3            1 S1                 0.0000
     21 ****        -0.5612  -2.7808   4.3590 O.3            1 S1                 0.0000
     22 ****        -1.1672  -1.5052   4.2052 C.3            1 S1                 0.0000
     23 ****        -0.5474  -0.7716   3.0034 C.3            1 S1                 0.0000
     24 ****        -2.4705  -2.7406  -1.6527 H              1 S1                 0.0000
     25 ****        -2.8903  -1.2726  -0.7903 H              1 S1                 0.0000
     26 ****        -2.5183  -2.7485   0.1021 H              1 S1                 0.0000
     27 ****        -0.1522  -2.6650  -0.8317 H              1 S1                 0.0000
     28 ****        -0.5494  -1.2152  -1.6705 H              1 S1                 0.0000
     29 ****        -0.9319   0.8788  -0.6474 H              1 S1                 0.0000
     30 ****        -0.5487   1.2152   1.0203 H              1 S1                 0.0000
     31 ****        -2.0571   0.4087   0.6097 H              1 S1                 0.0000
     32 ****         1.6199  -0.1675   1.2778 H              1 S1                 0.0000
     33 ****         1.7612  -1.6814   0.4347 H              1 S1                 0.0000
     34 ****         1.7259  -0.6287  -1.6529 H              1 S1                 0.0000
     35 ****         3.3921   2.0702  -2.3541 H              1 S1                 0.0000
     36 ****         2.3427   0.8820  -3.0591 H              1 S1                 0.0000
     37 ****         2.8829   4.2367  -2.3057 H              1 S1                 0.0000
     38 ****         1.4600   6.1619  -2.9877 H              1 S1                 0.0000
     39 ****        -0.2782  -3.5931   1.1322 H              1 S1                 0.0000
     40 ****         0.9574  -2.8760   2.1487 H              1 S1                 0.0000
     41 ****        -1.8326  -3.7685   3.0565 H              1 S1                 0.0000
     42 ****        -0.3150  -4.5763   3.4013 H              1 S1                 0.0000
     43 ****        -2.2458  -1.6141   4.0800 H              1 S1                 0.0000
     44 ****        -1.0105  -0.9287   5.1172 H              1 S1                 0.0000
     45 ****         0.5055  -0.5708   3.2024 H              1 S1                 0.0000
     46 ****        -1.0471   0.1913   2.9161 H              1 S1                 0.0000
     47 ****        -1.6872  -1.7319   1.6657 H              1 S1                 0.0000
     48 ****         1.7936   1.7113   0.9214 LP             1 S1                 0.0000
     49 ****         2.2622   2.9866  -0.1528 LP             1 S1                 0.0000
     50 ****        -0.6207   6.7301  -3.8577 LP             1 S1                 0.0000
     51 ****        -1.8662   5.6050  -4.2854 LP             1 S1                 0.0000
     52 ****        -1.5223   3.3401  -4.0088 LP             1 S1                 0.0000
     53 ****         0.4360   0.5982  -3.0495 LP             1 S1                 0.0000
     54 ****        -1.0901   1.1138  -3.6860 LP             1 S1                 0.0000
     55 ****         0.4215  -2.6581   4.4975 LP             1 S1                 0.0000
     56 ****        -0.9566  -3.2331   5.1585 LP             1 S1                 0.0000
@<TRIPOS>BOND
    1    1    2 1     
    2    1   24 1     
    3    1   25 1     
    4    1   26 1     
    5    2    3 1     
    6    2   27 1     
    7    2   28 1     
    8    3    4 1     
    9    3    5 1     
   10    3   18 1     
   11    4   29 1     
   12    4   30 1     
   13    4   31 1     
   14    5    6 1     
   15    5   32 1     
   16    5   33 1     
   17    6    7 am    
   18    6   34 1     
   19    7    8 2     
   20    7    9 1     
   21    9   10 1     
   22    9   35 1     
   23    9   36 1     
   24   10   16 am    
   25   10   11 1     
   26   11   12 2     
   27   11   37 1     
   28   12   13 1     
   29   12   38 1     
   30   13   14 2     
   31   13   15 1     
   32   15   16 1     
   33   16   17 2     
   34   18   23 1     
   35   18   19 1     
   36   18   47 1     
   37   19   20 1     
   38   19   39 1     
   39   19   40 1     
   40   20   21 1     
   41   20   41 1     
   42   20   42 1     
   43   21   22 1     
   44   22   23 1     
   45   22   43 1     
   46   22   44 1     
   47   23   45 1     
   48   23   46 1     
   49    8   48 1     
   50    8   49 1     
   51   14   50 1     
   52   14   51 1     
   53   15   52 1     
   54   17   53 1     
   55   17   54 1     
   56   21   55 1     
   57   21   56 1     
@<TRIPOS>SUBSTRUCTURE
      1 S1             1
@<TRIPOS>SET
LONE_PAIRS      STATIC     ATOMS    <user>   **** ""
9 48 49 50 51 52 53 54 55 56
DONOR_HYDROGENS      STATIC     ATOMS    <user>   **** ""
2 34 47
ATOM$BLUE        STATIC     ATOMS    COLORGROUP SYSTEM
9 48 49 50 51 52 53 54 55 56
ATOM$RED        STATIC     ATOMS    COLORGROUP SYSTEM
2 34 47
