AV-unprocessed.smi:1047|AV-procd|sdf|4569|dock10
  -GOLD-   22720 3 23D 1   1.00000     0.00000
 Structure written by MMmdl.
 56 58  0  0  0  0  0  0  0  0  2 V2000
  145.0746  143.6559  154.9928 C   0  0  0  0  0  0  0  0  0  0  0  0
  146.3324  143.1594  154.2654 C   0  0  0  0  0  0  0  0  0  0  0  0
  146.6025  141.7293  154.4067 N   0  0  0  0  0  0  0  0  0  0  0  0
  146.4163  141.2976  155.7874 C   0  0  0  0  0  0  0  0  0  0  0  0
  146.6974  139.7963  155.9611 C   0  0  0  0  0  0  0  0  0  0  0  0
  148.0165  139.5070  155.5108 O   0  0  0  0  0  0  0  0  0  0  0  0
  148.2301  139.8603  154.1461 C   0  0  2  0  0  0  0  0  0  0  0  0
  149.6768  139.5025  153.7805 C   0  0  0  0  0  0  0  0  0  0  0  0
  149.9970  138.1125  154.1612 N   0  3  0  0  0  0  0  0  0  0  0  0
  151.4415  137.8565  154.3231 C   0  0  0  0  0  0  0  0  0  0  0  0
  152.0165  138.6044  155.5405 C   0  0  2  0  0  0  0  0  0  0  0  0
  153.4283  138.6036  155.4508 O   0  0  0  0  0  0  0  0  0  0  0  0
  151.5949  137.9934  156.8954 C   0  0  0  0  0  0  0  0  0  0  0  0
  152.2967  138.5639  158.0344 N   0  0  0  0  0  0  0  0  0  0  0  0
  153.0629  137.9069  158.9270 C   0  0  0  0  0  0  0  0  0  0  0  0
  153.6051  138.6219  159.9080 N   0  0  0  0  0  0  0  0  0  0  0  0
  153.1476  139.8942  159.6123 C   0  0  0  0  0  0  0  0  0  0  0  0
  153.3602  141.1222  160.2764 C   0  0  0  0  0  0  0  0  0  0  0  0
  152.7822  142.3174  159.7927 C   0  0  0  0  0  0  0  0  0  0  0  0
  153.0310  143.6142  160.5427 C   0  0  0  0  0  0  0  0  0  0  0  0
  151.9810  142.2965  158.6229 C   0  0  0  0  0  0  0  0  0  0  0  0
  151.3499  143.5686  158.0847 C   0  0  0  0  0  0  0  0  0  0  0  0
  151.7611  141.0791  157.9456 C   0  0  0  0  0  0  0  0  0  0  0  0
  152.3342  139.8943  158.4414 C   0  0  0  0  0  0  0  0  0  0  0  0
  147.9505  141.3675  153.9748 C   0  0  0  0  0  0  0  0  0  0  0  0
  145.0043  144.7422  154.9351 H   0  0  0  0  0  0  0  0  0  0  0  0
  145.0965  143.3819  156.0480 H   0  0  0  0  0  0  0  0  0  0  0  0
  144.1625  143.2500  154.5560 H   0  0  0  0  0  0  0  0  0  0  0  0
  146.2696  143.4235  153.2085 H   0  0  0  0  0  0  0  0  0  0  0  0
  147.1805  143.7179  154.6636 H   0  0  0  0  0  0  0  0  0  0  0  0
  147.0761  141.8659  156.4452 H   0  0  0  0  0  0  0  0  0  0  0  0
  145.3964  141.5121  156.1092 H   0  0  0  0  0  0  0  0  0  0  0  0
  146.6077  139.5123  157.0096 H   0  0  0  0  0  0  0  0  0  0  0  0
  145.9746  139.1996  155.4026 H   0  0  0  0  0  0  0  0  0  0  0  0
  147.5456  139.2924  153.5132 H   0  0  0  0  0  0  0  0  0  0  0  0
  149.8235  139.6099  152.7050 H   0  0  0  0  0  0  0  0  0  0  0  0
  150.3692  140.1887  154.2701 H   0  0  0  0  0  0  0  0  0  0  0  0
  149.5390  137.9070  155.0382 H   0  0  0  0  0  0  0  0  0  0  0  0
  151.5833  136.7831  154.4536 H   0  0  0  0  0  0  0  0  0  0  0  0
  151.9654  138.1412  153.4093 H   0  0  0  0  0  0  0  0  0  0  0  0
  151.6810  139.6420  155.5152 H   0  0  0  0  0  0  0  0  0  0  0  0
  153.7092  137.7711  155.1018 H   0  0  0  0  0  0  0  0  0  0  0  0
  150.5227  138.1231  157.0499 H   0  0  0  0  0  0  0  0  0  0  0  0
  151.7727  136.9176  156.8885 H   0  0  0  0  0  0  0  0  0  0  0  0
  153.2236  136.8406  158.8579 H   0  0  0  0  0  0  0  0  0  0  0  0
  153.9716  141.1382  161.1666 H   0  0  0  0  0  0  0  0  0  0  0  0
  153.5016  144.3505  159.8907 H   0  0  0  0  0  0  0  0  0  0  0  0
  153.6877  143.4594  161.3991 H   0  0  0  0  0  0  0  0  0  0  0  0
  152.0917  144.0270  160.9117 H   0  0  0  0  0  0  0  0  0  0  0  0
  150.7750  143.3758  157.1785 H   0  0  0  0  0  0  0  0  0  0  0  0
  152.1176  144.3037  157.8424 H   0  0  0  0  0  0  0  0  0  0  0  0
  150.6753  144.0023  158.8233 H   0  0  0  0  0  0  0  0  0  0  0  0
  151.1534  141.0520  157.0536 H   0  0  0  0  0  0  0  0  0  0  0  0
  148.0909  141.6309  152.9266 H   0  0  0  0  0  0  0  0  0  0  0  0
  148.6855  141.9411  154.5421 H   0  0  0  0  0  0  0  0  0  0  0  0
  149.6331  137.4892  153.4547 H   0  0  0  0  0  0  0  0  0  0  0  0
  1  2  1  0  0  0  0
  1 26  1  0  0  0  0
  1 27  1  0  0  0  0
  1 28  1  0  0  0  0
  2  3  1  0  0  0  0
  2 29  1  0  0  0  0
  2 30  1  0  0  0  0
  3 25  1  0  0  0  0
  3  4  1  0  0  0  0
  4  5  1  0  0  0  0
  4 31  1  0  0  0  0
  4 32  1  0  0  0  0
  5  6  1  0  0  0  0
  5 33  1  0  0  0  0
  5 34  1  0  0  0  0
  6  7  1  0  0  0  0
  7  8  1  0  0  0  0
  7 25  1  0  0  0  0
  7 35  1  0  0  0  0
  8  9  1  0  0  0  0
  8 36  1  0  0  0  0
  8 37  1  0  0  0  0
  9 10  1  0  0  0  0
  9 38  1  0  0  0  0
  9 56  1  0  0  0  0
 10 11  1  0  0  0  0
 10 39  1  0  0  0  0
 10 40  1  0  0  0  0
 11 12  1  0  0  0  0
 11 13  1  0  0  0  0
 11 41  1  0  0  0  0
 12 42  1  0  0  0  0
 13 14  1  0  0  0  0
 13 43  1  0  0  0  0
 13 44  1  0  0  0  0
 14 24  1  0  0  0  0
 14 15  1  0  0  0  0
 15 16  2  0  0  0  0
 15 45  1  0  0  0  0
 16 17  1  0  0  0  0
 17 24  2  0  0  0  0
 17 18  1  0  0  0  0
 18 19  2  0  0  0  0
 18 46  1  0  0  0  0
 19 20  1  0  0  0  0
 19 21  1  0  0  0  0
 20 47  1  0  0  0  0
 20 48  1  0  0  0  0
 20 49  1  0  0  0  0
 21 22  1  0  0  0  0
 21 23  2  0  0  0  0
 22 50  1  0  0  0  0
 22 51  1  0  0  0  0
 22 52  1  0  0  0  0
 23 24  1  0  0  0  0
 23 53  1  0  0  0  0
 25 54  1  0  0  0  0
 25 55  1  0  0  0  0
M  CHG  1   9   1
M  END
> <s_m_source_file>
AV-unprocessed.smi

> <i_m_source_file_index>
1047

> <i_lp_mmshare_version>
43012

> <i_f3d_flags>
0

> <s_epik_input>
W0NIM11bQ0gyXU4xW0NIMl1bQ0gyXU9bQ0BIXShbQ0gyXTEpW0NIMl1bTkhdW0NIMl1bQ0BIXShbT0hdKVtDSDJdbihbY0hdbjIpYyhjMjMpW2NIXWMoW0NIM10pYyhbY0hdMylbQ0gzXQ==

> <s_epik_cmdline>
J2VwaWtfcHl0aG9uJywgJy1waCcsICc3LjAnLCAnLXRuJywgJzgnLCAnLW1hJywgJzIwMCcsICctbWV0YWxfYmluZGluZycsICctaW1hZScsICc8aW5maWxlLm1hZT4nLCAnLW9tYWUnLCAnPG91dGZpbGUubWFlPic=

> <r_epik_Ionization_Penalty>
0.692425

> <r_epik_Ionization_Penalty_Charging>
0.0243549

> <r_epik_Ionization_Penalty_Neutral>
0.66807

> <r_epik_State_Penalty>
0.592789

> <r_epik_Charging_Adjusted_Penalty>
0.617144

> <i_epik_Tot_Q>
1

> <i_epik_Tot_abs_Q>
1

> <r_epik_Metal_State_Penalty>
0.508021

> <b_epik_Metal_Only>
0

> <s_lp_Force_Field>
OPLS_2005

> <r_lp_Energy>
30.0257

> <b_lp_Chiralities_Consistent>
1

> <s_lp_Variant>
AV-unprocessed.smi:1047-10

> <Gold.Version>
5.8.1

> <Gold.Id.Protein>
6NUR|6NUR_protein|mol2

> <Gold.PLP.Fitness>
51.5083

> <Gold.PLP.PLP>
-43.4131

> <Gold.PLP.part.hbond>
-1.9791

> <Gold.PLP.part.metal>
0.0000

> <Gold.PLP.part.buried>
-3.7658

> <Gold.PLP.part.nonpolar>
-39.2078

> <Gold.PLP.part.repulsive>
0.2361

> <Gold.PLP.ligand.clash>
0.0000

> <Gold.PLP.ligand.torsion>
0.4242

> <Gold.PLP.Chemscore.Hbond>
2.9600

> <Gold.PLP.Chemscore.CHOScore>
0.0000

> <Gold.PLP.Chemscore.Metal>
0.0000

> <Gold.Chemscore.Hbonds>
donor molecule, donor type, donor heavy atom, donor atom, acceptor molecule, acceptor atom, score
      L1  H     9    56       P1  7948  1.62
      P1  H  7997  8008       L1    12  0.86

> <Gold.PLP.Chemscore.Internal.Correction>
0.0636

> <Gold.Rescore>
     Score         DG    S(hbond)    S(metal)    S(lipo)     H(rot)  DE(clash)    DE(int)     intcor
     18.00     -19.89       1.76        0.00     130.00       2.60       1.43       0.46       ----

> <Gold.Chemscore.Fitness>
17.9950

> <Gold.Chemscore.DG>
-19.8919

> <Gold.Chemscore.ZeroCoef>
-5.4800

> <Gold.Chemscore.Hbond>
1.7576

> <Gold.Chemscore.Metal>
0.0000

> <Gold.Chemscore.Lipo>
129.9986

> <Gold.Chemscore.Internal_Hbond>
0.0000

> <Gold.Chemscore.DEClash>
1.4342

> <Gold.Chemscore.DEInternal>
0.4627

> <Gold.Chemscore.Rot>
2.6049

> <Gold.Chemscore.Internal.Correction>
   9.000000E+99

> <Gold.Chemscore.Hbonds>
donor molecule, donor type, donor heavy atom, donor atom, acceptor molecule, acceptor atom, score
      L1  H     9    56       P1  7948  0.66
      P1  H  7997  8008       L1    12  0.81

> <Gold.Chemscore.Hbond.Weighted>
-5.8705

> <Gold.Chemscore.Metal.Weighted>
-0.0000

> <Gold.Chemscore.Lipo.Weighted>
-15.2098

> <Gold.Chemscore.Internal_Hbond.Weighted>
0.0000

> <Gold.Chemscore.DEClash.Weighted>
1.4342

> <Gold.Chemscore.DEInternal.Weighted>
0.4627

> <Gold.Chemscore.Rot.Weighted>
6.6685

> <Gold.Chemscore.Internal.Correction.Weighted>
   9.000000E+99

> <Gold.Protein.RotatedTorsions>
[ 6907 6896 6895 6894 ] final   68.32 input  -60.11 | X-H torsion
[ 7974 7965 7964 7962 ] final    2.91 input  175.53 | X-H torsion
[ 8008 7997 7996 7995 ] final  -35.57 input   59.86 | X-H torsion
[ 10167 10162 10161 10158 ] final  106.41 input  -65.29 | X-H torsion
[ 10718 10713 10712 10709 ] final  -14.24 input   66.30 | X-H torsion
[ 10763 10752 10751 10750 ] final    9.63 input  -60.55 | X-H torsion
[ 11005 11000 10999 10996 ] final -109.09 input  -57.11 | X-H torsion

> <Gold.Protein.ActiveResidues>
 VAL166  LYS551  ARG553  GLY616  TRP617  ASP618  TYR619  PRO620  LYS621  CYS622 
 ASP623  PHE694  ASN695  SER759  ASP760  ASP761  ALA762  ILE779  LEU786  VAL792 
 PHE793  MET794  SER795  GLU796  ALA797  LYS798  CYS799  TRP800  GLU811  SER814 

> <Gold.Protein.RotatedAtoms>
  152.4612  134.5180  159.9773 H   0  0  0  0  0  0  0  0  0  0  0  0  # atno 6907 bound_to 6896
  151.5228  133.3457  159.2912 H   0  0  0  0  0  0  0  0  0  0  0  0  # atno 6908 bound_to 6896
  150.8576  134.7949  159.7120 H   0  0  0  0  0  0  0  0  0  0  0  0  # atno 6909 bound_to 6896
  146.2444  140.0765  142.8359 H   0  0  0  0  0  0  0  0  0  0  0  0  # atno 7974 bound_to 7965
  154.4092  140.1654  156.2233 H   0  0  0  0  0  0  0  0  0  0  0  0  # atno 8008 bound_to 7997
  155.9345  140.3412  155.6253 H   0  0  0  0  0  0  0  0  0  0  0  0  # atno 8009 bound_to 7997
  155.7065  140.0751  157.2379 H   0  0  0  0  0  0  0  0  0  0  0  0  # atno 8010 bound_to 7997
  139.7011  144.7094  151.1183 H   0  0  0  0  0  0  0  0  0  0  0  0  # atno 10167 bound_to 10162
  156.6187  130.4869  149.6173 H   0  0  0  0  0  0  0  0  0  0  0  0  # atno 10718 bound_to 10713
  153.2120  135.6870  153.8103 H   0  0  0  0  0  0  0  0  0  0  0  0  # atno 10763 bound_to 10752
  153.7332  135.3249  155.3291 H   0  0  0  0  0  0  0  0  0  0  0  0  # atno 10764 bound_to 10752
  154.8227  135.4640  154.0931 H   0  0  0  0  0  0  0  0  0  0  0  0  # atno 10765 bound_to 10752
  141.0866  133.9128  157.2171 H   0  0  0  0  0  0  0  0  0  0  0  0  # atno 11005 bound_to 11000
  145.0770  140.9195  143.4848 LP  0  0  0  0  0  0  0  0  0  0  0  0  # atno 17320 bound_to 7965
  145.0911  139.2890  143.5734 LP  0  0  0  0  0  0  0  0  0  0  0  0  # atno 17321 bound_to 7965
  140.7710  143.5422  150.9299 LP  0  0  0  0  0  0  0  0  0  0  0  0  # atno 17342 bound_to 10162
  139.9104  143.6727  152.3116 LP  0  0  0  0  0  0  0  0  0  0  0  0  # atno 17343 bound_to 10162
  156.2329  130.6805  151.1481 LP  0  0  0  0  0  0  0  0  0  0  0  0  # atno 17370 bound_to 10713
  157.7234  131.0667  150.6039 LP  0  0  0  0  0  0  0  0  0  0  0  0  # atno 17371 bound_to 10713
  139.9685  135.0135  156.9451 LP  0  0  0  0  0  0  0  0  0  0  0  0  # atno 17394 bound_to 11000
  140.5348  134.0778  155.7325 LP  0  0  0  0  0  0  0  0  0  0  0  0  # atno 17395 bound_to 11000

$$$$
