#       Name:                AV-unprocessed.smi:2764
#       Creating user name   scv26
#       Creation time:       Fri Mar 27 15:09:12 2020


#       File generated by GOLD software.
#

@<TRIPOS>MOLECULE
AV-unprocessed.smi:2764
    52    54     1
SMALL
NO_CHARGES


@<TRIPOS>ATOM
      1 ****        -2.2074   2.8858  -0.0241 O.2            1 S1                 0.0000
      2 ****        -2.6455   1.7764   0.2816 C.2            1 S1                 0.0000
      3 ****        -3.9434   1.4745   0.4630 N.am           1 S1                 0.0000
      4 ****        -5.0654   2.3417   0.3779 C.ar           1 S1                 0.0000
      5 ****        -6.3130   1.7355   0.6503 C.ar           1 S1                 0.0000
      6 ****        -7.4871   2.5118   0.5972 C.ar           1 S1                 0.0000
      7 ****        -7.3814   3.8754   0.2705 C.ar           1 S1                 0.0000
      8 ****        -8.4822   4.6613   0.2068 F              1 S1                 0.0000
      9 ****        -6.1023   4.4016   0.0117 C.ar           1 S1                 0.0000
     10 ****        -4.9761   3.6588   0.0635 N.ar           1 S1                 0.0000
     11 ****        -1.8627   0.7047   0.4777 N.am           1 S1                 0.0000
     12 ****        -0.4052   0.7075   0.3896 C.3            1 S1                 0.0000
     13 ****         0.0631   0.5925  -1.0720 C.3            1 S1                 0.0000
     14 ****         1.5968   0.5109  -1.1569 C.3            1 S1                 0.0000
     15 ****         2.1244  -0.6188  -0.3474 N.4            1 S1                 1.0000
     16 ****         3.5901  -0.8060  -0.5100 C.3            1 S1                 0.0000
     17 ****         3.9756  -2.2906  -0.6579 C.3            1 S1                 0.0000
     18 ****         5.4267  -2.4976  -1.0450 C.3            1 S1                 0.0000
     19 ****         5.6511  -3.9616  -0.6806 C.3            1 S1                 0.0000
     20 ****         4.7943  -4.2191   0.4273 O.3            1 S1                 0.0000
     21 ****         3.9076  -3.1226   0.6243 C.3            1 S1                 0.0000
     22 ****         1.7061  -0.5104   1.0755 C.3            1 S1                 0.0000
     23 ****         0.1747  -0.4591   1.2038 C.3            1 S1                 0.0000
     24 ****        -4.1531   0.5178   0.7069 H              1 S1                 0.0000
     25 ****        -6.3754   0.6862   0.9001 H              1 S1                 0.0000
     26 ****        -8.4500   2.0682   0.8036 H              1 S1                 0.0000
     27 ****        -5.9787   5.4438  -0.2430 H              1 S1                 0.0000
     28 ****        -2.3050  -0.1691   0.7230 H              1 S1                 0.0000
     29 ****        -0.0261   1.6399   0.8128 H              1 S1                 0.0000
     30 ****        -0.3743  -0.2938  -1.5343 H              1 S1                 0.0000
     31 ****        -0.2887   1.4475  -1.6507 H              1 S1                 0.0000
     32 ****         1.8869   0.3826  -2.2006 H              1 S1                 0.0000
     33 ****         2.0435   1.4458  -0.8143 H              1 S1                 0.0000
     34 ****         3.9200  -0.2940  -1.4153 H              1 S1                 0.0000
     35 ****         4.1357  -0.3333   0.3081 H              1 S1                 0.0000
     36 ****         3.3497  -2.7575  -1.4205 H              1 S1                 0.0000
     37 ****         5.6254  -2.2889  -2.0966 H              1 S1                 0.0000
     38 ****         6.0769  -1.8613  -0.4427 H              1 S1                 0.0000
     39 ****         5.3548  -4.6098  -1.5060 H              1 S1                 0.0000
     40 ****         6.6924  -4.1751  -0.4382 H              1 S1                 0.0000
     41 ****         4.2629  -2.5463   1.4798 H              1 S1                 0.0000
     42 ****         2.8982  -3.4711   0.8438 H              1 S1                 0.0000
     43 ****         2.0828  -1.3577   1.6464 H              1 S1                 0.0000
     44 ****         2.1465   0.3851   1.5173 H              1 S1                 0.0000
     45 ****        -0.1030  -0.3572   2.2535 H              1 S1                 0.0000
     46 ****        -0.2508  -1.4037   0.8609 H              1 S1                 0.0000
     47 ****         1.6899  -1.4510  -0.7202 H              1 S1                 0.0000
     48 ****        -2.8358   3.6521  -0.1577 LP             1 S1                 0.0000
     49 ****        -1.2232   3.0205  -0.1388 LP             1 S1                 0.0000
     50 ****        -4.0867   4.0742  -0.1275 LP             1 S1                 0.0000
     51 ****         5.3475  -4.3493   1.2501 LP             1 S1                 0.0000
     52 ****         4.2624  -5.0469   0.2488 LP             1 S1                 0.0000
@<TRIPOS>BOND
    1    1    2 2     
    2    2    3 am    
    3    2   11 am    
    4    3    4 1     
    5    3   24 1     
    6    4   10 ar    
    7    4    5 ar    
    8    5    6 ar    
    9    5   25 1     
   10    6    7 ar    
   11    6   26 1     
   12    7    8 1     
   13    7    9 ar    
   14    9   10 ar    
   15    9   27 1     
   16   11   12 1     
   17   11   28 1     
   18   12   23 1     
   19   12   13 1     
   20   12   29 1     
   21   13   14 1     
   22   13   30 1     
   23   13   31 1     
   24   14   15 1     
   25   14   32 1     
   26   14   33 1     
   27   15   16 1     
   28   15   22 1     
   29   15   47 1     
   30   16   17 1     
   31   16   34 1     
   32   16   35 1     
   33   17   21 1     
   34   17   18 1     
   35   17   36 1     
   36   18   19 1     
   37   18   37 1     
   38   18   38 1     
   39   19   20 1     
   40   19   39 1     
   41   19   40 1     
   42   20   21 1     
   43   21   41 1     
   44   21   42 1     
   45   22   23 1     
   46   22   43 1     
   47   22   44 1     
   48   23   45 1     
   49   23   46 1     
   50    1   48 1     
   51    1   49 1     
   52   10   50 1     
   53   20   51 1     
   54   20   52 1     
@<TRIPOS>SUBSTRUCTURE
      1 S1             1
@<TRIPOS>SET
LONE_PAIRS      STATIC     ATOMS    <user>   **** ""
5 48 49 50 51 52
DONOR_HYDROGENS      STATIC     ATOMS    <user>   **** ""
3 24 28 47
ATOM$BLUE        STATIC     ATOMS    COLORGROUP SYSTEM
5 48 49 50 51 52
ATOM$RED        STATIC     ATOMS    COLORGROUP SYSTEM
3 24 28 47
