AV-unprocessed.smi:1333|AV-procd|sdf|5491|dock1
  -GOLD-   22720 5 63D 1   1.00000     0.00000
 Structure written by MMmdl.
 34 35  0  0  0  0  0  0  0  0  2 V2000
  145.0619  134.3529  153.7851 O   0  0  0  0  0  0  0  0  0  0  0  0
  146.1146  134.5352  153.1676 C   0  0  0  0  0  0  0  0  0  0  0  0
  146.6040  133.4870  152.1593 C   0  0  0  0  0  0  0  0  0  0  0  0
  145.6056  133.1668  151.1305 N   0  0  0  0  0  0  0  0  0  0  0  0
  145.7450  132.2978  150.0783 C   0  0  0  0  0  0  0  0  0  0  0  0
  144.5634  132.3325  149.3834 C   0  0  0  0  0  0  0  0  0  0  0  0
  143.7534  133.2198  150.0400 N   0  3  0  0  0  0  0  0  0  0  0  0
  144.3886  133.7263  151.1019 C   0  0  0  0  0  0  0  0  0  0  0  0
  146.9243  135.6118  153.2933 N   0  0  0  0  0  0  0  0  0  0  0  0
  146.8212  136.7187  154.0674 C   0  0  0  0  0  0  0  0  0  0  0  0
  145.8678  136.8600  154.8311 O   0  0  0  0  0  0  0  0  0  0  0  0
  147.7976  137.6395  153.9567 N   0  0  0  0  0  0  0  0  0  0  0  0
  147.8852  138.8794  154.7231 C   0  0  0  0  0  0  0  0  0  0  0  0
  146.7339  139.8430  154.3721 C   0  0  0  0  0  0  0  0  0  0  0  0
  147.3624  140.9621  153.5422 C   0  0  0  0  0  0  0  0  0  0  0  0
  148.7825  141.0751  154.0868 C   0  0  0  0  0  0  0  0  0  0  0  0
  149.1889  139.6322  154.3932 C   0  0  0  0  0  0  0  0  0  0  0  0
  147.5007  133.8490  151.6545 H   0  0  0  0  0  0  0  0  0  0  0  0
  146.8708  132.5669  152.6816 H   0  0  0  0  0  0  0  0  0  0  0  0
  146.6522  131.7369  149.9044 H   0  0  0  0  0  0  0  0  0  0  0  0
  144.2476  131.8075  148.4936 H   0  0  0  0  0  0  0  0  0  0  0  0
  143.9967  134.4485  151.7960 H   0  0  0  0  0  0  0  0  0  0  0  0
  147.7499  135.5899  152.7126 H   0  0  0  0  0  0  0  0  0  0  0  0
  148.5365  137.4653  153.2905 H   0  0  0  0  0  0  0  0  0  0  0  0
  147.8570  138.6502  155.7900 H   0  0  0  0  0  0  0  0  0  0  0  0
  145.9054  139.3628  153.8497 H   0  0  0  0  0  0  0  0  0  0  0  0
  146.3284  140.2645  155.2928 H   0  0  0  0  0  0  0  0  0  0  0  0
  147.3926  140.6691  152.4922 H   0  0  0  0  0  0  0  0  0  0  0  0
  146.8086  141.8988  153.6125 H   0  0  0  0  0  0  0  0  0  0  0  0
  149.4631  141.5639  153.3891 H   0  0  0  0  0  0  0  0  0  0  0  0
  148.7755  141.6586  155.0086 H   0  0  0  0  0  0  0  0  0  0  0  0
  149.9115  139.5795  155.2082 H   0  0  0  0  0  0  0  0  0  0  0  0
  149.6691  139.2044  153.5113 H   0  0  0  0  0  0  0  0  0  0  0  0
  142.8103  133.4618  149.7623 H   0  0  0  0  0  0  0  0  0  0  0  0
  1  2  2  0  0  0  0
  2  3  1  0  0  0  0
  2  9  1  0  0  0  0
  3  4  1  0  0  0  0
  3 18  1  0  0  0  0
  3 19  1  0  0  0  0
  4  8  1  0  0  0  0
  4  5  1  0  0  0  0
  5  6  2  0  0  0  0
  5 20  1  0  0  0  0
  6  7  1  0  0  0  0
  6 21  1  0  0  0  0
  7  8  2  0  0  0  0
  7 34  1  0  0  0  0
  8 22  1  0  0  0  0
  9 10  1  0  0  0  0
  9 23  1  0  0  0  0
 10 11  2  0  0  0  0
 10 12  1  0  0  0  0
 12 13  1  0  0  0  0
 12 24  1  0  0  0  0
 13 17  1  0  0  0  0
 13 14  1  0  0  0  0
 13 25  1  0  0  0  0
 14 15  1  0  0  0  0
 14 26  1  0  0  0  0
 14 27  1  0  0  0  0
 15 16  1  0  0  0  0
 15 28  1  0  0  0  0
 15 29  1  0  0  0  0
 16 17  1  0  0  0  0
 16 30  1  0  0  0  0
 16 31  1  0  0  0  0
 17 32  1  0  0  0  0
 17 33  1  0  0  0  0
M  CHG  1   7   1
M  END
> <s_m_source_file>
AV-unprocessed.smi

> <i_m_source_file_index>
1333

> <i_lp_mmshare_version>
43012

> <i_f3d_flags>
0

> <s_epik_input>
W2NIXTFuW2NIXVtjSF1uMVtDSDJdQyg9TylbTkhdQyg9TylbTkhdW0NIXTJbQ0gyXVtDSDJdW0NIMl1bQ0gyXTI=

> <s_epik_cmdline>
J2VwaWtfcHl0aG9uJywgJy1waCcsICc3LjAnLCAnLXRuJywgJzgnLCAnLW1hJywgJzIwMCcsICctbWV0YWxfYmluZGluZycsICctaW1hZScsICc8aW5maWxlLm1hZT4nLCAnLW9tYWUnLCAnPG91dGZpbGUubWFlPic=

> <r_lp_tautomer_probability>
1

> <r_epik_Ionization_Penalty>
0.816939

> <r_epik_Ionization_Penalty_Charging>
0

> <r_epik_Ionization_Penalty_Neutral>
0.816939

> <r_epik_State_Penalty>
0.849575

> <r_epik_Charging_Adjusted_Penalty>
0.849575

> <i_epik_Tot_Q>
1

> <i_epik_Tot_abs_Q>
1

> <r_epik_Metal_State_Penalty>
0.984774

> <b_epik_Metal_Only>
0

> <s_lp_Force_Field>
OPLS_2005

> <r_lp_Energy>
25.5003

> <b_lp_Chiralities_Consistent>
1

> <s_lp_Variant>
AV-unprocessed.smi:1333-2

> <Gold.Version>
5.8.1

> <Gold.Id.Protein>
6NUR|6NUR_protein|mol2

> <Gold.PLP.Fitness>
42.1735

> <Gold.PLP.PLP>
-27.8649

> <Gold.PLP.part.hbond>
-3.0000

> <Gold.PLP.part.metal>
0.0000

> <Gold.PLP.part.buried>
-3.1074

> <Gold.PLP.part.nonpolar>
-21.3315

> <Gold.PLP.part.repulsive>
0.1824

> <Gold.PLP.ligand.clash>
0.0000

> <Gold.PLP.ligand.torsion>
0.0558

> <Gold.PLP.Chemscore.Hbond>
3.8000

> <Gold.PLP.Chemscore.CHOScore>
1.0000

> <Gold.PLP.Chemscore.Metal>
0.0000

> <Gold.Chemscore.Hbonds>
donor molecule, donor type, donor heavy atom, donor atom, acceptor molecule, acceptor atom, score
      L1  H     7    34       P1 10186  1.89
      L1  H     9    23       P1  7948  1.00
      L1  H    12    24       P1  7948  0.80
      L1  C     5    20       P1 10747  1.00

> <Gold.PLP.Chemscore.Internal.Correction>
0.0201

> <Gold.Rescore>
     Score         DG    S(hbond)    S(metal)    S(lipo)     H(rot)  DE(clash)    DE(int)     intcor
     14.36     -17.01       2.84        0.00      56.07       1.77       0.01       2.64       ----

> <Gold.Chemscore.Fitness>
14.3632

> <Gold.Chemscore.DG>
-17.0117

> <Gold.Chemscore.ZeroCoef>
-5.4800

> <Gold.Chemscore.Hbond>
2.8440

> <Gold.Chemscore.Metal>
0.0000

> <Gold.Chemscore.Lipo>
56.0702

> <Gold.Chemscore.Internal_Hbond>
0.0000

> <Gold.Chemscore.DEClash>
0.0060

> <Gold.Chemscore.DEInternal>
2.6425

> <Gold.Chemscore.Rot>
1.7686

> <Gold.Chemscore.Internal.Correction>
   9.000000E+99

> <Gold.Chemscore.Hbonds>
donor molecule, donor type, donor heavy atom, donor atom, acceptor molecule, acceptor atom, score
      L1  H     7    34       P1 10186  0.90
      L1  H     9    23       P1  7948  0.97
      L1  H    12    24       P1  7948  0.79

> <Gold.Chemscore.Hbond.Weighted>
-9.4991

> <Gold.Chemscore.Metal.Weighted>
-0.0000

> <Gold.Chemscore.Lipo.Weighted>
-6.5602

> <Gold.Chemscore.Internal_Hbond.Weighted>
0.0000

> <Gold.Chemscore.DEClash.Weighted>
0.0060

> <Gold.Chemscore.DEInternal.Weighted>
2.6425

> <Gold.Chemscore.Rot.Weighted>
4.5277

> <Gold.Chemscore.Internal.Correction.Weighted>
   9.000000E+99

> <Gold.Protein.RotatedTorsions>
[ 6907 6896 6895 6894 ] final  140.15 input  -60.11 | X-H torsion
[ 7974 7965 7964 7962 ] final  -59.16 input  175.53 | X-H torsion
[ 8008 7997 7996 7995 ] final  -85.06 input   59.86 | X-H torsion
[ 10167 10162 10161 10158 ] final   30.06 input  -65.29 | X-H torsion
[ 10718 10713 10712 10709 ] final  -26.97 input   66.30 | X-H torsion
[ 10763 10752 10751 10750 ] final    2.11 input  -60.55 | X-H torsion
[ 11005 11000 10999 10996 ] final  -25.55 input  -57.11 | X-H torsion

> <Gold.Protein.ActiveResidues>
 VAL166  LYS551  ARG553  GLY616  TRP617  ASP618  TYR619  PRO620  LYS621  CYS622 
 ASP623  PHE694  ASN695  SER759  ASP760  ASP761  ALA762  ILE779  LEU786  VAL792 
 PHE793  MET794  SER795  GLU796  ALA797  LYS798  CYS799  TRP800  GLU811  SER814 

> <Gold.Protein.RotatedAtoms>
  152.2464  133.5178  159.5299 H   0  0  0  0  0  0  0  0  0  0  0  0  # atno 6907 bound_to 6896
  150.7080  134.1019  159.3978 H   0  0  0  0  0  0  0  0  0  0  0  0  # atno 6908 bound_to 6896
  151.8939  135.0405  160.0551 H   0  0  0  0  0  0  0  0  0  0  0  0  # atno 6909 bound_to 6896
  145.8308  140.8481  143.0085 H   0  0  0  0  0  0  0  0  0  0  0  0  # atno 7974 bound_to 7965
  154.6366  140.0596  156.9796 H   0  0  0  0  0  0  0  0  0  0  0  0  # atno 8008 bound_to 7997
  155.1582  140.3280  155.4398 H   0  0  0  0  0  0  0  0  0  0  0  0  # atno 8009 bound_to 7997
  156.2510  140.1935  156.6690 H   0  0  0  0  0  0  0  0  0  0  0  0  # atno 8010 bound_to 7997
  140.4711  144.0761  150.6237 H   0  0  0  0  0  0  0  0  0  0  0  0  # atno 10167 bound_to 10162
  156.4442  130.4470  149.7032 H   0  0  0  0  0  0  0  0  0  0  0  0  # atno 10718 bound_to 10713
  153.2997  135.6955  153.7215 H   0  0  0  0  0  0  0  0  0  0  0  0  # atno 10763 bound_to 10752
  153.6134  135.3440  155.2987 H   0  0  0  0  0  0  0  0  0  0  0  0  # atno 10764 bound_to 10752
  154.8547  135.4369  154.2104 H   0  0  0  0  0  0  0  0  0  0  0  0  # atno 10765 bound_to 10752
  140.8948  133.7563  156.0468 H   0  0  0  0  0  0  0  0  0  0  0  0  # atno 11005 bound_to 11000
  144.6740  140.0669  143.7474 LP  0  0  0  0  0  0  0  0  0  0  0  0  # atno 17320 bound_to 7965
  145.9573  139.2776  143.1176 LP  0  0  0  0  0  0  0  0  0  0  0  0  # atno 17321 bound_to 7965
  140.3975  143.2720  151.9987 LP  0  0  0  0  0  0  0  0  0  0  0  0  # atno 17342 bound_to 10162
  139.4819  144.6025  151.7580 LP  0  0  0  0  0  0  0  0  0  0  0  0  # atno 17343 bound_to 10162
  156.3885  130.7615  151.2614 LP  0  0  0  0  0  0  0  0  0  0  0  0  # atno 17370 bound_to 10713
  157.7505  131.0275  150.4007 LP  0  0  0  0  0  0  0  0  0  0  0  0  # atno 17371 bound_to 10713
  140.8302  134.3187  157.5351 LP  0  0  0  0  0  0  0  0  0  0  0  0  # atno 17394 bound_to 11000
  139.8734  134.9359  156.3646 LP  0  0  0  0  0  0  0  0  0  0  0  0  # atno 17395 bound_to 11000

$$$$
