AV-unprocessed.smi:2343|AV-procd|sdf|9356|dock8
  -GOLD-   2272012583D 1   1.00000     0.00000
 Structure written by MMmdl.
 34 35  0  0  0  0  0  0  0  0  1 V2000
  146.5207  136.7794  153.2807 O   0  0  0  0  0  0  0  0  0  0  0  0
  145.8179  137.7677  153.0698 C   0  0  0  0  0  0  0  0  0  0  0  0
  144.5577  137.6934  152.6182 N   0  0  0  0  0  0  0  0  0  0  0  0
  143.8527  136.4574  152.3001 C   0  0  0  0  0  0  0  0  0  0  0  0
  144.3789  135.8250  151.0010 C   0  0  0  0  0  0  0  0  0  0  0  0
  144.6865  134.3488  151.1589 C   0  0  0  0  0  0  0  0  0  0  0  0
  145.8824  133.7713  151.0528 C   0  0  0  0  0  0  0  0  0  0  0  0
  145.8282  132.2826  151.2584 C   0  0  0  0  0  0  0  0  0  0  0  0
  144.3291  131.9923  151.4957 C   0  0  0  0  0  0  0  0  0  0  0  0
  143.5948  133.3512  151.4490 C   0  0  0  0  0  0  0  0  0  0  0  0
  146.1852  139.0452  153.2699 N   0  0  0  0  0  0  0  0  0  0  0  0
  147.4357  139.5622  153.7083 C   0  0  0  0  0  0  0  0  0  0  0  0
  148.5633  138.7661  154.0255 C   0  0  0  0  0  0  0  0  0  0  0  0
  149.7506  139.4086  154.4307 C   0  0  0  0  0  0  0  0  0  0  0  0
  149.8766  140.7490  154.5273 N   0  0  0  0  0  0  0  0  0  0  0  0
  148.8037  141.5051  154.2128 C   0  0  0  0  0  0  0  0  0  0  0  0
  147.5706  140.9641  153.7971 C   0  0  0  0  0  0  0  0  0  0  0  0
  146.5344  141.7821  153.4908 F   0  0  0  0  0  0  0  0  0  0  0  0
  144.0493  138.5545  152.4795 H   0  0  0  0  0  0  0  0  0  0  0  0
  143.9957  135.7667  153.1315 H   0  0  0  0  0  0  0  0  0  0  0  0
  142.7800  136.6461  152.2346 H   0  0  0  0  0  0  0  0  0  0  0  0
  143.6517  135.9425  150.1966 H   0  0  0  0  0  0  0  0  0  0  0  0
  145.2855  136.3405  150.6813 H   0  0  0  0  0  0  0  0  0  0  0  0
  146.8081  134.2875  150.8444 H   0  0  0  0  0  0  0  0  0  0  0  0
  146.2068  131.7640  150.3773 H   0  0  0  0  0  0  0  0  0  0  0  0
  146.4361  132.0003  152.1184 H   0  0  0  0  0  0  0  0  0  0  0  0
  143.9428  131.3222  150.7268 H   0  0  0  0  0  0  0  0  0  0  0  0
  144.1766  131.5019  152.4577 H   0  0  0  0  0  0  0  0  0  0  0  0
  143.1125  133.5759  152.4006 H   0  0  0  0  0  0  0  0  0  0  0  0
  142.8397  133.3747  150.6627 H   0  0  0  0  0  0  0  0  0  0  0  0
  145.4659  139.7383  153.1241 H   0  0  0  0  0  0  0  0  0  0  0  0
  148.5504  137.6897  153.9571 H   0  0  0  0  0  0  0  0  0  0  0  0
  150.6269  138.8277  154.6779 H   0  0  0  0  0  0  0  0  0  0  0  0
  148.9322  142.5745  154.2925 H   0  0  0  0  0  0  0  0  0  0  0  0
  1  2  2  0  0  0  0
  2  3  1  0  0  0  0
  2 11  1  0  0  0  0
  3  4  1  0  0  0  0
  3 19  1  0  0  0  0
  4  5  1  0  0  0  0
  4 20  1  0  0  0  0
  4 21  1  0  0  0  0
  5  6  1  0  0  0  0
  5 22  1  0  0  0  0
  5 23  1  0  0  0  0
  6 10  1  0  0  0  0
  6  7  2  0  0  0  0
  7  8  1  0  0  0  0
  7 24  1  0  0  0  0
  8  9  1  0  0  0  0
  8 25  1  0  0  0  0
  8 26  1  0  0  0  0
  9 10  1  0  0  0  0
  9 27  1  0  0  0  0
  9 28  1  0  0  0  0
 10 29  1  0  0  0  0
 10 30  1  0  0  0  0
 11 12  1  0  0  0  0
 11 31  1  0  0  0  0
 12 17  1  0  0  0  0
 12 13  2  0  0  0  0
 13 14  1  0  0  0  0
 13 32  1  0  0  0  0
 14 15  2  0  0  0  0
 14 33  1  0  0  0  0
 15 16  1  0  0  0  0
 16 17  2  0  0  0  0
 16 34  1  0  0  0  0
 17 18  1  0  0  0  0
M  END
> <s_m_source_file>
AV-unprocessed.smi

> <i_m_source_file_index>
2343

> <i_lp_mmshare_version>
43012

> <i_f3d_flags>
0

> <s_epik_input>
RmMxW2NIXW5bY0hdW2NIXWMxW05IXUMoPU8pW05IXVtDSDJdW0NIMl1DMj1bQ0hdW0NIMl1bQ0gyXVtDSDJdMg==

> <s_epik_cmdline>
J2VwaWtfcHl0aG9uJywgJy1waCcsICc3LjAnLCAnLXRuJywgJzgnLCAnLW1hJywgJzIwMCcsICctbWV0YWxfYmluZGluZycsICctaW1hZScsICc8aW5maWxlLm1hZT4nLCAnLW9tYWUnLCAnPG91dGZpbGUubWFlPic=

> <r_epik_Ionization_Penalty>
0.0031801

> <r_epik_Ionization_Penalty_Charging>
0

> <r_epik_Ionization_Penalty_Neutral>
0.0031801

> <r_epik_State_Penalty>
0.0022135

> <r_epik_Charging_Adjusted_Penalty>
0.0022135

> <i_epik_Tot_Q>
0

> <i_epik_Tot_abs_Q>
0

> <r_epik_Metal_State_Penalty>
-0

> <b_epik_Metal_Only>
0

> <s_lp_Force_Field>
OPLS_2005

> <r_lp_Energy>
22.6316

> <b_lp_Chiralities_Consistent>
1

> <s_lp_Variant>
AV-unprocessed.smi:2343-1

> <Gold.Version>
5.8.1

> <Gold.Id.Protein>
6NUR|6NUR_protein|mol2

> <Gold.PLP.Fitness>
43.3918

> <Gold.PLP.PLP>
-33.3880

> <Gold.PLP.part.hbond>
-4.0000

> <Gold.PLP.part.metal>
0.0000

> <Gold.PLP.part.buried>
-3.2789

> <Gold.PLP.part.nonpolar>
-28.6738

> <Gold.PLP.part.repulsive>
2.0124

> <Gold.PLP.ligand.clash>
0.0000

> <Gold.PLP.ligand.torsion>
0.4375

> <Gold.PLP.Chemscore.Hbond>
2.6256

> <Gold.PLP.Chemscore.CHOScore>
1.0000

> <Gold.PLP.Chemscore.Metal>
0.0000

> <Gold.Chemscore.Hbonds>
donor molecule, donor type, donor heavy atom, donor atom, acceptor molecule, acceptor atom, score
      L1  H     3    19       P1 10175  1.00
      L1  H    11    31       P1 10175  0.99
      P1  H  7989  7998       L1    15  0.61
      L1  C    16    34       P1  8028  1.00

> <Gold.PLP.Chemscore.Internal.Correction>
0.0021

> <Gold.Rescore>
     Score         DG    S(hbond)    S(metal)    S(lipo)     H(rot)  DE(clash)    DE(int)     intcor
     14.43     -17.49       1.96        0.00      77.97       1.43       1.48       1.57       ----

> <Gold.Chemscore.Fitness>
14.4318

> <Gold.Chemscore.DG>
-17.4866

> <Gold.Chemscore.ZeroCoef>
-5.4800

> <Gold.Chemscore.Hbond>
1.9584

> <Gold.Chemscore.Metal>
0.0000

> <Gold.Chemscore.Lipo>
77.9651

> <Gold.Chemscore.Internal_Hbond>
0.0000

> <Gold.Chemscore.DEClash>
1.4819

> <Gold.Chemscore.DEInternal>
1.5729

> <Gold.Chemscore.Rot>
1.4282

> <Gold.Chemscore.Internal.Correction>
   9.000000E+99

> <Gold.Chemscore.Hbonds>
donor molecule, donor type, donor heavy atom, donor atom, acceptor molecule, acceptor atom, score
      L1  H     3    19       P1 10175  0.99
      L1  H    11    31       P1 10175  0.91
      P1  H  7989  7998       L1    15  0.10

> <Gold.Chemscore.Hbond.Weighted>
-6.5409

> <Gold.Chemscore.Metal.Weighted>
-0.0000

> <Gold.Chemscore.Lipo.Weighted>
-9.1219

> <Gold.Chemscore.Internal_Hbond.Weighted>
0.0000

> <Gold.Chemscore.DEClash.Weighted>
1.4819

> <Gold.Chemscore.DEInternal.Weighted>
1.5729

> <Gold.Chemscore.Rot.Weighted>
3.6563

> <Gold.Chemscore.Internal.Correction.Weighted>
   9.000000E+99

> <Gold.Protein.RotatedTorsions>
[ 6907 6896 6895 6894 ] final  110.83 input  -60.11 | X-H torsion
[ 7974 7965 7964 7962 ] final    7.78 input  175.53 | X-H torsion
[ 8008 7997 7996 7995 ] final  -35.98 input   59.86 | X-H torsion
[ 10167 10162 10161 10158 ] final   99.17 input  -65.29 | X-H torsion
[ 10718 10713 10712 10709 ] final   99.27 input   66.30 | X-H torsion
[ 10763 10752 10751 10750 ] final -116.38 input  -60.55 | X-H torsion
[ 11005 11000 10999 10996 ] final -100.04 input  -57.11 | X-H torsion

> <Gold.Protein.ActiveResidues>
 VAL166  LYS551  ARG553  GLY616  TRP617  ASP618  TYR619  PRO620  LYS621  CYS622 
 ASP623  PHE694  ASN695  SER759  ASP760  ASP761  ALA762  ILE779  LEU786  VAL792 
 PHE793  MET794  SER795  GLU796  ALA797  LYS798  CYS799  TRP800  GLU811  SER814 

> <Gold.Protein.RotatedAtoms>
  152.5000  133.8744  159.7314 H   0  0  0  0  0  0  0  0  0  0  0  0  # atno 6907 bound_to 6896
  150.9222  133.6858  159.2836 H   0  0  0  0  0  0  0  0  0  0  0  0  # atno 6908 bound_to 6896
  151.4231  135.1005  159.9672 H   0  0  0  0  0  0  0  0  0  0  0  0  # atno 6909 bound_to 6896
  146.2423  140.0031  142.8414 H   0  0  0  0  0  0  0  0  0  0  0  0  # atno 7974 bound_to 7965
  154.4083  140.1643  156.2299 H   0  0  0  0  0  0  0  0  0  0  0  0  # atno 8008 bound_to 7997
  155.9291  140.3416  155.6212 H   0  0  0  0  0  0  0  0  0  0  0  0  # atno 8009 bound_to 7997
  155.7128  140.0759  157.2354 H   0  0  0  0  0  0  0  0  0  0  0  0  # atno 8010 bound_to 7997
  139.7642  144.6944  151.0249 H   0  0  0  0  0  0  0  0  0  0  0  0  # atno 10167 bound_to 10162
  157.6879  131.0665  150.4923 H   0  0  0  0  0  0  0  0  0  0  0  0  # atno 10718 bound_to 10713
  154.8517  135.4348  154.1811 H   0  0  0  0  0  0  0  0  0  0  0  0  # atno 10763 bound_to 10752
  153.2902  135.6961  153.7306 H   0  0  0  0  0  0  0  0  0  0  0  0  # atno 10764 bound_to 10752
  153.6477  135.3457  155.3065 H   0  0  0  0  0  0  0  0  0  0  0  0  # atno 10765 bound_to 10752
  141.1286  133.8368  157.1051 H   0  0  0  0  0  0  0  0  0  0  0  0  # atno 11005 bound_to 11000
  145.1396  140.9564  143.4496 LP  0  0  0  0  0  0  0  0  0  0  0  0  # atno 17320 bound_to 7965
  145.0308  139.3342  143.6025 LP  0  0  0  0  0  0  0  0  0  0  0  0  # atno 17321 bound_to 7965
  140.7809  143.4662  151.0209 LP  0  0  0  0  0  0  0  0  0  0  0  0  # atno 17342 bound_to 10162
  139.8348  143.7643  152.3180 LP  0  0  0  0  0  0  0  0  0  0  0  0  # atno 17343 bound_to 10162
  156.5249  130.4170  149.6231 LP  0  0  0  0  0  0  0  0  0  0  0  0  # atno 17370 bound_to 10713
  156.3121  130.7235  151.2130 LP  0  0  0  0  0  0  0  0  0  0  0  0  # atno 17371 bound_to 10713
  140.0309  134.9901  157.0779 LP  0  0  0  0  0  0  0  0  0  0  0  0  # atno 17394 bound_to 11000
  140.4286  134.1804  155.7167 LP  0  0  0  0  0  0  0  0  0  0  0  0  # atno 17395 bound_to 11000

$$$$
