AV-unprocessed.smi:100|AV-procd|sdf|903|dock2
  -GOLD-   2262017403D 1   1.00000     0.00000
 Structure written by MMmdl.
 31 33  0  0  0  0  0  0  0  0  1 V2000
  148.0817  139.9554  153.7106 N   0  0  0  0  0  0  0  0  0  0  0  0
  148.3086  140.0552  155.0277 C   0  0  0  0  0  0  0  0  0  0  0  0
  147.2575  139.9369  155.8725 N   0  0  0  0  0  0  0  0  0  0  0  0
  147.4570  140.0363  157.1910 C   0  0  0  0  0  0  0  0  0  0  0  0
  148.6006  140.2441  157.8499 N   0  0  0  0  0  0  0  0  0  0  0  0
  149.6593  140.3573  156.9952 C   0  0  0  0  0  0  0  0  0  0  0  0
  149.5962  140.2801  155.5768 C   0  0  0  0  0  0  0  0  0  0  0  0
  150.8633  140.4548  155.0379 N   0  0  0  0  0  0  0  0  0  0  0  0
  151.6275  140.6318  156.0825 C   0  0  0  0  0  0  0  0  0  0  0  0
  150.9876  140.5625  157.3038 N   0  0  0  0  0  0  0  0  0  0  0  0
  151.5544  140.7363  158.6798 C   0  0  2  0  0  0  0  0  0  0  0  0
  150.8466  141.7673  159.3108 O   0  0  0  0  0  0  0  0  0  0  0  0
  151.6526  142.9381  159.4555 C   0  0  2  0  0  0  0  0  0  0  0  0
  151.5112  143.8727  158.2371 C   0  0  0  0  0  0  0  0  0  0  0  0
  150.1770  143.8695  157.7775 O   0  0  0  0  0  0  0  0  0  0  0  0
  153.0525  142.3432  159.5969 C   0  0  1  0  0  0  0  0  0  0  0  0
  153.1778  141.9043  160.8526 F   0  0  0  0  0  0  0  0  0  0  0  0
  153.0249  141.1854  158.6106 C   0  0  1  0  0  0  0  0  0  0  0  0
  153.9491  140.1827  158.9843 O   0  0  0  0  0  0  0  0  0  0  0  0
  148.8498  140.0414  153.0605 H   0  0  0  0  0  0  0  0  0  0  0  0
  147.1445  139.7956  153.3713 H   0  0  0  0  0  0  0  0  0  0  0  0
  146.5751  139.9334  157.8056 H   0  0  0  0  0  0  0  0  0  0  0  0
  152.6884  140.8117  155.9843 H   0  0  0  0  0  0  0  0  0  0  0  0
  151.3855  139.7819  159.1805 H   0  0  0  0  0  0  0  0  0  0  0  0
  151.3770  143.4779  160.3629 H   0  0  0  0  0  0  0  0  0  0  0  0
  151.7483  144.8966  158.5271 H   0  0  0  0  0  0  0  0  0  0  0  0
  152.1902  143.6108  157.4268 H   0  0  0  0  0  0  0  0  0  0  0  0
  150.0863  144.5339  157.1115 H   0  0  0  0  0  0  0  0  0  0  0  0
  153.8581  143.0550  159.4147 H   0  0  0  0  0  0  0  0  0  0  0  0
  153.2566  141.5497  157.6084 H   0  0  0  0  0  0  0  0  0  0  0  0
  153.5050  139.3480  158.9665 H   0  0  0  0  0  0  0  0  0  0  0  0
  1  2  1  0  0  0  0
  1 20  1  0  0  0  0
  1 21  1  0  0  0  0
  2  7  1  0  0  0  0
  2  3  2  0  0  0  0
  3  4  1  0  0  0  0
  4  5  2  0  0  0  0
  4 22  1  0  0  0  0
  5  6  1  0  0  0  0
  6 10  1  0  0  0  0
  6  7  2  0  0  0  0
  7  8  1  0  0  0  0
  8  9  2  0  0  0  0
  9 10  1  0  0  0  0
  9 23  1  0  0  0  0
 10 11  1  0  0  0  0
 11 18  1  0  0  0  0
 11 12  1  0  0  0  0
 11 24  1  0  0  0  0
 12 13  1  0  0  0  0
 13 14  1  0  0  0  0
 13 16  1  0  0  0  0
 13 25  1  0  0  0  0
 14 15  1  0  0  0  0
 14 26  1  0  0  0  0
 14 27  1  0  0  0  0
 15 28  1  0  0  0  0
 16 17  1  0  0  0  0
 16 18  1  0  0  0  0
 16 29  1  0  0  0  0
 18 19  1  0  0  0  0
 18 30  1  0  0  0  0
 19 31  1  0  0  0  0
M  END
> <s_m_source_file>
AV-unprocessed.smi

> <i_m_source_file_index>
100

> <i_lp_mmshare_version>
43012

> <i_f3d_flags>
0

> <s_epik_input>
bjFbY0hdbmMoW05IMl0pYyhjMTIpbltjSF1uMltDQEBIXTNPW0NAQEhdKFtDSDJdW09IXSlbQ0BIXShGKVtDQEhdM1tPSF0=

> <s_epik_cmdline>
J2VwaWtfcHl0aG9uJywgJy1waCcsICc3LjAnLCAnLXRuJywgJzgnLCAnLW1hJywgJzIwMCcsICctbWV0YWxfYmluZGluZycsICctaW1hZScsICc8aW5maWxlLm1hZT4nLCAnLW9tYWUnLCAnPG91dGZpbGUubWFlPic=

> <r_lp_tautomer_probability>
1

> <r_epik_Ionization_Penalty>
0.000750324

> <r_epik_Ionization_Penalty_Charging>
0

> <r_epik_Ionization_Penalty_Neutral>
0.000750324

> <r_epik_State_Penalty>
-0

> <r_epik_Charging_Adjusted_Penalty>
0

> <i_epik_Tot_Q>
0

> <i_epik_Tot_abs_Q>
0

> <r_epik_Metal_State_Penalty>
-0

> <b_epik_Metal_Only>
0

> <s_epik_Chemistry_Notes>
This compound contains an acetal/aminal-like group ( X-CH(R)-Y where X, Y are N, S, or O) that may be acid/base labile, releasing an aldehyde.

> <s_lp_Force_Field>
OPLS_2005

> <r_lp_Energy>
31.6472

> <b_lp_Chiralities_Consistent>
1

> <s_lp_Variant>
AV-unprocessed.smi:100-7

> <Gold.Version>
5.8.1

> <Gold.Id.Protein>
6NUR|6NUR_protein|mol2

> <Gold.PLP.Fitness>
38.6992

> <Gold.PLP.PLP>
-28.7185

> <Gold.PLP.part.hbond>
-5.7822

> <Gold.PLP.part.metal>
0.0000

> <Gold.PLP.part.buried>
-2.9977

> <Gold.PLP.part.nonpolar>
-19.6198

> <Gold.PLP.part.repulsive>
0.1326

> <Gold.PLP.ligand.clash>
0.0000

> <Gold.PLP.ligand.torsion>
0.3794

> <Gold.PLP.Chemscore.Hbond>
3.5688

> <Gold.PLP.Chemscore.CHOScore>
0.0000

> <Gold.PLP.Chemscore.Metal>
0.0000

> <Gold.Chemscore.Hbonds>
donor molecule, donor type, donor heavy atom, donor atom, acceptor molecule, acceptor atom, score
      L1  H     1    20       P1  7957  0.96
      L1  H    15    28       P1  8028  0.67
      P1  H  7989  7998       L1     8  1.00
      P1  H  7997  8008       L1    19  0.84

> <Gold.PLP.Chemscore.Internal.Correction>
0.0332

> <Gold.Rescore>
     Score         DG    S(hbond)    S(metal)    S(lipo)     H(rot)  DE(clash)    DE(int)     intcor
     10.89     -11.54       2.69        0.00      44.63       3.19       0.03       0.62       ----

> <Gold.Chemscore.Fitness>
10.8913

> <Gold.Chemscore.DG>
-11.5352

> <Gold.Chemscore.ZeroCoef>
-5.4800

> <Gold.Chemscore.Hbond>
2.6945

> <Gold.Chemscore.Metal>
0.0000

> <Gold.Chemscore.Lipo>
44.6340

> <Gold.Chemscore.Internal_Hbond>
0.0000

> <Gold.Chemscore.DEClash>
0.0285

> <Gold.Chemscore.DEInternal>
0.6155

> <Gold.Chemscore.Rot>
3.1901

> <Gold.Chemscore.Internal.Correction>
   9.000000E+99

> <Gold.Chemscore.Hbonds>
donor molecule, donor type, donor heavy atom, donor atom, acceptor molecule, acceptor atom, score
      L1  H     1    20       P1  7957  0.87
      L1  H    15    28       P1  8028  0.34
      P1  H  7989  7998       L1     8  0.85
      P1  H  7997  8008       L1    19  0.04

> <Gold.Chemscore.Hbond.Weighted>
-8.9997

> <Gold.Chemscore.Metal.Weighted>
-0.0000

> <Gold.Chemscore.Lipo.Weighted>
-5.2222

> <Gold.Chemscore.Internal_Hbond.Weighted>
0.0000

> <Gold.Chemscore.DEClash.Weighted>
0.0285

> <Gold.Chemscore.DEInternal.Weighted>
0.6155

> <Gold.Chemscore.Rot.Weighted>
8.1667

> <Gold.Chemscore.Internal.Correction.Weighted>
   9.000000E+99

> <Gold.Protein.RotatedTorsions>
[ 6907 6896 6895 6894 ] final -164.62 input  -60.11 | X-H torsion
[ 7974 7965 7964 7962 ] final  -67.02 input  175.53 | X-H torsion
[ 8008 7997 7996 7995 ] final -110.10 input   59.86 | X-H torsion
[ 10167 10162 10161 10158 ] final  136.39 input  -65.29 | X-H torsion
[ 10718 10713 10712 10709 ] final   45.17 input   66.30 | X-H torsion
[ 10763 10752 10751 10750 ] final   53.05 input  -60.55 | X-H torsion
[ 11005 11000 10999 10996 ] final -140.39 input  -57.11 | X-H torsion

> <Gold.Protein.ActiveResidues>
 VAL166  LYS551  ARG553  GLY616  TRP617  ASP618  TYR619  PRO620  LYS621  CYS622 
 ASP623  PHE694  ASN695  SER759  ASP760  ASP761  ALA762  ILE779  LEU786  VAL792 
 PHE793  MET794  SER795  GLU796  ALA797  LYS798  CYS799  TRP800  GLU811  SER814 

> <Gold.Protein.RotatedAtoms>
  151.4147  133.3716  159.2748 H   0  0  0  0  0  0  0  0  0  0  0  0  # atno 6907 bound_to 6896
  150.9337  134.8752  159.7578 H   0  0  0  0  0  0  0  0  0  0  0  0  # atno 6908 bound_to 6896
  152.5040  134.4093  159.9495 H   0  0  0  0  0  0  0  0  0  0  0  0  # atno 6909 bound_to 6896
  145.7345  140.8982  143.0563 H   0  0  0  0  0  0  0  0  0  0  0  0  # atno 7974 bound_to 7965
  154.9694  140.0398  157.2227 H   0  0  0  0  0  0  0  0  0  0  0  0  # atno 8008 bound_to 7997
  154.7815  140.2819  155.6038 H   0  0  0  0  0  0  0  0  0  0  0  0  # atno 8009 bound_to 7997
  156.2937  140.2591  156.2642 H   0  0  0  0  0  0  0  0  0  0  0  0  # atno 8010 bound_to 7997
  139.5182  144.6467  151.5419 H   0  0  0  0  0  0  0  0  0  0  0  0  # atno 10167 bound_to 10162
  157.4347  130.8045  149.7636 H   0  0  0  0  0  0  0  0  0  0  0  0  # atno 10718 bound_to 10713
  152.9792  135.5792  154.4679 H   0  0  0  0  0  0  0  0  0  0  0  0  # atno 10763 bound_to 10752
  154.4246  135.2772  155.1955 H   0  0  0  0  0  0  0  0  0  0  0  0  # atno 10764 bound_to 10752
  154.3689  135.6172  153.5783 H   0  0  0  0  0  0  0  0  0  0  0  0  # atno 10765 bound_to 10752
  140.8427  134.2382  157.4802 H   0  0  0  0  0  0  0  0  0  0  0  0  # atno 11005 bound_to 11000
  144.6885  139.9376  143.7474 LP  0  0  0  0  0  0  0  0  0  0  0  0  # atno 17320 bound_to 7965
  146.0507  139.3508  143.0641 LP  0  0  0  0  0  0  0  0  0  0  0  0  # atno 17321 bound_to 7965
  140.6255  143.9177  150.6561 LP  0  0  0  0  0  0  0  0  0  0  0  0  # atno 17342 bound_to 10162
  140.2464  143.3625  152.1443 LP  0  0  0  0  0  0  0  0  0  0  0  0  # atno 17343 bound_to 10162
  155.9926  130.3930  150.2936 LP  0  0  0  0  0  0  0  0  0  0  0  0  # atno 17370 bound_to 10713
  157.1095  131.0217  151.3053 LP  0  0  0  0  0  0  0  0  0  0  0  0  # atno 17371 bound_to 10713
  139.8703  134.9643  156.4492 LP  0  0  0  0  0  0  0  0  0  0  0  0  # atno 17394 bound_to 11000
  140.8877  133.7871  155.9537 LP  0  0  0  0  0  0  0  0  0  0  0  0  # atno 17395 bound_to 11000

$$$$
