AV-unprocessed.smi:1747|AV-procd|sdf|7035|dock10
  -GOLD-   22720 8253D 1   1.00000     0.00000
 Structure written by MMmdl.
 40 41  0  0  0  0  0  0  0  0  1 V2000
  153.1047  143.3339  162.6532 C   0  0  0  0  0  0  0  0  0  0  0  0
  152.2674  143.3155  161.3723 C   0  0  0  0  0  0  0  0  0  0  0  0
  151.2848  144.0549  161.3151 O   0  0  0  0  0  0  0  0  0  0  0  0
  152.6270  142.4948  160.3560 N   0  0  0  0  0  0  0  0  0  0  0  0
  153.7682  141.5659  160.3718 C   0  0  0  0  0  0  0  0  0  0  0  0
  153.2419  140.1222  160.2497 C   0  0  0  0  0  0  0  0  0  0  0  0
  152.4691  139.9998  158.9982 N   0  0  0  0  0  0  0  0  0  0  0  0
  152.7857  139.2335  157.9233 C   0  0  0  0  0  0  0  0  0  0  0  0
  153.9196  138.8033  157.7080 O   0  0  0  0  0  0  0  0  0  0  0  0
  151.7631  138.9840  157.0912 N   0  0  0  0  0  0  0  0  0  0  0  0
  151.8589  138.2318  155.8464 C   0  0  0  0  0  0  0  0  0  0  0  0
  151.6239  139.1284  154.6172 C   0  0  0  0  0  0  0  0  0  0  0  0
  150.1763  139.4502  154.3767 C   0  0  0  0  0  0  0  0  0  0  0  0
  149.1702  138.5572  154.1047 C   0  0  0  0  0  0  0  0  0  0  0  0
  147.6404  139.3548  153.8607 S   0  0  0  0  0  0  0  0  0  0  0  0
  148.4355  140.8985  154.1417 C   0  0  0  0  0  0  0  0  0  0  0  0
  147.7210  142.2051  154.0935 C   0  0  0  0  0  0  0  0  0  0  0  0
  149.7404  140.7797  154.3971 N   0  0  0  0  0  0  0  0  0  0  0  0
  151.3249  140.9241  158.9903 C   0  0  0  0  0  0  0  0  0  0  0  0
  151.8429  142.3709  159.1176 C   0  0  0  0  0  0  0  0  0  0  0  0
  153.1242  142.3469  163.1160 H   0  0  0  0  0  0  0  0  0  0  0  0
  152.6828  144.0314  163.3776 H   0  0  0  0  0  0  0  0  0  0  0  0
  154.1271  143.6501  162.4439 H   0  0  0  0  0  0  0  0  0  0  0  0
  154.4266  141.7971  159.5328 H   0  0  0  0  0  0  0  0  0  0  0  0
  154.3881  141.6486  161.2628 H   0  0  0  0  0  0  0  0  0  0  0  0
  154.0779  139.4276  160.3287 H   0  0  0  0  0  0  0  0  0  0  0  0
  152.5909  139.8882  161.0936 H   0  0  0  0  0  0  0  0  0  0  0  0
  150.8579  139.3676  157.3227 H   0  0  0  0  0  0  0  0  0  0  0  0
  152.8510  137.7818  155.7848 H   0  0  0  0  0  0  0  0  0  0  0  0
  151.1375  137.4136  155.8545 H   0  0  0  0  0  0  0  0  0  0  0  0
  152.1937  140.0503  154.7369 H   0  0  0  0  0  0  0  0  0  0  0  0
  152.0424  138.6401  153.7362 H   0  0  0  0  0  0  0  0  0  0  0  0
  149.2373  137.4821  154.0266 H   0  0  0  0  0  0  0  0  0  0  0  0
  148.3884  143.0189  154.3788 H   0  0  0  0  0  0  0  0  0  0  0  0
  146.8730  142.1922  154.7782 H   0  0  0  0  0  0  0  0  0  0  0  0
  147.3549  142.3913  153.0839 H   0  0  0  0  0  0  0  0  0  0  0  0
  150.7148  140.8354  158.0906 H   0  0  0  0  0  0  0  0  0  0  0  0
  150.6630  140.6848  159.8241 H   0  0  0  0  0  0  0  0  0  0  0  0
  150.9995  143.0616  159.0798 H   0  0  0  0  0  0  0  0  0  0  0  0
  152.4755  142.6226  158.2652 H   0  0  0  0  0  0  0  0  0  0  0  0
  1  2  1  0  0  0  0
  1 21  1  0  0  0  0
  1 22  1  0  0  0  0
  1 23  1  0  0  0  0
  2  3  2  0  0  0  0
  2  4  1  0  0  0  0
  4 20  1  0  0  0  0
  4  5  1  0  0  0  0
  5  6  1  0  0  0  0
  5 24  1  0  0  0  0
  5 25  1  0  0  0  0
  6  7  1  0  0  0  0
  6 26  1  0  0  0  0
  6 27  1  0  0  0  0
  7  8  1  0  0  0  0
  7 19  1  0  0  0  0
  8  9  2  0  0  0  0
  8 10  1  0  0  0  0
 10 11  1  0  0  0  0
 10 28  1  0  0  0  0
 11 12  1  0  0  0  0
 11 29  1  0  0  0  0
 11 30  1  0  0  0  0
 12 13  1  0  0  0  0
 12 31  1  0  0  0  0
 12 32  1  0  0  0  0
 13 18  1  0  0  0  0
 13 14  2  0  0  0  0
 14 15  1  0  0  0  0
 14 33  1  0  0  0  0
 15 16  1  0  0  0  0
 16 17  1  0  0  0  0
 16 18  2  0  0  0  0
 17 34  1  0  0  0  0
 17 35  1  0  0  0  0
 17 36  1  0  0  0  0
 19 20  1  0  0  0  0
 19 37  1  0  0  0  0
 19 38  1  0  0  0  0
 20 39  1  0  0  0  0
 20 40  1  0  0  0  0
M  END
> <s_m_source_file>
AV-unprocessed.smi

> <i_m_source_file_index>
1747

> <i_lp_mmshare_version>
43012

> <i_f3d_flags>
0

> <s_epik_input>
W0NIM11DKD1PKU4xW0NIMl1bQ0gyXU4oW0NIMl1bQ0gyXTEpQyg9TylbTkhdW0NIMl1bQ0gyXWMyW2NIXXNjKG4yKVtDSDNd

> <s_epik_cmdline>
J2VwaWtfcHl0aG9uJywgJy1waCcsICc3LjAnLCAnLXRuJywgJzgnLCAnLW1hJywgJzIwMCcsICctbWV0YWxfYmluZGluZycsICctaW1hZScsICc8aW5maWxlLm1hZT4nLCAnLW9tYWUnLCAnPG91dGZpbGUubWFlPic=

> <r_epik_Ionization_Penalty>
0.00199956

> <r_epik_Ionization_Penalty_Charging>
0

> <r_epik_Ionization_Penalty_Neutral>
0.00199956

> <r_epik_State_Penalty>
0.00133382

> <r_epik_Charging_Adjusted_Penalty>
0.00133382

> <i_epik_Tot_Q>
0

> <i_epik_Tot_abs_Q>
0

> <r_epik_Metal_State_Penalty>
-0

> <b_epik_Metal_Only>
0

> <s_lp_Force_Field>
OPLS_2005

> <r_lp_Energy>
44.3218

> <b_lp_Chiralities_Consistent>
1

> <s_lp_Variant>
AV-unprocessed.smi:1747-1

> <Gold.Version>
5.8.1

> <Gold.Id.Protein>
6NUR|6NUR_protein|mol2

> <Gold.PLP.Fitness>
47.1924

> <Gold.PLP.PLP>
-42.2223

> <Gold.PLP.part.hbond>
-2.0310

> <Gold.PLP.part.metal>
0.0000

> <Gold.PLP.part.buried>
-1.5496

> <Gold.PLP.part.nonpolar>
-37.2112

> <Gold.PLP.part.repulsive>
0.3721

> <Gold.PLP.ligand.clash>
0.0000

> <Gold.PLP.ligand.torsion>
0.3123

> <Gold.PLP.Chemscore.Hbond>
1.0000

> <Gold.PLP.Chemscore.CHOScore>
0.8582

> <Gold.PLP.Chemscore.Metal>
0.0000

> <Gold.Chemscore.Hbonds>
donor molecule, donor type, donor heavy atom, donor atom, acceptor molecule, acceptor atom, score
      P1  H  7997  8009       L1     9  1.00
      L1  C    14    33       P1  7948  0.86

> <Gold.PLP.Chemscore.Internal.Correction>
0.0199

> <Gold.Rescore>
     Score         DG    S(hbond)    S(metal)    S(lipo)     H(rot)  DE(clash)    DE(int)     intcor
     14.49     -15.16       0.69        0.00      93.04       1.38       0.39       0.28       ----

> <Gold.Chemscore.Fitness>
14.4886

> <Gold.Chemscore.DG>
-15.1571

> <Gold.Chemscore.ZeroCoef>
-5.4800

> <Gold.Chemscore.Hbond>
0.6949

> <Gold.Chemscore.Metal>
0.0000

> <Gold.Chemscore.Lipo>
93.0372

> <Gold.Chemscore.Internal_Hbond>
0.0000

> <Gold.Chemscore.DEClash>
0.3904

> <Gold.Chemscore.DEInternal>
0.2780

> <Gold.Chemscore.Rot>
1.3786

> <Gold.Chemscore.Internal.Correction>
   9.000000E+99

> <Gold.Chemscore.Hbonds>
donor molecule, donor type, donor heavy atom, donor atom, acceptor molecule, acceptor atom, score
      P1  H  7997  8009       L1     9  0.28

> <Gold.Chemscore.Hbond.Weighted>
-2.3209

> <Gold.Chemscore.Metal.Weighted>
-0.0000

> <Gold.Chemscore.Lipo.Weighted>
-10.8854

> <Gold.Chemscore.Internal_Hbond.Weighted>
0.0000

> <Gold.Chemscore.DEClash.Weighted>
0.3904

> <Gold.Chemscore.DEInternal.Weighted>
0.2780

> <Gold.Chemscore.Rot.Weighted>
3.5291

> <Gold.Chemscore.Internal.Correction.Weighted>
   9.000000E+99

> <Gold.Protein.RotatedTorsions>
[ 6907 6896 6895 6894 ] final  151.62 input  -60.11 | X-H torsion
[ 7974 7965 7964 7962 ] final  -31.64 input  175.53 | X-H torsion
[ 8008 7997 7996 7995 ] final  160.59 input   59.86 | X-H torsion
[ 10167 10162 10161 10158 ] final  -65.67 input  -65.29 | X-H torsion
[ 10718 10713 10712 10709 ] final   32.66 input   66.30 | X-H torsion
[ 10763 10752 10751 10750 ] final -156.14 input  -60.55 | X-H torsion
[ 11005 11000 10999 10996 ] final   57.82 input  -57.11 | X-H torsion

> <Gold.Protein.ActiveResidues>
 VAL166  LYS551  ARG553  GLY616  TRP617  ASP618  TYR619  PRO620  LYS621  CYS622 
 ASP623  PHE694  ASN695  SER759  ASP760  ASP761  ALA762  ILE779  LEU786  VAL792 
 PHE793  MET794  SER795  GLU796  ALA797  LYS798  CYS799  TRP800  GLU811  SER814 

> <Gold.Protein.RotatedAtoms>
  152.0981  133.4235  159.4574 H   0  0  0  0  0  0  0  0  0  0  0  0  # atno 6907 bound_to 6896
  150.6863  134.2792  159.4629 H   0  0  0  0  0  0  0  0  0  0  0  0  # atno 6908 bound_to 6896
  152.0650  134.9570  160.0625 H   0  0  0  0  0  0  0  0  0  0  0  0  # atno 6909 bound_to 6896
  146.1051  140.5693  142.8803 H   0  0  0  0  0  0  0  0  0  0  0  0  # atno 7974 bound_to 7965
  156.2161  140.1800  156.7585 H   0  0  0  0  0  0  0  0  0  0  0  0  # atno 8008 bound_to 7997
  154.5794  140.0669  156.9111 H   0  0  0  0  0  0  0  0  0  0  0  0  # atno 8009 bound_to 7997
  155.2529  140.3330  155.4283 H   0  0  0  0  0  0  0  0  0  0  0  0  # atno 8010 bound_to 7997
  140.5713  143.2318  151.6533 H   0  0  0  0  0  0  0  0  0  0  0  0  # atno 10167 bound_to 10162
  157.2880  130.7288  149.6594 H   0  0  0  0  0  0  0  0  0  0  0  0  # atno 10718 bound_to 10713
  154.7735  135.3152  154.8140 H   0  0  0  0  0  0  0  0  0  0  0  0  # atno 10763 bound_to 10752
  153.8869  135.6829  153.4767 H   0  0  0  0  0  0  0  0  0  0  0  0  # atno 10764 bound_to 10752
  153.1354  135.4762  154.9349 H   0  0  0  0  0  0  0  0  0  0  0  0  # atno 10765 bound_to 10752
  140.0423  134.5855  155.9366 H   0  0  0  0  0  0  0  0  0  0  0  0  # atno 11005 bound_to 11000
  144.7464  140.5080  143.6832 LP  0  0  0  0  0  0  0  0  0  0  0  0  # atno 17320 bound_to 7965
  145.5776  139.1487  143.3253 LP  0  0  0  0  0  0  0  0  0  0  0  0  # atno 17321 bound_to 7965
  139.5119  144.3494  152.0666 LP  0  0  0  0  0  0  0  0  0  0  0  0  # atno 17342 bound_to 10162
  140.2632  144.4044  150.6178 LP  0  0  0  0  0  0  0  0  0  0  0  0  # atno 17343 bound_to 10162
  155.9666  130.4317  150.4934 LP  0  0  0  0  0  0  0  0  0  0  0  0  # atno 17370 bound_to 10713
  157.2891  131.0622  151.2146 LP  0  0  0  0  0  0  0  0  0  0  0  0  # atno 17371 bound_to 10713
  141.1889  133.6564  156.5346 LP  0  0  0  0  0  0  0  0  0  0  0  0  # atno 17394 bound_to 11000
  140.4048  134.7324  157.4801 LP  0  0  0  0  0  0  0  0  0  0  0  0  # atno 17395 bound_to 11000

$$$$
