AV-unprocessed.smi:3287|AV-procd|sdf|12600|dock6
  -GOLD-   2272018523D 1   1.00000     0.00000
 Structure written by MMmdl.
 43 44  0  0  0  0  0  0  0  0  2 V2000
  151.3962  145.1971  159.9917 C   0  0  0  0  0  0  0  0  0  0  0  0
  152.5285  144.4054  159.3067 C   0  0  2  0  0  0  0  0  0  0  0  0
  152.7725  144.8940  157.8641 C   0  0  0  0  0  0  0  0  0  0  0  0
  151.6577  144.4567  156.8981 C   0  0  0  0  0  0  0  0  0  0  0  0
  151.4603  142.9271  156.9197 C   0  0  2  0  0  0  0  0  0  0  0  0
  150.3458  142.5093  156.0412 N   0  3  0  0  0  0  0  0  0  0  0  0
  149.7951  141.1645  156.3161 C   0  0  0  0  0  0  0  0  0  0  0  0
  148.9204  140.6664  155.1528 C   0  0  2  0  0  0  0  0  0  0  0  0
  149.6530  140.7855  153.9482 O   0  0  0  0  0  0  0  0  0  0  0  0
  147.6057  141.4281  155.0917 C   0  0  0  0  0  0  0  0  0  0  0  0
  147.2872  142.2171  153.9665 C   0  0  0  0  0  0  0  0  0  0  0  0
  146.0537  142.8990  153.9486 C   0  0  0  0  0  0  0  0  0  0  0  0
  145.1560  142.8343  154.9550 N   0  0  0  0  0  0  0  0  0  0  0  0
  145.4641  142.0761  156.0286 C   0  0  0  0  0  0  0  0  0  0  0  0
  146.6691  141.3550  156.1458 C   0  0  0  0  0  0  0  0  0  0  0  0
  151.2034  142.4355  158.3563 C   0  0  0  0  0  0  0  0  0  0  0  0
  152.3278  142.8685  159.3187 C   0  0  2  0  0  0  0  0  0  0  0  0
  152.1262  142.2912  160.7295 C   0  0  0  0  0  0  0  0  0  0  0  0
  150.4250  145.0077  159.5356 H   0  0  0  0  0  0  0  0  0  0  0  0
  151.5820  146.2698  159.9313 H   0  0  0  0  0  0  0  0  0  0  0  0
  151.3189  144.9498  161.0502 H   0  0  0  0  0  0  0  0  0  0  0  0
  153.4365  144.6207  159.8718 H   0  0  0  0  0  0  0  0  0  0  0  0
  152.8772  145.9794  157.8461 H   0  0  0  0  0  0  0  0  0  0  0  0
  153.7238  144.4960  157.5084 H   0  0  0  0  0  0  0  0  0  0  0  0
  150.7246  144.9568  157.1602 H   0  0  0  0  0  0  0  0  0  0  0  0
  151.9124  144.7946  155.8937 H   0  0  0  0  0  0  0  0  0  0  0  0
  152.3729  142.4472  156.5625 H   0  0  0  0  0  0  0  0  0  0  0  0
  149.5901  143.1671  156.1722 H   0  0  0  0  0  0  0  0  0  0  0  0
  150.6190  140.4680  156.4721 H   0  0  0  0  0  0  0  0  0  0  0  0
  149.2155  141.1871  157.2403 H   0  0  0  0  0  0  0  0  0  0  0  0
  148.6996  139.6074  155.2960 H   0  0  0  0  0  0  0  0  0  0  0  0
  149.1040  140.4984  153.2338 H   0  0  0  0  0  0  0  0  0  0  0  0
  147.9678  142.3015  153.1321 H   0  0  0  0  0  0  0  0  0  0  0  0
  145.7805  143.5115  153.1023 H   0  0  0  0  0  0  0  0  0  0  0  0
  144.7282  142.0416  156.8182 H   0  0  0  0  0  0  0  0  0  0  0  0
  146.8640  140.7598  157.0260 H   0  0  0  0  0  0  0  0  0  0  0  0
  150.2429  142.8088  158.7131 H   0  0  0  0  0  0  0  0  0  0  0  0
  151.1240  141.3474  158.3576 H   0  0  0  0  0  0  0  0  0  0  0  0
  153.2532  142.4292  158.9420 H   0  0  0  0  0  0  0  0  0  0  0  0
  151.1760  142.6030  161.1631 H   0  0  0  0  0  0  0  0  0  0  0  0
  152.9235  142.6087  161.4021 H   0  0  0  0  0  0  0  0  0  0  0  0
  152.1316  141.2011  160.7078 H   0  0  0  0  0  0  0  0  0  0  0  0
  150.6479  142.5585  155.0789 H   0  0  0  0  0  0  0  0  0  0  0  0
  1  2  1  0  0  0  0
  1 19  1  0  0  0  0
  1 20  1  0  0  0  0
  1 21  1  0  0  0  0
  2 17  1  0  0  0  0
  2  3  1  0  0  0  0
  2 22  1  0  0  0  0
  3  4  1  0  0  0  0
  3 23  1  0  0  0  0
  3 24  1  0  0  0  0
  4  5  1  0  0  0  0
  4 25  1  0  0  0  0
  4 26  1  0  0  0  0
  5  6  1  0  0  0  0
  5 16  1  0  0  0  0
  5 27  1  0  0  0  0
  6  7  1  0  0  0  0
  6 28  1  0  0  0  0
  6 43  1  0  0  0  0
  7  8  1  0  0  0  0
  7 29  1  0  0  0  0
  7 30  1  0  0  0  0
  8  9  1  0  0  0  0
  8 10  1  0  0  0  0
  8 31  1  0  0  0  0
  9 32  1  0  0  0  0
 10 15  1  0  0  0  0
 10 11  2  0  0  0  0
 11 12  1  0  0  0  0
 11 33  1  0  0  0  0
 12 13  2  0  0  0  0
 12 34  1  0  0  0  0
 13 14  1  0  0  0  0
 14 15  2  0  0  0  0
 14 35  1  0  0  0  0
 15 36  1  0  0  0  0
 16 17  1  0  0  0  0
 16 37  1  0  0  0  0
 16 38  1  0  0  0  0
 17 18  1  0  0  0  0
 17 39  1  0  0  0  0
 18 40  1  0  0  0  0
 18 41  1  0  0  0  0
 18 42  1  0  0  0  0
M  CHG  1   6   1
M  END
> <s_m_source_file>
AV-unprocessed.smi

> <i_m_source_file_index>
3287

> <i_lp_mmshare_version>
43012

> <i_f3d_flags>
0

> <s_epik_input>
W0NIM11bQ0BASF0xW0NIMl1bQ0gyXVtDQEhdKFtDSDJdW0NASF0xW0NIM10pW05IXVtDSDJdW0NASF0oW09IXSljMltjSF1bY0hdbltjSF1bY0hdMg==

> <s_epik_cmdline>
J2VwaWtfcHl0aG9uJywgJy1waCcsICc3LjAnLCAnLXRuJywgJzgnLCAnLW1hJywgJzIwMCcsICctbWV0YWxfYmluZGluZycsICctaW1hZScsICc8aW5maWxlLm1hZT4nLCAnLW9tYWUnLCAnPG91dGZpbGUubWFlPic=

> <r_lp_tautomer_probability>
1

> <r_epik_Ionization_Penalty>
0.00537262

> <r_epik_Ionization_Penalty_Charging>
0.00321624

> <r_epik_Ionization_Penalty_Neutral>
0.00215638

> <r_epik_State_Penalty>
-0

> <r_epik_Charging_Adjusted_Penalty>
0.00321624

> <i_epik_Tot_Q>
1

> <i_epik_Tot_abs_Q>
1

> <r_epik_Metal_State_Penalty>
-0

> <b_epik_Metal_Only>
0

> <s_lp_Force_Field>
OPLS_2005

> <r_lp_Energy>
17.0862

> <b_lp_Chiralities_Consistent>
1

> <s_lp_Variant>
AV-unprocessed.smi:3287-11

> <Gold.Version>
5.8.1

> <Gold.Id.Protein>
6NUR|6NUR_protein|mol2

> <Gold.PLP.Fitness>
48.9140

> <Gold.PLP.PLP>
-40.2590

> <Gold.PLP.part.hbond>
-3.7229

> <Gold.PLP.part.metal>
0.0000

> <Gold.PLP.part.buried>
-4.0592

> <Gold.PLP.part.nonpolar>
-31.9102

> <Gold.PLP.part.repulsive>
0.3343

> <Gold.PLP.ligand.clash>
0.0000

> <Gold.PLP.ligand.torsion>
0.3375

> <Gold.PLP.Chemscore.Hbond>
3.1032

> <Gold.PLP.Chemscore.CHOScore>
0.0000

> <Gold.PLP.Chemscore.Metal>
0.0000

> <Gold.Chemscore.Hbonds>
donor molecule, donor type, donor heavy atom, donor atom, acceptor molecule, acceptor atom, score
      L1  H     6    28       P1  8028  1.82
      L1  H     9    32       P1  7957  0.38
      P1  H  7989  7998       L1     9  0.51

> <Gold.PLP.Chemscore.Internal.Correction>
0.0203

> <Gold.Rescore>
     Score         DG    S(hbond)    S(metal)    S(lipo)     H(rot)  DE(clash)    DE(int)     intcor
     18.78     -22.00       1.98        0.00     126.29       1.90       2.72       0.50       ----

> <Gold.Chemscore.Fitness>
18.7770

> <Gold.Chemscore.DG>
-22.0001

> <Gold.Chemscore.ZeroCoef>
-5.4800

> <Gold.Chemscore.Hbond>
1.9811

> <Gold.Chemscore.Metal>
0.0000

> <Gold.Chemscore.Lipo>
126.2925

> <Gold.Chemscore.Internal_Hbond>
0.0000

> <Gold.Chemscore.DEClash>
2.7182

> <Gold.Chemscore.DEInternal>
0.5049

> <Gold.Chemscore.Rot>
1.9035

> <Gold.Chemscore.Internal.Correction>
   9.000000E+99

> <Gold.Chemscore.Hbonds>
donor molecule, donor type, donor heavy atom, donor atom, acceptor molecule, acceptor atom, score
      L1  H     6    28       P1  8028  0.90
      L1  H     9    32       P1  7957  0.38
      P1  H  7989  7998       L1     9  0.42

> <Gold.Chemscore.Hbond.Weighted>
-6.6167

> <Gold.Chemscore.Metal.Weighted>
-0.0000

> <Gold.Chemscore.Lipo.Weighted>
-14.7762

> <Gold.Chemscore.Internal_Hbond.Weighted>
0.0000

> <Gold.Chemscore.DEClash.Weighted>
2.7182

> <Gold.Chemscore.DEInternal.Weighted>
0.5049

> <Gold.Chemscore.Rot.Weighted>
4.8729

> <Gold.Chemscore.Internal.Correction.Weighted>
   9.000000E+99

> <Gold.Protein.RotatedTorsions>
[ 6907 6896 6895 6894 ] final  166.50 input  -60.11 | X-H torsion
[ 7974 7965 7964 7962 ] final   89.12 input  175.53 | X-H torsion
[ 8008 7997 7996 7995 ] final  -31.58 input   59.86 | X-H torsion
[ 10167 10162 10161 10158 ] final  149.34 input  -65.29 | X-H torsion
[ 10718 10713 10712 10709 ] final    3.87 input   66.30 | X-H torsion
[ 10763 10752 10751 10750 ] final  -74.14 input  -60.55 | X-H torsion
[ 11005 11000 10999 10996 ] final  161.09 input  -57.11 | X-H torsion

> <Gold.Protein.ActiveResidues>
 VAL166  LYS551  ARG553  GLY616  TRP617  ASP618  TYR619  PRO620  LYS621  CYS622 
 ASP623  PHE694  ASN695  SER759  ASP760  ASP761  ALA762  ILE779  LEU786  VAL792 
 PHE793  MET794  SER795  GLU796  ALA797  LYS798  CYS799  TRP800  GLU811  SER814 

> <Gold.Protein.RotatedAtoms>
  151.8780  133.3489  159.3756 H   0  0  0  0  0  0  0  0  0  0  0  0  # atno 6907 bound_to 6896
  150.7135  134.5047  159.5588 H   0  0  0  0  0  0  0  0  0  0  0  0  # atno 6908 bound_to 6896
  152.2593  134.8051  160.0484 H   0  0  0  0  0  0  0  0  0  0  0  0  # atno 6909 bound_to 6896
  145.5365  139.2286  143.2589 H   0  0  0  0  0  0  0  0  0  0  0  0  # atno 7974 bound_to 7965
  154.4209  140.1760  156.1590 H   0  0  0  0  0  0  0  0  0  0  0  0  # atno 8008 bound_to 7997
  155.9853  140.3374  155.6677 H   0  0  0  0  0  0  0  0  0  0  0  0  # atno 8009 bound_to 7997
  155.6445  140.0683  157.2598 H   0  0  0  0  0  0  0  0  0  0  0  0  # atno 8010 bound_to 7997
  139.4863  144.5609  151.7233 H   0  0  0  0  0  0  0  0  0  0  0  0  # atno 10167 bound_to 10162
  156.8842  130.5664  149.5652 H   0  0  0  0  0  0  0  0  0  0  0  0  # atno 10718 bound_to 10713
  154.4691  135.5874  153.6309 H   0  0  0  0  0  0  0  0  0  0  0  0  # atno 10763 bound_to 10752
  152.9832  135.6062  154.3389 H   0  0  0  0  0  0  0  0  0  0  0  0  # atno 10764 bound_to 10752
  154.3269  135.2843  155.2470 H   0  0  0  0  0  0  0  0  0  0  0  0  # atno 10765 bound_to 10752
  140.2124  134.8258  157.3134 H   0  0  0  0  0  0  0  0  0  0  0  0  # atno 11005 bound_to 11000
  146.2009  140.6184  142.9103 LP  0  0  0  0  0  0  0  0  0  0  0  0  # atno 17320 bound_to 7965
  144.7599  140.5396  143.6743 LP  0  0  0  0  0  0  0  0  0  0  0  0  # atno 17321 bound_to 7965
  140.5178  144.0925  150.6013 LP  0  0  0  0  0  0  0  0  0  0  0  0  # atno 17342 bound_to 10162
  140.3873  143.2771  152.0101 LP  0  0  0  0  0  0  0  0  0  0  0  0  # atno 17343 bound_to 10162
  156.0661  130.5704  150.9292 LP  0  0  0  0  0  0  0  0  0  0  0  0  # atno 17370 bound_to 10713
  157.6122  131.0935  150.8774 LP  0  0  0  0  0  0  0  0  0  0  0  0  # atno 17371 bound_to 10713
  140.1937  134.4340  155.7701 LP  0  0  0  0  0  0  0  0  0  0  0  0  # atno 17394 bound_to 11000
  141.2226  133.7039  156.8069 LP  0  0  0  0  0  0  0  0  0  0  0  0  # atno 17395 bound_to 11000

$$$$
