#       Name:                AV-unprocessed.smi:2931
#       Creating user name   scv26
#       Creation time:       Fri Mar 27 16:14:02 2020


#       File generated by GOLD software.
#

@<TRIPOS>MOLECULE
AV-unprocessed.smi:2931
    45    46     1
SMALL
NO_CHARGES


@<TRIPOS>ATOM
      1 ****        -4.6522   0.2602   0.3197 C.3            1 S1                 0.0000
      2 ****        -3.4399   0.8512  -0.2866 N.4            1 S1                 1.0000
      3 ****        -3.7251   1.5306  -1.5750 C.3            1 S1                 0.0000
      4 ****        -2.4724   2.2443  -2.1098 C.3            1 S1                 0.0000
      5 ****        -1.2972   1.2666  -2.2487 C.3            1 S1                 0.0000
      6 ****        -1.0448   0.5485  -0.9109 C.3            1 S1                 0.0000
      7 ****         0.0158  -0.4448  -1.0491 N.am           1 S1                 0.0000
      8 ****         1.3239  -0.1973  -0.8953 C.2            1 S1                 0.0000
      9 ****         1.7875   0.9140  -0.6395 O.2            1 S1                 0.0000
     10 ****         2.0609  -1.3091  -1.0341 N.am           1 S1                 0.0000
     11 ****         3.5083  -1.3918  -0.8501 C.3            1 S1                 0.0000
     12 ****         3.8878  -1.9579   0.5322 C.3            1 S1                 0.0000
     13 ****         3.3161  -1.1644   1.6950 C.ar           1 S1                 0.0000
     14 ****         3.8453   0.0985   2.0310 C.ar           1 S1                 0.0000
     15 ****         3.2637   0.8083   3.1004 C.ar           1 S1                 0.0000
     16 ****         2.2257   0.3380   3.8253 N.ar           1 S1                 0.0000
     17 ****         1.7288  -0.8753   3.5023 C.ar           1 S1                 0.0000
     18 ****         2.2342  -1.6642   2.4497 C.ar           1 S1                 0.0000
     19 ****        -2.3331  -0.1303  -0.4088 C.3            1 S1                 0.0000
     20 ****        -5.0613  -0.5293  -0.3122 H              1 S1                 0.0000
     21 ****        -5.4217   1.0197   0.4607 H              1 S1                 0.0000
     22 ****        -4.4245  -0.1668   1.2970 H              1 S1                 0.0000
     23 ****        -4.0811   0.7999  -2.3032 H              1 S1                 0.0000
     24 ****        -4.5266   2.2573  -1.4364 H              1 S1                 0.0000
     25 ****        -2.6882   2.7065  -3.0734 H              1 S1                 0.0000
     26 ****        -2.1962   3.0547  -1.4336 H              1 S1                 0.0000
     27 ****        -1.5194   0.5368  -3.0285 H              1 S1                 0.0000
     28 ****        -0.4035   1.8037  -2.5688 H              1 S1                 0.0000
     29 ****        -0.7458   1.2887  -0.1654 H              1 S1                 0.0000
     30 ****        -0.2666  -1.3911  -1.2594 H              1 S1                 0.0000
     31 ****         1.5832  -2.1720  -1.2494 H              1 S1                 0.0000
     32 ****         3.9144  -2.0348  -1.6310 H              1 S1                 0.0000
     33 ****         3.9723  -0.4144  -0.9932 H              1 S1                 0.0000
     34 ****         3.5530  -2.9933   0.6075 H              1 S1                 0.0000
     35 ****         4.9735  -1.9847   0.6306 H              1 S1                 0.0000
     36 ****         4.6700   0.5205   1.4758 H              1 S1                 0.0000
     37 ****         3.6409   1.7810   3.3795 H              1 S1                 0.0000
     38 ****         0.8997  -1.2271   4.0984 H              1 S1                 0.0000
     39 ****         1.7956  -2.6256   2.2267 H              1 S1                 0.0000
     40 ****        -2.1489  -0.5884   0.5642 H              1 S1                 0.0000
     41 ****        -2.6315  -0.9324  -1.0864 H              1 S1                 0.0000
     42 ****        -3.1205   1.5666   0.3511 H              1 S1                 0.0000
     43 ****         1.1764   1.6985  -0.5343 LP             1 S1                 0.0000
     44 ****         2.7752   1.0322  -0.5368 LP             1 S1                 0.0000
     45 ****         1.8376   0.8712   4.5771 LP             1 S1                 0.0000
@<TRIPOS>BOND
    1    1    2 1     
    2    1   20 1     
    3    1   21 1     
    4    1   22 1     
    5    2   19 1     
    6    2    3 1     
    7    2   42 1     
    8    3    4 1     
    9    3   23 1     
   10    3   24 1     
   11    4    5 1     
   12    4   25 1     
   13    4   26 1     
   14    5    6 1     
   15    5   27 1     
   16    5   28 1     
   17    6    7 1     
   18    6   19 1     
   19    6   29 1     
   20    7    8 am    
   21    7   30 1     
   22    8    9 2     
   23    8   10 am    
   24   10   11 1     
   25   10   31 1     
   26   11   12 1     
   27   11   32 1     
   28   11   33 1     
   29   12   13 1     
   30   12   34 1     
   31   12   35 1     
   32   13   18 ar    
   33   13   14 ar    
   34   14   15 ar    
   35   14   36 1     
   36   15   16 ar    
   37   15   37 1     
   38   16   17 ar    
   39   17   18 ar    
   40   17   38 1     
   41   18   39 1     
   42   19   40 1     
   43   19   41 1     
   44    9   43 1     
   45    9   44 1     
   46   16   45 1     
@<TRIPOS>SUBSTRUCTURE
      1 S1             1
@<TRIPOS>SET
LONE_PAIRS      STATIC     ATOMS    <user>   **** ""
3 43 44 45
DONOR_HYDROGENS      STATIC     ATOMS    <user>   **** ""
3 42 30 31
ATOM$BLUE        STATIC     ATOMS    COLORGROUP SYSTEM
3 43 44 45
ATOM$RED        STATIC     ATOMS    COLORGROUP SYSTEM
3 42 30 31
