AV-unprocessed.smi:3046|AV-procd|sdf|11619|dock6
  -GOLD-   2272017 03D 1   1.00000     0.00000
 Structure written by MMmdl.
 37 37  0  0  0  0  0  0  0  0  1 V2000
  140.3235  142.5692  154.5635 C   0  0  0  0  0  0  0  0  0  0  0  0
  141.4545  142.8639  155.2214 C   0  0  0  0  0  0  0  0  0  0  0  0
  142.5197  141.8514  155.5943 C   0  0  0  0  0  0  0  0  0  0  0  0
  143.7607  142.0979  154.8715 N   0  0  0  0  0  0  0  0  0  0  0  0
  144.5894  143.1318  155.0863 C   0  0  0  0  0  0  0  0  0  0  0  0
  144.3919  143.9878  155.9493 O   0  0  0  0  0  0  0  0  0  0  0  0
  145.8122  143.2351  154.1602 C   0  0  2  0  0  0  0  0  0  0  0  0
  145.5322  144.1963  152.9942 C   0  0  0  0  0  0  0  0  0  0  0  0
  146.2497  141.9299  153.6339 N   0  0  0  0  0  0  0  0  0  0  0  0
  147.1127  141.1502  154.5214 C   0  0  1  0  0  0  0  0  0  0  0  0
  146.4674  139.7757  154.7564 C   0  0  0  0  0  0  0  0  0  0  0  0
  148.5055  141.0157  153.8751 C   0  0  0  0  0  0  0  0  0  0  0  0
  149.5463  140.7718  154.8592 N   0  0  0  0  0  0  0  0  0  0  0  0
  149.7953  141.4602  156.0278 C   0  0  0  0  0  0  0  0  0  0  0  0
  150.8800  140.8789  156.6189 C   0  0  0  0  0  0  0  0  0  0  0  0
  151.2274  139.8267  155.7263 C   0  0  0  0  0  0  0  0  0  0  0  0
  150.4264  139.7638  154.6753 N   0  0  0  0  0  0  0  0  0  0  0  0
  140.1030  141.5597  154.2485 H   0  0  0  0  0  0  0  0  0  0  0  0
  139.6015  143.3381  154.3308 H   0  0  0  0  0  0  0  0  0  0  0  0
  141.6367  143.8855  155.5226 H   0  0  0  0  0  0  0  0  0  0  0  0
  142.6921  141.8892  156.6711 H   0  0  0  0  0  0  0  0  0  0  0  0
  142.1745  140.8429  155.3645 H   0  0  0  0  0  0  0  0  0  0  0  0
  143.9985  141.4465  154.1375 H   0  0  0  0  0  0  0  0  0  0  0  0
  146.6410  143.6554  154.7334 H   0  0  0  0  0  0  0  0  0  0  0  0
  145.2214  145.1774  153.3555 H   0  0  0  0  0  0  0  0  0  0  0  0
  144.7465  143.8183  152.3386 H   0  0  0  0  0  0  0  0  0  0  0  0
  146.4264  144.3420  152.3871 H   0  0  0  0  0  0  0  0  0  0  0  0
  145.4738  141.3690  153.3124 H   0  0  0  0  0  0  0  0  0  0  0  0
  147.2394  141.6457  155.4850 H   0  0  0  0  0  0  0  0  0  0  0  0
  147.0866  139.1625  155.4115 H   0  0  0  0  0  0  0  0  0  0  0  0
  146.3369  139.2316  153.8201 H   0  0  0  0  0  0  0  0  0  0  0  0
  145.4885  139.8675  155.2276 H   0  0  0  0  0  0  0  0  0  0  0  0
  148.5115  140.1792  153.1752 H   0  0  0  0  0  0  0  0  0  0  0  0
  148.7552  141.9066  153.2955 H   0  0  0  0  0  0  0  0  0  0  0  0
  149.1890  142.2995  156.3348 H   0  0  0  0  0  0  0  0  0  0  0  0
  151.3535  141.1620  157.5472 H   0  0  0  0  0  0  0  0  0  0  0  0
  152.0322  139.1114  155.8104 H   0  0  0  0  0  0  0  0  0  0  0  0
  1  2  2  0  0  0  0
  1 18  1  0  0  0  0
  1 19  1  0  0  0  0
  2  3  1  0  0  0  0
  2 20  1  0  0  0  0
  3  4  1  0  0  0  0
  3 21  1  0  0  0  0
  3 22  1  0  0  0  0
  4  5  1  0  0  0  0
  4 23  1  0  0  0  0
  5  6  2  0  0  0  0
  5  7  1  0  0  0  0
  7  8  1  0  0  0  0
  7  9  1  0  0  0  0
  7 24  1  0  0  0  0
  8 25  1  0  0  0  0
  8 26  1  0  0  0  0
  8 27  1  0  0  0  0
  9 10  1  0  0  0  0
  9 28  1  0  0  0  0
 10 11  1  0  0  0  0
 10 12  1  0  0  0  0
 10 29  1  0  0  0  0
 11 30  1  0  0  0  0
 11 31  1  0  0  0  0
 11 32  1  0  0  0  0
 12 13  1  0  0  0  0
 12 33  1  0  0  0  0
 12 34  1  0  0  0  0
 13 17  1  0  0  0  0
 13 14  1  0  0  0  0
 14 15  2  0  0  0  0
 14 35  1  0  0  0  0
 15 16  1  0  0  0  0
 15 36  1  0  0  0  0
 16 17  2  0  0  0  0
 16 37  1  0  0  0  0
M  END
> <s_m_source_file>
AV-unprocessed.smi

> <i_m_source_file_index>
3046

> <i_lp_mmshare_version>
43012

> <i_f3d_flags>
0

> <s_epik_input>
W0NIMl09W0NIXVtDSDJdW05IXUMoPU8pW0NASF0oW0NIM10pW05IXVtDQEhdKFtDSDNdKVtDSDJdbjFbY0hdW2NIXVtjSF1uMQ==

> <s_epik_cmdline>
J2VwaWtfcHl0aG9uJywgJy1waCcsICc3LjAnLCAnLXRuJywgJzgnLCAnLW1hJywgJzIwMCcsICctbWV0YWxfYmluZGluZycsICctaW1hZScsICc8aW5maWxlLm1hZT4nLCAnLW9tYWUnLCAnPG91dGZpbGUubWFlPic=

> <r_lp_tautomer_probability>
1

> <r_epik_Ionization_Penalty>
0.950627

> <r_epik_Ionization_Penalty_Charging>
0

> <r_epik_Ionization_Penalty_Neutral>
0.950627

> <r_epik_State_Penalty>
0.994814

> <r_epik_Charging_Adjusted_Penalty>
0.994814

> <i_epik_Tot_Q>
0

> <i_epik_Tot_abs_Q>
0

> <r_epik_Metal_State_Penalty>
0.994788

> <b_epik_Metal_Only>
0

> <s_lp_Force_Field>
OPLS_2005

> <r_lp_Energy>
6.36017

> <b_lp_Chiralities_Consistent>
1

> <s_lp_Variant>
AV-unprocessed.smi:3046-7

> <Gold.Version>
5.8.1

> <Gold.Id.Protein>
6NUR|6NUR_protein|mol2

> <Gold.PLP.Fitness>
36.6206

> <Gold.PLP.PLP>
-30.2371

> <Gold.PLP.part.hbond>
-3.5148

> <Gold.PLP.part.metal>
0.0000

> <Gold.PLP.part.buried>
-2.9739

> <Gold.PLP.part.nonpolar>
-25.1851

> <Gold.PLP.part.repulsive>
0.1382

> <Gold.PLP.ligand.clash>
0.0000

> <Gold.PLP.ligand.torsion>
2.1403

> <Gold.PLP.Chemscore.Hbond>
2.5624

> <Gold.PLP.Chemscore.CHOScore>
0.9506

> <Gold.PLP.Chemscore.Metal>
0.0000

> <Gold.Chemscore.Hbonds>
donor molecule, donor type, donor heavy atom, donor atom, acceptor molecule, acceptor atom, score
      L1  H     4    23       P1 10175  1.00
      L1  H     9    28       P1 10175  0.59
      P1  H  7989  7998       L1    17  0.49
      L1  C    14    35       P1  8028  1.00

> <Gold.PLP.Chemscore.Internal.Correction>
0.1253

> <Gold.Rescore>
     Score         DG    S(hbond)    S(metal)    S(lipo)     H(rot)  DE(clash)    DE(int)     intcor
      7.72      -9.64       0.99        0.00      54.98       2.17       0.03       1.89       ----

> <Gold.Chemscore.Fitness>
7.7163

> <Gold.Chemscore.DG>
-9.6393

> <Gold.Chemscore.ZeroCoef>
-5.4800

> <Gold.Chemscore.Hbond>
0.9855

> <Gold.Chemscore.Metal>
0.0000

> <Gold.Chemscore.Lipo>
54.9828

> <Gold.Chemscore.Internal_Hbond>
0.0000

> <Gold.Chemscore.DEClash>
0.0331

> <Gold.Chemscore.DEInternal>
1.8899

> <Gold.Chemscore.Rot>
2.1739

> <Gold.Chemscore.Internal.Correction>
   9.000000E+99

> <Gold.Chemscore.Hbonds>
donor molecule, donor type, donor heavy atom, donor atom, acceptor molecule, acceptor atom, score
      L1  H     4    23       P1 10175  0.25
      L1  H     9    28       P1 10175  0.10
      P1  H  7989  7998       L1    17  0.01

> <Gold.Chemscore.Hbond.Weighted>
-3.2915

> <Gold.Chemscore.Metal.Weighted>
-0.0000

> <Gold.Chemscore.Lipo.Weighted>
-6.4330

> <Gold.Chemscore.Internal_Hbond.Weighted>
0.0000

> <Gold.Chemscore.DEClash.Weighted>
0.0331

> <Gold.Chemscore.DEInternal.Weighted>
1.8899

> <Gold.Chemscore.Rot.Weighted>
5.5652

> <Gold.Chemscore.Internal.Correction.Weighted>
   9.000000E+99

> <Gold.Protein.RotatedTorsions>
[ 6907 6896 6895 6894 ] final  119.60 input  -60.11 | X-H torsion
[ 7974 7965 7964 7962 ] final  -65.40 input  175.53 | X-H torsion
[ 8008 7997 7996 7995 ] final    2.86 input   59.86 | X-H torsion
[ 10167 10162 10161 10158 ] final  -92.45 input  -65.29 | X-H torsion
[ 10718 10713 10712 10709 ] final  -47.16 input   66.30 | X-H torsion
[ 10763 10752 10751 10750 ] final   18.36 input  -60.55 | X-H torsion
[ 11005 11000 10999 10996 ] final  -53.87 input  -57.11 | X-H torsion

> <Gold.Protein.ActiveResidues>
 VAL166  LYS551  ARG553  GLY616  TRP617  ASP618  TYR619  PRO620  LYS621  CYS622 
 ASP623  PHE694  ASN695  SER759  ASP760  ASP761  ALA762  ILE779  LEU786  VAL792 
 PHE793  MET794  SER795  GLU796  ALA797  LYS798  CYS799  TRP800  GLU811  SER814 

> <Gold.Protein.RotatedAtoms>
  152.4460  133.7537  159.6707 H   0  0  0  0  0  0  0  0  0  0  0  0  # atno 6907 bound_to 6896
  150.8360  133.8003  159.3085 H   0  0  0  0  0  0  0  0  0  0  0  0  # atno 6908 bound_to 6896
  151.5642  135.1067  160.0031 H   0  0  0  0  0  0  0  0  0  0  0  0  # atno 6909 bound_to 6896
  145.7548  140.8891  143.0461 H   0  0  0  0  0  0  0  0  0  0  0  0  # atno 7974 bound_to 7965
  154.6966  140.2664  155.6760 H   0  0  0  0  0  0  0  0  0  0  0  0  # atno 8008 bound_to 7997
  156.2751  140.2780  156.1486 H   0  0  0  0  0  0  0  0  0  0  0  0  # atno 8009 bound_to 7997
  155.0822  140.0372  157.2633 H   0  0  0  0  0  0  0  0  0  0  0  0  # atno 8010 bound_to 7997
  140.3347  143.2975  151.9903 H   0  0  0  0  0  0  0  0  0  0  0  0  # atno 10167 bound_to 10162
  156.2112  130.4161  149.9113 H   0  0  0  0  0  0  0  0  0  0  0  0  # atno 10718 bound_to 10713
  153.1256  135.6729  153.9262 H   0  0  0  0  0  0  0  0  0  0  0  0  # atno 10763 bound_to 10752
  153.8764  135.3063  155.3445 H   0  0  0  0  0  0  0  0  0  0  0  0  # atno 10764 bound_to 10752
  154.7662  135.4963  153.9639 H   0  0  0  0  0  0  0  0  0  0  0  0  # atno 10765 bound_to 10752
  141.0998  133.6619  156.4236 H   0  0  0  0  0  0  0  0  0  0  0  0  # atno 11005 bound_to 11000
  144.6842  139.9641  143.7481 LP  0  0  0  0  0  0  0  0  0  0  0  0  # atno 17320 bound_to 7965
  146.0321  139.3345  143.0748 LP  0  0  0  0  0  0  0  0  0  0  0  0  # atno 17321 bound_to 7965
  139.4850  144.6206  151.7262 LP  0  0  0  0  0  0  0  0  0  0  0  0  # atno 17342 bound_to 10162
  140.5365  144.0648  150.6072 LP  0  0  0  0  0  0  0  0  0  0  0  0  # atno 17343 bound_to 10162
  156.6790  130.8850  151.3573 LP  0  0  0  0  0  0  0  0  0  0  0  0  # atno 17370 bound_to 10713
  157.7039  130.9363  150.0870 LP  0  0  0  0  0  0  0  0  0  0  0  0  # atno 17371 bound_to 10713
  140.5051  134.6448  157.5263 LP  0  0  0  0  0  0  0  0  0  0  0  0  # atno 17394 bound_to 11000
  139.9845  134.7083  155.9799 LP  0  0  0  0  0  0  0  0  0  0  0  0  # atno 17395 bound_to 11000

$$$$
