AV-unprocessed.smi:147|AV-procd|sdf|1201|dock2
  -GOLD-   2262018363D 1   1.00000     0.00000
 Structure written by MMmdl.
 55 57  0  0  0  0  0  0  0  0  1 V2000
  152.1288  144.5907  159.6303 C   0  0  0  0  0  0  0  0  0  0  0  0
  151.1234  144.6281  158.4676 C   0  0  0  0  0  0  0  0  0  0  0  0
  149.7237  145.0369  158.9545 C   0  0  0  0  0  0  0  0  0  0  0  0
  151.0700  143.2738  157.7490 C   0  0  0  0  0  0  0  0  0  0  0  0
  151.6491  142.2962  158.2241 O   0  0  0  0  0  0  0  0  0  0  0  0
  150.3684  143.2284  156.6060 N   0  0  0  0  0  0  0  0  0  0  0  0
  150.1816  142.0383  155.7859 C   0  0  0  0  0  0  0  0  0  0  0  0
  148.8463  141.3421  156.1073 C   0  0  0  0  0  0  0  0  0  0  0  0
  148.1003  140.9789  154.9019 N   0  0  0  0  0  0  0  0  0  0  0  0
  147.6148  142.0586  154.0506 C   0  0  0  0  0  0  0  0  0  0  0  0
  147.5773  139.7264  154.7592 C   0  0  0  0  0  0  0  0  0  0  0  0
  147.5880  138.8877  155.8310 N   0  0  0  0  0  0  0  0  0  0  0  0
  147.0828  137.6551  155.7454 C   0  0  0  0  0  0  0  0  0  0  0  0
  146.5292  137.0546  154.6931 N   0  0  0  0  0  0  0  0  0  0  0  0
  146.5228  137.8749  153.6046 C   0  0  0  0  0  0  0  0  0  0  0  0
  147.0143  139.2129  153.5492 C   0  0  0  0  0  0  0  0  0  0  0  0
  146.8215  139.7188  152.2669 N   0  0  0  0  0  0  0  0  0  0  0  0
  146.2451  138.7486  151.6133 C   0  0  0  0  0  0  0  0  0  0  0  0
  146.0561  137.5922  152.3327 N   0  0  0  0  0  0  0  0  0  0  0  0
  145.4214  136.3907  151.8757 C   0  0  0  0  0  0  0  0  0  0  0  0
  145.3538  135.1466  152.7641 C   0  0  0  0  0  0  0  0  0  0  0  0
  145.4439  134.2514  151.5079 C   0  0  0  0  0  0  0  0  0  0  0  0
  146.3567  133.0214  151.6378 C   0  0  0  0  0  0  0  0  0  0  0  0
  146.6361  132.4551  150.3739 O   0  0  0  0  0  0  0  0  0  0  0  0
  144.0900  133.8173  150.9112 C   0  0  0  0  0  0  0  0  0  0  0  0
  144.1962  133.5553  149.5265 O   0  0  0  0  0  0  0  0  0  0  0  0
  146.0916  135.4844  150.8396 C   0  0  0  0  0  0  0  0  0  0  0  0
  153.1220  144.2988  159.2871 H   0  0  0  0  0  0  0  0  0  0  0  0
  151.8227  143.8855  160.4042 H   0  0  0  0  0  0  0  0  0  0  0  0
  152.2203  145.5718  160.0968 H   0  0  0  0  0  0  0  0  0  0  0  0
  151.4641  145.3817  157.7557 H   0  0  0  0  0  0  0  0  0  0  0  0
  149.0098  145.0666  158.1302 H   0  0  0  0  0  0  0  0  0  0  0  0
  149.7431  146.0296  159.4046 H   0  0  0  0  0  0  0  0  0  0  0  0
  149.3397  144.3427  159.7030 H   0  0  0  0  0  0  0  0  0  0  0  0
  149.9243  144.0770  156.2864 H   0  0  0  0  0  0  0  0  0  0  0  0
  150.2046  142.3472  154.7406 H   0  0  0  0  0  0  0  0  0  0  0  0
  151.0194  141.3532  155.9246 H   0  0  0  0  0  0  0  0  0  0  0  0
  149.0373  140.4295  156.6731 H   0  0  0  0  0  0  0  0  0  0  0  0
  148.2374  141.9655  156.7634 H   0  0  0  0  0  0  0  0  0  0  0  0
  148.0413  141.9787  153.0506 H   0  0  0  0  0  0  0  0  0  0  0  0
  147.8980  143.0316  154.4529 H   0  0  0  0  0  0  0  0  0  0  0  0
  146.5272  142.0378  153.9739 H   0  0  0  0  0  0  0  0  0  0  0  0
  147.1316  137.0650  156.6486 H   0  0  0  0  0  0  0  0  0  0  0  0
  145.9495  138.8491  150.5790 H   0  0  0  0  0  0  0  0  0  0  0  0
  144.4232  136.6834  151.5464 H   0  0  0  0  0  0  0  0  0  0  0  0
  146.2241  135.0560  153.4169 H   0  0  0  0  0  0  0  0  0  0  0  0
  144.4299  135.0541  153.3357 H   0  0  0  0  0  0  0  0  0  0  0  0
  147.3078  133.2925  152.0970 H   0  0  0  0  0  0  0  0  0  0  0  0
  145.9151  132.2585  152.2794 H   0  0  0  0  0  0  0  0  0  0  0  0
  147.5227  132.1281  150.3818 H   0  0  0  0  0  0  0  0  0  0  0  0
  143.7194  132.9125  151.3930 H   0  0  0  0  0  0  0  0  0  0  0  0
  143.3234  134.5766  151.0665 H   0  0  0  0  0  0  0  0  0  0  0  0
  144.9345  134.0367  149.1857 H   0  0  0  0  0  0  0  0  0  0  0  0
  145.7789  135.6654  149.8109 H   0  0  0  0  0  0  0  0  0  0  0  0
  147.1803  135.4875  150.9225 H   0  0  0  0  0  0  0  0  0  0  0  0
  1  2  1  0  0  0  0
  1 28  1  0  0  0  0
  1 29  1  0  0  0  0
  1 30  1  0  0  0  0
  2  3  1  0  0  0  0
  2  4  1  0  0  0  0
  2 31  1  0  0  0  0
  3 32  1  0  0  0  0
  3 33  1  0  0  0  0
  3 34  1  0  0  0  0
  4  5  2  0  0  0  0
  4  6  1  0  0  0  0
  6  7  1  0  0  0  0
  6 35  1  0  0  0  0
  7  8  1  0  0  0  0
  7 36  1  0  0  0  0
  7 37  1  0  0  0  0
  8  9  1  0  0  0  0
  8 38  1  0  0  0  0
  8 39  1  0  0  0  0
  9 10  1  0  0  0  0
  9 11  1  0  0  0  0
 10 40  1  0  0  0  0
 10 41  1  0  0  0  0
 10 42  1  0  0  0  0
 11 16  1  0  0  0  0
 11 12  2  0  0  0  0
 12 13  1  0  0  0  0
 13 14  2  0  0  0  0
 13 43  1  0  0  0  0
 14 15  1  0  0  0  0
 15 19  1  0  0  0  0
 15 16  2  0  0  0  0
 16 17  1  0  0  0  0
 17 18  2  0  0  0  0
 18 19  1  0  0  0  0
 18 44  1  0  0  0  0
 19 20  1  0  0  0  0
 20 27  1  0  0  0  0
 20 21  1  0  0  0  0
 20 45  1  0  0  0  0
 21 22  1  0  0  0  0
 21 46  1  0  0  0  0
 21 47  1  0  0  0  0
 22 23  1  0  0  0  0
 22 25  1  0  0  0  0
 22 27  1  0  0  0  0
 23 24  1  0  0  0  0
 23 48  1  0  0  0  0
 23 49  1  0  0  0  0
 24 50  1  0  0  0  0
 25 26  1  0  0  0  0
 25 51  1  0  0  0  0
 25 52  1  0  0  0  0
 26 53  1  0  0  0  0
 27 54  1  0  0  0  0
 27 55  1  0  0  0  0
M  END
> <s_m_source_file>
AV-unprocessed.smi

> <i_m_source_file_index>
147

> <i_lp_mmshare_version>
43012

> <i_f3d_flags>
0

> <s_epik_input>
W0NIM11bQ0hdKFtDSDNdKUMoPU8pW05IXVtDSDJdW0NIMl1OKFtDSDNdKWMobltjSF1uMSljKGMxMiluW2NIXW4yW0NIXShbQ0gyXTMpW0NIMl1DMyhbQ0gyXVtPSF0pW0NIMl1bT0hd

> <s_epik_cmdline>
J2VwaWtfcHl0aG9uJywgJy1waCcsICc3LjAnLCAnLXRuJywgJzgnLCAnLW1hJywgJzIwMCcsICctbWV0YWxfYmluZGluZycsICctaW1hZScsICc8aW5maWxlLm1hZT4nLCAnLW9tYWUnLCAnPG91dGZpbGUubWFlPic=

> <r_lp_tautomer_probability>
1

> <r_epik_Ionization_Penalty>
0.00124047

> <r_epik_Ionization_Penalty_Charging>
0

> <r_epik_Ionization_Penalty_Neutral>
0.00124047

> <r_epik_State_Penalty>
0.000682986

> <r_epik_Charging_Adjusted_Penalty>
0.000682986

> <i_epik_Tot_Q>
0

> <i_epik_Tot_abs_Q>
0

> <r_epik_Metal_State_Penalty>
-0

> <b_epik_Metal_Only>
0

> <s_lp_Force_Field>
OPLS_2005

> <r_lp_Energy>
28.5646

> <b_lp_Chiralities_Consistent>
1

> <s_lp_Variant>
AV-unprocessed.smi:147-1

> <Gold.Version>
5.8.1

> <Gold.Id.Protein>
6NUR|6NUR_protein|mol2

> <Gold.PLP.Fitness>
51.4138

> <Gold.PLP.PLP>
-41.2278

> <Gold.PLP.part.hbond>
-3.5122

> <Gold.PLP.part.metal>
0.0000

> <Gold.PLP.part.buried>
-5.0216

> <Gold.PLP.part.nonpolar>
-35.2711

> <Gold.PLP.part.repulsive>
1.6848

> <Gold.PLP.ligand.clash>
0.0000

> <Gold.PLP.ligand.torsion>
1.2467

> <Gold.PLP.Chemscore.Hbond>
3.0000

> <Gold.PLP.Chemscore.CHOScore>
0.9648

> <Gold.PLP.Chemscore.Metal>
0.0000

> <Gold.Chemscore.Hbonds>
donor molecule, donor type, donor heavy atom, donor atom, acceptor molecule, acceptor atom, score
      L1  H     6    35       P1  8028  0.57
      L1  H    24    50       P1 10747  1.00
      L1  H    26    53       P1  7921  0.81
      L1  C    18    44       P1 10171  0.92

> <Gold.PLP.Chemscore.Internal.Correction>
0.7850

> <Gold.Rescore>
     Score         DG    S(hbond)    S(metal)    S(lipo)     H(rot)  DE(clash)    DE(int)     intcor
     10.76     -14.64       2.88        0.00      86.90       4.15       0.57       3.32       ----

> <Gold.Chemscore.Fitness>
10.7608

> <Gold.Chemscore.DG>
-14.6416

> <Gold.Chemscore.ZeroCoef>
-5.4800

> <Gold.Chemscore.Hbond>
2.8775

> <Gold.Chemscore.Metal>
0.0000

> <Gold.Chemscore.Lipo>
86.9002

> <Gold.Chemscore.Internal_Hbond>
0.0000

> <Gold.Chemscore.DEClash>
0.5657

> <Gold.Chemscore.DEInternal>
3.3151

> <Gold.Chemscore.Rot>
4.1472

> <Gold.Chemscore.Internal.Correction>
   9.000000E+99

> <Gold.Chemscore.Hbonds>
donor molecule, donor type, donor heavy atom, donor atom, acceptor molecule, acceptor atom, score
      L1  H     6    35       P1  8028  0.54
      L1  H    24    50       P1 10747  0.99
      L1  H    26    53       P1  7921  0.77

> <Gold.Chemscore.Hbond.Weighted>
-9.6110

> <Gold.Chemscore.Metal.Weighted>
-0.0000

> <Gold.Chemscore.Lipo.Weighted>
-10.1673

> <Gold.Chemscore.Internal_Hbond.Weighted>
0.0000

> <Gold.Chemscore.DEClash.Weighted>
0.5657

> <Gold.Chemscore.DEInternal.Weighted>
3.3151

> <Gold.Chemscore.Rot.Weighted>
10.6167

> <Gold.Chemscore.Internal.Correction.Weighted>
   9.000000E+99

> <Gold.Protein.RotatedTorsions>
[ 6907 6896 6895 6894 ] final   -1.72 input  -60.11 | X-H torsion
[ 7974 7965 7964 7962 ] final  118.57 input  175.53 | X-H torsion
[ 8008 7997 7996 7995 ] final  -36.51 input   59.86 | X-H torsion
[ 10167 10162 10161 10158 ] final -125.03 input  -65.29 | X-H torsion
[ 10718 10713 10712 10709 ] final  142.86 input   66.30 | X-H torsion
[ 10763 10752 10751 10750 ] final    2.60 input  -60.55 | X-H torsion
[ 11005 11000 10999 10996 ] final -161.88 input  -57.11 | X-H torsion

> <Gold.Protein.ActiveResidues>
 VAL166  LYS551  ARG553  GLY616  TRP617  ASP618  TYR619  PRO620  LYS621  CYS622 
 ASP623  PHE694  ASN695  SER759  ASP760  ASP761  ALA762  ILE779  LEU786  VAL792 
 PHE793  MET794  SER795  GLU796  ALA797  LYS798  CYS799  TRP800  GLU811  SER814 

> <Gold.Protein.RotatedAtoms>
  151.5415  135.1068  159.9927 H   0  0  0  0  0  0  0  0  0  0  0  0  # atno 6907 bound_to 6896
  152.4533  133.7668  159.6787 H   0  0  0  0  0  0  0  0  0  0  0  0  # atno 6908 bound_to 6896
  150.8468  133.7783  159.3064 H   0  0  0  0  0  0  0  0  0  0  0  0  # atno 6909 bound_to 6896
  145.1536  139.3196  143.4553 H   0  0  0  0  0  0  0  0  0  0  0  0  # atno 7974 bound_to 7965
  154.4072  140.1629  156.2385 H   0  0  0  0  0  0  0  0  0  0  0  0  # atno 8008 bound_to 7997
  155.9221  140.3420  155.6158 H   0  0  0  0  0  0  0  0  0  0  0  0  # atno 8009 bound_to 7997
  155.7209  140.0768  157.2321 H   0  0  0  0  0  0  0  0  0  0  0  0  # atno 8010 bound_to 7997
  139.9864  143.5687  152.2359 H   0  0  0  0  0  0  0  0  0  0  0  0  # atno 10167 bound_to 10162
  157.3757  131.0985  151.0786 H   0  0  0  0  0  0  0  0  0  0  0  0  # atno 10718 bound_to 10713
  153.2936  135.6950  153.7269 H   0  0  0  0  0  0  0  0  0  0  0  0  # atno 10763 bound_to 10752
  153.6211  135.3427  155.3012 H   0  0  0  0  0  0  0  0  0  0  0  0  # atno 10764 bound_to 10752
  154.8531  135.4386  154.2026 H   0  0  0  0  0  0  0  0  0  0  0  0  # atno 10765 bound_to 10752
  140.6155  134.4805  157.5219 H   0  0  0  0  0  0  0  0  0  0  0  0  # atno 11005 bound_to 11000
  146.3491  140.1620  142.8590 LP  0  0  0  0  0  0  0  0  0  0  0  0  # atno 17320 bound_to 7965
  145.0404  140.8941  143.5056 LP  0  0  0  0  0  0  0  0  0  0  0  0  # atno 17321 bound_to 7965
  139.6372  144.7651  151.2414 LP  0  0  0  0  0  0  0  0  0  0  0  0  # atno 17342 bound_to 10162
  140.7470  143.6379  150.8362 LP  0  0  0  0  0  0  0  0  0  0  0  0  # atno 17343 bound_to 10162
  157.1874  130.6336  149.5692 LP  0  0  0  0  0  0  0  0  0  0  0  0  # atno 17370 bound_to 10713
  155.9765  130.4733  150.6530 LP  0  0  0  0  0  0  0  0  0  0  0  0  # atno 17371 bound_to 10713
  139.9175  134.8217  156.1320 LP  0  0  0  0  0  0  0  0  0  0  0  0  # atno 17394 bound_to 11000
  141.0779  133.6767  156.2274 LP  0  0  0  0  0  0  0  0  0  0  0  0  # atno 17395 bound_to 11000

$$$$
