AV-unprocessed.smi:3061|AV-procd|sdf|11680|dock10
  -GOLD-   2272017 83D 1   1.00000     0.00000
 Structure written by MMmdl.
 35 36  0  0  0  0  0  0  0  0  1 V2000
  148.8880  140.9278  157.4438 C   0  0  0  0  0  0  0  0  0  0  0  0
  150.3061  140.5016  157.0356 C   0  0  1  0  0  0  0  0  0  0  0  0
  150.4946  140.5465  155.5072 C   0  0  0  0  0  0  0  0  0  0  0  0
  151.3937  139.5089  155.0343 N   0  0  0  0  0  0  0  0  0  0  0  0
  151.1357  138.3484  154.4296 C   0  0  0  0  0  0  0  0  0  0  0  0
  152.2194  137.6377  154.1506 N   0  0  0  0  0  0  0  0  0  0  0  0
  153.1768  138.4779  154.6448 C   0  0  0  0  0  0  0  0  0  0  0  0
  152.7353  139.6142  155.1843 N   0  0  0  0  0  0  0  0  0  0  0  0
  151.2892  141.3647  157.6867 N   0  0  0  0  0  0  0  0  0  0  0  0
  152.2423  140.9581  158.5386 C   0  0  0  0  0  0  0  0  0  0  0  0
  152.3734  139.7880  158.8997 O   0  0  0  0  0  0  0  0  0  0  0  0
  153.1973  142.0423  159.0612 C   0  0  2  0  0  0  0  0  0  0  0  0
  153.3261  141.9877  160.5975 C   0  0  0  0  0  0  0  0  0  0  0  0
  152.6799  143.2802  161.0673 C   0  0  0  0  0  0  0  0  0  0  0  0
  152.5123  143.5501  162.2556 O   0  0  0  0  0  0  0  0  0  0  0  0
  152.3289  144.0444  160.0296 N   0  0  0  0  0  0  0  0  0  0  0  0
  151.6775  145.3446  160.1108 C   0  0  0  0  0  0  0  0  0  0  0  0
  152.6966  143.4693  158.7474 C   0  0  0  0  0  0  0  0  0  0  0  0
  148.1382  140.2841  156.9832 H   0  0  0  0  0  0  0  0  0  0  0  0
  148.6786  141.9538  157.1397 H   0  0  0  0  0  0  0  0  0  0  0  0
  148.7529  140.8658  158.5242 H   0  0  0  0  0  0  0  0  0  0  0  0
  150.4550  139.4698  157.3606 H   0  0  0  0  0  0  0  0  0  0  0  0
  149.5349  140.4086  155.0075 H   0  0  0  0  0  0  0  0  0  0  0  0
  150.8731  141.5202  155.1912 H   0  0  0  0  0  0  0  0  0  0  0  0
  150.1356  138.0152  154.1935 H   0  0  0  0  0  0  0  0  0  0  0  0
  154.2308  138.2455  154.6054 H   0  0  0  0  0  0  0  0  0  0  0  0
  151.2597  142.3450  157.4460 H   0  0  0  0  0  0  0  0  0  0  0  0
  154.1799  141.8979  158.6081 H   0  0  0  0  0  0  0  0  0  0  0  0
  152.8302  141.1274  161.0503 H   0  0  0  0  0  0  0  0  0  0  0  0
  154.3724  141.9721  160.9043 H   0  0  0  0  0  0  0  0  0  0  0  0
  150.6887  145.2478  160.5610 H   0  0  0  0  0  0  0  0  0  0  0  0
  151.5574  145.7863  159.1211 H   0  0  0  0  0  0  0  0  0  0  0  0
  152.2674  146.0325  160.7183 H   0  0  0  0  0  0  0  0  0  0  0  0
  153.4896  144.0677  158.2971 H   0  0  0  0  0  0  0  0  0  0  0  0
  151.8453  143.4842  158.0646 H   0  0  0  0  0  0  0  0  0  0  0  0
  1  2  1  0  0  0  0
  1 19  1  0  0  0  0
  1 20  1  0  0  0  0
  1 21  1  0  0  0  0
  2  3  1  0  0  0  0
  2  9  1  0  0  0  0
  2 22  1  0  0  0  0
  3  4  1  0  0  0  0
  3 23  1  0  0  0  0
  3 24  1  0  0  0  0
  4  8  1  0  0  0  0
  4  5  1  0  0  0  0
  5  6  2  0  0  0  0
  5 25  1  0  0  0  0
  6  7  1  0  0  0  0
  7  8  2  0  0  0  0
  7 26  1  0  0  0  0
  9 10  1  0  0  0  0
  9 27  1  0  0  0  0
 10 11  2  0  0  0  0
 10 12  1  0  0  0  0
 12 18  1  0  0  0  0
 12 13  1  0  0  0  0
 12 28  1  0  0  0  0
 13 14  1  0  0  0  0
 13 29  1  0  0  0  0
 13 30  1  0  0  0  0
 14 15  2  0  0  0  0
 14 16  1  0  0  0  0
 16 17  1  0  0  0  0
 16 18  1  0  0  0  0
 17 31  1  0  0  0  0
 17 32  1  0  0  0  0
 17 33  1  0  0  0  0
 18 34  1  0  0  0  0
 18 35  1  0  0  0  0
M  END
> <s_m_source_file>
AV-unprocessed.smi

> <i_m_source_file_index>
3061

> <i_lp_mmshare_version>
43012

> <i_f3d_flags>
0

> <s_epik_input>
bjFbY0hdbltjSF1uMVtDSDJdW0NAQEhdKFtDSDNdKVtOSF1DKD1PKVtDQEBIXTJbQ0gyXUMoPU8pTihbQ0gzXSlbQ0gyXTI=

> <s_epik_cmdline>
J2VwaWtfcHl0aG9uJywgJy1waCcsICc3LjAnLCAnLXRuJywgJzgnLCAnLW1hJywgJzIwMCcsICctbWV0YWxfYmluZGluZycsICctaW1hZScsICc8aW5maWxlLm1hZT4nLCAnLW9tYWUnLCAnPG91dGZpbGUubWFlPic=

> <r_lp_tautomer_probability>
1

> <r_epik_Ionization_Penalty>
4.97611e-05

> <r_epik_Ionization_Penalty_Charging>
0

> <r_epik_Ionization_Penalty_Neutral>
4.97611e-05

> <r_epik_State_Penalty>
-0

> <r_epik_Charging_Adjusted_Penalty>
0

> <i_epik_Tot_Q>
0

> <i_epik_Tot_abs_Q>
0

> <r_epik_Metal_State_Penalty>
-0

> <b_epik_Metal_Only>
0

> <s_lp_Force_Field>
OPLS_2005

> <r_lp_Energy>
12.6192

> <b_lp_Chiralities_Consistent>
1

> <s_lp_Variant>
AV-unprocessed.smi:3061-2

> <Gold.Version>
5.8.1

> <Gold.Id.Protein>
6NUR|6NUR_protein|mol2

> <Gold.PLP.Fitness>
46.7296

> <Gold.PLP.PLP>
-43.2638

> <Gold.PLP.part.hbond>
-2.6489

> <Gold.PLP.part.metal>
0.0000

> <Gold.PLP.part.buried>
-5.7441

> <Gold.PLP.part.nonpolar>
-35.4997

> <Gold.PLP.part.repulsive>
0.3745

> <Gold.PLP.ligand.clash>
0.1810

> <Gold.PLP.ligand.torsion>
0.8858

> <Gold.PLP.Chemscore.Hbond>
1.8000

> <Gold.PLP.Chemscore.CHOScore>
0.0000

> <Gold.PLP.Chemscore.Metal>
0.0000

> <Gold.Chemscore.Hbonds>
donor molecule, donor type, donor heavy atom, donor atom, acceptor molecule, acceptor atom, score
      P1  H  7997  8010       L1     8  1.00
      P1  H 10752 10765       L1     6  0.68

> <Gold.PLP.Chemscore.Internal.Correction>
0.0183

> <Gold.Rescore>
     Score         DG    S(hbond)    S(metal)    S(lipo)     H(rot)  DE(clash)    DE(int)     intcor
      9.01      -9.87       1.06        0.00      60.16       2.42       0.04       0.83       ----

> <Gold.Chemscore.Fitness>
9.0060

> <Gold.Chemscore.DG>
-9.8739

> <Gold.Chemscore.ZeroCoef>
-5.4800

> <Gold.Chemscore.Hbond>
1.0627

> <Gold.Chemscore.Metal>
0.0000

> <Gold.Chemscore.Lipo>
60.1634

> <Gold.Chemscore.Internal_Hbond>
0.0000

> <Gold.Chemscore.DEClash>
0.0388

> <Gold.Chemscore.DEInternal>
0.8292

> <Gold.Chemscore.Rot>
2.4197

> <Gold.Chemscore.Internal.Correction>
   9.000000E+99

> <Gold.Chemscore.Hbonds>
donor molecule, donor type, donor heavy atom, donor atom, acceptor molecule, acceptor atom, score
      P1  H  7997  8010       L1     8  0.23
      P1  H 10752 10765       L1     6  0.43

> <Gold.Chemscore.Hbond.Weighted>
-3.5493

> <Gold.Chemscore.Metal.Weighted>
-0.0000

> <Gold.Chemscore.Lipo.Weighted>
-7.0391

> <Gold.Chemscore.Internal_Hbond.Weighted>
0.0000

> <Gold.Chemscore.DEClash.Weighted>
0.0388

> <Gold.Chemscore.DEInternal.Weighted>
0.8292

> <Gold.Chemscore.Rot.Weighted>
6.1945

> <Gold.Chemscore.Internal.Correction.Weighted>
   9.000000E+99

> <Gold.Protein.RotatedTorsions>
[ 6907 6896 6895 6894 ] final -131.17 input  -60.11 | X-H torsion
[ 7974 7965 7964 7962 ] final   -0.34 input  175.53 | X-H torsion
[ 8008 7997 7996 7995 ] final   77.83 input   59.86 | X-H torsion
[ 10167 10162 10161 10158 ] final   -1.95 input  -65.29 | X-H torsion
[ 10718 10713 10712 10709 ] final   29.08 input   66.30 | X-H torsion
[ 10763 10752 10751 10750 ] final  157.39 input  -60.55 | X-H torsion
[ 11005 11000 10999 10996 ] final  124.80 input  -57.11 | X-H torsion

> <Gold.Protein.ActiveResidues>
 VAL166  LYS551  ARG553  GLY616  TRP617  ASP618  TYR619  PRO620  LYS621  CYS622 
 ASP623  PHE694  ASN695  SER759  ASP760  ASP761  ALA762  ILE779  LEU786  VAL792 
 PHE793  MET794  SER795  GLU796  ALA797  LYS798  CYS799  TRP800  GLU811  SER814 

> <Gold.Protein.RotatedAtoms>
  150.9479  133.6582  159.2777 H   0  0  0  0  0  0  0  0  0  0  0  0  # atno 6907 bound_to 6896
  151.3949  135.0960  159.9547 H   0  0  0  0  0  0  0  0  0  0  0  0  # atno 6908 bound_to 6896
  152.5097  133.8985  159.7484 H   0  0  0  0  0  0  0  0  0  0  0  0  # atno 6909 bound_to 6896
  146.2428  140.1254  142.8339 H   0  0  0  0  0  0  0  0  0  0  0  0  # atno 7974 bound_to 7965
  155.8471  140.3460  155.5669 H   0  0  0  0  0  0  0  0  0  0  0  0  # atno 8008 bound_to 7997
  155.8078  140.0894  157.1941 H   0  0  0  0  0  0  0  0  0  0  0  0  # atno 8009 bound_to 7997
  154.4006  140.1453  156.3338 H   0  0  0  0  0  0  0  0  0  0  0  0  # atno 8010 bound_to 7997
  140.6831  143.6715  150.8181 H   0  0  0  0  0  0  0  0  0  0  0  0  # atno 10167 bound_to 10162
  157.2419  130.7073  149.6362 H   0  0  0  0  0  0  0  0  0  0  0  0  # atno 10718 bound_to 10713
  154.1995  135.2791  155.2995 H   0  0  0  0  0  0  0  0  0  0  0  0  # atno 10763 bound_to 10752
  154.5865  135.5573  153.7240 H   0  0  0  0  0  0  0  0  0  0  0  0  # atno 10764 bound_to 10752
  153.0091  135.6357  154.2134 H   0  0  0  0  0  0  0  0  0  0  0  0  # atno 10765 bound_to 10752
  139.9376  134.9638  156.8463 H   0  0  0  0  0  0  0  0  0  0  0  0  # atno 11005 bound_to 11000
  145.0371  140.8916  143.5075 LP  0  0  0  0  0  0  0  0  0  0  0  0  # atno 17320 bound_to 7965
  145.1328  139.2621  143.5530 LP  0  0  0  0  0  0  0  0  0  0  0  0  # atno 17321 bound_to 7965
  140.0418  143.5338  152.2714 LP  0  0  0  0  0  0  0  0  0  0  0  0  # atno 17342 bound_to 10162
  139.6168  144.7621  151.2828 LP  0  0  0  0  0  0  0  0  0  0  0  0  # atno 17343 bound_to 10162
  155.9669  130.4455  150.5505 LP  0  0  0  0  0  0  0  0  0  0  0  0  # atno 17370 bound_to 10713
  157.3370  131.0710  151.1817 LP  0  0  0  0  0  0  0  0  0  0  0  0  # atno 17371 bound_to 10713
  140.6035  134.0149  155.7547 LP  0  0  0  0  0  0  0  0  0  0  0  0  # atno 17394 bound_to 11000
  141.0996  133.9788  157.3101 LP  0  0  0  0  0  0  0  0  0  0  0  0  # atno 17395 bound_to 11000

$$$$
