AV-unprocessed.smi:1225|AV-procd|sdf|5136|dock4
  -GOLD-   22720 4193D 1   1.00000     0.00000
 Structure written by MMmdl.
 48 50  0  0  0  0  0  0  0  0  1 V2000
  142.8920  145.6707  154.1601 C   0  0  0  0  0  0  0  0  0  0  0  0
  143.8921  144.5867  154.3748 C   0  0  0  0  0  0  0  0  0  0  0  0
  144.0004  143.8967  155.5125 N   0  0  0  0  0  0  0  0  0  0  0  0
  145.0118  142.9352  155.4577 C   0  0  0  0  0  0  0  0  0  0  0  0
  145.6780  142.8980  154.2574 C   0  0  0  0  0  0  0  0  0  0  0  0
  146.8053  141.9959  153.8703 C   0  0  0  0  0  0  0  0  0  0  0  0
  147.3376  141.2169  154.9926 N   0  0  0  0  0  0  0  0  0  0  0  0
  146.4723  140.0727  155.2672 C   0  0  0  0  0  0  0  0  0  0  0  0
  148.7159  140.7738  154.7529 C   0  0  0  0  0  0  0  0  0  0  0  0
  149.7925  141.3668  155.6918 C   0  0  2  0  0  0  0  0  0  0  0  0
  150.0411  142.7072  155.3146 O   0  0  0  0  0  0  0  0  0  0  0  0
  151.1157  140.5827  155.7962 C   0  0  0  0  0  0  0  0  0  0  0  0
  151.6267  140.5371  157.1540 N   0  0  0  0  0  0  0  0  0  0  0  0
  152.1233  139.4647  157.8006 C   0  0  0  0  0  0  0  0  0  0  0  0
  152.5376  139.6465  159.0513 N   0  0  0  0  0  0  0  0  0  0  0  0
  152.2743  140.9926  159.2394 C   0  0  0  0  0  0  0  0  0  0  0  0
  152.4807  141.8186  160.3659 C   0  0  0  0  0  0  0  0  0  0  0  0
  152.1287  143.1870  160.3355 C   0  0  0  0  0  0  0  0  0  0  0  0
  152.3637  144.0371  161.5716 C   0  0  0  0  0  0  0  0  0  0  0  0
  151.5624  143.7493  159.1631 C   0  0  0  0  0  0  0  0  0  0  0  0
  151.1753  145.2164  159.1079 C   0  0  0  0  0  0  0  0  0  0  0  0
  151.3515  142.9386  158.0281 C   0  0  0  0  0  0  0  0  0  0  0  0
  151.7037  141.5784  158.0717 C   0  0  0  0  0  0  0  0  0  0  0  0
  145.0471  144.0854  153.1461 S   0  0  0  0  0  0  0  0  0  0  0  0
  142.5051  146.0302  155.1141 H   0  0  0  0  0  0  0  0  0  0  0  0
  142.0604  145.2959  153.5633 H   0  0  0  0  0  0  0  0  0  0  0  0
  143.3534  146.5067  153.6342 H   0  0  0  0  0  0  0  0  0  0  0  0
  145.1916  142.3136  156.3225 H   0  0  0  0  0  0  0  0  0  0  0  0
  146.4827  141.3217  153.0756 H   0  0  0  0  0  0  0  0  0  0  0  0
  147.5831  142.6094  153.4230 H   0  0  0  0  0  0  0  0  0  0  0  0
  146.8357  139.5119  156.1290 H   0  0  0  0  0  0  0  0  0  0  0  0
  146.4314  139.3949  154.4136 H   0  0  0  0  0  0  0  0  0  0  0  0
  145.4555  140.3914  155.4978 H   0  0  0  0  0  0  0  0  0  0  0  0
  148.7754  139.6891  154.8576 H   0  0  0  0  0  0  0  0  0  0  0  0
  148.9868  140.9688  153.7141 H   0  0  0  0  0  0  0  0  0  0  0  0
  149.3515  141.4122  156.6882 H   0  0  0  0  0  0  0  0  0  0  0  0
  149.2801  143.2246  155.5293 H   0  0  0  0  0  0  0  0  0  0  0  0
  150.9760  139.5568  155.4542 H   0  0  0  0  0  0  0  0  0  0  0  0
  151.8807  141.0337  155.1626 H   0  0  0  0  0  0  0  0  0  0  0  0
  152.1867  138.4968  157.3250 H   0  0  0  0  0  0  0  0  0  0  0  0
  152.9121  141.3896  161.2585 H   0  0  0  0  0  0  0  0  0  0  0  0
  151.4202  144.4370  161.9441 H   0  0  0  0  0  0  0  0  0  0  0  0
  153.0277  144.8709  161.3430 H   0  0  0  0  0  0  0  0  0  0  0  0
  152.8204  143.4563  162.3736 H   0  0  0  0  0  0  0  0  0  0  0  0
  150.7514  145.4801  158.1383 H   0  0  0  0  0  0  0  0  0  0  0  0
  152.0479  145.8482  159.2746 H   0  0  0  0  0  0  0  0  0  0  0  0
  150.4311  145.4437  159.8713 H   0  0  0  0  0  0  0  0  0  0  0  0
  150.9216  143.3532  157.1283 H   0  0  0  0  0  0  0  0  0  0  0  0
  1  2  1  0  0  0  0
  1 25  1  0  0  0  0
  1 26  1  0  0  0  0
  1 27  1  0  0  0  0
  2 24  1  0  0  0  0
  2  3  2  0  0  0  0
  3  4  1  0  0  0  0
  4  5  2  0  0  0  0
  4 28  1  0  0  0  0
  5  6  1  0  0  0  0
  5 24  1  0  0  0  0
  6  7  1  0  0  0  0
  6 29  1  0  0  0  0
  6 30  1  0  0  0  0
  7  8  1  0  0  0  0
  7  9  1  0  0  0  0
  8 31  1  0  0  0  0
  8 32  1  0  0  0  0
  8 33  1  0  0  0  0
  9 10  1  0  0  0  0
  9 34  1  0  0  0  0
  9 35  1  0  0  0  0
 10 11  1  0  0  0  0
 10 12  1  0  0  0  0
 10 36  1  0  0  0  0
 11 37  1  0  0  0  0
 12 13  1  0  0  0  0
 12 38  1  0  0  0  0
 12 39  1  0  0  0  0
 13 23  1  0  0  0  0
 13 14  1  0  0  0  0
 14 15  2  0  0  0  0
 14 40  1  0  0  0  0
 15 16  1  0  0  0  0
 16 23  2  0  0  0  0
 16 17  1  0  0  0  0
 17 18  2  0  0  0  0
 17 41  1  0  0  0  0
 18 19  1  0  0  0  0
 18 20  1  0  0  0  0
 19 42  1  0  0  0  0
 19 43  1  0  0  0  0
 19 44  1  0  0  0  0
 20 21  1  0  0  0  0
 20 22  2  0  0  0  0
 21 45  1  0  0  0  0
 21 46  1  0  0  0  0
 21 47  1  0  0  0  0
 22 23  1  0  0  0  0
 22 48  1  0  0  0  0
M  END
> <s_m_source_file>
AV-unprocessed.smi

> <i_m_source_file_index>
1225

> <i_lp_mmshare_version>
43012

> <i_f3d_flags>
0

> <s_epik_input>
W0NIM11jMW5bY0hdYyhzMSlbQ0gyXU4oW0NIM10pW0NIMl1bQ0BIXShbT0hdKVtDSDJdbihbY0hdbjIpYyhjMjMpW2NIXWMoW0NIM10pYyhbY0hdMylbQ0gzXQ==

> <s_epik_cmdline>
J2VwaWtfcHl0aG9uJywgJy1waCcsICc3LjAnLCAnLXRuJywgJzgnLCAnLW1hJywgJzIwMCcsICctbWV0YWxfYmluZGluZycsICctaW1hZScsICc8aW5maWxlLm1hZT4nLCAnLW9tYWUnLCAnPG91dGZpbGUubWFlPic=

> <r_epik_Ionization_Penalty>
0.12717

> <r_epik_Ionization_Penalty_Charging>
0

> <r_epik_Ionization_Penalty_Neutral>
0.12717

> <r_epik_State_Penalty>
0.11216

> <r_epik_Charging_Adjusted_Penalty>
0.11216

> <i_epik_Tot_Q>
0

> <i_epik_Tot_abs_Q>
0

> <r_epik_Metal_State_Penalty>
0.099641

> <b_epik_Metal_Only>
0

> <s_lp_Force_Field>
OPLS_2005

> <r_lp_Energy>
23.0021

> <b_lp_Chiralities_Consistent>
1

> <s_lp_Variant>
AV-unprocessed.smi:1225-1

> <Gold.Version>
5.8.1

> <Gold.Id.Protein>
6NUR|6NUR_protein|mol2

> <Gold.PLP.Fitness>
51.9020

> <Gold.PLP.PLP>
-52.6032

> <Gold.PLP.part.hbond>
-0.7664

> <Gold.PLP.part.metal>
0.0000

> <Gold.PLP.part.buried>
-4.9309

> <Gold.PLP.part.nonpolar>
-46.4680

> <Gold.PLP.part.repulsive>
0.2091

> <Gold.PLP.ligand.clash>
0.0000

> <Gold.PLP.ligand.torsion>
1.9016

> <Gold.PLP.Chemscore.Hbond>
0.9600

> <Gold.PLP.Chemscore.CHOScore>
0.0000

> <Gold.PLP.Chemscore.Metal>
0.0000

> <Gold.Chemscore.Hbonds>
donor molecule, donor type, donor heavy atom, donor atom, acceptor molecule, acceptor atom, score
      L1  H    11    37       P1  8028  0.77

> <Gold.PLP.Chemscore.Internal.Correction>
0.2220

> <Gold.Rescore>
     Score         DG    S(hbond)    S(metal)    S(lipo)     H(rot)  DE(clash)    DE(int)     intcor
     15.58     -19.65       0.90        0.00     145.49       2.28       0.94       3.13       ----

> <Gold.Chemscore.Fitness>
15.5775

> <Gold.Chemscore.DG>
-19.6508

> <Gold.Chemscore.ZeroCoef>
-5.4800

> <Gold.Chemscore.Hbond>
0.8971

> <Gold.Chemscore.Metal>
0.0000

> <Gold.Chemscore.Lipo>
145.4924

> <Gold.Chemscore.Internal_Hbond>
0.0000

> <Gold.Chemscore.DEClash>
0.9447

> <Gold.Chemscore.DEInternal>
3.1286

> <Gold.Chemscore.Rot>
2.2844

> <Gold.Chemscore.Internal.Correction>
   9.000000E+99

> <Gold.Chemscore.Hbonds>
donor molecule, donor type, donor heavy atom, donor atom, acceptor molecule, acceptor atom, score
      L1  H    11    37       P1  8028  0.74

> <Gold.Chemscore.Hbond.Weighted>
-2.9962

> <Gold.Chemscore.Metal.Weighted>
-0.0000

> <Gold.Chemscore.Lipo.Weighted>
-17.0226

> <Gold.Chemscore.Internal_Hbond.Weighted>
0.0000

> <Gold.Chemscore.DEClash.Weighted>
0.9447

> <Gold.Chemscore.DEInternal.Weighted>
3.1286

> <Gold.Chemscore.Rot.Weighted>
5.8480

> <Gold.Chemscore.Internal.Correction.Weighted>
   9.000000E+99

> <Gold.Protein.RotatedTorsions>
[ 6907 6896 6895 6894 ] final -128.30 input  -60.11 | X-H torsion
[ 7974 7965 7964 7962 ] final   49.86 input  175.53 | X-H torsion
[ 8008 7997 7996 7995 ] final   38.81 input   59.86 | X-H torsion
[ 10167 10162 10161 10158 ] final -108.25 input  -65.29 | X-H torsion
[ 10718 10713 10712 10709 ] final  167.15 input   66.30 | X-H torsion
[ 10763 10752 10751 10750 ] final  175.43 input  -60.55 | X-H torsion
[ 11005 11000 10999 10996 ] final  -23.89 input  -57.11 | X-H torsion

> <Gold.Protein.ActiveResidues>
 VAL166  LYS551  ARG553  GLY616  TRP617  ASP618  TYR619  PRO620  LYS621  CYS622 
 ASP623  PHE694  ASN695  SER759  ASP760  ASP761  ALA762  ILE779  LEU786  VAL792 
 PHE793  MET794  SER795  GLU796  ALA797  LYS798  CYS799  TRP800  GLU811  SER814 

> <Gold.Protein.RotatedAtoms>
  150.9164  133.6934  159.2842 H   0  0  0  0  0  0  0  0  0  0  0  0  # atno 6907 bound_to 6896
  151.4403  135.1018  159.9678 H   0  0  0  0  0  0  0  0  0  0  0  0  # atno 6908 bound_to 6896
  152.4957  133.8574  159.7288 H   0  0  0  0  0  0  0  0  0  0  0  0  # atno 6909 bound_to 6896
  146.0068  139.4499  142.9980 H   0  0  0  0  0  0  0  0  0  0  0  0  # atno 7974 bound_to 7965
  155.2263  140.3335  155.4309 H   0  0  0  0  0  0  0  0  0  0  0  0  # atno 8008 bound_to 7997
  156.2313  140.1852  156.7282 H   0  0  0  0  0  0  0  0  0  0  0  0  # atno 8009 bound_to 7997
  154.5983  140.0627  156.9318 H   0  0  0  0  0  0  0  0  0  0  0  0  # atno 8010 bound_to 7997
  140.1682  143.4064  152.1374 H   0  0  0  0  0  0  0  0  0  0  0  0  # atno 10167 bound_to 10162
  157.0556  131.0325  151.2665 H   0  0  0  0  0  0  0  0  0  0  0  0  # atno 10718 bound_to 10713
  154.4675  135.2770  155.1667 H   0  0  0  0  0  0  0  0  0  0  0  0  # atno 10763 bound_to 10752
  154.3429  135.6166  153.5609 H   0  0  0  0  0  0  0  0  0  0  0  0  # atno 10764 bound_to 10752
  152.9861  135.5793  154.5050 H   0  0  0  0  0  0  0  0  0  0  0  0  # atno 10765 bound_to 10752
  140.8794  133.7665  156.0283 H   0  0  0  0  0  0  0  0  0  0  0  0  # atno 11005 bound_to 11000
  145.7403  141.0010  143.1305 LP  0  0  0  0  0  0  0  0  0  0  0  0  # atno 17320 bound_to 7965
  144.6939  139.9091  143.7462 LP  0  0  0  0  0  0  0  0  0  0  0  0  # atno 17321 bound_to 7965
  139.5350  144.7200  151.4925 LP  0  0  0  0  0  0  0  0  0  0  0  0  # atno 17342 bound_to 10162
  140.6599  143.8520  150.6876 LP  0  0  0  0  0  0  0  0  0  0  0  0  # atno 17343 bound_to 10162
  157.4995  130.7871  149.7590 LP  0  0  0  0  0  0  0  0  0  0  0  0  # atno 17370 bound_to 10713
  155.9994  130.3889  150.2665 LP  0  0  0  0  0  0  0  0  0  0  0  0  # atno 17371 bound_to 10713
  140.8480  134.2988  157.5287 LP  0  0  0  0  0  0  0  0  0  0  0  0  # atno 17394 bound_to 11000
  139.8718  134.9452  156.3903 LP  0  0  0  0  0  0  0  0  0  0  0  0  # atno 17395 bound_to 11000

$$$$
