AV-unprocessed.smi:1517|AV-procd|sdf|6121|dock1
  -GOLD-   22720 6253D 1   1.00000     0.00000
 Structure written by MMmdl.
 42 44  0  0  0  0  0  0  0  0  2 V2000
  143.8151  137.8013  152.4588 O   0  0  0  0  0  0  0  0  0  0  0  0
  145.0762  137.1677  152.4845 C   0  0  0  0  0  0  0  0  0  0  0  0
  146.1458  138.1075  151.9130 C   0  0  0  0  0  0  0  0  0  0  0  0
  146.2952  139.3052  152.7237 N   0  0  0  0  0  0  0  0  0  0  0  0
  147.4800  139.4965  153.4418 C   0  0  0  0  0  0  0  0  0  0  0  0
  148.4587  138.5712  153.6308 N   0  3  0  0  0  0  0  0  0  0  0  0
  149.4727  139.1536  154.3970 C   0  0  0  0  0  0  0  0  0  0  0  0
  150.6786  138.6320  154.8556 C   0  0  0  0  0  0  0  0  0  0  0  0
  151.4939  139.4956  155.6165 C   0  0  0  0  0  0  0  0  0  0  0  0
  151.1030  140.8217  155.8945 C   0  0  0  0  0  0  0  0  0  0  0  0
  149.8793  141.3429  155.4255 C   0  0  0  0  0  0  0  0  0  0  0  0
  149.0764  140.4839  154.6761 C   0  0  0  0  0  0  0  0  0  0  0  0
  147.8283  140.6523  154.0643 N   0  0  0  0  0  0  0  0  0  0  0  0
  147.1363  141.9458  154.1644 C   0  0  0  0  0  0  0  0  0  0  0  0
  145.8559  141.8727  155.0187 C   0  0  1  0  0  0  0  0  0  0  0  0
  146.2004  141.6931  156.3799 O   0  0  0  0  0  0  0  0  0  0  0  0
  144.9744  143.0932  154.7904 C   0  0  0  0  0  0  0  0  0  0  0  0
  145.2926  144.0330  153.7839 C   0  0  0  0  0  0  0  0  0  0  0  0
  144.4693  145.1557  153.5722 C   0  0  0  0  0  0  0  0  0  0  0  0
  143.3190  145.3444  154.3611 C   0  0  0  0  0  0  0  0  0  0  0  0
  142.5268  146.4236  154.1574 F   0  0  0  0  0  0  0  0  0  0  0  0
  142.9905  144.4077  155.3593 C   0  0  0  0  0  0  0  0  0  0  0  0
  143.8128  143.2841  155.5730 C   0  0  0  0  0  0  0  0  0  0  0  0
  143.4768  142.3864  156.5310 F   0  0  0  0  0  0  0  0  0  0  0  0
  143.7781  138.3676  151.7029 H   0  0  0  0  0  0  0  0  0  0  0  0
  145.3211  136.8406  153.4958 H   0  0  0  0  0  0  0  0  0  0  0  0
  145.0062  136.2728  151.8656 H   0  0  0  0  0  0  0  0  0  0  0  0
  147.1060  137.5902  151.9090 H   0  0  0  0  0  0  0  0  0  0  0  0
  145.9199  138.3683  150.8780 H   0  0  0  0  0  0  0  0  0  0  0  0
  145.6666  140.0818  152.5738 H   0  0  0  0  0  0  0  0  0  0  0  0
  150.9825  137.6173  154.6436 H   0  0  0  0  0  0  0  0  0  0  0  0
  152.4394  139.1336  155.9941 H   0  0  0  0  0  0  0  0  0  0  0  0
  151.7557  141.4531  156.4798 H   0  0  0  0  0  0  0  0  0  0  0  0
  149.5901  142.3609  155.6426 H   0  0  0  0  0  0  0  0  0  0  0  0
  147.8364  142.6673  154.5879 H   0  0  0  0  0  0  0  0  0  0  0  0
  146.9126  142.2933  153.1550 H   0  0  0  0  0  0  0  0  0  0  0  0
  145.2901  140.9852  154.7338 H   0  0  0  0  0  0  0  0  0  0  0  0
  147.0827  141.3570  156.4243 H   0  0  0  0  0  0  0  0  0  0  0  0
  146.1681  143.8968  153.1660 H   0  0  0  0  0  0  0  0  0  0  0  0
  144.7198  145.8711  152.8028 H   0  0  0  0  0  0  0  0  0  0  0  0
  142.1048  144.5500  155.9611 H   0  0  0  0  0  0  0  0  0  0  0  0
  148.4353  137.6281  153.2655 H   0  0  0  0  0  0  0  0  0  0  0  0
  1  2  1  0  0  0  0
  1 25  1  0  0  0  0
  2  3  1  0  0  0  0
  2 26  1  0  0  0  0
  2 27  1  0  0  0  0
  3  4  1  0  0  0  0
  3 28  1  0  0  0  0
  3 29  1  0  0  0  0
  4  5  1  0  0  0  0
  4 30  1  0  0  0  0
  5 13  1  0  0  0  0
  5  6  2  0  0  0  0
  6  7  1  0  0  0  0
  6 42  1  0  0  0  0
  7 12  2  0  0  0  0
  7  8  1  0  0  0  0
  8  9  2  0  0  0  0
  8 31  1  0  0  0  0
  9 10  1  0  0  0  0
  9 32  1  0  0  0  0
 10 11  2  0  0  0  0
 10 33  1  0  0  0  0
 11 12  1  0  0  0  0
 11 34  1  0  0  0  0
 12 13  1  0  0  0  0
 13 14  1  0  0  0  0
 14 15  1  0  0  0  0
 14 35  1  0  0  0  0
 14 36  1  0  0  0  0
 15 16  1  0  0  0  0
 15 17  1  0  0  0  0
 15 37  1  0  0  0  0
 16 38  1  0  0  0  0
 17 23  1  0  0  0  0
 17 18  2  0  0  0  0
 18 19  1  0  0  0  0
 18 39  1  0  0  0  0
 19 20  2  0  0  0  0
 19 40  1  0  0  0  0
 20 21  1  0  0  0  0
 20 22  1  0  0  0  0
 22 23  2  0  0  0  0
 22 41  1  0  0  0  0
 23 24  1  0  0  0  0
M  CHG  1   6   1
M  END
> <s_m_source_file>
AV-unprocessed.smi

> <i_m_source_file_index>
1517

> <i_lp_mmshare_version>
43012

> <i_f3d_flags>
0

> <s_epik_input>
W09IXVtDSDJdW0NIMl1bTkhdYyhuMSluKGMoYzEyKVtjSF1bY0hdW2NIXVtjSF0yKVtDSDJdW0NASF0oW09IXSljM1tjSF1bY0hdYyhGKVtjSF1jM0Y=

> <s_epik_cmdline>
J2VwaWtfcHl0aG9uJywgJy1waCcsICc3LjAnLCAnLXRuJywgJzgnLCAnLW1hJywgJzIwMCcsICctbWV0YWxfYmluZGluZycsICctaW1hZScsICc8aW5maWxlLm1hZT4nLCAnLW9tYWUnLCAnPG91dGZpbGUubWFlPic=

> <r_epik_Ionization_Penalty>
0.0688096

> <r_epik_Ionization_Penalty_Charging>
0.0688055

> <r_epik_Ionization_Penalty_Neutral>
4.12262e-06

> <r_epik_State_Penalty>
0.0602293

> <r_epik_Charging_Adjusted_Penalty>
0.129035

> <i_epik_Tot_Q>
1

> <i_epik_Tot_abs_Q>
1

> <r_epik_Metal_State_Penalty>
2.77411

> <b_epik_Metal_Only>
0

> <s_lp_Force_Field>
OPLS_2005

> <r_lp_Energy>
23.6459

> <b_lp_Chiralities_Consistent>
1

> <s_lp_Variant>
AV-unprocessed.smi:1517-2

> <Gold.Version>
5.8.1

> <Gold.Id.Protein>
6NUR|6NUR_protein|mol2

> <Gold.PLP.Fitness>
64.2132

> <Gold.PLP.PLP>
-50.8330

> <Gold.PLP.part.hbond>
-5.0000

> <Gold.PLP.part.metal>
0.0000

> <Gold.PLP.part.buried>
-4.2504

> <Gold.PLP.part.nonpolar>
-43.2474

> <Gold.PLP.part.repulsive>
0.0570

> <Gold.PLP.ligand.clash>
0.0000

> <Gold.PLP.ligand.torsion>
0.3217

> <Gold.PLP.Chemscore.Hbond>
4.6320

> <Gold.PLP.Chemscore.CHOScore>
0.0000

> <Gold.PLP.Chemscore.Metal>
0.0000

> <Gold.Chemscore.Hbonds>
donor molecule, donor type, donor heavy atom, donor atom, acceptor molecule, acceptor atom, score
      L1  H     1    25       P1 10171  1.00
      L1  H     4    30       P1 10175  1.63
      L1  H     6    42       P1  7948  1.98

> <Gold.PLP.Chemscore.Internal.Correction>
0.1277

> <Gold.Rescore>
     Score         DG    S(hbond)    S(metal)    S(lipo)     H(rot)  DE(clash)    DE(int)     intcor
     16.23     -17.55       2.91        0.00      92.02       3.29       0.08       1.23       ----

> <Gold.Chemscore.Fitness>
16.2318

> <Gold.Chemscore.DG>
-17.5462

> <Gold.Chemscore.ZeroCoef>
-5.4800

> <Gold.Chemscore.Hbond>
2.9089

> <Gold.Chemscore.Metal>
0.0000

> <Gold.Chemscore.Lipo>
92.0178

> <Gold.Chemscore.Internal_Hbond>
0.0000

> <Gold.Chemscore.DEClash>
0.0800

> <Gold.Chemscore.DEInternal>
1.2343

> <Gold.Chemscore.Rot>
3.2874

> <Gold.Chemscore.Internal.Correction>
   9.000000E+99

> <Gold.Chemscore.Hbonds>
donor molecule, donor type, donor heavy atom, donor atom, acceptor molecule, acceptor atom, score
      L1  H     1    25       P1 10171  0.89
      L1  H     4    30       P1 10175  0.70
      L1  H     6    42       P1  7948  0.87

> <Gold.Chemscore.Hbond.Weighted>
-9.7159

> <Gold.Chemscore.Metal.Weighted>
-0.0000

> <Gold.Chemscore.Lipo.Weighted>
-10.7661

> <Gold.Chemscore.Internal_Hbond.Weighted>
0.0000

> <Gold.Chemscore.DEClash.Weighted>
0.0800

> <Gold.Chemscore.DEInternal.Weighted>
1.2343

> <Gold.Chemscore.Rot.Weighted>
8.4158

> <Gold.Chemscore.Internal.Correction.Weighted>
   9.000000E+99

> <Gold.Protein.RotatedTorsions>
[ 6907 6896 6895 6894 ] final   66.47 input  -60.11 | X-H torsion
[ 7974 7965 7964 7962 ] final   86.52 input  175.53 | X-H torsion
[ 8008 7997 7996 7995 ] final -155.15 input   59.86 | X-H torsion
[ 10167 10162 10161 10158 ] final  160.88 input  -65.29 | X-H torsion
[ 10718 10713 10712 10709 ] final -116.74 input   66.30 | X-H torsion
[ 10763 10752 10751 10750 ] final   63.67 input  -60.55 | X-H torsion
[ 11005 11000 10999 10996 ] final   26.62 input  -57.11 | X-H torsion

> <Gold.Protein.ActiveResidues>
 VAL166  LYS551  ARG553  GLY616  TRP617  ASP618  TYR619  PRO620  LYS621  CYS622 
 ASP623  PHE694  ASN695  SER759  ASP760  ASP761  ALA762  ILE779  LEU786  VAL792 
 PHE793  MET794  SER795  GLU796  ALA797  LYS798  CYS799  TRP800  GLU811  SER814 

> <Gold.Protein.RotatedAtoms>
  152.4483  134.5447  159.9849 H   0  0  0  0  0  0  0  0  0  0  0  0  # atno 6907 bound_to 6896
  151.5526  133.3409  159.2964 H   0  0  0  0  0  0  0  0  0  0  0  0  # atno 6908 bound_to 6896
  150.8405  134.7728  159.6992 H   0  0  0  0  0  0  0  0  0  0  0  0  # atno 6909 bound_to 6896
  145.5712  139.2314  143.2405 H   0  0  0  0  0  0  0  0  0  0  0  0  # atno 7974 bound_to 7965
  155.6975  140.0762  157.2424 H   0  0  0  0  0  0  0  0  0  0  0  0  # atno 8008 bound_to 7997
  154.4078  140.1653  156.2207 H   0  0  0  0  0  0  0  0  0  0  0  0  # atno 8009 bound_to 7997
  155.9398  140.3385  155.6320 H   0  0  0  0  0  0  0  0  0  0  0  0  # atno 8010 bound_to 7997
  139.4844  144.4591  151.8729 H   0  0  0  0  0  0  0  0  0  0  0  0  # atno 10167 bound_to 10162
  156.0985  130.6152  150.9075 H   0  0  0  0  0  0  0  0  0  0  0  0  # atno 10718 bound_to 10713
  153.0027  135.5420  154.6389 H   0  0  0  0  0  0  0  0  0  0  0  0  # atno 10763 bound_to 10752
  154.5649  135.2837  155.0886 H   0  0  0  0  0  0  0  0  0  0  0  0  # atno 10764 bound_to 10752
  154.2074  135.6473  153.5157 H   0  0  0  0  0  0  0  0  0  0  0  0  # atno 10765 bound_to 10752
  140.3351  134.2395  155.7697 H   0  0  0  0  0  0  0  0  0  0  0  0  # atno 11005 bound_to 11000
  146.1783  140.6538  142.9201 LP  0  0  0  0  0  0  0  0  0  0  0  0  # atno 17320 bound_to 7965
  144.7437  140.5011  143.6851 LP  0  0  0  0  0  0  0  0  0  0  0  0  # atno 17321 bound_to 7965
  140.4052  144.2441  150.5891 LP  0  0  0  0  0  0  0  0  0  0  0  0  # atno 17342 bound_to 10162
  140.5019  143.2315  151.8666 LP  0  0  0  0  0  0  0  0  0  0  0  0  # atno 17343 bound_to 10162
  157.6151  131.0934  150.8726 LP  0  0  0  0  0  0  0  0  0  0  0  0  # atno 17370 bound_to 10713
  156.8859  130.5195  149.5288 LP  0  0  0  0  0  0  0  0  0  0  0  0  # atno 17371 bound_to 10713
  141.2053  133.7863  157.0238 LP  0  0  0  0  0  0  0  0  0  0  0  0  # atno 17394 bound_to 11000
  140.0828  134.9638  157.1652 LP  0  0  0  0  0  0  0  0  0  0  0  0  # atno 17395 bound_to 11000

$$$$
