AV-unprocessed.smi:500|AV-procd|sdf|2737|dock5
  -GOLD-   2262023193D 1   1.00000     0.00000
 Structure written by MMmdl.
 46 48  0  0  0  0  0  0  0  0  2 V2000
  151.4782  138.1196  154.8844 C   0  0  0  0  0  0  0  0  0  0  0  0
  152.8914  138.4750  155.3525 C   0  0  0  0  0  0  0  0  0  0  0  0
  152.8162  139.5493  156.2745 O   0  0  0  0  0  0  0  0  0  0  0  0
  152.5898  139.1143  157.6041 C   0  0  0  0  0  0  0  0  0  0  0  0
  151.1748  139.5303  158.0233 C   0  0  0  0  0  0  0  0  0  0  0  0
  150.8855  140.9253  157.6665 N   0  0  0  0  0  0  0  0  0  0  0  0
  149.9293  141.4490  156.8451 C   0  0  0  0  0  0  0  0  0  0  0  0
  148.9141  140.6743  156.0513 C   0  0  1  0  0  0  0  0  0  0  0  0
  149.4018  140.3327  154.6303 C   0  0  0  0  0  0  0  0  0  0  0  0
  148.4369  139.4841  156.7563 N   0  0  0  0  0  0  0  0  0  0  0  0
  147.4434  139.4239  157.6599 C   0  0  0  0  0  0  0  0  0  0  0  0
  146.7992  140.4049  158.0314 O   0  0  0  0  0  0  0  0  0  0  0  0
  147.1458  138.0819  158.1946 C   0  0  0  0  0  0  0  0  0  0  0  0
  147.4211  136.8306  157.7083 C   0  0  0  0  0  0  0  0  0  0  0  0
  146.8949  135.9031  158.6494 C   0  0  0  0  0  0  0  0  0  0  0  0
  146.3358  136.6530  159.6437 C   0  0  0  0  0  0  0  0  0  0  0  0
  146.4809  137.9805  159.3824 O   0  0  0  0  0  0  0  0  0  0  0  0
  150.1040  142.8027  156.8433 N   0  3  0  0  0  0  0  0  0  0  0  0
  151.1641  143.1467  157.6822 C   0  0  0  0  0  0  0  0  0  0  0  0
  151.7071  144.3865  158.0048 C   0  0  0  0  0  0  0  0  0  0  0  0
  152.7958  144.3864  158.9017 C   0  0  0  0  0  0  0  0  0  0  0  0
  153.3037  143.1859  159.4397 C   0  0  0  0  0  0  0  0  0  0  0  0
  152.7453  141.9349  159.1039 C   0  0  0  0  0  0  0  0  0  0  0  0
  151.6698  141.9446  158.2162 C   0  0  0  0  0  0  0  0  0  0  0  0
  151.5007  137.2953  154.1713 H   0  0  0  0  0  0  0  0  0  0  0  0
  151.0017  138.9705  154.3967 H   0  0  0  0  0  0  0  0  0  0  0  0
  150.8504  137.8190  155.7236 H   0  0  0  0  0  0  0  0  0  0  0  0
  153.3563  137.6074  155.8230 H   0  0  0  0  0  0  0  0  0  0  0  0
  153.5058  138.7557  154.4960 H   0  0  0  0  0  0  0  0  0  0  0  0
  152.6951  138.0300  157.6669 H   0  0  0  0  0  0  0  0  0  0  0  0
  153.3294  139.5579  158.2724 H   0  0  0  0  0  0  0  0  0  0  0  0
  150.4222  138.8854  157.5685 H   0  0  0  0  0  0  0  0  0  0  0  0
  151.0574  139.4269  159.1020 H   0  0  0  0  0  0  0  0  0  0  0  0
  148.0423  141.3199  155.9407 H   0  0  0  0  0  0  0  0  0  0  0  0
  149.6575  141.2368  154.0769 H   0  0  0  0  0  0  0  0  0  0  0  0
  148.6260  139.8141  154.0661 H   0  0  0  0  0  0  0  0  0  0  0  0
  150.2837  139.6917  154.6419 H   0  0  0  0  0  0  0  0  0  0  0  0
  148.8984  138.6164  156.5245 H   0  0  0  0  0  0  0  0  0  0  0  0
  147.9379  136.6063  156.7867 H   0  0  0  0  0  0  0  0  0  0  0  0
  146.9213  134.8244  158.6045 H   0  0  0  0  0  0  0  0  0  0  0  0
  145.8201  136.4166  160.5628 H   0  0  0  0  0  0  0  0  0  0  0  0
  151.3202  145.3073  157.5932 H   0  0  0  0  0  0  0  0  0  0  0  0
  153.2504  145.3254  159.1825 H   0  0  0  0  0  0  0  0  0  0  0  0
  154.1392  143.2248  160.1236 H   0  0  0  0  0  0  0  0  0  0  0  0
  153.1408  141.0209  159.5217 H   0  0  0  0  0  0  0  0  0  0  0  0
  149.5392  143.4412  156.2981 H   0  0  0  0  0  0  0  0  0  0  0  0
  1  2  1  0  0  0  0
  1 25  1  0  0  0  0
  1 26  1  0  0  0  0
  1 27  1  0  0  0  0
  2  3  1  0  0  0  0
  2 28  1  0  0  0  0
  2 29  1  0  0  0  0
  3  4  1  0  0  0  0
  4  5  1  0  0  0  0
  4 30  1  0  0  0  0
  4 31  1  0  0  0  0
  5  6  1  0  0  0  0
  5 32  1  0  0  0  0
  5 33  1  0  0  0  0
  6 24  1  0  0  0  0
  6  7  1  0  0  0  0
  7  8  1  0  0  0  0
  7 18  2  0  0  0  0
  8  9  1  0  0  0  0
  8 10  1  0  0  0  0
  8 34  1  0  0  0  0
  9 35  1  0  0  0  0
  9 36  1  0  0  0  0
  9 37  1  0  0  0  0
 10 11  1  0  0  0  0
 10 38  1  0  0  0  0
 11 12  2  0  0  0  0
 11 13  1  0  0  0  0
 13 17  1  0  0  0  0
 13 14  2  0  0  0  0
 14 15  1  0  0  0  0
 14 39  1  0  0  0  0
 15 16  2  0  0  0  0
 15 40  1  0  0  0  0
 16 17  1  0  0  0  0
 16 41  1  0  0  0  0
 18 19  1  0  0  0  0
 18 46  1  0  0  0  0
 19 24  2  0  0  0  0
 19 20  1  0  0  0  0
 20 21  2  0  0  0  0
 20 42  1  0  0  0  0
 21 22  1  0  0  0  0
 21 43  1  0  0  0  0
 22 23  2  0  0  0  0
 22 44  1  0  0  0  0
 23 24  1  0  0  0  0
 23 45  1  0  0  0  0
M  CHG  1  18   1
M  END
> <s_m_source_file>
AV-unprocessed.smi

> <i_m_source_file_index>
500

> <i_lp_mmshare_version>
43012

> <i_f3d_flags>
0

> <s_epik_input>
W0NIM11bQ0gyXU9bQ0gyXVtDSDJdbihjKGMxMilbY0hdW2NIXVtjSF1bY0hdMiljKG4xKVtDQEhdKFtDSDNdKVtOSF1DKD1PKWMzW2NIXVtjSF1bY0hdbzM=

> <s_epik_cmdline>
J2VwaWtfcHl0aG9uJywgJy1waCcsICc3LjAnLCAnLXRuJywgJzgnLCAnLW1hJywgJzIwMCcsICctbWV0YWxfYmluZGluZycsICctaW1hZScsICc8aW5maWxlLm1hZT4nLCAnLW9tYWUnLCAnPG91dGZpbGUubWFlPic=

> <r_epik_Ionization_Penalty>
1.05286

> <r_epik_Ionization_Penalty_Charging>
1.05283

> <r_epik_Ionization_Penalty_Neutral>
2.09263e-05

> <r_epik_State_Penalty>
1.10586

> <r_epik_Charging_Adjusted_Penalty>
2.15869

> <i_epik_Tot_Q>
1

> <i_epik_Tot_abs_Q>
1

> <r_epik_Metal_State_Penalty>
1.22833

> <b_epik_Metal_Only>
0

> <s_lp_Force_Field>
OPLS_2005

> <r_lp_Energy>
11.8725

> <b_lp_Chiralities_Consistent>
1

> <s_lp_Variant>
AV-unprocessed.smi:500-4

> <Gold.Version>
5.8.1

> <Gold.Id.Protein>
6NUR|6NUR_protein|mol2

> <Gold.PLP.Fitness>
49.1660

> <Gold.PLP.PLP>
-41.4615

> <Gold.PLP.part.hbond>
-3.7858

> <Gold.PLP.part.metal>
0.0000

> <Gold.PLP.part.buried>
-5.6761

> <Gold.PLP.part.nonpolar>
-33.3713

> <Gold.PLP.part.repulsive>
0.0585

> <Gold.PLP.ligand.clash>
0.0000

> <Gold.PLP.ligand.torsion>
1.8148

> <Gold.PLP.Chemscore.Hbond>
3.7200

> <Gold.PLP.Chemscore.CHOScore>
0.0000

> <Gold.PLP.Chemscore.Metal>
0.0000

> <Gold.Chemscore.Hbonds>
donor molecule, donor type, donor heavy atom, donor atom, acceptor molecule, acceptor atom, score
      L1  H    18    46       P1  8028  2.00
      P1  H  6934  6947       L1    17  0.74
      P1  H  7997  8009       L1     3  1.00

> <Gold.PLP.Chemscore.Internal.Correction>
0.1741

> <Gold.Rescore>
     Score         DG    S(hbond)    S(metal)    S(lipo)     H(rot)  DE(clash)    DE(int)     intcor
     17.12     -19.45       2.09        0.00     102.92       1.97       0.00       2.32       ----

> <Gold.Chemscore.Fitness>
17.1223

> <Gold.Chemscore.DG>
-19.4495

> <Gold.Chemscore.ZeroCoef>
-5.4800

> <Gold.Chemscore.Hbond>
2.0906

> <Gold.Chemscore.Metal>
0.0000

> <Gold.Chemscore.Lipo>
102.9231

> <Gold.Chemscore.Internal_Hbond>
0.0000

> <Gold.Chemscore.DEClash>
0.0029

> <Gold.Chemscore.DEInternal>
2.3243

> <Gold.Chemscore.Rot>
1.9746

> <Gold.Chemscore.Internal.Correction>
   9.000000E+99

> <Gold.Chemscore.Hbonds>
donor molecule, donor type, donor heavy atom, donor atom, acceptor molecule, acceptor atom, score
      L1  H    18    46       P1  8028  0.97
      P1  H  6934  6947       L1    17  0.62
      P1  H  7997  8009       L1     3  0.15

> <Gold.Chemscore.Hbond.Weighted>
-6.9825

> <Gold.Chemscore.Metal.Weighted>
-0.0000

> <Gold.Chemscore.Lipo.Weighted>
-12.0420

> <Gold.Chemscore.Internal_Hbond.Weighted>
0.0000

> <Gold.Chemscore.DEClash.Weighted>
0.0029

> <Gold.Chemscore.DEInternal.Weighted>
2.3243

> <Gold.Chemscore.Rot.Weighted>
5.0550

> <Gold.Chemscore.Internal.Correction.Weighted>
   9.000000E+99

> <Gold.Protein.RotatedTorsions>
[ 6907 6896 6895 6894 ] final  -22.86 input  -60.11 | X-H torsion
[ 7974 7965 7964 7962 ] final  -99.38 input  175.53 | X-H torsion
[ 8008 7997 7996 7995 ] final -165.61 input   59.86 | X-H torsion
[ 10167 10162 10161 10158 ] final   10.01 input  -65.29 | X-H torsion
[ 10718 10713 10712 10709 ] final   57.70 input   66.30 | X-H torsion
[ 10763 10752 10751 10750 ] final   68.59 input  -60.55 | X-H torsion
[ 11005 11000 10999 10996 ] final -148.93 input  -57.11 | X-H torsion

> <Gold.Protein.ActiveResidues>
 VAL166  LYS551  ARG553  GLY616  TRP617  ASP618  TYR619  PRO620  LYS621  CYS622 
 ASP623  PHE694  ASN695  SER759  ASP760  ASP761  ALA762  ILE779  LEU786  VAL792 
 PHE793  MET794  SER795  GLU796  ALA797  LYS798  CYS799  TRP800  GLU811  SER814 

> <Gold.Protein.RotatedAtoms>
  151.2124  135.0486  159.8916 H   0  0  0  0  0  0  0  0  0  0  0  0  # atno 6907 bound_to 6896
  152.5423  134.0730  159.8212 H   0  0  0  0  0  0  0  0  0  0  0  0  # atno 6908 bound_to 6896
  151.0885  133.5286  159.2648 H   0  0  0  0  0  0  0  0  0  0  0  0  # atno 6909 bound_to 6896
  145.3083  140.9394  143.2784 H   0  0  0  0  0  0  0  0  0  0  0  0  # atno 7974 bound_to 7965
  155.8523  140.0965  157.1667 H   0  0  0  0  0  0  0  0  0  0  0  0  # atno 8008 bound_to 7997
  154.3986  140.1381  156.3921 H   0  0  0  0  0  0  0  0  0  0  0  0  # atno 8009 bound_to 7997
  155.7948  140.3454  155.5372 H   0  0  0  0  0  0  0  0  0  0  0  0  # atno 8010 bound_to 7997
  140.6220  143.8183  150.7187 H   0  0  0  0  0  0  0  0  0  0  0  0  # atno 10167 bound_to 10162
  157.5536  130.8784  149.9001 H   0  0  0  0  0  0  0  0  0  0  0  0  # atno 10718 bound_to 10713
  153.0243  135.5242  154.7158 H   0  0  0  0  0  0  0  0  0  0  0  0  # atno 10763 bound_to 10752
  154.6227  135.2891  155.0310 H   0  0  0  0  0  0  0  0  0  0  0  0  # atno 10764 bound_to 10752
  154.1290  135.6596  153.4970 H   0  0  0  0  0  0  0  0  0  0  0  0  # atno 10765 bound_to 10752
  140.7561  134.3351  157.5114 H   0  0  0  0  0  0  0  0  0  0  0  0  # atno 11005 bound_to 11000
  144.9036  139.4617  143.6620 LP  0  0  0  0  0  0  0  0  0  0  0  0  # atno 17320 bound_to 7965
  146.3127  139.7805  142.9007 LP  0  0  0  0  0  0  0  0  0  0  0  0  # atno 17321 bound_to 7965
  140.1775  143.4142  152.1956 LP  0  0  0  0  0  0  0  0  0  0  0  0  # atno 17342 bound_to 10162
  139.5447  144.7288  151.4621 LP  0  0  0  0  0  0  0  0  0  0  0  0  # atno 17343 bound_to 10162
  156.0598  130.3702  150.1007 LP  0  0  0  0  0  0  0  0  0  0  0  0  # atno 17370 bound_to 10713
  156.9178  130.9673  151.3553 LP  0  0  0  0  0  0  0  0  0  0  0  0  # atno 17371 bound_to 10713
  139.8779  134.9172  156.3174 LP  0  0  0  0  0  0  0  0  0  0  0  0  # atno 17394 bound_to 11000
  140.9706  133.7329  156.0530 LP  0  0  0  0  0  0  0  0  0  0  0  0  # atno 17395 bound_to 11000

$$$$
