#       Name:                AV-unprocessed.smi:197
#       Creating user name   scv26
#       Creation time:       Thu Mar 26 19:40:39 2020


#       File generated by GOLD software.
#

@<TRIPOS>MOLECULE
AV-unprocessed.smi:197
    66    69     1
SMALL
NO_CHARGES


@<TRIPOS>ATOM
      1 ****        -1.2032   0.4809   4.5252 C.3            1 S1                 0.0000
      2 ****        -2.5992   0.5609   4.2821 O.3            1 S1                 0.0000
      3 ****        -2.9954   0.1018   2.9969 C.3            1 S1                 0.0000
      4 ****        -2.7629   1.1719   1.9142 C.3            1 S1                 0.0000
      5 ****        -3.1646   0.7168   0.4895 C.3            1 S1                 0.0000
      6 ****        -4.6906   0.5557   0.3126 C.3            1 S1                 0.0000
      7 ****        -5.3268   1.8291   0.3604 O.3            1 S1                 0.0000
      8 ****        -4.8994   2.6775  -0.6998 C.3            1 S1                 0.0000
      9 ****        -3.3846   2.9179  -0.5974 C.3            1 S1                 0.0000
     10 ****        -2.6757   1.6400  -0.5396 N.3            1 S1                 0.0000
     11 ****        -1.3365   1.6386  -0.7728 C.ar           1 S1                 0.0000
     12 ****        -0.6281   2.7910  -0.6292 N.ar           1 S1                 0.0000
     13 ****         0.6917   2.8047  -0.8345 C.ar           1 S1                 0.0000
     14 ****         1.4915   1.7966  -1.1856 N.ar           1 S1                 0.0000
     15 ****         0.7889   0.6382  -1.3387 C.ar           1 S1                 0.0000
     16 ****        -0.6143   0.4730  -1.1592 C.ar           1 S1                 0.0000
     17 ****        -0.9705  -0.8435  -1.4293 N.2            1 S1                 0.0000
     18 ****         0.1562  -1.4237  -1.7388 C.2            1 S1                 0.0000
     19 ****         1.2659  -0.6111  -1.6962 N.pl3          1 S1                 0.0000
     20 ****         2.6373  -0.9959  -1.9922 C.3            1 S1                 0.0000
     21 ****         3.4650  -1.4050  -0.7422 C.3            1 S1                 0.0000
     22 ****         3.5963  -0.2956   0.1261 O.3            1 S1                 0.0000
     23 ****         2.8730  -2.5731   0.0375 C.3            1 S1                 0.0000
     24 ****         3.3857  -3.7834  -0.7370 C.3            1 S1                 0.0000
     25 ****         4.6353  -3.3839  -1.2924 O.3            1 S1                 0.0000
     26 ****         4.8509  -1.9921  -1.0724 C.3            1 S1                 0.0000
     27 ****         5.6043  -1.3645  -2.2548 C.3            1 S1                 0.0000
     28 ****        -0.9948   0.8127   5.5422 H              1 S1                 0.0000
     29 ****        -0.6316   1.1163   3.8493 H              1 S1                 0.0000
     30 ****        -0.8436  -0.5443   4.4295 H              1 S1                 0.0000
     31 ****        -2.4904  -0.8322   2.7454 H              1 S1                 0.0000
     32 ****        -4.0578  -0.1291   3.0625 H              1 S1                 0.0000
     33 ****        -3.2976   2.0826   2.1858 H              1 S1                 0.0000
     34 ****        -1.7061   1.4356   1.9109 H              1 S1                 0.0000
     35 ****        -2.7229  -0.2642   0.3252 H              1 S1                 0.0000
     36 ****        -4.9123   0.0726  -0.6405 H              1 S1                 0.0000
     37 ****        -5.1156  -0.0864   1.0823 H              1 S1                 0.0000
     38 ****        -5.1560   2.2297  -1.6612 H              1 S1                 0.0000
     39 ****        -5.4354   3.6245  -0.6371 H              1 S1                 0.0000
     40 ****        -3.0519   3.4961  -1.4605 H              1 S1                 0.0000
     41 ****        -3.1565   3.5061   0.2921 H              1 S1                 0.0000
     42 ****         1.1764   3.7599  -0.6956 H              1 S1                 0.0000
     43 ****         0.2106  -2.4702  -2.0018 H              1 S1                 0.0000
     44 ****         2.6071  -1.8154  -2.7112 H              1 S1                 0.0000
     45 ****         3.1137  -0.1605  -2.5067 H              1 S1                 0.0000
     46 ****         4.1072  -0.5600   0.8758 H              1 S1                 0.0000
     47 ****         3.2884  -2.6016   1.0466 H              1 S1                 0.0000
     48 ****         1.7890  -2.5548   0.1395 H              1 S1                 0.0000
     49 ****         3.4953  -4.6637  -0.1033 H              1 S1                 0.0000
     50 ****         2.7054  -4.0351  -1.5514 H              1 S1                 0.0000
     51 ****         5.4823  -1.9218  -0.1844 H              1 S1                 0.0000
     52 ****         5.7418  -0.2932  -2.1064 H              1 S1                 0.0000
     53 ****         5.0747  -1.5115  -3.1960 H              1 S1                 0.0000
     54 ****         6.5916  -1.8132  -2.3637 H              1 S1                 0.0000
     55 ****        -2.8789   1.5166   4.3734 LP             1 S1                 0.0000
     56 ****        -3.0693   0.0088   4.9707 LP             1 S1                 0.0000
     57 ****        -5.1084   2.2668   1.2326 LP             1 S1                 0.0000
     58 ****        -6.3159   1.6989   0.2913 LP             1 S1                 0.0000
     59 ****        -2.9675   1.2152  -1.3966 LP             1 S1                 0.0000
     60 ****        -1.0987   3.6338  -0.3681 LP             1 S1                 0.0000
     61 ****         2.4790   1.8797  -1.3193 LP             1 S1                 0.0000
     62 ****        -1.8824  -1.2524  -1.3943 LP             1 S1                 0.0000
     63 ****         2.6914   0.0079   0.4247 LP             1 S1                 0.0000
     64 ****         4.0584   0.4525  -0.3501 LP             1 S1                 0.0000
     65 ****         4.6329  -3.5662  -2.2756 LP             1 S1                 0.0000
     66 ****         5.3708  -3.9045  -0.8587 LP             1 S1                 0.0000
@<TRIPOS>BOND
    1    1    2 1     
    2    1   28 1     
    3    1   29 1     
    4    1   30 1     
    5    2    3 1     
    6    3    4 1     
    7    3   31 1     
    8    3   32 1     
    9    4    5 1     
   10    4   33 1     
   11    4   34 1     
   12    5   10 1     
   13    5    6 1     
   14    5   35 1     
   15    6    7 1     
   16    6   36 1     
   17    6   37 1     
   18    7    8 1     
   19    8    9 1     
   20    8   38 1     
   21    8   39 1     
   22    9   10 1     
   23    9   40 1     
   24    9   41 1     
   25   10   11 1     
   26   11   16 ar    
   27   11   12 ar    
   28   12   13 ar    
   29   13   14 ar    
   30   13   42 1     
   31   14   15 ar    
   32   15   19 1     
   33   15   16 ar    
   34   16   17 1     
   35   17   18 2     
   36   18   19 1     
   37   18   43 1     
   38   19   20 1     
   39   20   21 1     
   40   20   44 1     
   41   20   45 1     
   42   21   26 1     
   43   21   22 1     
   44   21   23 1     
   45   22   46 1     
   46   23   24 1     
   47   23   47 1     
   48   23   48 1     
   49   24   25 1     
   50   24   49 1     
   51   24   50 1     
   52   25   26 1     
   53   26   27 1     
   54   26   51 1     
   55   27   52 1     
   56   27   53 1     
   57   27   54 1     
   58    2   55 1     
   59    2   56 1     
   60    7   57 1     
   61    7   58 1     
   62   10   59 1     
   63   12   60 1     
   64   14   61 1     
   65   17   62 1     
   66   22   63 1     
   67   22   64 1     
   68   25   65 1     
   69   25   66 1     
@<TRIPOS>SUBSTRUCTURE
      1 S1             1
@<TRIPOS>SET
LONE_PAIRS      STATIC     ATOMS    <user>   **** ""
12 55 56 57 58 59 60 61 62 63 64 65 66
DONOR_HYDROGENS      STATIC     ATOMS    <user>   **** ""
1 46
ATOM$BLUE        STATIC     ATOMS    COLORGROUP SYSTEM
12 55 56 57 58 59 60 61 62 63 64 65 66
ATOM$RED        STATIC     ATOMS    COLORGROUP SYSTEM
1 46
