AV-unprocessed.smi:1607|AV-procd|sdf|6465|dock7
  -GOLD-   22720 7123D 1   1.00000     0.00000
 Structure written by MMmdl.
 39 40  0  0  0  0  0  0  0  0  2 V2000
  152.4858  142.7179  161.4850 C   0  0  0  0  0  0  0  0  0  0  0  0
  152.9912  142.1897  160.1308 C   0  0  2  0  0  0  0  0  0  0  0  0
  153.6296  143.2889  159.2611 C   0  0  0  0  0  0  0  0  0  0  0  0
  152.5624  144.2163  158.6628 C   0  0  0  0  0  0  0  0  0  0  0  0
  151.4860  143.4116  157.9172 C   0  0  0  0  0  0  0  0  0  0  0  0
  150.8693  142.3927  158.8053 N   0  3  1  0  0  0  0  0  0  0  0  0
  149.7221  141.7034  158.1632 C   0  0  0  0  0  0  0  0  0  0  0  0
  149.9381  141.4964  156.6513 C   0  0  0  0  0  0  0  0  0  0  0  0
  150.4815  140.1745  156.3618 N   0  0  0  0  0  0  0  0  0  0  0  0
  150.6476  139.6683  155.1299 C   0  0  0  0  0  0  0  0  0  0  0  0
  150.3365  140.2750  154.1048 O   0  0  0  0  0  0  0  0  0  0  0  0
  151.2583  138.2680  155.0396 C   0  0  0  0  0  0  0  0  0  0  0  0
  152.5620  138.2216  155.6758 N   0  0  0  0  0  0  0  0  0  0  0  0
  152.9321  138.4589  156.9362 C   0  0  0  0  0  0  0  0  0  0  0  0
  154.2372  138.3060  157.0997 N   0  0  0  0  0  0  0  0  0  0  0  0
  154.6730  137.9482  155.8348 N   0  0  0  0  0  0  0  0  0  0  0  0
  153.6835  137.8959  154.9859 N   0  0  0  0  0  0  0  0  0  0  0  0
  151.8881  141.4510  159.3450 C   0  0  0  0  0  0  0  0  0  0  0  0
  151.6772  143.4388  161.3665 H   0  0  0  0  0  0  0  0  0  0  0  0
  153.2878  143.2072  162.0383 H   0  0  0  0  0  0  0  0  0  0  0  0
  152.1112  141.9036  162.1059 H   0  0  0  0  0  0  0  0  0  0  0  0
  153.7721  141.4629  160.3585 H   0  0  0  0  0  0  0  0  0  0  0  0
  154.3525  143.8648  159.8399 H   0  0  0  0  0  0  0  0  0  0  0  0
  154.1909  142.8234  158.4497 H   0  0  0  0  0  0  0  0  0  0  0  0
  152.0985  144.8090  159.4518 H   0  0  0  0  0  0  0  0  0  0  0  0
  153.0311  144.9284  157.9828 H   0  0  0  0  0  0  0  0  0  0  0  0
  150.7204  144.0977  157.5521 H   0  0  0  0  0  0  0  0  0  0  0  0
  151.9169  142.9219  157.0423 H   0  0  0  0  0  0  0  0  0  0  0  0
  149.5872  140.7215  158.6194 H   0  0  0  0  0  0  0  0  0  0  0  0
  148.8052  142.2609  158.3605 H   0  0  0  0  0  0  0  0  0  0  0  0
  149.0127  141.6311  156.0906 H   0  0  0  0  0  0  0  0  0  0  0  0
  150.6390  142.2408  156.2724 H   0  0  0  0  0  0  0  0  0  0  0  0
  150.7632  139.6103  157.1509 H   0  0  0  0  0  0  0  0  0  0  0  0
  150.6128  137.5300  155.5181 H   0  0  0  0  0  0  0  0  0  0  0  0
  151.3548  137.9808  153.9914 H   0  0  0  0  0  0  0  0  0  0  0  0
  152.2520  138.7441  157.7252 H   0  0  0  0  0  0  0  0  0  0  0  0
  152.3347  140.8993  158.5160 H   0  0  0  0  0  0  0  0  0  0  0  0
  151.4226  140.7084  159.9919 H   0  0  0  0  0  0  0  0  0  0  0  0
  150.4919  142.9011  159.5922 H   0  0  0  0  0  0  0  0  0  0  0  0
  1  2  1  0  0  0  0
  1 19  1  0  0  0  0
  1 20  1  0  0  0  0
  1 21  1  0  0  0  0
  2 18  1  0  0  0  0
  2  3  1  0  0  0  0
  2 22  1  0  0  0  0
  3  4  1  0  0  0  0
  3 23  1  0  0  0  0
  3 24  1  0  0  0  0
  4  5  1  0  0  0  0
  4 25  1  0  0  0  0
  4 26  1  0  0  0  0
  5  6  1  0  0  0  0
  5 27  1  0  0  0  0
  5 28  1  0  0  0  0
  6  7  1  0  0  0  0
  6 18  1  0  0  0  0
  6 39  1  0  0  0  0
  7  8  1  0  0  0  0
  7 29  1  0  0  0  0
  7 30  1  0  0  0  0
  8  9  1  0  0  0  0
  8 31  1  0  0  0  0
  8 32  1  0  0  0  0
  9 10  1  0  0  0  0
  9 33  1  0  0  0  0
 10 11  2  0  0  0  0
 10 12  1  0  0  0  0
 12 13  1  0  0  0  0
 12 34  1  0  0  0  0
 12 35  1  0  0  0  0
 13 17  1  0  0  0  0
 13 14  1  0  0  0  0
 14 15  2  0  0  0  0
 14 36  1  0  0  0  0
 15 16  1  0  0  0  0
 16 17  2  0  0  0  0
 18 37  1  0  0  0  0
 18 38  1  0  0  0  0
M  CHG  1   6   1
M  END
> <s_m_source_file>
AV-unprocessed.smi

> <i_m_source_file_index>
1607

> <i_lp_mmshare_version>
43012

> <i_f3d_flags>
0

> <s_epik_input>
W0NIM11bQ0BASF0xW0NIMl1bQ0gyXVtDSDJdTihbQ0gyXTEpW0NIMl1bQ0gyXVtOSF1DKD1PKVtDSDJdbjJbY0hdbm5uMg==

> <s_epik_cmdline>
J2VwaWtfcHl0aG9uJywgJy1waCcsICc3LjAnLCAnLXRuJywgJzgnLCAnLW1hJywgJzIwMCcsICctbWV0YWxfYmluZGluZycsICctaW1hZScsICc8aW5maWxlLm1hZT4nLCAnLW9tYWUnLCAnPG91dGZpbGUubWFlPic=

> <r_lp_tautomer_probability>
1

> <r_epik_Ionization_Penalty>
0.00268321

> <r_epik_Ionization_Penalty_Charging>
0.00267875

> <r_epik_Ionization_Penalty_Neutral>
4.46125e-06

> <r_epik_State_Penalty>
0.00186642

> <r_epik_Charging_Adjusted_Penalty>
0.00454517

> <i_epik_Tot_Q>
1

> <i_epik_Tot_abs_Q>
1

> <r_epik_Metal_State_Penalty>
-0

> <b_epik_Metal_Only>
0

> <s_lp_Force_Field>
OPLS_2005

> <r_lp_Energy>
22.0016

> <b_lp_Chiralities_Consistent>
1

> <s_lp_Variant>
AV-unprocessed.smi:1607-3

> <Gold.Version>
5.8.1

> <Gold.Id.Protein>
6NUR|6NUR_protein|mol2

> <Gold.PLP.Fitness>
40.8960

> <Gold.PLP.PLP>
-37.4762

> <Gold.PLP.part.hbond>
-4.8038

> <Gold.PLP.part.metal>
0.0000

> <Gold.PLP.part.buried>
-5.8824

> <Gold.PLP.part.nonpolar>
-26.9049

> <Gold.PLP.part.repulsive>
1.0063

> <Gold.PLP.ligand.clash>
0.0000

> <Gold.PLP.ligand.torsion>
0.6033

> <Gold.PLP.Chemscore.Hbond>
1.5360

> <Gold.PLP.Chemscore.CHOScore>
0.0000

> <Gold.PLP.Chemscore.Metal>
0.0000

> <Gold.Chemscore.Hbonds>
donor molecule, donor type, donor heavy atom, donor atom, acceptor molecule, acceptor atom, score
      P1  H  7989  7998       L1    11  0.98
      P1  H  7997  8008       L1    15  0.53

> <Gold.PLP.Chemscore.Internal.Correction>
0.0184

> <Gold.Rescore>
     Score         DG    S(hbond)    S(metal)    S(lipo)     H(rot)  DE(clash)    DE(int)     intcor
     13.75     -14.43       1.71        0.00      86.54       2.69       0.02       0.66       ----

> <Gold.Chemscore.Fitness>
13.7495

> <Gold.Chemscore.DG>
-14.4349

> <Gold.Chemscore.ZeroCoef>
-5.4800

> <Gold.Chemscore.Hbond>
1.7140

> <Gold.Chemscore.Metal>
0.0000

> <Gold.Chemscore.Lipo>
86.5365

> <Gold.Chemscore.Internal_Hbond>
0.0000

> <Gold.Chemscore.DEClash>
0.0240

> <Gold.Chemscore.DEInternal>
0.6613

> <Gold.Chemscore.Rot>
2.6932

> <Gold.Chemscore.Internal.Correction>
   9.000000E+99

> <Gold.Chemscore.Hbonds>
donor molecule, donor type, donor heavy atom, donor atom, acceptor molecule, acceptor atom, score
      P1  H  7989  7998       L1    11  0.61
      P1  H  7997  8008       L1    15  0.03

> <Gold.Chemscore.Hbond.Weighted>
-5.7246

> <Gold.Chemscore.Metal.Weighted>
-0.0000

> <Gold.Chemscore.Lipo.Weighted>
-10.1248

> <Gold.Chemscore.Internal_Hbond.Weighted>
0.0000

> <Gold.Chemscore.DEClash.Weighted>
0.0240

> <Gold.Chemscore.DEInternal.Weighted>
0.6613

> <Gold.Chemscore.Rot.Weighted>
6.8945

> <Gold.Chemscore.Internal.Correction.Weighted>
   9.000000E+99

> <Gold.Protein.RotatedTorsions>
[ 6907 6896 6895 6894 ] final -142.68 input  -60.11 | X-H torsion
[ 7974 7965 7964 7962 ] final   78.52 input  175.53 | X-H torsion
[ 8008 7997 7996 7995 ] final  -95.44 input   59.86 | X-H torsion
[ 10167 10162 10161 10158 ] final  130.70 input  -65.29 | X-H torsion
[ 10718 10713 10712 10709 ] final  -78.57 input   66.30 | X-H torsion
[ 10763 10752 10751 10750 ] final -134.69 input  -60.55 | X-H torsion
[ 11005 11000 10999 10996 ] final  125.89 input  -57.11 | X-H torsion

> <Gold.Protein.ActiveResidues>
 VAL166  LYS551  ARG553  GLY616  TRP617  ASP618  TYR619  PRO620  LYS621  CYS622 
 ASP623  PHE694  ASN695  SER759  ASP760  ASP761  ALA762  ILE779  LEU786  VAL792 
 PHE793  MET794  SER795  GLU796  ALA797  LYS798  CYS799  TRP800  GLU811  SER814 

> <Gold.Protein.RotatedAtoms>
  151.0903  133.5321  159.2615 H   0  0  0  0  0  0  0  0  0  0  0  0  # atno 6907 bound_to 6896
  151.2191  135.0511  159.8952 H   0  0  0  0  0  0  0  0  0  0  0  0  # atno 6908 bound_to 6896
  152.5433  134.0708  159.8246 H   0  0  0  0  0  0  0  0  0  0  0  0  # atno 6909 bound_to 6896
  145.6761  139.2510  143.1841 H   0  0  0  0  0  0  0  0  0  0  0  0  # atno 7974 bound_to 7965
  154.7613  140.0480  157.0976 H   0  0  0  0  0  0  0  0  0  0  0  0  # atno 8008 bound_to 7997
  154.9934  140.3116  155.4877 H   0  0  0  0  0  0  0  0  0  0  0  0  # atno 8009 bound_to 7997
  156.2904  140.2214  156.5040 H   0  0  0  0  0  0  0  0  0  0  0  0  # atno 8010 bound_to 7997
  139.5417  144.6737  151.4602 H   0  0  0  0  0  0  0  0  0  0  0  0  # atno 10167 bound_to 10162
  156.0114  130.4521  150.3516 H   0  0  0  0  0  0  0  0  0  0  0  0  # atno 10718 bound_to 10713
  154.8715  135.3727  154.4776 H   0  0  0  0  0  0  0  0  0  0  0  0  # atno 10763 bound_to 10752
  153.5432  135.7026  153.5631 H   0  0  0  0  0  0  0  0  0  0  0  0  # atno 10764 bound_to 10752
  153.3784  135.4003  155.1803 H   0  0  0  0  0  0  0  0  0  0  0  0  # atno 10765 bound_to 10752
  139.9429  134.9633  156.8625 H   0  0  0  0  0  0  0  0  0  0  0  0  # atno 11005 bound_to 11000
  146.1004  140.7550  142.9552 LP  0  0  0  0  0  0  0  0  0  0  0  0  # atno 17320 bound_to 7965
  144.7041  140.3779  143.7132 LP  0  0  0  0  0  0  0  0  0  0  0  0  # atno 17321 bound_to 7965
  140.6650  143.8417  150.6931 LP  0  0  0  0  0  0  0  0  0  0  0  0  # atno 17342 bound_to 10162
  140.1823  143.4104  152.1924 LP  0  0  0  0  0  0  0  0  0  0  0  0  # atno 17343 bound_to 10162
  157.1608  131.0344  151.2841 LP  0  0  0  0  0  0  0  0  0  0  0  0  # atno 17370 bound_to 10713
  157.4312  130.7492  149.6992 LP  0  0  0  0  0  0  0  0  0  0  0  0  # atno 17371 bound_to 10713
  140.5907  134.0264  155.7499 LP  0  0  0  0  0  0  0  0  0  0  0  0  # atno 17394 bound_to 11000
  141.1069  133.9678  157.2980 LP  0  0  0  0  0  0  0  0  0  0  0  0  # atno 17395 bound_to 11000

$$$$
