AV-unprocessed.smi:2913|AV-procd|sdf|11184|dock8
  -GOLD-   2272016 73D 1   1.00000     0.00000
 Structure written by MMmdl.
 41 42  0  0  0  0  0  0  0  0  1 V2000
  145.5647  135.8102  151.1763 C   0  0  0  0  0  0  0  0  0  0  0  0
  145.5299  134.2953  151.2938 C   0  0  0  0  0  0  0  0  0  0  0  0
  144.5520  133.5959  150.6759 C   0  0  0  0  0  0  0  0  0  0  0  0
  144.4555  132.1368  150.7464 C   0  0  0  0  0  0  0  0  0  0  0  0
  143.5632  131.5083  150.1762 O   0  0  0  0  0  0  0  0  0  0  0  0
  145.4168  131.5204  151.4873 N   0  0  0  0  0  0  0  0  0  0  0  0
  145.4024  130.0620  151.6307 C   0  0  0  0  0  0  0  0  0  0  0  0
  146.4389  132.2351  152.1344 C   0  0  0  0  0  0  0  0  0  0  0  0
  146.5406  133.5810  152.0637 C   0  0  0  0  0  0  0  0  0  0  0  0
  147.5392  134.3356  152.7026 N   0  0  0  0  0  0  0  0  0  0  0  0
  148.1139  134.1536  153.9063 C   0  0  0  0  0  0  0  0  0  0  0  0
  147.8828  133.2278  154.6835 O   0  0  0  0  0  0  0  0  0  0  0  0
  149.0097  135.1203  154.1529 N   0  0  0  0  0  0  0  0  0  0  0  0
  149.8661  135.2176  155.3329 C   0  0  2  0  0  0  0  0  0  0  0  0
  149.0127  135.6688  156.5286 C   0  0  0  0  0  0  0  0  0  0  0  0
  151.0280  136.1860  155.0364 C   0  0  1  0  0  0  0  0  0  0  0  0
  150.6234  137.6570  154.9280 C   0  0  0  0  0  0  0  0  0  0  0  0
  151.9259  138.3560  155.2413 C   0  0  0  0  0  0  0  0  0  0  0  0
  152.4998  137.4653  156.3386 C   0  0  0  0  0  0  0  0  0  0  0  0
  151.9836  136.1590  156.0958 O   0  0  0  0  0  0  0  0  0  0  0  0
  144.7509  136.1866  150.5554 H   0  0  0  0  0  0  0  0  0  0  0  0
  146.5047  136.1346  150.7290 H   0  0  0  0  0  0  0  0  0  0  0  0
  145.4748  136.2690  152.1614 H   0  0  0  0  0  0  0  0  0  0  0  0
  143.8039  134.1250  150.1035 H   0  0  0  0  0  0  0  0  0  0  0  0
  146.2235  129.6870  152.2422 H   0  0  0  0  0  0  0  0  0  0  0  0
  145.4797  129.5808  150.6547 H   0  0  0  0  0  0  0  0  0  0  0  0
  144.4735  129.7334  152.0989 H   0  0  0  0  0  0  0  0  0  0  0  0
  147.1127  131.6051  152.6923 H   0  0  0  0  0  0  0  0  0  0  0  0
  147.8812  135.1174  152.1633 H   0  0  0  0  0  0  0  0  0  0  0  0
  149.1319  135.8360  153.4520 H   0  0  0  0  0  0  0  0  0  0  0  0
  150.2894  134.2413  155.5749 H   0  0  0  0  0  0  0  0  0  0  0  0
  149.6008  135.7053  157.4455 H   0  0  0  0  0  0  0  0  0  0  0  0
  148.1861  134.9789  156.7018 H   0  0  0  0  0  0  0  0  0  0  0  0
  148.5904  136.6605  156.3639 H   0  0  0  0  0  0  0  0  0  0  0  0
  151.5429  135.8896  154.1206 H   0  0  0  0  0  0  0  0  0  0  0  0
  150.2258  137.9197  153.9473 H   0  0  0  0  0  0  0  0  0  0  0  0
  149.8753  137.9086  155.6814 H   0  0  0  0  0  0  0  0  0  0  0  0
  152.5775  138.3434  154.3663 H   0  0  0  0  0  0  0  0  0  0  0  0
  151.7947  139.3915  155.5563 H   0  0  0  0  0  0  0  0  0  0  0  0
  153.5899  137.4675  156.3457 H   0  0  0  0  0  0  0  0  0  0  0  0
  152.1544  137.7962  157.3188 H   0  0  0  0  0  0  0  0  0  0  0  0
  1  2  1  0  0  0  0
  1 21  1  0  0  0  0
  1 22  1  0  0  0  0
  1 23  1  0  0  0  0
  2  9  1  0  0  0  0
  2  3  2  0  0  0  0
  3  4  1  0  0  0  0
  3 24  1  0  0  0  0
  4  5  2  0  0  0  0
  4  6  1  0  0  0  0
  6  7  1  0  0  0  0
  6  8  1  0  0  0  0
  7 25  1  0  0  0  0
  7 26  1  0  0  0  0
  7 27  1  0  0  0  0
  8  9  2  0  0  0  0
  8 28  1  0  0  0  0
  9 10  1  0  0  0  0
 10 11  1  0  0  0  0
 10 29  1  0  0  0  0
 11 12  2  0  0  0  0
 11 13  1  0  0  0  0
 13 14  1  0  0  0  0
 13 30  1  0  0  0  0
 14 15  1  0  0  0  0
 14 16  1  0  0  0  0
 14 31  1  0  0  0  0
 15 32  1  0  0  0  0
 15 33  1  0  0  0  0
 15 34  1  0  0  0  0
 16 20  1  0  0  0  0
 16 17  1  0  0  0  0
 16 35  1  0  0  0  0
 17 18  1  0  0  0  0
 17 36  1  0  0  0  0
 17 37  1  0  0  0  0
 18 19  1  0  0  0  0
 18 38  1  0  0  0  0
 18 39  1  0  0  0  0
 19 20  1  0  0  0  0
 19 40  1  0  0  0  0
 19 41  1  0  0  0  0
M  END
> <s_m_source_file>
AV-unprocessed.smi

> <i_m_source_file_index>
2913

> <i_lp_mmshare_version>
43012

> <i_f3d_flags>
0

> <s_epik_input>
W0NIM11jMVtjSF1jKD1PKW4oW0NIM10pW2NIXWMxW05IXUMoPU8pW05IXVtDQEhdKFtDSDNdKVtDQEBIXTJbQ0gyXVtDSDJdW0NIMl1PMg==

> <s_epik_cmdline>
J2VwaWtfcHl0aG9uJywgJy1waCcsICc3LjAnLCAnLXRuJywgJzgnLCAnLW1hJywgJzIwMCcsICctbWV0YWxfYmluZGluZycsICctaW1hZScsICc8aW5maWxlLm1hZT4nLCAnLW9tYWUnLCAnPG91dGZpbGUubWFlPic=

> <r_lp_tautomer_probability>
1

> <r_epik_Ionization_Penalty>
2.72039e-05

> <r_epik_Ionization_Penalty_Charging>
8.03976e-06

> <r_epik_Ionization_Penalty_Neutral>
1.91642e-05

> <r_epik_State_Penalty>
-0

> <r_epik_Charging_Adjusted_Penalty>
8.03976e-06

> <i_epik_Tot_Q>
0

> <i_epik_Tot_abs_Q>
0

> <r_epik_Metal_State_Penalty>
-0

> <b_epik_Metal_Only>
0

> <s_lp_Force_Field>
OPLS_2005

> <r_lp_Energy>
32.0319

> <b_lp_Chiralities_Consistent>
1

> <s_lp_Variant>
AV-unprocessed.smi:2913-3

> <Gold.Version>
5.8.1

> <Gold.Id.Protein>
6NUR|6NUR_protein|mol2

> <Gold.PLP.Fitness>
41.5243

> <Gold.PLP.PLP>
-31.5429

> <Gold.PLP.part.hbond>
-3.8254

> <Gold.PLP.part.metal>
0.0000

> <Gold.PLP.part.buried>
-3.0529

> <Gold.PLP.part.nonpolar>
-25.2057

> <Gold.PLP.part.repulsive>
0.7420

> <Gold.PLP.ligand.clash>
0.0000

> <Gold.PLP.ligand.torsion>
0.5667

> <Gold.PLP.Chemscore.Hbond>
3.7008

> <Gold.PLP.Chemscore.CHOScore>
0.0000

> <Gold.PLP.Chemscore.Metal>
0.0000

> <Gold.Chemscore.Hbonds>
donor molecule, donor type, donor heavy atom, donor atom, acceptor molecule, acceptor atom, score
      L1  H    10    29       P1  7948  1.00
      L1  H    13    30       P1  7948  0.91
      P1  H 10752 10763       L1    20  0.99
      P1  H 10785 10796       L1     5  0.90

> <Gold.PLP.Chemscore.Internal.Correction>
0.0123

> <Gold.Rescore>
     Score         DG    S(hbond)    S(metal)    S(lipo)     H(rot)  DE(clash)    DE(int)     intcor
     18.42     -19.61       2.82        0.00      66.62       1.21       0.37       0.82       ----

> <Gold.Chemscore.Fitness>
18.4180

> <Gold.Chemscore.DG>
-19.6097

> <Gold.Chemscore.ZeroCoef>
-5.4800

> <Gold.Chemscore.Hbond>
2.8242

> <Gold.Chemscore.Metal>
0.0000

> <Gold.Chemscore.Lipo>
66.6226

> <Gold.Chemscore.Internal_Hbond>
0.0000

> <Gold.Chemscore.DEClash>
0.3723

> <Gold.Chemscore.DEInternal>
0.8194

> <Gold.Chemscore.Rot>
1.2101

> <Gold.Chemscore.Internal.Correction>
   9.000000E+99

> <Gold.Chemscore.Hbonds>
donor molecule, donor type, donor heavy atom, donor atom, acceptor molecule, acceptor atom, score
      L1  H    10    29       P1  7948  0.79
      L1  H    13    30       P1  7948  0.69
      P1  H 10752 10763       L1    20  0.07
      P1  H 10785 10796       L1     5  0.84

> <Gold.Chemscore.Hbond.Weighted>
-9.4328

> <Gold.Chemscore.Metal.Weighted>
-0.0000

> <Gold.Chemscore.Lipo.Weighted>
-7.7948

> <Gold.Chemscore.Internal_Hbond.Weighted>
0.0000

> <Gold.Chemscore.DEClash.Weighted>
0.3723

> <Gold.Chemscore.DEInternal.Weighted>
0.8194

> <Gold.Chemscore.Rot.Weighted>
3.0979

> <Gold.Chemscore.Internal.Correction.Weighted>
   9.000000E+99

> <Gold.Protein.RotatedTorsions>
[ 6907 6896 6895 6894 ] final  -42.68 input  -60.11 | X-H torsion
[ 7974 7965 7964 7962 ] final  130.95 input  175.53 | X-H torsion
[ 8008 7997 7996 7995 ] final  162.32 input   59.86 | X-H torsion
[ 10167 10162 10161 10158 ] final  -44.73 input  -65.29 | X-H torsion
[ 10718 10713 10712 10709 ] final   70.81 input   66.30 | X-H torsion
[ 10763 10752 10751 10750 ] final  108.42 input  -60.55 | X-H torsion
[ 11005 11000 10999 10996 ] final   68.20 input  -57.11 | X-H torsion

> <Gold.Protein.ActiveResidues>
 VAL166  LYS551  ARG553  GLY616  TRP617  ASP618  TYR619  PRO620  LYS621  CYS622 
 ASP623  PHE694  ASN695  SER759  ASP760  ASP761  ALA762  ILE779  LEU786  VAL792 
 PHE793  MET794  SER795  GLU796  ALA797  LYS798  CYS799  TRP800  GLU811  SER814 

> <Gold.Protein.RotatedAtoms>
  150.9525  134.8923  159.7680 H   0  0  0  0  0  0  0  0  0  0  0  0  # atno 6907 bound_to 6896
  152.5125  134.3786  159.9353 H   0  0  0  0  0  0  0  0  0  0  0  0  # atno 6908 bound_to 6896
  151.3802  133.3783  159.2744 H   0  0  0  0  0  0  0  0  0  0  0  0  # atno 6909 bound_to 6896
  145.0124  139.4208  143.5238 H   0  0  0  0  0  0  0  0  0  0  0  0  # atno 7974 bound_to 7965
  156.2039  140.1753  156.7840 H   0  0  0  0  0  0  0  0  0  0  0  0  # atno 8008 bound_to 7997
  154.5629  140.0696  156.8877 H   0  0  0  0  0  0  0  0  0  0  0  0  # atno 8009 bound_to 7997
  155.2815  140.3349  155.4260 H   0  0  0  0  0  0  0  0  0  0  0  0  # atno 8010 bound_to 7997
  140.6886  143.2915  151.3537 H   0  0  0  0  0  0  0  0  0  0  0  0  # atno 10167 bound_to 10162
  157.6419  130.9496  150.0702 H   0  0  0  0  0  0  0  0  0  0  0  0  # atno 10718 bound_to 10713
  153.4204  135.3812  155.2107 H   0  0  0  0  0  0  0  0  0  0  0  0  # atno 10763 bound_to 10752
  154.8744  135.3816  154.4391 H   0  0  0  0  0  0  0  0  0  0  0  0  # atno 10764 bound_to 10752
  153.4910  135.7088  153.5947 H   0  0  0  0  0  0  0  0  0  0  0  0  # atno 10765 bound_to 10752
  139.9725  134.6876  156.0418 H   0  0  0  0  0  0  0  0  0  0  0  0  # atno 11005 bound_to 11000
  146.3472  139.9576  142.8721 LP  0  0  0  0  0  0  0  0  0  0  0  0  # atno 17320 bound_to 7965
  145.2005  140.9852  143.4158 LP  0  0  0  0  0  0  0  0  0  0  0  0  # atno 17321 bound_to 7965
  139.6266  144.0802  152.2440 LP  0  0  0  0  0  0  0  0  0  0  0  0  # atno 17342 bound_to 10162
  140.0263  144.6115  150.7525 LP  0  0  0  0  0  0  0  0  0  0  0  0  # atno 17343 bound_to 10162
  156.1708  130.3646  149.9168 LP  0  0  0  0  0  0  0  0  0  0  0  0  # atno 17370 bound_to 10713
  156.7143  130.8982  151.3612 LP  0  0  0  0  0  0  0  0  0  0  0  0  # atno 17371 bound_to 10713
  141.1404  133.6566  156.3714 LP  0  0  0  0  0  0  0  0  0  0  0  0  # atno 17394 bound_to 11000
  140.5263  134.6256  157.5335 LP  0  0  0  0  0  0  0  0  0  0  0  0  # atno 17395 bound_to 11000

$$$$
