AV-unprocessed.smi:1008|AV-procd|sdf|4413|dock3
  -GOLD-   22720 2353D 1   1.00000     0.00000
 Structure written by MMmdl.
 22 22  0  0  0  0  0  0  0  0  2 V2000
  149.5511  142.4258  158.3081 C   0  0  0  0  0  0  0  0  0  0  0  0
  150.0885  141.6090  157.1463 C   0  0  0  0  0  0  0  0  0  0  0  0
  149.3075  141.6150  155.9797 N   0  0  0  0  0  0  0  0  0  0  0  0
  149.7025  140.9430  154.9449 C   0  0  0  0  0  0  0  0  0  0  0  0
  148.9729  140.9170  153.7765 N   0  0  0  0  0  0  0  0  0  0  0  0
  150.8678  140.2041  154.9112 N   0  5  0  0  0  0  0  0  0  0  0  0
  151.6758  140.1568  156.0093 C   0  0  0  0  0  0  0  0  0  0  0  0
  152.7261  139.5158  156.0190 O   0  0  0  0  0  0  0  0  0  0  0  0
  151.2584  140.9105  157.2065 C   0  0  0  0  0  0  0  0  0  0  0  0
  152.1414  140.8587  158.4514 C   0  0  0  0  0  0  0  0  0  0  0  0
  152.5694  142.2587  158.9135 C   0  0  0  0  0  0  0  0  0  0  0  0
  153.2696  142.1692  160.1356 O   0  0  0  0  0  0  0  0  0  0  0  0
  150.3081  143.1210  158.6718 H   0  0  0  0  0  0  0  0  0  0  0  0
  149.2552  141.7712  159.1279 H   0  0  0  0  0  0  0  0  0  0  0  0
  148.6781  143.0080  158.0113 H   0  0  0  0  0  0  0  0  0  0  0  0
  148.1012  141.4125  153.6608 H   0  0  0  0  0  0  0  0  0  0  0  0
  149.2541  140.4030  152.9549 H   0  0  0  0  0  0  0  0  0  0  0  0
  151.6171  140.3522  159.2612 H   0  0  0  0  0  0  0  0  0  0  0  0
  153.0193  140.2423  158.2522 H   0  0  0  0  0  0  0  0  0  0  0  0
  153.2125  142.7326  158.1712 H   0  0  0  0  0  0  0  0  0  0  0  0
  151.6991  142.9012  159.0493 H   0  0  0  0  0  0  0  0  0  0  0  0
  153.1428  142.9752  160.6120 H   0  0  0  0  0  0  0  0  0  0  0  0
  1  2  1  0  0  0  0
  1 13  1  0  0  0  0
  1 14  1  0  0  0  0
  1 15  1  0  0  0  0
  2  9  2  0  0  0  0
  2  3  1  0  0  0  0
  3  4  2  0  0  0  0
  4  5  1  0  0  0  0
  4  6  1  0  0  0  0
  5 16  1  0  0  0  0
  5 17  1  0  0  0  0
  6  7  1  0  0  0  0
  7  8  2  0  0  0  0
  7  9  1  0  0  0  0
  9 10  1  0  0  0  0
 10 11  1  0  0  0  0
 10 18  1  0  0  0  0
 10 19  1  0  0  0  0
 11 12  1  0  0  0  0
 11 20  1  0  0  0  0
 11 21  1  0  0  0  0
 12 22  1  0  0  0  0
M  CHG  1   6  -1
M  END
> <s_m_source_file>
AV-unprocessed.smi

> <i_m_source_file_index>
1008

> <i_lp_mmshare_version>
43012

> <i_f3d_flags>
0

> <s_epik_input>
W0NIM11jMW5jKFtOSDJdKVtuSF1jKD1PKWMxW0NIMl1bQ0gyXVtPSF0=

> <s_epik_cmdline>
J2VwaWtfcHl0aG9uJywgJy1waCcsICc3LjAnLCAnLXRuJywgJzgnLCAnLW1hJywgJzIwMCcsICctbWV0YWxfYmluZGluZycsICctaW1hZScsICc8aW5maWxlLm1hZT4nLCAnLW9tYWUnLCAnPG91dGZpbGUubWFlPic=

> <r_lp_tautomer_probability>
0.878315

> <r_epik_Ionization_Penalty>
8.31336

> <r_epik_Ionization_Penalty_Charging>
3.16854e-07

> <r_epik_Ionization_Penalty_Neutral>
8.31336

> <r_epik_State_Penalty>
5.82337

> <r_epik_Charging_Adjusted_Penalty>
5.82337

> <i_epik_Tot_Q>
-1

> <i_epik_Tot_abs_Q>
1

> <r_epik_Metal_State_Penalty>
1.89563

> <b_epik_Metal_Only>
1

> <s_lp_Force_Field>
OPLS_2005

> <r_lp_Energy>
6.72114

> <b_lp_Chiralities_Consistent>
1

> <s_lp_Variant>
AV-unprocessed.smi:1008-4

> <Gold.Version>
5.8.1

> <Gold.Id.Protein>
6NUR|6NUR_protein|mol2

> <Gold.PLP.Fitness>
30.3149

> <Gold.PLP.PLP>
-21.3541

> <Gold.PLP.part.hbond>
-3.0000

> <Gold.PLP.part.metal>
0.0000

> <Gold.PLP.part.buried>
-5.0492

> <Gold.PLP.part.nonpolar>
-14.0379

> <Gold.PLP.part.repulsive>
0.3729

> <Gold.PLP.ligand.clash>
0.0000

> <Gold.PLP.ligand.torsion>
0.0198

> <Gold.PLP.Chemscore.Hbond>
3.0000

> <Gold.PLP.Chemscore.CHOScore>
0.0000

> <Gold.PLP.Chemscore.Metal>
0.0000

> <Gold.Chemscore.Hbonds>
donor molecule, donor type, donor heavy atom, donor atom, acceptor molecule, acceptor atom, score
      L1  H     5    17       P1  7957  1.00
      P1  H  7989  7998       L1     6  1.00
      P1  H  7997  8010       L1     8  1.00

> <Gold.PLP.Chemscore.Internal.Correction>
0.0005

> <Gold.Rescore>
     Score         DG    S(hbond)    S(metal)    S(lipo)     H(rot)  DE(clash)    DE(int)     intcor
     12.48     -12.51       2.56        0.00      31.53       2.03       0.03       0.00       ----

> <Gold.Chemscore.Fitness>
12.4799

> <Gold.Chemscore.DG>
-12.5148

> <Gold.Chemscore.ZeroCoef>
-5.4800

> <Gold.Chemscore.Hbond>
2.5581

> <Gold.Chemscore.Metal>
0.0000

> <Gold.Chemscore.Lipo>
31.5320

> <Gold.Chemscore.Internal_Hbond>
0.0000

> <Gold.Chemscore.DEClash>
0.0318

> <Gold.Chemscore.DEInternal>
0.0031

> <Gold.Chemscore.Rot>
2.0307

> <Gold.Chemscore.Internal.Correction>
   9.000000E+99

> <Gold.Chemscore.Hbonds>
donor molecule, donor type, donor heavy atom, donor atom, acceptor molecule, acceptor atom, score
      L1  H     5    17       P1  7957  0.99
      P1  H  7989  7998       L1     6  0.26
      P1  H  7997  8010       L1     8  1.00

> <Gold.Chemscore.Hbond.Weighted>
-8.5441

> <Gold.Chemscore.Metal.Weighted>
-0.0000

> <Gold.Chemscore.Lipo.Weighted>
-3.6892

> <Gold.Chemscore.Internal_Hbond.Weighted>
0.0000

> <Gold.Chemscore.DEClash.Weighted>
0.0318

> <Gold.Chemscore.DEInternal.Weighted>
0.0031

> <Gold.Chemscore.Rot.Weighted>
5.1985

> <Gold.Chemscore.Internal.Correction.Weighted>
   9.000000E+99

> <Gold.Protein.RotatedTorsions>
[ 6907 6896 6895 6894 ] final  110.29 input  -60.11 | X-H torsion
[ 7974 7965 7964 7962 ] final  113.90 input  175.53 | X-H torsion
[ 8008 7997 7996 7995 ] final   72.76 input   59.86 | X-H torsion
[ 10167 10162 10161 10158 ] final -105.83 input  -65.29 | X-H torsion
[ 10718 10713 10712 10709 ] final -151.43 input   66.30 | X-H torsion
[ 10763 10752 10751 10750 ] final -140.47 input  -60.55 | X-H torsion
[ 11005 11000 10999 10996 ] final  -39.99 input  -57.11 | X-H torsion

> <Gold.Protein.ActiveResidues>
 VAL166  LYS551  ARG553  GLY616  TRP617  ASP618  TYR619  PRO620  LYS621  CYS622 
 ASP623  PHE694  ASN695  SER759  ASP760  ASP761  ALA762  ILE779  LEU786  VAL792 
 PHE793  MET794  SER795  GLU796  ALA797  LYS798  CYS799  TRP800  GLU811  SER814 

> <Gold.Protein.RotatedAtoms>
  152.5027  133.8822  159.7351 H   0  0  0  0  0  0  0  0  0  0  0  0  # atno 6907 bound_to 6896
  150.9281  133.6790  159.2823 H   0  0  0  0  0  0  0  0  0  0  0  0  # atno 6908 bound_to 6896
  151.4144  135.0994  159.9647 H   0  0  0  0  0  0  0  0  0  0  0  0  # atno 6909 bound_to 6896
  145.2112  139.2905  143.4267 H   0  0  0  0  0  0  0  0  0  0  0  0  # atno 7974 bound_to 7965
  155.7736  140.3483  155.5260 H   0  0  0  0  0  0  0  0  0  0  0  0  # atno 8008 bound_to 7997
  155.8797  140.1000  157.1514 H   0  0  0  0  0  0  0  0  0  0  0  0  # atno 8009 bound_to 7997
  154.4024  140.1325  156.4168 H   0  0  0  0  0  0  0  0  0  0  0  0  # atno 8010 bound_to 7997
  140.1943  143.3867  152.1181 H   0  0  0  0  0  0  0  0  0  0  0  0  # atno 10167 bound_to 10162
  156.4591  130.8205  151.2435 H   0  0  0  0  0  0  0  0  0  0  0  0  # atno 10718 bound_to 10713
  154.8577  135.3552  154.5712 H   0  0  0  0  0  0  0  0  0  0  0  0  # atno 10763 bound_to 10752
  153.6325  135.7001  153.5275 H   0  0  0  0  0  0  0  0  0  0  0  0  # atno 10764 bound_to 10752
  153.3038  135.4198  155.1235 H   0  0  0  0  0  0  0  0  0  0  0  0  # atno 10765 bound_to 10752
  141.0142  133.6893  156.2261 H   0  0  0  0  0  0  0  0  0  0  0  0  # atno 11005 bound_to 11000
  146.3397  140.2388  142.8595 LP  0  0  0  0  0  0  0  0  0  0  0  0  # atno 17320 bound_to 7965
  144.9854  140.8498  143.5372 LP  0  0  0  0  0  0  0  0  0  0  0  0  # atno 17321 bound_to 7965
  139.5243  144.7082  151.5289 LP  0  0  0  0  0  0  0  0  0  0  0  0  # atno 17342 bound_to 10162
  140.6434  143.8843  150.6713 LP  0  0  0  0  0  0  0  0  0  0  0  0  # atno 17343 bound_to 10162
  157.7499  131.0113  150.3339 LP  0  0  0  0  0  0  0  0  0  0  0  0  # atno 17370 bound_to 10713
  156.3735  130.3867  149.7157 LP  0  0  0  0  0  0  0  0  0  0  0  0  # atno 17371 bound_to 10713
  140.6683  134.4895  157.5586 LP  0  0  0  0  0  0  0  0  0  0  0  0  # atno 17394 bound_to 11000
  139.9107  134.8351  156.1538 LP  0  0  0  0  0  0  0  0  0  0  0  0  # atno 17395 bound_to 11000

$$$$
