AV-unprocessed.smi:954|AV-procd|sdf|4258|dock9
  -GOLD-   22720 2163D 1   1.00000     0.00000
 Structure written by MMmdl.
 24 24  0  0  0  0  0  0  0  0  1 V2000
  149.5589  134.3406  155.2279 C   0  0  0  0  0  0  0  0  0  0  0  0
  149.0424  133.3396  154.1861 C   0  0  0  0  0  0  0  0  0  0  0  0
  148.0350  133.9387  153.3181 N   0  0  0  0  0  0  0  0  0  0  0  0
  146.7695  133.5104  153.1942 C   0  0  0  0  0  0  0  0  0  0  0  0
  146.3233  132.5443  153.8156 O   0  0  0  0  0  0  0  0  0  0  0  0
  145.8912  134.3059  152.2197 C   0  0  0  0  0  0  0  0  0  0  0  0
  145.4284  133.5101  151.0940 N   0  0  0  0  0  0  0  0  0  0  0  0
  146.1341  132.5779  150.3562 C   0  0  0  0  0  0  0  0  0  0  0  0
  145.2932  132.0905  149.3963 C   0  0  0  0  0  0  0  0  0  0  0  0
  144.0865  132.7992  149.6425 C   0  0  0  0  0  0  0  0  0  0  0  0
  142.9304  132.6204  148.8876 N   0  0  0  0  0  0  0  0  0  0  0  0
  144.1568  133.6454  150.6535 N   0  0  0  0  0  0  0  0  0  0  0  0
  150.2936  133.8720  155.8829 H   0  0  0  0  0  0  0  0  0  0  0  0
  148.7474  134.7143  155.8528 H   0  0  0  0  0  0  0  0  0  0  0  0
  150.0392  135.1967  154.7530 H   0  0  0  0  0  0  0  0  0  0  0  0
  149.8700  132.9481  153.5921 H   0  0  0  0  0  0  0  0  0  0  0  0
  148.5921  132.4845  154.6906 H   0  0  0  0  0  0  0  0  0  0  0  0
  148.3212  134.7381  152.7716 H   0  0  0  0  0  0  0  0  0  0  0  0
  145.0194  134.6912  152.7497 H   0  0  0  0  0  0  0  0  0  0  0  0
  146.4486  135.1669  151.8472 H   0  0  0  0  0  0  0  0  0  0  0  0
  147.1665  132.3458  150.5722 H   0  0  0  0  0  0  0  0  0  0  0  0
  145.5096  131.3493  148.6413 H   0  0  0  0  0  0  0  0  0  0  0  0
  142.8975  131.9675  148.1180 H   0  0  0  0  0  0  0  0  0  0  0  0
  142.0970  133.1614  149.0680 H   0  0  0  0  0  0  0  0  0  0  0  0
  1  2  1  0  0  0  0
  1 13  1  0  0  0  0
  1 14  1  0  0  0  0
  1 15  1  0  0  0  0
  2  3  1  0  0  0  0
  2 16  1  0  0  0  0
  2 17  1  0  0  0  0
  3  4  1  0  0  0  0
  3 18  1  0  0  0  0
  4  5  2  0  0  0  0
  4  6  1  0  0  0  0
  6  7  1  0  0  0  0
  6 19  1  0  0  0  0
  6 20  1  0  0  0  0
  7 12  1  0  0  0  0
  7  8  1  0  0  0  0
  8  9  2  0  0  0  0
  8 21  1  0  0  0  0
  9 10  1  0  0  0  0
  9 22  1  0  0  0  0
 10 11  1  0  0  0  0
 10 12  2  0  0  0  0
 11 23  1  0  0  0  0
 11 24  1  0  0  0  0
M  END
> <s_m_source_file>
AV-unprocessed.smi

> <i_m_source_file_index>
954

> <i_lp_mmshare_version>
43012

> <i_f3d_flags>
0

> <s_epik_input>
W0NIM11bQ0gyXVtOSF1DKD1PKVtDSDJdbjFbY0hdW2NIXWMobjEpW05IMl0=

> <s_epik_cmdline>
J2VwaWtfcHl0aG9uJywgJy1waCcsICc3LjAnLCAnLXRuJywgJzgnLCAnLW1hJywgJzIwMCcsICctbWV0YWxfYmluZGluZycsICctaW1hZScsICc8aW5maWxlLm1hZT4nLCAnLW9tYWUnLCAnPG91dGZpbGUubWFlPic=

> <r_lp_tautomer_probability>
1

> <r_epik_Ionization_Penalty>
0.000257536

> <r_epik_Ionization_Penalty_Charging>
0

> <r_epik_Ionization_Penalty_Neutral>
0.000257536

> <r_epik_State_Penalty>
-0

> <r_epik_Charging_Adjusted_Penalty>
0

> <i_epik_Tot_Q>
0

> <i_epik_Tot_abs_Q>
0

> <r_epik_Metal_State_Penalty>
-0

> <b_epik_Metal_Only>
0

> <s_lp_Force_Field>
OPLS_2005

> <r_lp_Energy>
1.8316

> <b_lp_Chiralities_Consistent>
1

> <s_lp_Variant>
AV-unprocessed.smi:954-1

> <Gold.Version>
5.8.1

> <Gold.Id.Protein>
6NUR|6NUR_protein|mol2

> <Gold.PLP.Fitness>
34.3439

> <Gold.PLP.PLP>
-25.9109

> <Gold.PLP.part.hbond>
-3.0000

> <Gold.PLP.part.metal>
0.0000

> <Gold.PLP.part.buried>
-4.4291

> <Gold.PLP.part.nonpolar>
-18.5599

> <Gold.PLP.part.repulsive>
0.4311

> <Gold.PLP.ligand.clash>
0.0000

> <Gold.PLP.ligand.torsion>
0.2716

> <Gold.PLP.Chemscore.Hbond>
1.9920

> <Gold.PLP.Chemscore.CHOScore>
1.0000

> <Gold.PLP.Chemscore.Metal>
0.0000

> <Gold.Chemscore.Hbonds>
donor molecule, donor type, donor heavy atom, donor atom, acceptor molecule, acceptor atom, score
      L1  H     3    18       P1  7948  1.00
      L1  H    11    24       P1 10186  1.00
      L1  C     8    21       P1 10747  1.00

> <Gold.PLP.Chemscore.Internal.Correction>
0.0002

> <Gold.Rescore>
     Score         DG    S(hbond)    S(metal)    S(lipo)     H(rot)  DE(clash)    DE(int)     intcor
     11.29     -11.66       1.92        0.00      36.61       1.77       0.00       0.37       ----

> <Gold.Chemscore.Fitness>
11.2915

> <Gold.Chemscore.DG>
-11.6570

> <Gold.Chemscore.ZeroCoef>
-5.4800

> <Gold.Chemscore.Hbond>
1.9210

> <Gold.Chemscore.Metal>
0.0000

> <Gold.Chemscore.Lipo>
36.6056

> <Gold.Chemscore.Internal_Hbond>
0.0000

> <Gold.Chemscore.DEClash>
0.0000

> <Gold.Chemscore.DEInternal>
0.3655

> <Gold.Chemscore.Rot>
1.7664

> <Gold.Chemscore.Internal.Correction>
   9.000000E+99

> <Gold.Chemscore.Hbonds>
donor molecule, donor type, donor heavy atom, donor atom, acceptor molecule, acceptor atom, score
      L1  H     3    18       P1  7948  0.50
      L1  H    11    24       P1 10186  1.00

> <Gold.Chemscore.Hbond.Weighted>
-6.4160

> <Gold.Chemscore.Metal.Weighted>
-0.0000

> <Gold.Chemscore.Lipo.Weighted>
-4.2829

> <Gold.Chemscore.Internal_Hbond.Weighted>
0.0000

> <Gold.Chemscore.DEClash.Weighted>
0.0000

> <Gold.Chemscore.DEInternal.Weighted>
0.3655

> <Gold.Chemscore.Rot.Weighted>
4.5219

> <Gold.Chemscore.Internal.Correction.Weighted>
   9.000000E+99

> <Gold.Protein.RotatedTorsions>
[ 6907 6896 6895 6894 ] final -137.58 input  -60.11 | X-H torsion
[ 7974 7965 7964 7962 ] final   47.07 input  175.53 | X-H torsion
[ 8008 7997 7996 7995 ] final  177.64 input   59.86 | X-H torsion
[ 10167 10162 10161 10158 ] final  -43.54 input  -65.29 | X-H torsion
[ 10718 10713 10712 10709 ] final  -18.64 input   66.30 | X-H torsion
[ 10763 10752 10751 10750 ] final   66.05 input  -60.55 | X-H torsion
[ 11005 11000 10999 10996 ] final  -98.81 input  -57.11 | X-H torsion

> <Gold.Protein.ActiveResidues>
 VAL166  LYS551  ARG553  GLY616  TRP617  ASP618  TYR619  PRO620  LYS621  CYS622 
 ASP623  PHE694  ASN695  SER759  ASP760  ASP761  ALA762  ILE779  LEU786  VAL792 
 PHE793  MET794  SER795  GLU796  ALA797  LYS798  CYS799  TRP800  GLU811  SER814 

> <Gold.Protein.RotatedAtoms>
  151.0243  133.5848  159.2667 H   0  0  0  0  0  0  0  0  0  0  0  0  # atno 6907 bound_to 6896
  151.2953  135.0752  159.9229 H   0  0  0  0  0  0  0  0  0  0  0  0  # atno 6908 bound_to 6896
  152.5330  133.9934  159.7915 H   0  0  0  0  0  0  0  0  0  0  0  0  # atno 6909 bound_to 6896
  146.0332  139.4788  142.9825 H   0  0  0  0  0  0  0  0  0  0  0  0  # atno 7974 bound_to 7965
  156.0634  140.1353  156.9914 H   0  0  0  0  0  0  0  0  0  0  0  0  # atno 8008 bound_to 7997
  154.4493  140.0987  156.6622 H   0  0  0  0  0  0  0  0  0  0  0  0  # atno 8009 bound_to 7997
  155.5342  140.3459  155.4435 H   0  0  0  0  0  0  0  0  0  0  0  0  # atno 8010 bound_to 7997
  140.6930  143.2977  151.3367 H   0  0  0  0  0  0  0  0  0  0  0  0  # atno 10167 bound_to 10162
  156.5567  130.4715  149.6426 H   0  0  0  0  0  0  0  0  0  0  0  0  # atno 10718 bound_to 10713
  153.0123  135.5334  154.6763 H   0  0  0  0  0  0  0  0  0  0  0  0  # atno 10763 bound_to 10752
  154.5934  135.2861  155.0613 H   0  0  0  0  0  0  0  0  0  0  0  0  # atno 10764 bound_to 10752
  154.1698  135.6534  153.5059 H   0  0  0  0  0  0  0  0  0  0  0  0  # atno 10765 bound_to 10752
  141.1331  133.8274  157.0889 H   0  0  0  0  0  0  0  0  0  0  0  0  # atno 11005 bound_to 11000
  145.7007  141.0137  143.1506 LP  0  0  0  0  0  0  0  0  0  0  0  0  # atno 17320 bound_to 7965
  144.7039  139.8641  143.7436 LP  0  0  0  0  0  0  0  0  0  0  0  0  # atno 17321 bound_to 7965
  139.6353  144.0643  152.2510 LP  0  0  0  0  0  0  0  0  0  0  0  0  # atno 17342 bound_to 10162
  140.0130  144.6209  150.7631 LP  0  0  0  0  0  0  0  0  0  0  0  0  # atno 17343 bound_to 10162
  156.2835  130.7084  151.1915 LP  0  0  0  0  0  0  0  0  0  0  0  0  # atno 17370 bound_to 10713
  157.7377  131.0549  150.5342 LP  0  0  0  0  0  0  0  0  0  0  0  0  # atno 17371 bound_to 10713
  140.0405  134.9857  157.0952 LP  0  0  0  0  0  0  0  0  0  0  0  0  # atno 17394 bound_to 11000
  140.4143  134.1948  155.7163 LP  0  0  0  0  0  0  0  0  0  0  0  0  # atno 17395 bound_to 11000

$$$$
