#       Name:                AV-unprocessed.smi:2534
#       Creating user name   scv26
#       Creation time:       Fri Mar 27 14:02:17 2020


#       File generated by GOLD software.
#

@<TRIPOS>MOLECULE
AV-unprocessed.smi:2534
    46    48     1
SMALL
NO_CHARGES


@<TRIPOS>ATOM
      1 ****        -4.3708  -2.6895   0.5745 C.3            1 S1                 0.0000
      2 ****        -2.8484  -2.4980   0.5263 C.3            1 S1                 0.0000
      3 ****        -2.3249  -1.8281   1.8083 C.3            1 S1                 0.0000
      4 ****        -0.7975  -1.6450   1.7690 C.3            1 S1                 0.0000
      5 ****        -0.3081  -0.8685   0.5247 C.3            1 S1                 0.0000
      6 ****        -0.7820   0.4635   0.6194 O.3            1 S1                 0.0000
      7 ****         1.2430  -0.8292   0.5116 C.3            1 S1                 0.0000
      8 ****         1.8213  -0.0991  -0.6103 N.pl3          1 S1                 0.0000
      9 ****         2.1177  -0.7585  -1.7611 N.2            1 S1                 0.0000
     10 ****         2.6224   0.1565  -2.5855 C.2            1 S1                 0.0000
     11 ****         2.6817   1.4420  -1.9815 C.2            1 S1                 0.0000
     12 ****         3.1326   2.7629  -2.4057 C.2            1 S1                 0.0000
     13 ****         3.0379   3.7429  -1.5629 N.2            1 S1                 0.0000
     14 ****         2.5227   3.5525  -0.2758 N.am           1 S1                 0.0000
     15 ****         2.4974   4.7740   0.5279 C.3            1 S1                 0.0000
     16 ****         2.0828   2.3550   0.2211 C.2            1 S1                 0.0000
     17 ****         1.6474   2.1938   1.3613 O.2            1 S1                 0.0000
     18 ****         2.1751   1.2302  -0.7418 C.2            1 S1                 0.0000
     19 ****        -0.8944  -1.4926  -0.7660 C.3            1 S1                 0.0000
     20 ****        -2.4210  -1.6825  -0.7063 C.3            1 S1                 0.0000
     21 ****        -4.8888  -1.7324   0.6444 H              1 S1                 0.0000
     22 ****        -4.6633  -3.2904   1.4360 H              1 S1                 0.0000
     23 ****        -4.7311  -3.1990  -0.3196 H              1 S1                 0.0000
     24 ****        -2.3944  -3.4872   0.4513 H              1 S1                 0.0000
     25 ****        -2.8088  -0.8601   1.9448 H              1 S1                 0.0000
     26 ****        -2.5944  -2.4291   2.6774 H              1 S1                 0.0000
     27 ****        -0.4662  -1.1460   2.6805 H              1 S1                 0.0000
     28 ****        -0.3318  -2.6315   1.7816 H              1 S1                 0.0000
     29 ****        -0.4185   0.8579   1.3977 H              1 S1                 0.0000
     30 ****         1.6228  -0.3990   1.4383 H              1 S1                 0.0000
     31 ****         1.6329  -1.8479   0.4848 H              1 S1                 0.0000
     32 ****         2.9272  -0.1409  -3.5780 H              1 S1                 0.0000
     33 ****         3.5378   2.9152  -3.4058 H              1 S1                 0.0000
     34 ****         2.0868   4.6360   1.5288 H              1 S1                 0.0000
     35 ****         1.8946   5.5355   0.0316 H              1 S1                 0.0000
     36 ****         3.5081   5.1678   0.6408 H              1 S1                 0.0000
     37 ****        -0.6491  -0.8802  -1.6342 H              1 S1                 0.0000
     38 ****        -0.4276  -2.4634  -0.9382 H              1 S1                 0.0000
     39 ****        -2.7590  -2.1797  -1.6160 H              1 S1                 0.0000
     40 ****        -2.9110  -0.7079  -0.6926 H              1 S1                 0.0000
     41 ****        -1.7804   0.4627   0.6768 LP             1 S1                 0.0000
     42 ****        -0.4949   0.9814  -0.1864 LP             1 S1                 0.0000
     43 ****         1.9840  -1.7314  -1.9498 LP             1 S1                 0.0000
     44 ****         3.3397   4.6555  -1.8385 LP             1 S1                 0.0000
     45 ****         1.5982   2.9683   1.9919 LP             1 S1                 0.0000
     46 ****         1.3428   1.2883   1.6568 LP             1 S1                 0.0000
@<TRIPOS>BOND
    1    1    2 1     
    2    1   21 1     
    3    1   22 1     
    4    1   23 1     
    5    2   20 1     
    6    2    3 1     
    7    2   24 1     
    8    3    4 1     
    9    3   25 1     
   10    3   26 1     
   11    4    5 1     
   12    4   27 1     
   13    4   28 1     
   14    5    6 1     
   15    5    7 1     
   16    5   19 1     
   17    6   29 1     
   18    7    8 1     
   19    7   30 1     
   20    7   31 1     
   21    8   18 1     
   22    8    9 1     
   23    9   10 2     
   24   10   11 1     
   25   10   32 1     
   26   11   18 2     
   27   11   12 1     
   28   12   13 2     
   29   12   33 1     
   30   13   14 1     
   31   14   15 1     
   32   14   16 am    
   33   15   34 1     
   34   15   35 1     
   35   15   36 1     
   36   16   17 2     
   37   16   18 1     
   38   19   20 1     
   39   19   37 1     
   40   19   38 1     
   41   20   39 1     
   42   20   40 1     
   43    6   41 1     
   44    6   42 1     
   45    9   43 1     
   46   13   44 1     
   47   17   45 1     
   48   17   46 1     
@<TRIPOS>SUBSTRUCTURE
      1 S1             1
@<TRIPOS>SET
LONE_PAIRS      STATIC     ATOMS    <user>   **** ""
6 41 42 43 44 45 46
DONOR_HYDROGENS      STATIC     ATOMS    <user>   **** ""
1 29
ATOM$BLUE        STATIC     ATOMS    COLORGROUP SYSTEM
6 41 42 43 44 45 46
ATOM$RED        STATIC     ATOMS    COLORGROUP SYSTEM
1 29
