#       Name:                AV-unprocessed.smi:648
#       Creating user name   scv26
#       Creation time:       Fri Mar 27 00:09:36 2020


#       File generated by GOLD software.
#

@<TRIPOS>MOLECULE
AV-unprocessed.smi:648
    50    51     1
SMALL
NO_CHARGES


@<TRIPOS>ATOM
      1 ****        -2.7038  -2.0708  -1.6100 C.3            1 S1                 0.0000
      2 ****        -2.1800  -1.3155  -0.3795 C.3            1 S1                 0.0000
      3 ****        -2.7361   0.1210  -0.3350 C.3            1 S1                 0.0000
      4 ****        -2.2581   0.9400   0.8880 C.3            1 S1                 0.0000
      5 ****        -2.6134   2.4235   0.6475 C.3            1 S1                 0.0000
      6 ****        -3.0157   0.5129   2.1662 C.3            1 S1                 0.0000
      7 ****        -0.7097   0.8405   1.0368 C.3            1 S1                 0.0000
      8 ****        -0.0487  -0.5634   0.8805 C.3            1 S1                 0.0000
      9 ****        -0.2491  -1.4165   2.1631 C.3            1 S1                 0.0000
     10 ****         0.4632  -2.6377   2.0992 O.3            1 S1                 0.0000
     11 ****         1.4288  -0.3815   0.7672 N.4            1 S1                 1.0000
     12 ****         2.0049   0.0875  -0.5149 C.3            1 S1                 0.0000
     13 ****         3.4969   0.4100  -0.3510 C.3            1 S1                 0.0000
     14 ****         4.0862   0.8672  -1.5941 N.pl3          1 S1                 0.0000
     15 ****         4.8928   0.2453  -2.4557 C.2            1 S1                 0.0000
     16 ****         5.2346   0.9878  -3.4994 N.2            1 S1                 0.0000
     17 ****         4.5596   2.1360  -3.1943 C.2            1 S1                 0.0000
     18 ****         3.8551   2.1157  -2.0624 N.2            1 S1                 0.0000
     19 ****        -0.6402  -1.2801  -0.3665 C.3            1 S1                 0.0000
     20 ****        -2.3900  -1.5898  -2.5371 H              1 S1                 0.0000
     21 ****        -3.7934  -2.1137  -1.6102 H              1 S1                 0.0000
     22 ****        -2.3358  -3.0972  -1.6268 H              1 S1                 0.0000
     23 ****        -2.5350  -1.8627   0.4923 H              1 S1                 0.0000
     24 ****        -2.4333   0.6321  -1.2505 H              1 S1                 0.0000
     25 ****        -3.8267   0.0973  -0.3588 H              1 S1                 0.0000
     26 ****        -2.3011   3.0474   1.4861 H              1 S1                 0.0000
     27 ****        -3.6876   2.5626   0.5183 H              1 S1                 0.0000
     28 ****        -2.1306   2.8161  -0.2481 H              1 S1                 0.0000
     29 ****        -2.5785   0.9620   3.0585 H              1 S1                 0.0000
     30 ****        -3.0485  -0.5623   2.3134 H              1 S1                 0.0000
     31 ****        -4.0584   0.8307   2.1261 H              1 S1                 0.0000
     32 ****        -0.2879   1.4925   0.2733 H              1 S1                 0.0000
     33 ****        -0.4013   1.2913   1.9812 H              1 S1                 0.0000
     34 ****         0.0878  -0.8707   3.0452 H              1 S1                 0.0000
     35 ****        -1.2861  -1.6787   2.3381 H              1 S1                 0.0000
     36 ****         0.2774  -3.1363   2.8809 H              1 S1                 0.0000
     37 ****         1.7111   0.2599   1.4943 H              1 S1                 0.0000
     38 ****         1.8924  -0.6887  -1.2723 H              1 S1                 0.0000
     39 ****         1.4799   0.9713  -0.8749 H              1 S1                 0.0000
     40 ****         3.6412   1.1833   0.4051 H              1 S1                 0.0000
     41 ****         4.0428  -0.4719  -0.0126 H              1 S1                 0.0000
     42 ****         5.2349  -0.7703  -2.3197 H              1 S1                 0.0000
     43 ****         4.5879   3.0123  -3.8251 H              1 S1                 0.0000
     44 ****        -0.2414  -2.2918  -0.4479 H              1 S1                 0.0000
     45 ****        -0.3370  -0.7669  -1.2787 H              1 S1                 0.0000
     46 ****         1.8488  -1.2788   0.9662 H              1 S1                 0.0000
     47 ****         1.4444  -2.4530   2.0426 LP             1 S1                 0.0000
     48 ****         0.1744  -3.1545   1.2933 LP             1 S1                 0.0000
     49 ****         5.8173   0.7706  -4.2826 LP             1 S1                 0.0000
     50 ****         3.2963   2.8410  -1.6605 LP             1 S1                 0.0000
@<TRIPOS>BOND
    1    1    2 1     
    2    1   20 1     
    3    1   21 1     
    4    1   22 1     
    5    2   19 1     
    6    2    3 1     
    7    2   23 1     
    8    3    4 1     
    9    3   24 1     
   10    3   25 1     
   11    4    5 1     
   12    4    6 1     
   13    4    7 1     
   14    5   26 1     
   15    5   27 1     
   16    5   28 1     
   17    6   29 1     
   18    6   30 1     
   19    6   31 1     
   20    7    8 1     
   21    7   32 1     
   22    7   33 1     
   23    8    9 1     
   24    8   11 1     
   25    8   19 1     
   26    9   10 1     
   27    9   34 1     
   28    9   35 1     
   29   10   36 1     
   30   11   12 1     
   31   11   37 1     
   32   11   46 1     
   33   12   13 1     
   34   12   38 1     
   35   12   39 1     
   36   13   14 1     
   37   13   40 1     
   38   13   41 1     
   39   14   18 1     
   40   14   15 1     
   41   15   16 2     
   42   15   42 1     
   43   16   17 1     
   44   17   18 2     
   45   17   43 1     
   46   19   44 1     
   47   19   45 1     
   48   10   47 1     
   49   10   48 1     
   50   16   49 1     
   51   18   50 1     
@<TRIPOS>SUBSTRUCTURE
      1 S1             1
@<TRIPOS>SET
LONE_PAIRS      STATIC     ATOMS    <user>   **** ""
4 47 48 49 50
DONOR_HYDROGENS      STATIC     ATOMS    <user>   **** ""
3 36 37 46
ATOM$BLUE        STATIC     ATOMS    COLORGROUP SYSTEM
4 47 48 49 50
ATOM$RED        STATIC     ATOMS    COLORGROUP SYSTEM
3 36 37 46
