AV-unprocessed.smi:3303|AV-procd|sdf|12679|dock8
  -GOLD-   2272019 13D 1   1.00000     0.00000
 Structure written by MMmdl.
 44 45  0  0  0  0  0  0  0  0  2 V2000
  147.7569  141.7992  155.4964 C   0  0  0  0  0  0  0  0  0  0  0  0
  148.9967  140.8986  155.6257 C   0  0  2  0  0  0  0  0  0  0  0  0
  148.8105  139.8081  156.6996 C   0  0  0  0  0  0  0  0  0  0  0  0
  149.9564  138.8980  156.6933 N   0  0  0  0  0  0  0  0  0  0  0  0
  149.7000  137.7431  157.5452 C   0  0  0  0  0  0  0  0  0  0  0  0
  151.2339  139.5611  156.9961 C   0  0  2  0  0  0  0  0  0  0  0  0
  151.3848  140.0148  158.4669 C   0  0  0  0  0  0  0  0  0  0  0  0
  151.4782  140.6962  155.9735 C   0  0  0  0  0  0  0  0  0  0  0  0
  150.3025  141.6915  155.8483 C   0  0  2  0  0  0  0  0  0  0  0  0
  150.1954  142.5968  157.0176 N   0  3  0  0  0  0  0  0  0  0  0  0
  151.4628  143.2077  157.4681 C   0  0  0  0  0  0  0  0  0  0  0  0
  151.2301  144.1260  158.6750 C   0  0  0  0  0  0  0  0  0  0  0  0
  151.9074  143.6041  159.9277 C   0  0  0  0  0  0  0  0  0  0  0  0
  152.7104  142.4444  159.8848 C   0  0  0  0  0  0  0  0  0  0  0  0
  153.3062  141.9970  161.0802 C   0  0  0  0  0  0  0  0  0  0  0  0
  153.0755  142.7217  162.2653 C   0  0  0  0  0  0  0  0  0  0  0  0
  152.2573  143.8671  162.2026 C   0  0  0  0  0  0  0  0  0  0  0  0
  151.6808  144.3042  161.0618 N   0  0  0  0  0  0  0  0  0  0  0  0
  147.5319  142.3163  156.4296 H   0  0  0  0  0  0  0  0  0  0  0  0
  146.8775  141.2129  155.2284 H   0  0  0  0  0  0  0  0  0  0  0  0
  147.8972  142.5523  154.7204 H   0  0  0  0  0  0  0  0  0  0  0  0
  149.0982  140.3848  154.6677 H   0  0  0  0  0  0  0  0  0  0  0  0
  148.6652  140.2463  157.6870 H   0  0  0  0  0  0  0  0  0  0  0  0
  147.9076  139.2385  156.4751 H   0  0  0  0  0  0  0  0  0  0  0  0
  150.5497  137.0600  157.5333 H   0  0  0  0  0  0  0  0  0  0  0  0
  148.8295  137.1939  157.1848 H   0  0  0  0  0  0  0  0  0  0  0  0
  149.5057  138.0370  158.5771 H   0  0  0  0  0  0  0  0  0  0  0  0
  152.0150  138.8192  156.8246 H   0  0  0  0  0  0  0  0  0  0  0  0
  152.3144  140.5682  158.6043 H   0  0  0  0  0  0  0  0  0  0  0  0
  151.4283  139.1626  159.1451 H   0  0  0  0  0  0  0  0  0  0  0  0
  150.5713  140.6560  158.8021 H   0  0  0  0  0  0  0  0  0  0  0  0
  152.4152  141.2079  156.1907 H   0  0  0  0  0  0  0  0  0  0  0  0
  151.6309  140.2362  154.9959 H   0  0  0  0  0  0  0  0  0  0  0  0
  150.4682  142.3173  154.9700 H   0  0  0  0  0  0  0  0  0  0  0  0
  149.5723  143.3495  156.7624 H   0  0  0  0  0  0  0  0  0  0  0  0
  152.1745  142.4270  157.7361 H   0  0  0  0  0  0  0  0  0  0  0  0
  151.9004  143.7786  156.6481 H   0  0  0  0  0  0  0  0  0  0  0  0
  151.5984  145.1298  158.4585 H   0  0  0  0  0  0  0  0  0  0  0  0
  150.1609  144.2265  158.8686 H   0  0  0  0  0  0  0  0  0  0  0  0
  152.8677  141.9076  158.9609 H   0  0  0  0  0  0  0  0  0  0  0  0
  153.9280  141.1139  161.0879 H   0  0  0  0  0  0  0  0  0  0  0  0
  153.5153  142.4078  163.2003 H   0  0  0  0  0  0  0  0  0  0  0  0
  152.0594  144.4462  163.0923 H   0  0  0  0  0  0  0  0  0  0  0  0
  149.7821  142.0860  157.7848 H   0  0  0  0  0  0  0  0  0  0  0  0
  1  2  1  0  0  0  0
  1 19  1  0  0  0  0
  1 20  1  0  0  0  0
  1 21  1  0  0  0  0
  2  9  1  0  0  0  0
  2  3  1  0  0  0  0
  2 22  1  0  0  0  0
  3  4  1  0  0  0  0
  3 23  1  0  0  0  0
  3 24  1  0  0  0  0
  4  5  1  0  0  0  0
  4  6  1  0  0  0  0
  5 25  1  0  0  0  0
  5 26  1  0  0  0  0
  5 27  1  0  0  0  0
  6  7  1  0  0  0  0
  6  8  1  0  0  0  0
  6 28  1  0  0  0  0
  7 29  1  0  0  0  0
  7 30  1  0  0  0  0
  7 31  1  0  0  0  0
  8  9  1  0  0  0  0
  8 32  1  0  0  0  0
  8 33  1  0  0  0  0
  9 10  1  0  0  0  0
  9 34  1  0  0  0  0
 10 11  1  0  0  0  0
 10 35  1  0  0  0  0
 10 44  1  0  0  0  0
 11 12  1  0  0  0  0
 11 36  1  0  0  0  0
 11 37  1  0  0  0  0
 12 13  1  0  0  0  0
 12 38  1  0  0  0  0
 12 39  1  0  0  0  0
 13 18  1  0  0  0  0
 13 14  2  0  0  0  0
 14 15  1  0  0  0  0
 14 40  1  0  0  0  0
 15 16  2  0  0  0  0
 15 41  1  0  0  0  0
 16 17  1  0  0  0  0
 16 42  1  0  0  0  0
 17 18  2  0  0  0  0
 17 43  1  0  0  0  0
M  CHG  1  10   1
M  END
> <s_m_source_file>
AV-unprocessed.smi

> <i_m_source_file_index>
3303

> <i_lp_mmshare_version>
43012

> <i_f3d_flags>
0

> <s_epik_input>
W0NIM11bQ0BASF0xW0NIMl1OKFtDSDNdKVtDQEBIXShbQ0gzXSlbQ0gyXVtDQEhdMVtOSF1bQ0gyXVtDSDJdYzJbY0hdW2NIXVtjSF1bY0hdbjI=

> <s_epik_cmdline>
J2VwaWtfcHl0aG9uJywgJy1waCcsICc3LjAnLCAnLXRuJywgJzgnLCAnLW1hJywgJzIwMCcsICctbWV0YWxfYmluZGluZycsICctaW1hZScsICc8aW5maWxlLm1hZT4nLCAnLW9tYWUnLCAnPG91dGZpbGUubWFlPic=

> <r_epik_Ionization_Penalty>
1.37325

> <r_epik_Ionization_Penalty_Charging>
0.000251572

> <r_epik_Ionization_Penalty_Neutral>
1.373

> <r_epik_State_Penalty>
1.46343

> <r_epik_Charging_Adjusted_Penalty>
1.46368

> <i_epik_Tot_Q>
1

> <i_epik_Tot_abs_Q>
1

> <r_epik_Metal_State_Penalty>
1.46331

> <b_epik_Metal_Only>
0

> <s_lp_Force_Field>
OPLS_2005

> <r_lp_Energy>
24.8082

> <b_lp_Chiralities_Consistent>
1

> <s_lp_Variant>
AV-unprocessed.smi:3303-23

> <Gold.Version>
5.8.1

> <Gold.Id.Protein>
6NUR|6NUR_protein|mol2

> <Gold.PLP.Fitness>
43.7306

> <Gold.PLP.PLP>
-38.6410

> <Gold.PLP.part.hbond>
-1.0000

> <Gold.PLP.part.metal>
0.0000

> <Gold.PLP.part.buried>
-4.2837

> <Gold.PLP.part.nonpolar>
-32.5695

> <Gold.PLP.part.repulsive>
0.1553

> <Gold.PLP.ligand.clash>
0.0000

> <Gold.PLP.ligand.torsion>
0.4602

> <Gold.PLP.Chemscore.Hbond>
2.0000

> <Gold.PLP.Chemscore.CHOScore>
0.0000

> <Gold.PLP.Chemscore.Metal>
0.0000

> <Gold.Chemscore.Hbonds>
donor molecule, donor type, donor heavy atom, donor atom, acceptor molecule, acceptor atom, score
      L1  H    10    35       P1  8028  2.00

> <Gold.PLP.Chemscore.Internal.Correction>
0.0100

> <Gold.Rescore>
     Score         DG    S(hbond)    S(metal)    S(lipo)     H(rot)  DE(clash)    DE(int)     intcor
     18.70     -19.32       0.99        0.00     119.06       1.33       0.15       0.48       ----

> <Gold.Chemscore.Fitness>
18.6975

> <Gold.Chemscore.DG>
-19.3245

> <Gold.Chemscore.ZeroCoef>
-5.4800

> <Gold.Chemscore.Hbond>
0.9936

> <Gold.Chemscore.Metal>
0.0000

> <Gold.Chemscore.Lipo>
119.0619

> <Gold.Chemscore.Internal_Hbond>
0.0000

> <Gold.Chemscore.DEClash>
0.1469

> <Gold.Chemscore.DEInternal>
0.4800

> <Gold.Chemscore.Rot>
1.3298

> <Gold.Chemscore.Internal.Correction>
   9.000000E+99

> <Gold.Chemscore.Hbonds>
donor molecule, donor type, donor heavy atom, donor atom, acceptor molecule, acceptor atom, score
      L1  H    10    35       P1  8028  0.98

> <Gold.Chemscore.Hbond.Weighted>
-3.3185

> <Gold.Chemscore.Metal.Weighted>
-0.0000

> <Gold.Chemscore.Lipo.Weighted>
-13.9302

> <Gold.Chemscore.Internal_Hbond.Weighted>
0.0000

> <Gold.Chemscore.DEClash.Weighted>
0.1469

> <Gold.Chemscore.DEInternal.Weighted>
0.4800

> <Gold.Chemscore.Rot.Weighted>
3.4043

> <Gold.Chemscore.Internal.Correction.Weighted>
   9.000000E+99

> <Gold.Protein.RotatedTorsions>
[ 6907 6896 6895 6894 ] final  153.11 input  -60.11 | X-H torsion
[ 7974 7965 7964 7962 ] final -168.44 input  175.53 | X-H torsion
[ 8008 7997 7996 7995 ] final -158.59 input   59.86 | X-H torsion
[ 10167 10162 10161 10158 ] final  -30.91 input  -65.29 | X-H torsion
[ 10718 10713 10712 10709 ] final -117.98 input   66.30 | X-H torsion
[ 10763 10752 10751 10750 ] final -116.17 input  -60.55 | X-H torsion
[ 11005 11000 10999 10996 ] final   68.34 input  -57.11 | X-H torsion

> <Gold.Protein.ActiveResidues>
 VAL166  LYS551  ARG553  GLY616  TRP617  ASP618  TYR619  PRO620  LYS621  CYS622 
 ASP623  PHE694  ASN695  SER759  ASP760  ASP761  ALA762  ILE779  LEU786  VAL792 
 PHE793  MET794  SER795  GLU796  ALA797  LYS798  CYS799  TRP800  GLU811  SER814 

> <Gold.Protein.RotatedAtoms>
  152.0773  133.4136  159.4485 H   0  0  0  0  0  0  0  0  0  0  0  0  # atno 6907 bound_to 6896
  150.6862  134.3022  159.4720 H   0  0  0  0  0  0  0  0  0  0  0  0  # atno 6908 bound_to 6896
  152.0860  134.9439  160.0623 H   0  0  0  0  0  0  0  0  0  0  0  0  # atno 6909 bound_to 6896
  144.7203  140.2369  143.6297 H   0  0  0  0  0  0  0  0  0  0  0  0  # atno 7974 bound_to 7965
  155.7499  140.0825  157.2206 H   0  0  0  0  0  0  0  0  0  0  0  0  # atno 8008 bound_to 7997
  154.4013  140.1562  156.2767 H   0  0  0  0  0  0  0  0  0  0  0  0  # atno 8009 bound_to 7997
  155.8941  140.3413  155.5980 H   0  0  0  0  0  0  0  0  0  0  0  0  # atno 8010 bound_to 7997
  140.7243  143.3811  151.1598 H   0  0  0  0  0  0  0  0  0  0  0  0  # atno 10167 bound_to 10162
  156.1073  130.6220  150.9233 H   0  0  0  0  0  0  0  0  0  0  0  0  # atno 10718 bound_to 10713
  154.8509  135.4355  154.1778 H   0  0  0  0  0  0  0  0  0  0  0  0  # atno 10763 bound_to 10752
  153.2876  135.6959  153.7330 H   0  0  0  0  0  0  0  0  0  0  0  0  # atno 10764 bound_to 10752
  153.6510  135.3451  155.3074 H   0  0  0  0  0  0  0  0  0  0  0  0  # atno 10765 bound_to 10752
  139.9717  134.6889  156.0434 H   0  0  0  0  0  0  0  0  0  0  0  0  # atno 11005 bound_to 11000
  145.8357  139.2106  143.1857 LP  0  0  0  0  0  0  0  0  0  0  0  0  # atno 17320 bound_to 7965
  146.0391  140.8182  142.9837 LP  0  0  0  0  0  0  0  0  0  0  0  0  # atno 17321 bound_to 7965
  139.7400  143.8938  152.3047 LP  0  0  0  0  0  0  0  0  0  0  0  0  # atno 17342 bound_to 10162
  139.8757  144.7045  150.8936 LP  0  0  0  0  0  0  0  0  0  0  0  0  # atno 17343 bound_to 10162
  157.6251  131.0926  150.8549 LP  0  0  0  0  0  0  0  0  0  0  0  0  # atno 17370 bound_to 10713
  156.8666  130.5131  149.5300 LP  0  0  0  0  0  0  0  0  0  0  0  0  # atno 17371 bound_to 10713
  141.1396  133.6567  156.3692 LP  0  0  0  0  0  0  0  0  0  0  0  0  # atno 17394 bound_to 11000
  140.5280  134.6240  157.5340 LP  0  0  0  0  0  0  0  0  0  0  0  0  # atno 17395 bound_to 11000

$$$$
