AV-unprocessed.smi:2694|AV-procd|sdf|10406|dock8
  -GOLD-   2272014443D 1   1.00000     0.00000
 Structure written by MMmdl.
 42 44  0  0  0  0  0  0  0  0  1 V2000
  150.9741  140.3417  154.4268 O   0  0  0  0  0  0  0  0  0  0  0  0
  151.2176  140.4058  155.6320 C   0  0  0  0  0  0  0  0  0  0  0  0
  150.9522  141.6048  156.4270 C   0  0  0  0  0  0  0  0  0  0  0  0
  151.2378  141.6372  157.7508 C   0  0  0  0  0  0  0  0  0  0  0  0
  150.9945  142.8793  158.5969 C   0  0  0  0  0  0  0  0  0  0  0  0
  151.8269  144.1186  158.2294 C   0  0  0  0  0  0  0  0  0  0  0  0
  151.9458  144.4049  159.7304 C   0  0  0  0  0  0  0  0  0  0  0  0
  151.6912  142.9124  159.9680 C   0  0  0  0  0  0  0  0  0  0  0  0
  151.8047  140.5250  158.3838 N   0  0  0  0  0  0  0  0  0  0  0  0
  152.0497  139.4516  157.7024 C   0  0  0  0  0  0  0  0  0  0  0  0
  151.7617  139.3647  156.3271 N   0  0  0  0  0  0  0  0  0  0  0  0
  152.0905  138.0901  155.6690 C   0  0  0  0  0  0  0  0  0  0  0  0
  150.9605  137.6062  154.7323 C   0  0  1  0  0  0  0  0  0  0  0  0
  151.4660  136.6967  153.7754 O   0  0  0  0  0  0  0  0  0  0  0  0
  149.8139  136.9073  155.4833 C   0  0  0  0  0  0  0  0  0  0  0  0
  150.1144  135.5263  155.6427 O   0  0  0  0  0  0  0  0  0  0  0  0
  149.5394  134.6207  154.7763 C   0  0  0  0  0  0  0  0  0  0  0  0
  148.7252  134.9871  153.6742 C   0  0  0  0  0  0  0  0  0  0  0  0
  148.1763  134.0006  152.8321 C   0  0  0  0  0  0  0  0  0  0  0  0
  148.4313  132.6393  153.0786 C   0  0  0  0  0  0  0  0  0  0  0  0
  149.2359  132.2651  154.1700 C   0  0  0  0  0  0  0  0  0  0  0  0
  149.7865  133.2498  155.0136 C   0  0  0  0  0  0  0  0  0  0  0  0
  150.7697  132.7633  156.3482 Cl  0  0  0  0  0  0  0  0  0  0  0  0
  150.5229  142.4703  155.9439 H   0  0  0  0  0  0  0  0  0  0  0  0
  149.9311  143.1130  158.6758 H   0  0  0  0  0  0  0  0  0  0  0  0
  152.7897  143.8784  157.7744 H   0  0  0  0  0  0  0  0  0  0  0  0
  151.2893  144.8781  157.6609 H   0  0  0  0  0  0  0  0  0  0  0  0
  152.9253  144.7592  160.0530 H   0  0  0  0  0  0  0  0  0  0  0  0
  151.1403  145.0378  160.1065 H   0  0  0  0  0  0  0  0  0  0  0  0
  151.0428  142.6884  160.8155 H   0  0  0  0  0  0  0  0  0  0  0  0
  152.6171  142.3351  160.0036 H   0  0  0  0  0  0  0  0  0  0  0  0
  152.4940  138.5589  158.1462 H   0  0  0  0  0  0  0  0  0  0  0  0
  153.0382  138.1416  155.1284 H   0  0  0  0  0  0  0  0  0  0  0  0
  152.2623  137.3380  156.4413 H   0  0  0  0  0  0  0  0  0  0  0  0
  150.5344  138.4485  154.1861 H   0  0  0  0  0  0  0  0  0  0  0  0
  151.1769  136.9696  152.9182 H   0  0  0  0  0  0  0  0  0  0  0  0
  149.7128  137.3624  156.4699 H   0  0  0  0  0  0  0  0  0  0  0  0
  148.8699  137.0496  154.9541 H   0  0  0  0  0  0  0  0  0  0  0  0
  148.5062  136.0202  153.4518 H   0  0  0  0  0  0  0  0  0  0  0  0
  147.5583  134.2900  151.9950 H   0  0  0  0  0  0  0  0  0  0  0  0
  148.0102  131.8835  152.4319 H   0  0  0  0  0  0  0  0  0  0  0  0
  149.4312  131.2197  154.3597 H   0  0  0  0  0  0  0  0  0  0  0  0
  1  2  2  0  0  0  0
  2 11  1  0  0  0  0
  2  3  1  0  0  0  0
  3  4  2  0  0  0  0
  3 24  1  0  0  0  0
  4  5  1  0  0  0  0
  4  9  1  0  0  0  0
  5  8  1  0  0  0  0
  5  6  1  0  0  0  0
  5 25  1  0  0  0  0
  6  7  1  0  0  0  0
  6 26  1  0  0  0  0
  6 27  1  0  0  0  0
  7  8  1  0  0  0  0
  7 28  1  0  0  0  0
  7 29  1  0  0  0  0
  8 30  1  0  0  0  0
  8 31  1  0  0  0  0
  9 10  2  0  0  0  0
 10 11  1  0  0  0  0
 10 32  1  0  0  0  0
 11 12  1  0  0  0  0
 12 13  1  0  0  0  0
 12 33  1  0  0  0  0
 12 34  1  0  0  0  0
 13 14  1  0  0  0  0
 13 15  1  0  0  0  0
 13 35  1  0  0  0  0
 14 36  1  0  0  0  0
 15 16  1  0  0  0  0
 15 37  1  0  0  0  0
 15 38  1  0  0  0  0
 16 17  1  0  0  0  0
 17 22  1  0  0  0  0
 17 18  2  0  0  0  0
 18 19  1  0  0  0  0
 18 39  1  0  0  0  0
 19 20  2  0  0  0  0
 19 40  1  0  0  0  0
 20 21  1  0  0  0  0
 20 41  1  0  0  0  0
 21 22  2  0  0  0  0
 21 42  1  0  0  0  0
 22 23  1  0  0  0  0
M  END
> <s_m_source_file>
AV-unprocessed.smi

> <i_m_source_file_index>
2694

> <i_lp_mmshare_version>
43012

> <i_f3d_flags>
0

> <s_epik_input>
W0NIMl0xW0NIMl1bQ0gyXVtDSF0xYyhbY0hdYzI9TyluW2NIXW4yW0NIMl1bQ0BIXShbT0hdKVtDSDJdT2MzW2NIXVtjSF1bY0hdW2NIXWMzQ2w=

> <s_epik_cmdline>
J2VwaWtfcHl0aG9uJywgJy1waCcsICc3LjAnLCAnLXRuJywgJzgnLCAnLW1hJywgJzIwMCcsICctbWV0YWxfYmluZGluZycsICctaW1hZScsICc8aW5maWxlLm1hZT4nLCAnLW9tYWUnLCAnPG91dGZpbGUubWFlPic=

> <r_lp_tautomer_probability>
1

> <r_epik_Ionization_Penalty>
1.78212e-05

> <r_epik_Ionization_Penalty_Charging>
5.61663e-08

> <r_epik_Ionization_Penalty_Neutral>
1.7765e-05

> <r_epik_State_Penalty>
-0

> <r_epik_Charging_Adjusted_Penalty>
5.61663e-08

> <i_epik_Tot_Q>
0

> <i_epik_Tot_abs_Q>
0

> <r_epik_Metal_State_Penalty>
-0

> <b_epik_Metal_Only>
0

> <s_lp_Force_Field>
OPLS_2005

> <r_lp_Energy>
33.164

> <b_lp_Chiralities_Consistent>
1

> <s_lp_Variant>
AV-unprocessed.smi:2694-2

> <Gold.Version>
5.8.1

> <Gold.Id.Protein>
6NUR|6NUR_protein|mol2

> <Gold.PLP.Fitness>
55.3138

> <Gold.PLP.PLP>
-49.2414

> <Gold.PLP.part.hbond>
-3.0280

> <Gold.PLP.part.metal>
0.0000

> <Gold.PLP.part.buried>
-3.0113

> <Gold.PLP.part.nonpolar>
-43.2122

> <Gold.PLP.part.repulsive>
0.1280

> <Gold.PLP.ligand.clash>
0.0000

> <Gold.PLP.ligand.torsion>
1.1930

> <Gold.PLP.Chemscore.Hbond>
2.6560

> <Gold.PLP.Chemscore.CHOScore>
0.0000

> <Gold.PLP.Chemscore.Metal>
0.0000

> <Gold.Chemscore.Hbonds>
donor molecule, donor type, donor heavy atom, donor atom, acceptor molecule, acceptor atom, score
      L1  H    14    36       P1  7949  0.53
      P1  H  7989  7998       L1     1  0.31
      P1  H 10752 10765       L1    14  1.00

> <Gold.PLP.Chemscore.Internal.Correction>
0.4906

> <Gold.Rescore>
     Score         DG    S(hbond)    S(metal)    S(lipo)     H(rot)  DE(clash)    DE(int)     intcor
     17.07     -20.36       2.35        0.00     112.99       2.42       0.06       3.23       ----

> <Gold.Chemscore.Fitness>
17.0687

> <Gold.Chemscore.DG>
-20.3571

> <Gold.Chemscore.ZeroCoef>
-5.4800

> <Gold.Chemscore.Hbond>
2.3545

> <Gold.Chemscore.Metal>
0.0000

> <Gold.Chemscore.Lipo>
112.9892

> <Gold.Chemscore.Internal_Hbond>
0.0000

> <Gold.Chemscore.DEClash>
0.0589

> <Gold.Chemscore.DEInternal>
3.2295

> <Gold.Chemscore.Rot>
2.4245

> <Gold.Chemscore.Internal.Correction>
   9.000000E+99

> <Gold.Chemscore.Hbonds>
donor molecule, donor type, donor heavy atom, donor atom, acceptor molecule, acceptor atom, score
      L1  H    14    36       P1  7949  0.29
      P1  H  7989  7998       L1     1  0.31
      P1  H 10752 10765       L1    14  0.96

> <Gold.Chemscore.Hbond.Weighted>
-7.8640

> <Gold.Chemscore.Metal.Weighted>
-0.0000

> <Gold.Chemscore.Lipo.Weighted>
-13.2197

> <Gold.Chemscore.Internal_Hbond.Weighted>
0.0000

> <Gold.Chemscore.DEClash.Weighted>
0.0589

> <Gold.Chemscore.DEInternal.Weighted>
3.2295

> <Gold.Chemscore.Rot.Weighted>
6.2066

> <Gold.Chemscore.Internal.Correction.Weighted>
   9.000000E+99

> <Gold.Protein.RotatedTorsions>
[ 6907 6896 6895 6894 ] final -164.92 input  -60.11 | X-H torsion
[ 7974 7965 7964 7962 ] final   11.95 input  175.53 | X-H torsion
[ 8008 7997 7996 7995 ] final   68.32 input   59.86 | X-H torsion
[ 10167 10162 10161 10158 ] final   48.69 input  -65.29 | X-H torsion
[ 10718 10713 10712 10709 ] final   20.65 input   66.30 | X-H torsion
[ 10763 10752 10751 10750 ] final  159.95 input  -60.55 | X-H torsion
[ 11005 11000 10999 10996 ] final  104.26 input  -57.11 | X-H torsion

> <Gold.Protein.ActiveResidues>
 VAL166  LYS551  ARG553  GLY616  TRP617  ASP618  TYR619  PRO620  LYS621  CYS622 
 ASP623  PHE694  ASN695  SER759  ASP760  ASP761  ALA762  ILE779  LEU786  VAL792 
 PHE793  MET794  SER795  GLU796  ALA797  LYS798  CYS799  TRP800  GLU811  SER814 

> <Gold.Protein.RotatedAtoms>
  151.4194  133.3703  159.2753 H   0  0  0  0  0  0  0  0  0  0  0  0  # atno 6907 bound_to 6896
  150.9304  134.8721  159.7558 H   0  0  0  0  0  0  0  0  0  0  0  0  # atno 6908 bound_to 6896
  152.5025  134.4138  159.9510 H   0  0  0  0  0  0  0  0  0  0  0  0  # atno 6909 bound_to 6896
  146.2361  139.9409  142.8483 H   0  0  0  0  0  0  0  0  0  0  0  0  # atno 7974 bound_to 7965
  155.7065  140.3495  155.4955 H   0  0  0  0  0  0  0  0  0  0  0  0  # atno 8008 bound_to 7997
  155.9394  140.1099  157.1090 H   0  0  0  0  0  0  0  0  0  0  0  0  # atno 8009 bound_to 7997
  154.4100  140.1216  156.4893 H   0  0  0  0  0  0  0  0  0  0  0  0  # atno 8010 bound_to 7997
  140.2906  144.3050  150.6241 H   0  0  0  0  0  0  0  0  0  0  0  0  # atno 10167 bound_to 10162
  157.1274  130.6576  149.5941 H   0  0  0  0  0  0  0  0  0  0  0  0  # atno 10718 bound_to 10713
  154.2398  135.2775  155.2858 H   0  0  0  0  0  0  0  0  0  0  0  0  # atno 10763 bound_to 10752
  154.5555  135.5662  153.6963 H   0  0  0  0  0  0  0  0  0  0  0  0  # atno 10764 bound_to 10752
  153.0002  135.6285  154.2542 H   0  0  0  0  0  0  0  0  0  0  0  0  # atno 10765 bound_to 10752
  139.8790  134.9294  156.5334 H   0  0  0  0  0  0  0  0  0  0  0  0  # atno 11005 bound_to 11000
  145.1954  140.9830  143.4187 LP  0  0  0  0  0  0  0  0  0  0  0  0  # atno 17320 bound_to 7965
  144.9820  139.3773  143.6257 LP  0  0  0  0  0  0  0  0  0  0  0  0  # atno 17321 bound_to 7965
  140.5735  143.2178  151.7556 LP  0  0  0  0  0  0  0  0  0  0  0  0  # atno 17342 bound_to 10162
  139.4939  144.4182  152.0006 LP  0  0  0  0  0  0  0  0  0  0  0  0  # atno 17343 bound_to 10162
  155.9815  130.4823  150.6832 LP  0  0  0  0  0  0  0  0  0  0  0  0  # atno 17370 bound_to 10713
  157.4423  131.0862  151.0931 LP  0  0  0  0  0  0  0  0  0  0  0  0  # atno 17371 bound_to 10713
  140.8364  133.8239  155.9032 LP  0  0  0  0  0  0  0  0  0  0  0  0  # atno 17394 bound_to 11000
  140.9280  134.2058  157.4883 LP  0  0  0  0  0  0  0  0  0  0  0  0  # atno 17395 bound_to 11000

$$$$
