AV-unprocessed.smi:99|AV-procd|sdf|866|dock3
  -GOLD-   2262017313D 1   1.00000     0.00000
 Structure written by MMmdl.
 53 56  0  0  0  0  0  0  0  0  1 V2000
  147.6569  134.0656  154.4701 O   0  0  0  0  0  0  0  0  0  0  0  0
  146.8868  134.8806  153.9580 C   0  0  0  0  0  0  0  0  0  0  0  0
  146.7254  136.1392  154.4089 O   0  0  0  0  0  0  0  0  0  0  0  0
  147.1493  136.4814  155.7172 C   0  0  0  0  0  0  0  0  0  0  0  0
  148.6876  136.4766  155.7667 C   0  0  1  0  0  0  0  0  0  0  0  0
  149.2041  137.4966  154.9108 O   0  0  0  0  0  0  0  0  0  0  0  0
  149.5520  138.6494  155.6302 C   0  0  1  0  0  0  0  0  0  0  0  0
  148.7847  139.8408  155.0903 N   0  0  0  0  0  0  0  0  0  0  0  0
  147.8586  139.7315  154.0594 C   0  0  0  0  0  0  0  0  0  0  0  0
  147.1703  140.7898  153.5701 C   0  0  0  0  0  0  0  0  0  0  0  0
  147.3791  142.1267  154.1160 C   0  0  0  0  0  0  0  0  0  0  0  0
  146.8032  143.1446  153.7383 O   0  0  0  0  0  0  0  0  0  0  0  0
  148.3214  142.1918  155.1463 N   0  0  0  0  0  0  0  0  0  0  0  0
  149.0364  141.1085  155.6589 C   0  0  0  0  0  0  0  0  0  0  0  0
  149.8449  141.2770  156.5712 O   0  0  0  0  0  0  0  0  0  0  0  0
  149.2777  138.3678  157.1250 C   0  0  1  0  0  0  0  0  0  0  0  0
  148.0414  138.9006  157.5760 O   0  0  0  0  0  0  0  0  0  0  0  0
  149.2787  136.8458  157.1264 C   0  0  1  0  0  0  0  0  0  0  0  0
  148.6118  136.2590  158.2390 O   0  0  0  0  0  0  0  0  0  0  0  0
  148.8757  136.6601  159.5001 C   0  0  0  0  0  0  0  0  0  0  0  0
  149.5337  137.6655  159.7744 O   0  0  0  0  0  0  0  0  0  0  0  0
  148.2788  135.7590  160.5274 C   0  0  0  0  0  0  0  0  0  0  0  0
  148.0826  136.2403  161.8429 C   0  0  0  0  0  0  0  0  0  0  0  0
  147.5177  135.4123  162.8325 C   0  0  0  0  0  0  0  0  0  0  0  0
  147.1408  134.0936  162.5183 C   0  0  0  0  0  0  0  0  0  0  0  0
  147.3306  133.6031  161.2133 C   0  0  0  0  0  0  0  0  0  0  0  0
  147.8968  134.4288  160.2227 C   0  0  0  0  0  0  0  0  0  0  0  0
  146.0361  134.5765  152.7716 C   0  0  0  0  0  0  0  0  0  0  0  0
  145.3912  135.6358  152.0914 C   0  0  0  0  0  0  0  0  0  0  0  0
  144.5825  135.3791  150.9671 C   0  0  0  0  0  0  0  0  0  0  0  0
  144.4102  134.0601  150.5086 C   0  0  0  0  0  0  0  0  0  0  0  0
  145.0480  132.9978  151.1754 C   0  0  0  0  0  0  0  0  0  0  0  0
  145.8566  133.2524  152.3003 C   0  0  0  0  0  0  0  0  0  0  0  0
  148.4989  143.0984  155.5537 H   0  0  0  0  0  0  0  0  0  0  0  0
  146.7472  137.4536  156.0013 H   0  0  0  0  0  0  0  0  0  0  0  0
  146.7490  135.7460  156.4162 H   0  0  0  0  0  0  0  0  0  0  0  0
  149.0564  135.5002  155.4508 H   0  0  0  0  0  0  0  0  0  0  0  0
  150.6036  138.8573  155.4212 H   0  0  0  0  0  0  0  0  0  0  0  0
  147.6597  138.7728  153.6070 H   0  0  0  0  0  0  0  0  0  0  0  0
  146.4612  140.6465  152.7676 H   0  0  0  0  0  0  0  0  0  0  0  0
  150.0818  138.7792  157.7357 H   0  0  0  0  0  0  0  0  0  0  0  0
  148.0400  138.8977  158.5211 H   0  0  0  0  0  0  0  0  0  0  0  0
  150.3172  136.5098  157.1135 H   0  0  0  0  0  0  0  0  0  0  0  0
  148.3631  137.2497  162.1076 H   0  0  0  0  0  0  0  0  0  0  0  0
  147.3727  135.7904  163.8338 H   0  0  0  0  0  0  0  0  0  0  0  0
  146.7065  133.4596  163.2771 H   0  0  0  0  0  0  0  0  0  0  0  0
  147.0410  132.5913  160.9699 H   0  0  0  0  0  0  0  0  0  0  0  0
  148.0273  134.0201  159.2312 H   0  0  0  0  0  0  0  0  0  0  0  0
  145.5082  136.6569  152.4254 H   0  0  0  0  0  0  0  0  0  0  0  0
  144.0937  136.1961  150.4569 H   0  0  0  0  0  0  0  0  0  0  0  0
  143.7898  133.8635  149.6469 H   0  0  0  0  0  0  0  0  0  0  0  0
  144.9172  131.9848  150.8240 H   0  0  0  0  0  0  0  0  0  0  0  0
  146.3337  132.4142  152.7872 H   0  0  0  0  0  0  0  0  0  0  0  0
  1  2  2  0  0  0  0
  2  3  1  0  0  0  0
  2 28  1  0  0  0  0
  3  4  1  0  0  0  0
  4  5  1  0  0  0  0
  4 35  1  0  0  0  0
  4 36  1  0  0  0  0
  5 18  1  0  0  0  0
  5  6  1  0  0  0  0
  5 37  1  0  0  0  0
  6  7  1  0  0  0  0
  7  8  1  0  0  0  0
  7 16  1  0  0  0  0
  7 38  1  0  0  0  0
  8 14  1  0  0  0  0
  8  9  1  0  0  0  0
  9 10  2  0  0  0  0
  9 39  1  0  0  0  0
 10 11  1  0  0  0  0
 10 40  1  0  0  0  0
 11 12  2  0  0  0  0
 11 13  1  0  0  0  0
 13 34  1  0  0  0  0
 13 14  1  0  0  0  0
 14 15  2  0  0  0  0
 16 17  1  0  0  0  0
 16 18  1  0  0  0  0
 16 41  1  0  0  0  0
 17 42  1  0  0  0  0
 18 19  1  0  0  0  0
 18 43  1  0  0  0  0
 19 20  1  0  0  0  0
 20 21  2  0  0  0  0
 20 22  1  0  0  0  0
 22 27  1  0  0  0  0
 22 23  2  0  0  0  0
 23 24  1  0  0  0  0
 23 44  1  0  0  0  0
 24 25  2  0  0  0  0
 24 45  1  0  0  0  0
 25 26  1  0  0  0  0
 25 46  1  0  0  0  0
 26 27  2  0  0  0  0
 26 47  1  0  0  0  0
 27 48  1  0  0  0  0
 28 33  1  0  0  0  0
 28 29  2  0  0  0  0
 29 30  1  0  0  0  0
 29 49  1  0  0  0  0
 30 31  2  0  0  0  0
 30 50  1  0  0  0  0
 31 32  1  0  0  0  0
 31 51  1  0  0  0  0
 32 33  2  0  0  0  0
 32 52  1  0  0  0  0
 33 53  1  0  0  0  0
M  END
> <s_m_source_file>
AV-unprocessed.smi

> <i_m_source_file_index>
99

> <i_lp_mmshare_version>
43012

> <i_f3d_flags>
0

> <s_epik_input>
W2NIXTFbY0hdW2NIXVtjSF1bY0hdYzFDKD1PKU9bQ0gyXVtDQEBIXTJPW0NAQEhdKG4zW2NIXVtjSF1jKD1PKVtuSF1jMz1PKVtDQEBIXShbT0hdKVtDQEhdMk9DKD1PKWM0W2NIXVtjSF1bY0hdW2NIXVtjSF00

> <s_epik_cmdline>
J2VwaWtfcHl0aG9uJywgJy1waCcsICc3LjAnLCAnLXRuJywgJzgnLCAnLW1hJywgJzIwMCcsICctbWV0YWxfYmluZGluZycsICctaW1hZScsICc8aW5maWxlLm1hZT4nLCAnLW9tYWUnLCAnPG91dGZpbGUubWFlPic=

> <r_lp_tautomer_probability>
1

> <r_epik_Ionization_Penalty>
0.00454555

> <r_epik_Ionization_Penalty_Charging>
0.0045191

> <r_epik_Ionization_Penalty_Neutral>
2.64449e-05

> <r_epik_State_Penalty>
-0

> <r_epik_Charging_Adjusted_Penalty>
0.0045191

> <i_epik_Tot_Q>
0

> <i_epik_Tot_abs_Q>
0

> <r_epik_Metal_State_Penalty>
1.27877

> <b_epik_Metal_Only>
0

> <s_epik_Chemistry_Notes>
This compound has an ester and may undergo hydrolysis at high or low pH. This compound contains an acetal/aminal-like group ( X-CH(R)-Y where X, Y are N, S, or O) that may be acid/base labile, releasing an aldehyde.

> <s_lp_Force_Field>
OPLS_2005

> <r_lp_Energy>
46.8901

> <b_lp_Chiralities_Consistent>
1

> <s_lp_Variant>
AV-unprocessed.smi:99-2

> <Gold.Version>
5.8.1

> <Gold.Id.Protein>
6NUR|6NUR_protein|mol2

> <Gold.PLP.Fitness>
48.7327

> <Gold.PLP.PLP>
-46.3541

> <Gold.PLP.part.hbond>
-3.4293

> <Gold.PLP.part.metal>
0.0000

> <Gold.PLP.part.buried>
-4.2776

> <Gold.PLP.part.nonpolar>
-39.1994

> <Gold.PLP.part.repulsive>
0.7561

> <Gold.PLP.ligand.clash>
0.0000

> <Gold.PLP.ligand.torsion>
0.6961

> <Gold.PLP.Chemscore.Hbond>
1.1282

> <Gold.PLP.Chemscore.CHOScore>
0.0000

> <Gold.PLP.Chemscore.Metal>
0.0000

> <Gold.Chemscore.Hbonds>
donor molecule, donor type, donor heavy atom, donor atom, acceptor molecule, acceptor atom, score
      L1  H    13    34       P1  8028  1.00
      P1  H  6931  6943       L1    21  0.06
      P1  H  8022  8030       L1    12  0.04

> <Gold.PLP.Chemscore.Internal.Correction>
0.3862

> <Gold.Rescore>
     Score         DG    S(hbond)    S(metal)    S(lipo)     H(rot)  DE(clash)    DE(int)     intcor
      9.65     -13.21       1.44        0.00      94.74       3.19       0.21       3.35       ----

> <Gold.Chemscore.Fitness>
9.6540

> <Gold.Chemscore.DG>
-13.2082

> <Gold.Chemscore.ZeroCoef>
-5.4800

> <Gold.Chemscore.Hbond>
1.4403

> <Gold.Chemscore.Metal>
0.0000

> <Gold.Chemscore.Lipo>
94.7395

> <Gold.Chemscore.Internal_Hbond>
0.0000

> <Gold.Chemscore.DEClash>
0.2061

> <Gold.Chemscore.DEInternal>
3.3481

> <Gold.Chemscore.Rot>
3.1903

> <Gold.Chemscore.Internal.Correction>
   9.000000E+99

> <Gold.Chemscore.Hbonds>
donor molecule, donor type, donor heavy atom, donor atom, acceptor molecule, acceptor atom, score
      L1  H    13    34       P1  8028  0.99
      P1  H  6931  6943       L1    21  0.05
      P1  H  8022  8030       L1    12  0.02

> <Gold.Chemscore.Hbond.Weighted>
-4.8107

> <Gold.Chemscore.Metal.Weighted>
-0.0000

> <Gold.Chemscore.Lipo.Weighted>
-11.0845

> <Gold.Chemscore.Internal_Hbond.Weighted>
0.0000

> <Gold.Chemscore.DEClash.Weighted>
0.2061

> <Gold.Chemscore.DEInternal.Weighted>
3.3481

> <Gold.Chemscore.Rot.Weighted>
8.1671

> <Gold.Chemscore.Internal.Correction.Weighted>
   9.000000E+99

> <Gold.Protein.RotatedTorsions>
[ 6907 6896 6895 6894 ] final  -33.94 input  -60.11 | X-H torsion
[ 7974 7965 7964 7962 ] final   25.01 input  175.53 | X-H torsion
[ 8008 7997 7996 7995 ] final -176.95 input   59.86 | X-H torsion
[ 10167 10162 10161 10158 ] final  130.64 input  -65.29 | X-H torsion
[ 10718 10713 10712 10709 ] final   -1.27 input   66.30 | X-H torsion
[ 10763 10752 10751 10750 ] final  134.01 input  -60.55 | X-H torsion
[ 11005 11000 10999 10996 ] final  -78.22 input  -57.11 | X-H torsion

> <Gold.Protein.ActiveResidues>
 VAL166  LYS551  ARG553  GLY616  TRP617  ASP618  TYR619  PRO620  LYS621  CYS622 
 ASP623  PHE694  ASN695  SER759  ASP760  ASP761  ALA762  ILE779  LEU786  VAL792 
 PHE793  MET794  SER795  GLU796  ALA797  LYS798  CYS799  TRP800  GLU811  SER814 

> <Gold.Protein.RotatedAtoms>
  151.0591  134.9724  159.8250 H   0  0  0  0  0  0  0  0  0  0  0  0  # atno 6907 bound_to 6896
  152.5392  134.2441  159.8883 H   0  0  0  0  0  0  0  0  0  0  0  0  # atno 6908 bound_to 6896
  151.2460  133.4332  159.2643 H   0  0  0  0  0  0  0  0  0  0  0  0  # atno 6909 bound_to 6896
  146.1910  139.7525  142.8832 H   0  0  0  0  0  0  0  0  0  0  0  0  # atno 7974 bound_to 7965
  156.0010  140.1220  157.0547 H   0  0  0  0  0  0  0  0  0  0  0  0  # atno 8008 bound_to 7997
  154.4242  140.1107  156.5766 H   0  0  0  0  0  0  0  0  0  0  0  0  # atno 8009 bound_to 7997
  155.6212  140.3472  155.4655 H   0  0  0  0  0  0  0  0  0  0  0  0  # atno 8010 bound_to 7997
  139.5420  144.6739  151.4593 H   0  0  0  0  0  0  0  0  0  0  0  0  # atno 10167 bound_to 10162
  156.8081  130.5415  149.5712 H   0  0  0  0  0  0  0  0  0  0  0  0  # atno 10718 bound_to 10713
  153.8165  135.3122  155.3406 H   0  0  0  0  0  0  0  0  0  0  0  0  # atno 10763 bound_to 10752
  154.8030  135.4715  154.0326 H   0  0  0  0  0  0  0  0  0  0  0  0  # atno 10764 bound_to 10752
  153.1721  135.6879  153.8683 H   0  0  0  0  0  0  0  0  0  0  0  0  # atno 10765 bound_to 10752
  141.1664  133.7054  156.7939 H   0  0  0  0  0  0  0  0  0  0  0  0  # atno 11005 bound_to 11000
  145.3793  141.0355  143.3186 LP  0  0  0  0  0  0  0  0  0  0  0  0  # atno 17320 bound_to 7965
  144.8486  139.5357  143.6867 LP  0  0  0  0  0  0  0  0  0  0  0  0  # atno 17321 bound_to 7965
  140.6654  143.8409  150.6936 LP  0  0  0  0  0  0  0  0  0  0  0  0  # atno 17342 bound_to 10162
  140.1817  143.4110  152.1928 LP  0  0  0  0  0  0  0  0  0  0  0  0  # atno 17343 bound_to 10162
  156.1061  130.6005  150.9973 LP  0  0  0  0  0  0  0  0  0  0  0  0  # atno 17370 bound_to 10713
  157.6520  131.0895  150.8030 LP  0  0  0  0  0  0  0  0  0  0  0  0  # atno 17371 bound_to 10713
  140.2305  134.8689  157.3472 LP  0  0  0  0  0  0  0  0  0  0  0  0  # atno 17394 bound_to 11000
  140.1895  134.4389  155.7724 LP  0  0  0  0  0  0  0  0  0  0  0  0  # atno 17395 bound_to 11000

$$$$
