AV-unprocessed.smi:836|AV-procd|sdf|3890|dock7
  -GOLD-   22720 1343D 1   1.00000     0.00000
 Structure written by MMmdl.
 38 39  0  0  0  0  0  0  0  0  1 V2000
  153.5015  142.3003  160.8594 C   0  0  0  0  0  0  0  0  0  0  0  0
  152.3485  142.3703  159.8482 C   0  0  2  0  0  0  0  0  0  0  0  0
  152.1214  141.0120  159.1577 C   0  0  0  0  0  0  0  0  0  0  0  0
  150.9688  141.0774  158.1430 C   0  0  0  0  0  0  0  0  0  0  0  0
  151.2019  142.1842  157.0955 C   0  0  1  0  0  0  0  0  0  0  0  0
  150.0608  142.2851  156.1918 N   0  0  0  0  0  0  0  0  0  0  0  0
  149.7224  141.3821  155.2578 C   0  0  0  0  0  0  0  0  0  0  0  0
  150.3423  140.3361  155.0673 O   0  0  0  0  0  0  0  0  0  0  0  0
  148.4890  141.7048  154.4120 C   0  0  0  0  0  0  0  0  0  0  0  0
  147.5975  140.5619  154.3183 N   0  0  0  0  0  0  0  0  0  0  0  0
  147.2071  139.8693  153.1923 C   0  0  0  0  0  0  0  0  0  0  0  0
  146.3546  138.8834  153.5983 C   0  0  0  0  0  0  0  0  0  0  0  0
  146.2792  139.0495  155.0119 C   0  0  0  0  0  0  0  0  0  0  0  0
  145.4818  138.2478  156.0064 C   0  0  0  0  0  0  0  0  0  0  0  0
  145.8411  136.9649  155.9612 F   0  0  0  0  0  0  0  0  0  0  0  0
  145.6937  138.7096  157.2387 F   0  0  0  0  0  0  0  0  0  0  0  0
  144.1821  138.3395  155.7249 F   0  0  0  0  0  0  0  0  0  0  0  0
  147.0290  140.0583  155.4351 N   0  0  0  0  0  0  0  0  0  0  0  0
  151.4339  143.5424  157.7820 C   0  0  0  0  0  0  0  0  0  0  0  0
  152.5856  143.4719  158.7977 C   0  0  0  0  0  0  0  0  0  0  0  0
  154.4424  142.0448  160.3711 H   0  0  0  0  0  0  0  0  0  0  0  0
  153.3082  141.5476  161.6242 H   0  0  0  0  0  0  0  0  0  0  0  0
  153.6377  143.2562  161.3658 H   0  0  0  0  0  0  0  0  0  0  0  0
  151.4425  142.6223  160.4012 H   0  0  0  0  0  0  0  0  0  0  0  0
  153.0340  140.6997  158.6482 H   0  0  0  0  0  0  0  0  0  0  0  0
  151.9072  140.2454  159.9031 H   0  0  0  0  0  0  0  0  0  0  0  0
  150.8619  140.1099  157.6513 H   0  0  0  0  0  0  0  0  0  0  0  0
  150.0323  141.2603  158.6719 H   0  0  0  0  0  0  0  0  0  0  0  0
  152.0949  141.9409  156.5160 H   0  0  0  0  0  0  0  0  0  0  0  0
  149.4897  143.1142  156.2717 H   0  0  0  0  0  0  0  0  0  0  0  0
  147.9415  142.5394  154.8520 H   0  0  0  0  0  0  0  0  0  0  0  0
  148.7962  142.0140  153.4116 H   0  0  0  0  0  0  0  0  0  0  0  0
  147.5624  140.1351  152.2076 H   0  0  0  0  0  0  0  0  0  0  0  0
  145.8567  138.1525  152.9783 H   0  0  0  0  0  0  0  0  0  0  0  0
  151.6510  144.3061  157.0341 H   0  0  0  0  0  0  0  0  0  0  0  0
  150.5231  143.8599  158.2919 H   0  0  0  0  0  0  0  0  0  0  0  0
  152.6970  144.4388  159.2896 H   0  0  0  0  0  0  0  0  0  0  0  0
  153.5226  143.2844  158.2715 H   0  0  0  0  0  0  0  0  0  0  0  0
  1  2  1  0  0  0  0
  1 21  1  0  0  0  0
  1 22  1  0  0  0  0
  1 23  1  0  0  0  0
  2 20  1  0  0  0  0
  2  3  1  0  0  0  0
  2 24  1  0  0  0  0
  3  4  1  0  0  0  0
  3 25  1  0  0  0  0
  3 26  1  0  0  0  0
  4  5  1  0  0  0  0
  4 27  1  0  0  0  0
  4 28  1  0  0  0  0
  5  6  1  0  0  0  0
  5 19  1  0  0  0  0
  5 29  1  0  0  0  0
  6  7  1  0  0  0  0
  6 30  1  0  0  0  0
  7  8  2  0  0  0  0
  7  9  1  0  0  0  0
  9 10  1  0  0  0  0
  9 31  1  0  0  0  0
  9 32  1  0  0  0  0
 10 18  1  0  0  0  0
 10 11  1  0  0  0  0
 11 12  2  0  0  0  0
 11 33  1  0  0  0  0
 12 13  1  0  0  0  0
 12 34  1  0  0  0  0
 13 14  1  0  0  0  0
 13 18  2  0  0  0  0
 14 15  1  0  0  0  0
 14 16  1  0  0  0  0
 14 17  1  0  0  0  0
 19 20  1  0  0  0  0
 19 35  1  0  0  0  0
 19 36  1  0  0  0  0
 20 37  1  0  0  0  0
 20 38  1  0  0  0  0
M  END
> <s_m_source_file>
AV-unprocessed.smi

> <i_m_source_file_index>
836

> <i_lp_mmshare_version>
43012

> <i_f3d_flags>
0

> <s_epik_input>
W0NIM11bQ0BASF0xW0NIMl1bQ0gyXVtDQEhdKFtDSDJdW0NIMl0xKVtOSF1DKD1PKVtDSDJdbjJbY0hdW2NIXWMobjIpQyhGKShGKUY=

> <s_epik_cmdline>
J2VwaWtfcHl0aG9uJywgJy1waCcsICc3LjAnLCAnLXRuJywgJzgnLCAnLW1hJywgJzIwMCcsICctbWV0YWxfYmluZGluZycsICctaW1hZScsICc8aW5maWxlLm1hZT4nLCAnLW9tYWUnLCAnPG91dGZpbGUubWFlPic=

> <r_lp_tautomer_probability>
1

> <r_epik_Ionization_Penalty>
8.28749e-08

> <r_epik_Ionization_Penalty_Charging>
0

> <r_epik_Ionization_Penalty_Neutral>
8.28749e-08

> <r_epik_State_Penalty>
-0

> <r_epik_Charging_Adjusted_Penalty>
0

> <i_epik_Tot_Q>
0

> <i_epik_Tot_abs_Q>
0

> <r_epik_Metal_State_Penalty>
-0

> <b_epik_Metal_Only>
0

> <s_lp_Force_Field>
OPLS_2005

> <r_lp_Energy>
10.955

> <b_lp_Chiralities_Consistent>
1

> <s_lp_Variant>
AV-unprocessed.smi:836-1

> <Gold.Version>
5.8.1

> <Gold.Id.Protein>
6NUR|6NUR_protein|mol2

> <Gold.PLP.Fitness>
42.9250

> <Gold.PLP.PLP>
-34.4738

> <Gold.PLP.part.hbond>
-2.0000

> <Gold.PLP.part.metal>
0.0000

> <Gold.PLP.part.buried>
-2.4764

> <Gold.PLP.part.nonpolar>
-29.8569

> <Gold.PLP.part.repulsive>
0.2052

> <Gold.PLP.ligand.clash>
0.0000

> <Gold.PLP.ligand.torsion>
0.2769

> <Gold.PLP.Chemscore.Hbond>
2.0000

> <Gold.PLP.Chemscore.CHOScore>
1.0000

> <Gold.PLP.Chemscore.Metal>
0.0000

> <Gold.Chemscore.Hbonds>
donor molecule, donor type, donor heavy atom, donor atom, acceptor molecule, acceptor atom, score
      L1  H     6    30       P1  8028  1.00
      P1  H  7989  7998       L1     8  0.83
      L1  C    11    33       P1  7957  1.00

> <Gold.PLP.Chemscore.Internal.Correction>
0.0050

> <Gold.Rescore>
     Score         DG    S(hbond)    S(metal)    S(lipo)     H(rot)  DE(clash)    DE(int)     intcor
     17.18     -17.50       1.62        0.00      90.16       1.54       0.12       0.21       ----

> <Gold.Chemscore.Fitness>
17.1761

> <Gold.Chemscore.DG>
-17.4971

> <Gold.Chemscore.ZeroCoef>
-5.4800

> <Gold.Chemscore.Hbond>
1.6216

> <Gold.Chemscore.Metal>
0.0000

> <Gold.Chemscore.Lipo>
90.1606

> <Gold.Chemscore.Internal_Hbond>
0.0000

> <Gold.Chemscore.DEClash>
0.1159

> <Gold.Chemscore.DEInternal>
0.2051

> <Gold.Chemscore.Rot>
1.5422

> <Gold.Chemscore.Internal.Correction>
   9.000000E+99

> <Gold.Chemscore.Hbonds>
donor molecule, donor type, donor heavy atom, donor atom, acceptor molecule, acceptor atom, score
      L1  H     6    30       P1  8028  0.96
      P1  H  7989  7998       L1     8  0.28

> <Gold.Chemscore.Hbond.Weighted>
-5.4163

> <Gold.Chemscore.Metal.Weighted>
-0.0000

> <Gold.Chemscore.Lipo.Weighted>
-10.5488

> <Gold.Chemscore.Internal_Hbond.Weighted>
0.0000

> <Gold.Chemscore.DEClash.Weighted>
0.1159

> <Gold.Chemscore.DEInternal.Weighted>
0.2051

> <Gold.Chemscore.Rot.Weighted>
3.9479

> <Gold.Chemscore.Internal.Correction.Weighted>
   9.000000E+99

> <Gold.Protein.RotatedTorsions>
[ 6907 6896 6895 6894 ] final   44.50 input  -60.11 | X-H torsion
[ 7974 7965 7964 7962 ] final  179.80 input  175.53 | X-H torsion
[ 8008 7997 7996 7995 ] final -114.46 input   59.86 | X-H torsion
[ 10167 10162 10161 10158 ] final  145.59 input  -65.29 | X-H torsion
[ 10718 10713 10712 10709 ] final  -70.13 input   66.30 | X-H torsion
[ 10763 10752 10751 10750 ] final  -35.66 input  -60.55 | X-H torsion
[ 11005 11000 10999 10996 ] final -112.48 input  -57.11 | X-H torsion

> <Gold.Protein.ActiveResidues>
 VAL166  LYS551  ARG553  GLY616  TRP617  ASP618  TYR619  PRO620  LYS621  CYS622 
 ASP623  PHE694  ASN695  SER759  ASP760  ASP761  ALA762  ILE779  LEU786  VAL792 
 PHE793  MET794  SER795  GLU796  ALA797  LYS798  CYS799  TRP800  GLU811  SER814 

> <Gold.Protein.RotatedAtoms>
  152.2333  134.8301  160.0470 H   0  0  0  0  0  0  0  0  0  0  0  0  # atno 6907 bound_to 6896
  151.9042  133.3540  159.3849 H   0  0  0  0  0  0  0  0  0  0  0  0  # atno 6908 bound_to 6896
  150.7032  134.4723  159.5475 H   0  0  0  0  0  0  0  0  0  0  0  0  # atno 6909 bound_to 6896
  144.7142  140.0603  143.6433 H   0  0  0  0  0  0  0  0  0  0  0  0  # atno 7974 bound_to 7965
  155.0367  140.0392  157.2494 H   0  0  0  0  0  0  0  0  0  0  0  0  # atno 8008 bound_to 7997
  154.7251  140.2719  155.6483 H   0  0  0  0  0  0  0  0  0  0  0  0  # atno 8009 bound_to 7997
  156.2827  140.2695  156.1934 H   0  0  0  0  0  0  0  0  0  0  0  0  # atno 8010 bound_to 7997
  139.4923  144.5890  151.6719 H   0  0  0  0  0  0  0  0  0  0  0  0  # atno 10167 bound_to 10162
  156.0422  130.4326  150.2251 H   0  0  0  0  0  0  0  0  0  0  0  0  # atno 10718 bound_to 10713
  153.8669  135.6834  153.4778 H   0  0  0  0  0  0  0  0  0  0  0  0  # atno 10763 bound_to 10752
  153.1309  135.4698  154.9346 H   0  0  0  0  0  0  0  0  0  0  0  0  # atno 10764 bound_to 10752
  154.7732  135.3245  154.8096 H   0  0  0  0  0  0  0  0  0  0  0  0  # atno 10765 bound_to 10752
  141.0672  133.9439  157.2555 H   0  0  0  0  0  0  0  0  0  0  0  0  # atno 11005 bound_to 11000
  145.9869  139.2984  143.1008 LP  0  0  0  0  0  0  0  0  0  0  0  0  # atno 17320 bound_to 7965
  145.8947  140.9281  143.0534 LP  0  0  0  0  0  0  0  0  0  0  0  0  # atno 17321 bound_to 7965
  140.5513  144.0420  150.6128 LP  0  0  0  0  0  0  0  0  0  0  0  0  # atno 17342 bound_to 10162
  140.3475  143.2982  152.0522 LP  0  0  0  0  0  0  0  0  0  0  0  0  # atno 17343 bound_to 10162
  157.0344  131.0017  151.3302 LP  0  0  0  0  0  0  0  0  0  0  0  0  # atno 17370 bound_to 10713
  157.5254  130.8024  149.7856 LP  0  0  0  0  0  0  0  0  0  0  0  0  # atno 17371 bound_to 10713
  139.9488  135.0179  156.8933 LP  0  0  0  0  0  0  0  0  0  0  0  0  # atno 17394 bound_to 11000
  140.5748  134.0409  155.7443 LP  0  0  0  0  0  0  0  0  0  0  0  0  # atno 17395 bound_to 11000

$$$$
