AV-unprocessed.smi:651|AV-procd|sdf|3186|dock1
  -GOLD-   22720 0113D 1   1.00000     0.00000
 Structure written by MMmdl.
 38 39  0  0  0  0  0  0  0  0  1 V2000
  151.9043  145.6101  159.9195 C   0  0  0  0  0  0  0  0  0  0  0  0
  151.9091  144.2521  159.2492 C   0  0  0  0  0  0  0  0  0  0  0  0
  152.7226  143.2102  159.7420 C   0  0  0  0  0  0  0  0  0  0  0  0
  152.6813  141.9623  159.0914 C   0  0  0  0  0  0  0  0  0  0  0  0
  151.8318  141.8039  157.9770 C   0  0  0  0  0  0  0  0  0  0  0  0
  151.7415  140.4737  157.2470 C   0  0  0  0  0  0  0  0  0  0  0  0
  150.6998  140.4972  156.1215 C   0  0  0  0  0  0  0  0  0  0  0  0
  151.0351  140.4444  154.9370 O   0  0  0  0  0  0  0  0  0  0  0  0
  149.4192  140.5660  156.5150 N   0  0  0  0  0  0  0  0  0  0  0  0
  148.2654  140.5756  155.6139 C   0  0  2  0  0  0  0  0  0  0  0  0
  148.3897  141.6871  154.5549 C   0  0  0  0  0  0  0  0  0  0  0  0
  146.9941  142.3046  154.3932 C   0  0  0  0  0  0  0  0  0  0  0  0
  146.0429  141.4140  155.1980 C   0  0  0  0  0  0  0  0  0  0  0  0
  146.8958  140.7886  156.3118 C   0  0  2  0  0  0  0  0  0  0  0  0
  146.9311  141.6980  157.5595 C   0  0  0  0  0  0  0  0  0  0  0  0
  147.4874  142.9031  157.4129 N   0  0  0  0  0  0  0  0  0  0  0  0
  146.4599  141.3267  158.6333 O   0  0  0  0  0  0  0  0  0  0  0  0
  151.0603  142.9109  157.5630 C   0  0  0  0  0  0  0  0  0  0  0  0
  151.0928  144.1111  158.1813 N   0  0  0  0  0  0  0  0  0  0  0  0
  152.8508  145.7965  160.4277 H   0  0  0  0  0  0  0  0  0  0  0  0
  151.1034  145.6602  160.6575 H   0  0  0  0  0  0  0  0  0  0  0  0
  151.7503  146.4060  159.1900 H   0  0  0  0  0  0  0  0  0  0  0  0
  153.3607  143.3605  160.6005 H   0  0  0  0  0  0  0  0  0  0  0  0
  153.2872  141.1413  159.4458 H   0  0  0  0  0  0  0  0  0  0  0  0
  152.7176  140.2248  156.8283 H   0  0  0  0  0  0  0  0  0  0  0  0
  151.4884  139.6834  157.9550 H   0  0  0  0  0  0  0  0  0  0  0  0
  149.2257  140.6003  157.5055 H   0  0  0  0  0  0  0  0  0  0  0  0
  148.2292  139.6203  155.0861 H   0  0  0  0  0  0  0  0  0  0  0  0
  149.0981  142.4590  154.8595 H   0  0  0  0  0  0  0  0  0  0  0  0
  148.7507  141.2764  153.6111 H   0  0  0  0  0  0  0  0  0  0  0  0
  146.9899  143.3159  154.8015 H   0  0  0  0  0  0  0  0  0  0  0  0
  146.6939  142.3771  153.3475 H   0  0  0  0  0  0  0  0  0  0  0  0
  145.1817  141.9691  155.5727 H   0  0  0  0  0  0  0  0  0  0  0  0
  145.6560  140.6214  154.5562 H   0  0  0  0  0  0  0  0  0  0  0  0
  146.4767  139.8240  156.6035 H   0  0  0  0  0  0  0  0  0  0  0  0
  147.5384  143.5344  158.1992 H   0  0  0  0  0  0  0  0  0  0  0  0
  147.8586  143.1772  156.5150 H   0  0  0  0  0  0  0  0  0  0  0  0
  150.3939  142.8301  156.7168 H   0  0  0  0  0  0  0  0  0  0  0  0
  1  2  1  0  0  0  0
  1 20  1  0  0  0  0
  1 21  1  0  0  0  0
  1 22  1  0  0  0  0
  2 19  1  0  0  0  0
  2  3  2  0  0  0  0
  3  4  1  0  0  0  0
  3 23  1  0  0  0  0
  4  5  2  0  0  0  0
  4 24  1  0  0  0  0
  5  6  1  0  0  0  0
  5 18  1  0  0  0  0
  6  7  1  0  0  0  0
  6 25  1  0  0  0  0
  6 26  1  0  0  0  0
  7  8  2  0  0  0  0
  7  9  1  0  0  0  0
  9 10  1  0  0  0  0
  9 27  1  0  0  0  0
 10 14  1  0  0  0  0
 10 11  1  0  0  0  0
 10 28  1  0  0  0  0
 11 12  1  0  0  0  0
 11 29  1  0  0  0  0
 11 30  1  0  0  0  0
 12 13  1  0  0  0  0
 12 31  1  0  0  0  0
 12 32  1  0  0  0  0
 13 14  1  0  0  0  0
 13 33  1  0  0  0  0
 13 34  1  0  0  0  0
 14 15  1  0  0  0  0
 14 35  1  0  0  0  0
 15 16  1  0  0  0  0
 15 17  2  0  0  0  0
 16 36  1  0  0  0  0
 16 37  1  0  0  0  0
 18 19  2  0  0  0  0
 18 38  1  0  0  0  0
M  END
> <s_m_source_file>
AV-unprocessed.smi

> <i_m_source_file_index>
651

> <i_lp_mmshare_version>
43012

> <i_f3d_flags>
0

> <s_epik_input>
W0NIM11jMVtjSF1bY0hdYyhbY0hdbjEpW0NIMl1DKD1PKVtOSF1bQ0BASF0yW0NIMl1bQ0gyXVtDSDJdW0NASF0yQyg9TylbTkgyXQ==

> <s_epik_cmdline>
J2VwaWtfcHl0aG9uJywgJy1waCcsICc3LjAnLCAnLXRuJywgJzgnLCAnLW1hJywgJzIwMCcsICctbWV0YWxfYmluZGluZycsICctaW1hZScsICc8aW5maWxlLm1hZT4nLCAnLW9tYWUnLCAnPG91dGZpbGUubWFlPic=

> <r_epik_Ionization_Penalty>
0.0159502

> <r_epik_Ionization_Penalty_Charging>
0

> <r_epik_Ionization_Penalty_Neutral>
0.0159502

> <r_epik_State_Penalty>
0.012563

> <r_epik_Charging_Adjusted_Penalty>
0.012563

> <i_epik_Tot_Q>
0

> <i_epik_Tot_abs_Q>
0

> <r_epik_Metal_State_Penalty>
0.0122326

> <b_epik_Metal_Only>
0

> <s_lp_Force_Field>
OPLS_2005

> <r_lp_Energy>
13.1482

> <b_lp_Chiralities_Consistent>
1

> <s_lp_Variant>
AV-unprocessed.smi:651-3

> <Gold.Version>
5.8.1

> <Gold.Id.Protein>
6NUR|6NUR_protein|mol2

> <Gold.PLP.Fitness>
45.5960

> <Gold.PLP.PLP>
-37.7685

> <Gold.PLP.part.hbond>
-3.9383

> <Gold.PLP.part.metal>
0.0000

> <Gold.PLP.part.buried>
-3.2867

> <Gold.PLP.part.nonpolar>
-30.6278

> <Gold.PLP.part.repulsive>
0.2637

> <Gold.PLP.ligand.clash>
0.0000

> <Gold.PLP.ligand.torsion>
0.1816

> <Gold.PLP.Chemscore.Hbond>
2.0113

> <Gold.PLP.Chemscore.CHOScore>
0.7088

> <Gold.PLP.Chemscore.Metal>
0.0000

> <Gold.Chemscore.Hbonds>
donor molecule, donor type, donor heavy atom, donor atom, acceptor molecule, acceptor atom, score
      L1  H    16    37       P1  8028  0.63
      P1  H  6934  6946       L1    17  0.37
      P1  H  7989  7998       L1     8  1.00
      L1  C    18    38       P1  8028  0.70

> <Gold.PLP.Chemscore.Internal.Correction>
0.0303

> <Gold.Rescore>
     Score         DG    S(hbond)    S(metal)    S(lipo)     H(rot)  DE(clash)    DE(int)     intcor
     15.06     -16.72       1.54        0.00      95.22       1.97       0.24       1.41       ----

> <Gold.Chemscore.Fitness>
15.0623

> <Gold.Chemscore.DG>
-16.7159

> <Gold.Chemscore.ZeroCoef>
-5.4800

> <Gold.Chemscore.Hbond>
1.5388

> <Gold.Chemscore.Metal>
0.0000

> <Gold.Chemscore.Lipo>
95.2175

> <Gold.Chemscore.Internal_Hbond>
0.0000

> <Gold.Chemscore.DEClash>
0.2445

> <Gold.Chemscore.DEInternal>
1.4092

> <Gold.Chemscore.Rot>
1.9704

> <Gold.Chemscore.Internal.Correction>
   9.000000E+99

> <Gold.Chemscore.Hbonds>
donor molecule, donor type, donor heavy atom, donor atom, acceptor molecule, acceptor atom, score
      L1  H    16    37       P1  8028  0.09
      P1  H  6934  6946       L1    17  0.37
      P1  H  7989  7998       L1     8  0.96

> <Gold.Chemscore.Hbond.Weighted>
-5.1398

> <Gold.Chemscore.Metal.Weighted>
-0.0000

> <Gold.Chemscore.Lipo.Weighted>
-11.1405

> <Gold.Chemscore.Internal_Hbond.Weighted>
0.0000

> <Gold.Chemscore.DEClash.Weighted>
0.2445

> <Gold.Chemscore.DEInternal.Weighted>
1.4092

> <Gold.Chemscore.Rot.Weighted>
5.0443

> <Gold.Chemscore.Internal.Correction.Weighted>
   9.000000E+99

> <Gold.Protein.RotatedTorsions>
[ 6907 6896 6895 6894 ] final  -19.63 input  -60.11 | X-H torsion
[ 7974 7965 7964 7962 ] final   -8.05 input  175.53 | X-H torsion
[ 8008 7997 7996 7995 ] final  179.15 input   59.86 | X-H torsion
[ 10167 10162 10161 10158 ] final  -33.98 input  -65.29 | X-H torsion
[ 10718 10713 10712 10709 ] final  -52.75 input   66.30 | X-H torsion
[ 10763 10752 10751 10750 ] final -106.04 input  -60.55 | X-H torsion
[ 11005 11000 10999 10996 ] final  -44.78 input  -57.11 | X-H torsion

> <Gold.Protein.ActiveResidues>
 VAL166  LYS551  ARG553  GLY616  TRP617  ASP618  TYR619  PRO620  LYS621  CYS622 
 ASP623  PHE694  ASN695  SER759  ASP760  ASP761  ALA762  ILE779  LEU786  VAL792 
 PHE793  MET794  SER795  GLU796  ALA797  LYS798  CYS799  TRP800  GLU811  SER814 

> <Gold.Protein.RotatedAtoms>
  151.2602  135.0651  159.9094 H   0  0  0  0  0  0  0  0  0  0  0  0  # atno 6907 bound_to 6896
  152.5367  134.0239  159.8004 H   0  0  0  0  0  0  0  0  0  0  0  0  # atno 6908 bound_to 6896
  151.0461  133.5614  159.2677 H   0  0  0  0  0  0  0  0  0  0  0  0  # atno 6909 bound_to 6896
  146.2291  140.2411  142.8343 H   0  0  0  0  0  0  0  0  0  0  0  0  # atno 7974 bound_to 7965
  156.0466  140.1315  157.0097 H   0  0  0  0  0  0  0  0  0  0  0  0  # atno 8008 bound_to 7997
  154.4415  140.1019  156.6385 H   0  0  0  0  0  0  0  0  0  0  0  0  # atno 8009 bound_to 7997
  155.5587  140.3464  155.4488 H   0  0  0  0  0  0  0  0  0  0  0  0  # atno 8010 bound_to 7997
  140.7194  143.3581  151.2019 H   0  0  0  0  0  0  0  0  0  0  0  0  # atno 10167 bound_to 10162
  156.1594  130.4150  149.9817 H   0  0  0  0  0  0  0  0  0  0  0  0  # atno 10718 bound_to 10713
  154.7986  135.4726  154.0222 H   0  0  0  0  0  0  0  0  0  0  0  0  # atno 10763 bound_to 10752
  153.1745  135.6830  153.8569 H   0  0  0  0  0  0  0  0  0  0  0  0  # atno 10764 bound_to 10752
  153.8141  135.3213  155.3381 H   0  0  0  0  0  0  0  0  0  0  0  0  # atno 10765 bound_to 10752
  141.0473  133.6756  156.2921 H   0  0  0  0  0  0  0  0  0  0  0  0  # atno 11005 bound_to 11000
  144.9484  140.8152  143.5587 LP  0  0  0  0  0  0  0  0  0  0  0  0  # atno 17320 bound_to 7965
  145.2369  139.2090  143.5013 LP  0  0  0  0  0  0  0  0  0  0  0  0  # atno 17321 bound_to 7965
  139.7126  143.9351  152.2954 LP  0  0  0  0  0  0  0  0  0  0  0  0  # atno 17342 bound_to 10162
  139.9082  144.6872  150.8591 LP  0  0  0  0  0  0  0  0  0  0  0  0  # atno 17343 bound_to 10162
  156.7651  130.9165  151.3642 LP  0  0  0  0  0  0  0  0  0  0  0  0  # atno 17370 bound_to 10713
  157.6721  130.9060  150.0063 LP  0  0  0  0  0  0  0  0  0  0  0  0  # atno 17371 bound_to 10713
  140.6122  134.5446  157.5535 LP  0  0  0  0  0  0  0  0  0  0  0  0  # atno 17394 bound_to 11000
  139.9322  134.7942  156.0900 LP  0  0  0  0  0  0  0  0  0  0  0  0  # atno 17395 bound_to 11000

$$$$
