#       Name:                AV-unprocessed.smi:1236
#       Creating user name   scv26
#       Creation time:       Fri Mar 27 04:26:06 2020


#       File generated by GOLD software.
#

@<TRIPOS>MOLECULE
AV-unprocessed.smi:1236
    45    46     1
SMALL
NO_CHARGES


@<TRIPOS>ATOM
      1 ****        -0.5107   3.6836  -0.8328 C.3            1 S1                 0.0000
      2 ****        -0.0532   2.2195  -0.8731 C.3            1 S1                 0.0000
      3 ****         1.4733   2.1051  -0.6716 C.3            1 S1                 0.0000
      4 ****         2.0145   0.7451  -0.6832 N.3            1 S1                 0.0000
      5 ****         1.9219   0.1100  -1.9961 C.3            1 S1                 0.0000
      6 ****         2.5046  -1.3135  -1.9835 C.3            1 S1                 0.0000
      7 ****         3.8549  -1.2738  -1.5331 O.3            1 S1                 0.0000
      8 ****         3.9850  -0.6979  -0.2374 C.3            1 S1                 0.0000
      9 ****         3.4060   0.7272  -0.2465 C.3            1 S1                 0.0000
     10 ****        -0.7575   1.4700   0.1666 N.am           1 S1                 0.0000
     11 ****        -1.4160   0.3141  -0.0074 C.2            1 S1                 0.0000
     12 ****        -1.5329  -0.2481  -1.0967 O.2            1 S1                 0.0000
     13 ****        -1.9152  -0.1381   1.1565 N.am           1 S1                 0.0000
     14 ****        -2.6590  -1.3253   1.3910 C.ar           1 S1                 0.0000
     15 ****        -3.0267  -1.5446   2.7378 C.ar           1 S1                 0.0000
     16 ****        -3.7659  -2.6947   3.0760 C.ar           1 S1                 0.0000
     17 ****        -4.1200  -3.5968   2.0569 C.ar           1 S1                 0.0000
     18 ****        -3.7152  -3.3032   0.7418 C.ar           1 S1                 0.0000
     19 ****        -3.0063  -2.2020   0.4157 N.ar           1 S1                 0.0000
     20 ****        -0.0170   4.2691  -1.6087 H              1 S1                 0.0000
     21 ****        -0.2833   4.1463   0.1283 H              1 S1                 0.0000
     22 ****        -1.5861   3.7634  -0.9954 H              1 S1                 0.0000
     23 ****        -0.3164   1.8384  -1.8603 H              1 S1                 0.0000
     24 ****         1.9829   2.7038  -1.4282 H              1 S1                 0.0000
     25 ****         1.7161   2.5700   0.2849 H              1 S1                 0.0000
     26 ****         0.8844   0.0559  -2.3219 H              1 S1                 0.0000
     27 ****         2.4513   0.7109  -2.7368 H              1 S1                 0.0000
     28 ****         1.9158  -1.9645  -1.3356 H              1 S1                 0.0000
     29 ****         2.4743  -1.7452  -2.9839 H              1 S1                 0.0000
     30 ****         3.4704  -1.3186   0.4976 H              1 S1                 0.0000
     31 ****         5.0388  -0.6783   0.0404 H              1 S1                 0.0000
     32 ****         4.0085   1.3571  -0.9028 H              1 S1                 0.0000
     33 ****         3.4859   1.1533   0.7544 H              1 S1                 0.0000
     34 ****        -0.7158   1.8517   1.0999 H              1 S1                 0.0000
     35 ****        -1.7353   0.4289   1.9716 H              1 S1                 0.0000
     36 ****        -2.7464  -0.8409   3.5083 H              1 S1                 0.0000
     37 ****        -4.0557  -2.8806   4.0994 H              1 S1                 0.0000
     38 ****        -4.6869  -4.4893   2.2766 H              1 S1                 0.0000
     39 ****        -3.9672  -3.9693  -0.0701 H              1 S1                 0.0000
     40 ****         1.4505   0.2231  -0.0433 LP             1 S1                 0.0000
     41 ****         4.3920  -0.7319  -2.1795 LP             1 S1                 0.0000
     42 ****         4.2105  -2.2080  -1.5052 LP             1 S1                 0.0000
     43 ****        -1.1243   0.1568  -1.9147 LP             1 S1                 0.0000
     44 ****        -2.0364  -1.1095  -1.1633 LP             1 S1                 0.0000
     45 ****        -2.7402  -2.0343  -0.5335 LP             1 S1                 0.0000
@<TRIPOS>BOND
    1    1    2 1     
    2    1   20 1     
    3    1   21 1     
    4    1   22 1     
    5    2    3 1     
    6    2   10 1     
    7    2   23 1     
    8    3    4 1     
    9    3   24 1     
   10    3   25 1     
   11    4    9 1     
   12    4    5 1     
   13    5    6 1     
   14    5   26 1     
   15    5   27 1     
   16    6    7 1     
   17    6   28 1     
   18    6   29 1     
   19    7    8 1     
   20    8    9 1     
   21    8   30 1     
   22    8   31 1     
   23    9   32 1     
   24    9   33 1     
   25   10   11 am    
   26   10   34 1     
   27   11   12 2     
   28   11   13 am    
   29   13   14 1     
   30   13   35 1     
   31   14   19 ar    
   32   14   15 ar    
   33   15   16 ar    
   34   15   36 1     
   35   16   17 ar    
   36   16   37 1     
   37   17   18 ar    
   38   17   38 1     
   39   18   19 ar    
   40   18   39 1     
   41    4   40 1     
   42    7   41 1     
   43    7   42 1     
   44   12   43 1     
   45   12   44 1     
   46   19   45 1     
@<TRIPOS>SUBSTRUCTURE
      1 S1             1
@<TRIPOS>SET
LONE_PAIRS      STATIC     ATOMS    <user>   **** ""
6 40 41 42 43 44 45
DONOR_HYDROGENS      STATIC     ATOMS    <user>   **** ""
2 34 35
ATOM$BLUE        STATIC     ATOMS    COLORGROUP SYSTEM
6 40 41 42 43 44 45
ATOM$RED        STATIC     ATOMS    COLORGROUP SYSTEM
2 34 35
