AV-unprocessed.smi:2007|AV-procd|sdf|8138|dock10
  -GOLD-   2272010373D 1   1.00000     0.00000
 Structure written by MMmdl.
 35 36  0  0  0  0  0  0  0  0  2 V2000
  147.9813  135.5154  154.9941 C   0  0  0  0  0  0  0  0  0  0  0  0
  149.0798  135.6385  156.0584 C   0  0  1  0  0  0  0  0  0  0  0  0
  150.2946  136.4230  155.5185 C   0  0  0  0  0  0  0  0  0  0  0  0
  150.1837  137.8820  155.5662 N   0  0  0  0  0  0  0  0  0  0  0  0
  151.4830  138.5498  155.5887 C   0  0  0  0  0  0  0  0  0  0  0  0
  151.3374  140.0810  155.6263 C   0  0  0  0  0  0  0  0  0  0  0  0
  150.5624  140.5158  154.5134 O   0  0  0  0  0  0  0  0  0  0  0  0
  149.2696  139.9196  154.4808 C   0  0  0  0  0  0  0  0  0  0  0  0
  149.4088  138.3882  154.4392 C   0  0  0  0  0  0  0  0  0  0  0  0
  148.5283  136.3087  157.2362 N   0  0  0  0  0  0  0  0  0  0  0  0
  148.5375  135.8543  158.4984 C   0  0  0  0  0  0  0  0  0  0  0  0
  149.0325  134.7556  158.7594 O   0  0  0  0  0  0  0  0  0  0  0  0
  147.9733  136.7068  159.3844 N   0  5  0  0  0  0  0  0  0  0  0  0
  147.7438  136.3093  160.6463 C   0  0  0  0  0  0  0  0  0  0  0  0
  147.5639  137.1654  161.6587 N   0  0  0  0  0  0  0  0  0  0  0  0
  147.3466  136.5363  162.8859 C   0  0  0  0  0  0  0  0  0  0  0  0
  147.3699  135.1690  162.8078 C   0  0  0  0  0  0  0  0  0  0  0  0
  147.6690  134.6274  161.1808 S   0  0  0  0  0  0  0  0  0  0  0  0
  148.3524  135.0042  154.1054 H   0  0  0  0  0  0  0  0  0  0  0  0
  147.6134  136.4949  154.6863 H   0  0  0  0  0  0  0  0  0  0  0  0
  147.1323  134.9443  155.3717 H   0  0  0  0  0  0  0  0  0  0  0  0
  149.3888  134.6220  156.3035 H   0  0  0  0  0  0  0  0  0  0  0  0
  151.1915  136.1117  156.0561 H   0  0  0  0  0  0  0  0  0  0  0  0
  150.4504  136.1178  154.4827 H   0  0  0  0  0  0  0  0  0  0  0  0
  152.0569  138.2361  156.4594 H   0  0  0  0  0  0  0  0  0  0  0  0
  152.0631  138.2620  154.7110 H   0  0  0  0  0  0  0  0  0  0  0  0
  150.8632  140.3996  156.5560 H   0  0  0  0  0  0  0  0  0  0  0  0
  152.3172  140.5567  155.5870 H   0  0  0  0  0  0  0  0  0  0  0  0
  148.6951  140.2314  155.3545 H   0  0  0  0  0  0  0  0  0  0  0  0
  148.7345  140.2756  153.6005 H   0  0  0  0  0  0  0  0  0  0  0  0
  149.8834  138.0945  153.5018 H   0  0  0  0  0  0  0  0  0  0  0  0
  148.4156  137.9375  154.4413 H   0  0  0  0  0  0  0  0  0  0  0  0
  148.1131  137.2158  157.0836 H   0  0  0  0  0  0  0  0  0  0  0  0
  147.1848  137.1414  163.7657 H   0  0  0  0  0  0  0  0  0  0  0  0
  147.2321  134.4513  163.6020 H   0  0  0  0  0  0  0  0  0  0  0  0
  1  2  1  0  0  0  0
  1 19  1  0  0  0  0
  1 20  1  0  0  0  0
  1 21  1  0  0  0  0
  2  3  1  0  0  0  0
  2 10  1  0  0  0  0
  2 22  1  0  0  0  0
  3  4  1  0  0  0  0
  3 23  1  0  0  0  0
  3 24  1  0  0  0  0
  4  9  1  0  0  0  0
  4  5  1  0  0  0  0
  5  6  1  0  0  0  0
  5 25  1  0  0  0  0
  5 26  1  0  0  0  0
  6  7  1  0  0  0  0
  6 27  1  0  0  0  0
  6 28  1  0  0  0  0
  7  8  1  0  0  0  0
  8  9  1  0  0  0  0
  8 29  1  0  0  0  0
  8 30  1  0  0  0  0
  9 31  1  0  0  0  0
  9 32  1  0  0  0  0
 10 11  1  0  0  0  0
 10 33  1  0  0  0  0
 11 12  2  0  0  0  0
 11 13  1  0  0  0  0
 13 14  1  0  0  0  0
 14 18  1  0  0  0  0
 14 15  2  0  0  0  0
 15 16  1  0  0  0  0
 16 17  2  0  0  0  0
 16 34  1  0  0  0  0
 17 18  1  0  0  0  0
 17 35  1  0  0  0  0
M  CHG  1  13  -1
M  END
> <s_m_source_file>
AV-unprocessed.smi

> <i_m_source_file_index>
2007

> <i_lp_mmshare_version>
43012

> <i_f3d_flags>
0

> <s_epik_input>
W0NIMl0xW0NIMl1PW0NIMl1bQ0gyXU4xW0NIMl1bQ0BASF0oW0NIM10pW05IXUMoPU8pW05IXWMybltjSF1bY0hdczI=

> <s_epik_cmdline>
J2VwaWtfcHl0aG9uJywgJy1waCcsICc3LjAnLCAnLXRuJywgJzgnLCAnLW1hJywgJzIwMCcsICctbWV0YWxfYmluZGluZycsICctaW1hZScsICc8aW5maWxlLm1hZT4nLCAnLW9tYWUnLCAnPG91dGZpbGUubWFlPic=

> <r_lp_tautomer_probability>
0.999

> <r_epik_Ionization_Penalty>
7.09127

> <r_epik_Ionization_Penalty_Charging>
5.74083

> <r_epik_Ionization_Penalty_Neutral>
1.35044

> <r_epik_State_Penalty>
5.95014

> <r_epik_Charging_Adjusted_Penalty>
11.691

> <i_epik_Tot_Q>
-1

> <i_epik_Tot_abs_Q>
1

> <r_epik_Metal_State_Penalty>
1.93831

> <b_epik_Metal_Only>
1

> <s_lp_Force_Field>
OPLS_2005

> <r_lp_Energy>
21.094

> <b_lp_Chiralities_Consistent>
1

> <s_lp_Variant>
AV-unprocessed.smi:2007-6

> <Gold.Version>
5.8.1

> <Gold.Id.Protein>
6NUR|6NUR_protein|mol2

> <Gold.PLP.Fitness>
40.7547

> <Gold.PLP.PLP>
-30.6414

> <Gold.PLP.part.hbond>
-3.7600

> <Gold.PLP.part.metal>
0.0000

> <Gold.PLP.part.buried>
-3.1290

> <Gold.PLP.part.nonpolar>
-23.4872

> <Gold.PLP.part.repulsive>
0.1957

> <Gold.PLP.ligand.clash>
0.0000

> <Gold.PLP.ligand.torsion>
0.6006

> <Gold.PLP.Chemscore.Hbond>
3.7600

> <Gold.PLP.Chemscore.CHOScore>
0.0000

> <Gold.PLP.Chemscore.Metal>
0.0000

> <Gold.Chemscore.Hbonds>
donor molecule, donor type, donor heavy atom, donor atom, acceptor molecule, acceptor atom, score
      P1  H  6896  6908       L1    12  1.00
      P1  H  6931  6943       L1    15  0.99
      P1  H  6934  6947       L1    15  0.78
      P1  H  7989  7998       L1     7  0.96

> <Gold.PLP.Chemscore.Internal.Correction>
0.0346

> <Gold.Rescore>
     Score         DG    S(hbond)    S(metal)    S(lipo)     H(rot)  DE(clash)    DE(int)     intcor
     16.51     -18.69       2.97        0.00      61.97       1.55       0.01       2.17       ----

> <Gold.Chemscore.Fitness>
16.5140

> <Gold.Chemscore.DG>
-18.6940

> <Gold.Chemscore.ZeroCoef>
-5.4800

> <Gold.Chemscore.Hbond>
2.9742

> <Gold.Chemscore.Metal>
0.0000

> <Gold.Chemscore.Lipo>
61.9714

> <Gold.Chemscore.Internal_Hbond>
0.0000

> <Gold.Chemscore.DEClash>
0.0060

> <Gold.Chemscore.DEInternal>
2.1741

> <Gold.Chemscore.Rot>
1.5510

> <Gold.Chemscore.Internal.Correction>
   9.000000E+99

> <Gold.Chemscore.Hbonds>
donor molecule, donor type, donor heavy atom, donor atom, acceptor molecule, acceptor atom, score
      P1  H  6896  6908       L1    12  1.00
      P1  H  6931  6943       L1    15  0.38
      P1  H  6934  6947       L1    15  0.57
      P1  H  7989  7998       L1     7  0.34

> <Gold.Chemscore.Hbond.Weighted>
-9.9340

> <Gold.Chemscore.Metal.Weighted>
-0.0000

> <Gold.Chemscore.Lipo.Weighted>
-7.2506

> <Gold.Chemscore.Internal_Hbond.Weighted>
0.0000

> <Gold.Chemscore.DEClash.Weighted>
0.0060

> <Gold.Chemscore.DEInternal.Weighted>
2.1741

> <Gold.Chemscore.Rot.Weighted>
3.9706

> <Gold.Chemscore.Internal.Correction.Weighted>
   9.000000E+99

> <Gold.Protein.RotatedTorsions>
[ 6907 6896 6895 6894 ] final  145.58 input  -60.11 | X-H torsion
[ 7974 7965 7964 7962 ] final   70.04 input  175.53 | X-H torsion
[ 8008 7997 7996 7995 ] final   45.53 input   59.86 | X-H torsion
[ 10167 10162 10161 10158 ] final  133.24 input  -65.29 | X-H torsion
[ 10718 10713 10712 10709 ] final  -43.89 input   66.30 | X-H torsion
[ 10763 10752 10751 10750 ] final   65.74 input  -60.55 | X-H torsion
[ 11005 11000 10999 10996 ] final -144.71 input  -57.11 | X-H torsion

> <Gold.Protein.ActiveResidues>
 VAL166  LYS551  ARG553  GLY616  TRP617  ASP618  TYR619  PRO620  LYS621  CYS622 
 ASP623  PHE694  ASN695  SER759  ASP760  ASP761  ALA762  ILE779  LEU786  VAL792 
 PHE793  MET794  SER795  GLU796  ALA797  LYS798  CYS799  TRP800  GLU811  SER814 

> <Gold.Protein.RotatedAtoms>
  152.1790  133.4694  159.4947 H   0  0  0  0  0  0  0  0  0  0  0  0  # atno 6907 bound_to 6896
  150.6931  134.1857  159.4275 H   0  0  0  0  0  0  0  0  0  0  0  0  # atno 6908 bound_to 6896
  151.9768  135.0049  160.0606 H   0  0  0  0  0  0  0  0  0  0  0  0  # atno 6909 bound_to 6896
  145.7830  139.2897  143.1254 H   0  0  0  0  0  0  0  0  0  0  0  0  # atno 7974 bound_to 7965
  155.3375  140.3406  155.4239 H   0  0  0  0  0  0  0  0  0  0  0  0  # atno 8008 bound_to 7997
  156.1830  140.1670  156.8274 H   0  0  0  0  0  0  0  0  0  0  0  0  # atno 8009 bound_to 7997
  154.5355  140.0736  156.8402 H   0  0  0  0  0  0  0  0  0  0  0  0  # atno 8010 bound_to 7997
  139.5305  144.6625  151.4968 H   0  0  0  0  0  0  0  0  0  0  0  0  # atno 10167 bound_to 10162
  156.2443  130.4182  149.8724 H   0  0  0  0  0  0  0  0  0  0  0  0  # atno 10718 bound_to 10713
  153.0109  135.5345  154.6715 H   0  0  0  0  0  0  0  0  0  0  0  0  # atno 10763 bound_to 10752
  154.5898  135.2858  155.0649 H   0  0  0  0  0  0  0  0  0  0  0  0  # atno 10764 bound_to 10752
  154.1746  135.6526  153.5070 H   0  0  0  0  0  0  0  0  0  0  0  0  # atno 10765 bound_to 10752
  140.7997  134.2871  157.4983 H   0  0  0  0  0  0  0  0  0  0  0  0  # atno 11005 bound_to 11000
  146.0055  140.8483  142.9997 LP  0  0  0  0  0  0  0  0  0  0  0  0  # atno 17320 bound_to 7965
  144.6793  140.2413  143.7343 LP  0  0  0  0  0  0  0  0  0  0  0  0  # atno 17321 bound_to 7965
  140.6480  143.8755  150.6756 LP  0  0  0  0  0  0  0  0  0  0  0  0  # atno 17342 bound_to 10162
  140.2111  143.3883  152.1717 LP  0  0  0  0  0  0  0  0  0  0  0  0  # atno 17343 bound_to 10162
  156.6295  130.8660  151.3492 LP  0  0  0  0  0  0  0  0  0  0  0  0  # atno 17370 bound_to 10713
  157.7188  130.9532  150.1358 LP  0  0  0  0  0  0  0  0  0  0  0  0  # atno 17371 bound_to 10713
  139.8723  134.9422  156.3819 LP  0  0  0  0  0  0  0  0  0  0  0  0  # atno 17394 bound_to 11000
  140.9307  133.7581  156.0021 LP  0  0  0  0  0  0  0  0  0  0  0  0  # atno 17395 bound_to 11000

$$$$
