#       Name:                AV-unprocessed.smi:1755
#       Creating user name   scv26
#       Creation time:       Fri Mar 27 08:29:00 2020


#       File generated by GOLD software.
#

@<TRIPOS>MOLECULE
AV-unprocessed.smi:1755
    49    50     1
SMALL
NO_CHARGES


@<TRIPOS>ATOM
      1 ****        -5.2107   3.8453  -0.6756 C.3            1 S1                 0.0000
      2 ****        -4.4752   2.5480  -0.8392 C.2            1 S1                 0.0000
      3 ****        -3.0670   2.3293  -0.8191 C.2            1 S1                 0.0000
      4 ****        -2.9695   0.9782  -1.0119 C.2            1 S1                 0.0000
      5 ****        -1.8553   0.2014  -1.0754 N.am           1 S1                 0.0000
      6 ****        -0.5666   0.5750  -0.9904 C.2            1 S1                 0.0000
      7 ****        -0.1643   1.7336  -0.8872 O.2            1 S1                 0.0000
      8 ****         0.2493  -0.4884  -1.0313 N.am           1 S1                 0.0000
      9 ****         1.7101  -0.4400  -0.9663 C.3            1 S1                 0.0000
     10 ****         2.2799  -0.7369   0.4574 C.3            1 S1                 0.0000
     11 ****         1.6238  -1.9772   1.0081 N.4            1 S1                 1.0000
     12 ****         1.6385  -2.1402   2.4837 C.3            1 S1                 0.0000
     13 ****         2.0399  -3.2361   0.3386 C.3            1 S1                 0.0000
     14 ****         3.8186  -0.8457   0.3933 C.3            1 S1                 0.0000
     15 ****         4.3498   0.5955   0.3568 C.3            1 S1                 0.0000
     16 ****         3.2288   1.4821   0.9166 C.3            1 S1                 0.0000
     17 ****         2.1259   0.5155   1.3600 C.3            1 S1                 0.0000
     18 ****        -4.2369   0.4533  -1.1327 N.pl3          1 S1                 0.0000
     19 ****        -4.6488  -0.9204  -1.3458 C.3            1 S1                 0.0000
     20 ****        -5.1650   1.4284  -1.0267 N.2            1 S1                 0.0000
     21 ****        -4.5190   4.6734  -0.5194 H              1 S1                 0.0000
     22 ****        -5.8834   3.8095   0.1816 H              1 S1                 0.0000
     23 ****        -5.8065   4.0735  -1.5597 H              1 S1                 0.0000
     24 ****        -2.2805   3.0560  -0.6826 H              1 S1                 0.0000
     25 ****        -2.0285  -0.7865  -1.1862 H              1 S1                 0.0000
     26 ****        -0.1707  -1.4002  -1.1373 H              1 S1                 0.0000
     27 ****         2.0784  -1.1758  -1.6803 H              1 S1                 0.0000
     28 ****         2.0736   0.5123  -1.3542 H              1 S1                 0.0000
     29 ****         2.6529  -2.1093   2.8822 H              1 S1                 0.0000
     30 ****         1.1982  -3.0953   2.7716 H              1 S1                 0.0000
     31 ****         1.0396  -1.3729   2.9736 H              1 S1                 0.0000
     32 ****         3.0721  -3.4922   0.5792 H              1 S1                 0.0000
     33 ****         1.9453  -3.1780  -0.7445 H              1 S1                 0.0000
     34 ****         1.4098  -4.0644   0.6639 H              1 S1                 0.0000
     35 ****         4.2007  -1.3306   1.2922 H              1 S1                 0.0000
     36 ****         4.1711  -1.4304  -0.4572 H              1 S1                 0.0000
     37 ****         5.2679   0.6898   0.9378 H              1 S1                 0.0000
     38 ****         4.5818   0.8920  -0.6668 H              1 S1                 0.0000
     39 ****         3.5733   2.1058   1.7421 H              1 S1                 0.0000
     40 ****         2.8568   2.1519   0.1402 H              1 S1                 0.0000
     41 ****         1.1341   0.9644   1.3282 H              1 S1                 0.0000
     42 ****         2.3357   0.2951   2.4053 H              1 S1                 0.0000
     43 ****        -4.2213  -1.5562  -0.5698 H              1 S1                 0.0000
     44 ****        -4.2964  -1.2601  -2.3202 H              1 S1                 0.0000
     45 ****        -5.7361  -1.0053  -1.3126 H              1 S1                 0.0000
     46 ****         0.6460  -1.8667   0.7810 H              1 S1                 0.0000
     47 ****        -0.8184   2.4895  -0.8608 LP             1 S1                 0.0000
     48 ****         0.8167   1.9190  -0.8298 LP             1 S1                 0.0000
     49 ****        -6.1587   1.3289  -1.0783 LP             1 S1                 0.0000
@<TRIPOS>BOND
    1    1    2 1     
    2    1   21 1     
    3    1   22 1     
    4    1   23 1     
    5    2   20 2     
    6    2    3 1     
    7    3    4 2     
    8    3   24 1     
    9    4    5 1     
   10    4   18 1     
   11    5    6 am    
   12    5   25 1     
   13    6    7 2     
   14    6    8 am    
   15    8    9 1     
   16    8   26 1     
   17    9   10 1     
   18    9   27 1     
   19    9   28 1     
   20   10   17 1     
   21   10   11 1     
   22   10   14 1     
   23   11   12 1     
   24   11   13 1     
   25   11   46 1     
   26   12   29 1     
   27   12   30 1     
   28   12   31 1     
   29   13   32 1     
   30   13   33 1     
   31   13   34 1     
   32   14   15 1     
   33   14   35 1     
   34   14   36 1     
   35   15   16 1     
   36   15   37 1     
   37   15   38 1     
   38   16   17 1     
   39   16   39 1     
   40   16   40 1     
   41   17   41 1     
   42   17   42 1     
   43   18   19 1     
   44   18   20 1     
   45   19   43 1     
   46   19   44 1     
   47   19   45 1     
   48    7   47 1     
   49    7   48 1     
   50   20   49 1     
@<TRIPOS>SUBSTRUCTURE
      1 S1             1
@<TRIPOS>SET
LONE_PAIRS      STATIC     ATOMS    <user>   **** ""
3 47 48 49
DONOR_HYDROGENS      STATIC     ATOMS    <user>   **** ""
3 25 26 46
ATOM$BLUE        STATIC     ATOMS    COLORGROUP SYSTEM
3 47 48 49
ATOM$RED        STATIC     ATOMS    COLORGROUP SYSTEM
3 25 26 46
