AV-unprocessed.smi:287|AV-procd|sdf|2205|dock4
  -GOLD-   2262022 33D 1   1.00000     0.00000
 Structure written by MMmdl.
 55 58  0  0  0  0  0  0  0  0  1 V2000
  136.4597  136.8007  157.3299 C   0  0  0  0  0  0  0  0  0  0  0  0
  137.2933  137.6783  156.4610 C   0  0  0  0  0  0  0  0  0  0  0  0
  138.3857  137.4632  155.6729 C   0  0  0  0  0  0  0  0  0  0  0  0
  138.7444  138.7150  155.0898 C   0  0  0  0  0  0  0  0  0  0  0  0
  139.9159  138.9534  154.1461 C   0  0  1  0  0  0  0  0  0  0  0  0
  139.7140  138.1542  152.8478 C   0  0  0  0  0  0  0  0  0  0  0  0
  140.0302  140.3029  153.7380 O   0  0  0  0  0  0  0  0  0  0  0  0
  141.2699  138.5852  154.7952 C   0  0  0  0  0  0  0  0  0  0  0  0
  141.3491  137.1779  155.1735 N   0  0  0  0  0  0  0  0  0  0  0  0
  141.7194  136.2499  154.2669 C   0  0  0  0  0  0  0  0  0  0  0  0
  141.0107  135.1018  154.1100 N   0  0  0  0  0  0  0  0  0  0  0  0
  141.4026  134.1958  153.2094 C   0  0  0  0  0  0  0  0  0  0  0  0
  142.4503  134.2398  152.3835 N   0  0  0  0  0  0  0  0  0  0  0  0
  143.1651  135.3923  152.5351 C   0  0  0  0  0  0  0  0  0  0  0  0
  142.8639  136.4394  153.4506 C   0  0  0  0  0  0  0  0  0  0  0  0
  143.8060  137.4527  153.3357 N   0  0  0  0  0  0  0  0  0  0  0  0
  144.6164  137.0248  152.4058 C   0  0  0  0  0  0  0  0  0  0  0  0
  144.3093  135.7929  151.8712 N   0  0  0  0  0  0  0  0  0  0  0  0
  145.0653  135.0590  150.8035 C   0  0  2  0  0  0  0  0  0  0  0  0
  144.1668  134.5214  149.8769 O   0  0  0  0  0  0  0  0  0  0  0  0
  144.2922  133.1000  149.8217 C   0  0  1  0  0  0  0  0  0  0  0  0
  143.9824  132.6051  148.4006 C   0  0  0  0  0  0  0  0  0  0  0  0
  143.7117  133.7004  147.5526 O   0  0  0  0  0  0  0  0  0  0  0  0
  145.7440  132.8719  150.2458 C   0  0  2  0  0  0  0  0  0  0  0  0
  146.0057  131.5499  150.6763 O   0  0  0  0  0  0  0  0  0  0  0  0
  145.9235  133.9024  151.3507 C   0  0  2  0  0  0  0  0  0  0  0  0
  145.4946  133.4242  152.6173 O   0  0  0  0  0  0  0  0  0  0  0  0
  137.8156  139.6057  155.5729 C   0  0  0  0  0  0  0  0  0  0  0  0
  137.5821  141.0684  155.3836 C   0  0  0  0  0  0  0  0  0  0  0  0
  136.9338  138.9852  156.4059 O   0  0  0  0  0  0  0  0  0  0  0  0
  145.6599  135.8280  150.3087 H   0  0  0  0  0  0  0  0  0  0  0  0
  143.6242  132.6410  150.5525 H   0  0  0  0  0  0  0  0  0  0  0  0
  146.4097  133.1134  149.4155 H   0  0  0  0  0  0  0  0  0  0  0  0
  146.9610  134.2268  151.4394 H   0  0  0  0  0  0  0  0  0  0  0  0
  136.8326  135.7763  157.3205 H   0  0  0  0  0  0  0  0  0  0  0  0
  135.4251  136.7871  156.9869 H   0  0  0  0  0  0  0  0  0  0  0  0
  136.4708  137.1546  158.3608 H   0  0  0  0  0  0  0  0  0  0  0  0
  138.8809  136.5133  155.5351 H   0  0  0  0  0  0  0  0  0  0  0  0
  139.6503  137.0838  153.0471 H   0  0  0  0  0  0  0  0  0  0  0  0
  140.5391  138.3075  152.1509 H   0  0  0  0  0  0  0  0  0  0  0  0
  138.7939  138.4476  152.3407 H   0  0  0  0  0  0  0  0  0  0  0  0
  140.2343  140.3204  152.8155 H   0  0  0  0  0  0  0  0  0  0  0  0
  142.0621  138.7668  154.0670 H   0  0  0  0  0  0  0  0  0  0  0  0
  141.4825  139.2250  155.6531 H   0  0  0  0  0  0  0  0  0  0  0  0
  141.0084  136.9495  156.0967 H   0  0  0  0  0  0  0  0  0  0  0  0
  140.7915  133.3081  153.1411 H   0  0  0  0  0  0  0  0  0  0  0  0
  145.4724  137.6004  152.0845 H   0  0  0  0  0  0  0  0  0  0  0  0
  144.8019  132.0072  148.0008 H   0  0  0  0  0  0  0  0  0  0  0  0
  143.0941  131.9727  148.4089 H   0  0  0  0  0  0  0  0  0  0  0  0
  142.8860  133.5488  147.1190 H   0  0  0  0  0  0  0  0  0  0  0  0
  146.8340  131.2790  150.3092 H   0  0  0  0  0  0  0  0  0  0  0  0
  146.0979  132.7560  152.9048 H   0  0  0  0  0  0  0  0  0  0  0  0
  137.4552  141.3059  154.3274 H   0  0  0  0  0  0  0  0  0  0  0  0
  138.4249  141.6463  155.7634 H   0  0  0  0  0  0  0  0  0  0  0  0
  136.6859  141.3970  155.9107 H   0  0  0  0  0  0  0  0  0  0  0  0
  1  2  1  0  0  0  0
  1 35  1  0  0  0  0
  1 36  1  0  0  0  0
  1 37  1  0  0  0  0
  2 30  1  0  0  0  0
  2  3  2  0  0  0  0
  3  4  1  0  0  0  0
  3 38  1  0  0  0  0
  4  5  1  0  0  0  0
  4 28  2  0  0  0  0
  5  6  1  0  0  0  0
  5  7  1  0  0  0  0
  5  8  1  0  0  0  0
  6 39  1  0  0  0  0
  6 40  1  0  0  0  0
  6 41  1  0  0  0  0
  7 42  1  0  0  0  0
  8  9  1  0  0  0  0
  8 43  1  0  0  0  0
  8 44  1  0  0  0  0
  9 10  1  0  0  0  0
  9 45  1  0  0  0  0
 10 15  1  0  0  0  0
 10 11  2  0  0  0  0
 11 12  1  0  0  0  0
 12 13  2  0  0  0  0
 12 46  1  0  0  0  0
 13 14  1  0  0  0  0
 14 18  1  0  0  0  0
 14 15  2  0  0  0  0
 15 16  1  0  0  0  0
 16 17  2  0  0  0  0
 17 18  1  0  0  0  0
 17 47  1  0  0  0  0
 18 19  1  0  0  0  0
 19 31  1  0  0  0  0
 19 26  1  0  0  0  0
 19 20  1  0  0  0  0
 20 21  1  0  0  0  0
 21 32  1  0  0  0  0
 21 22  1  0  0  0  0
 21 24  1  0  0  0  0
 22 23  1  0  0  0  0
 22 48  1  0  0  0  0
 22 49  1  0  0  0  0
 23 50  1  0  0  0  0
 24 33  1  0  0  0  0
 24 25  1  0  0  0  0
 24 26  1  0  0  0  0
 25 51  1  0  0  0  0
 26 34  1  0  0  0  0
 26 27  1  0  0  0  0
 27 52  1  0  0  0  0
 28 29  1  0  0  0  0
 28 30  1  0  0  0  0
 29 53  1  0  0  0  0
 29 54  1  0  0  0  0
 29 55  1  0  0  0  0
M  END
> <s_m_source_file>
AV-unprocessed.smi

> <i_m_source_file_index>
287

> <i_lp_mmshare_version>
43012

> <i_f3d_flags>
0

> <s_epik_input>
W0NIM11jMVtjSF1jKGMobzEpW0NIM10pW0NAQF0oW0NIM10pKFtPSF0pW0NIMl1bTkhdYyhuW2NIXW4yKWMoYzIzKW5bY0hdbjNbQ0BASF00T1tDQEhdKFtDSDJdW09IXSlbQ0BASF0oW09IXSlbQ0BIXTRbT0hd

> <s_epik_cmdline>
J2VwaWtfcHl0aG9uJywgJy1waCcsICc3LjAnLCAnLXRuJywgJzgnLCAnLW1hJywgJzIwMCcsICctbWV0YWxfYmluZGluZycsICctaW1hZScsICc8aW5maWxlLm1hZT4nLCAnLW9tYWUnLCAnPG91dGZpbGUubWFlPic=

> <r_lp_tautomer_probability>
1

> <r_epik_Ionization_Penalty>
0.000992612

> <r_epik_Ionization_Penalty_Charging>
0

> <r_epik_Ionization_Penalty_Neutral>
0.000992612

> <r_epik_State_Penalty>
-0

> <r_epik_Charging_Adjusted_Penalty>
0

> <i_epik_Tot_Q>
0

> <i_epik_Tot_abs_Q>
0

> <r_epik_Metal_State_Penalty>
-0

> <b_epik_Metal_Only>
0

> <s_epik_Chemistry_Notes>
This compound contains an acetal/aminal-like group ( X-CH(R)-Y where X, Y are N, S, or O) that may be acid/base labile, releasing an aldehyde.

> <s_lp_Force_Field>
OPLS_2005

> <r_lp_Energy>
50.5208

> <b_lp_Chiralities_Consistent>
1

> <s_lp_Variant>
AV-unprocessed.smi:287-29

> <Gold.Version>
5.8.1

> <Gold.Id.Protein>
6NUR|6NUR_protein|mol2

> <Gold.PLP.Fitness>
56.6367

> <Gold.PLP.PLP>
-44.7787

> <Gold.PLP.part.hbond>
-6.2045

> <Gold.PLP.part.metal>
0.0000

> <Gold.PLP.part.buried>
-5.4381

> <Gold.PLP.part.nonpolar>
-34.9555

> <Gold.PLP.part.repulsive>
2.6554

> <Gold.PLP.ligand.clash>
0.0000

> <Gold.PLP.ligand.torsion>
1.7618

> <Gold.PLP.Chemscore.Hbond>
4.8089

> <Gold.PLP.Chemscore.CHOScore>
0.2456

> <Gold.PLP.Chemscore.Metal>
0.0000

> <Gold.Chemscore.Hbonds>
donor molecule, donor type, donor heavy atom, donor atom, acceptor molecule, acceptor atom, score
      L1  H     7    42       P1 10160  1.00
      L1  H    23    50       P1 10195  1.00
      L1  H    25    51       P1 10747  0.63
      P1  H  7918  7932       L1    23  0.67
      P1  H 11000 11005       L1    11  1.00
      L1  C    12    46       P1 10957  0.03

> <Gold.PLP.Chemscore.Internal.Correction>
0.2183

> <Gold.Rescore>
     Score         DG    S(hbond)    S(metal)    S(lipo)     H(rot)  DE(clash)    DE(int)     intcor
      8.02     -14.05       3.57        0.00      86.67       5.27       1.70       4.33       ----

> <Gold.Chemscore.Fitness>
8.0243

> <Gold.Chemscore.DG>
-14.0514

> <Gold.Chemscore.ZeroCoef>
-5.4800

> <Gold.Chemscore.Hbond>
3.5673

> <Gold.Chemscore.Metal>
0.0000

> <Gold.Chemscore.Lipo>
86.6705

> <Gold.Chemscore.Internal_Hbond>
0.0000

> <Gold.Chemscore.DEClash>
1.6984

> <Gold.Chemscore.DEInternal>
4.3287

> <Gold.Chemscore.Rot>
5.2672

> <Gold.Chemscore.Internal.Correction>
   9.000000E+99

> <Gold.Chemscore.Hbonds>
donor molecule, donor type, donor heavy atom, donor atom, acceptor molecule, acceptor atom, score
      L1  H     7    42       P1 10160  0.98
      L1  H    23    50       P1 10195  0.96
      L1  H    25    51       P1 10747  0.64
      P1  H  7918  7932       L1    23  0.06
      P1  H 11000 11005       L1    11  0.76

> <Gold.Chemscore.Hbond.Weighted>
-11.9148

> <Gold.Chemscore.Metal.Weighted>
-0.0000

> <Gold.Chemscore.Lipo.Weighted>
-10.1404

> <Gold.Chemscore.Internal_Hbond.Weighted>
0.0000

> <Gold.Chemscore.DEClash.Weighted>
1.6984

> <Gold.Chemscore.DEInternal.Weighted>
4.3287

> <Gold.Chemscore.Rot.Weighted>
13.4839

> <Gold.Chemscore.Internal.Correction.Weighted>
   9.000000E+99

> <Gold.Protein.RotatedTorsions>
[ 6907 6896 6895 6894 ] final  157.01 input  -60.11 | X-H torsion
[ 7974 7965 7964 7962 ] final  156.91 input  175.53 | X-H torsion
[ 8008 7997 7996 7995 ] final   69.95 input   59.86 | X-H torsion
[ 10167 10162 10161 10158 ] final  -14.40 input  -65.29 | X-H torsion
[ 10718 10713 10712 10709 ] final   13.36 input   66.30 | X-H torsion
[ 10763 10752 10751 10750 ] final   19.48 input  -60.55 | X-H torsion
[ 11005 11000 10999 10996 ] final   30.80 input  -57.11 | X-H torsion

> <Gold.Protein.ActiveResidues>
 VAL166  LYS551  ARG553  GLY616  TRP617  ASP618  TYR619  PRO620  LYS621  CYS622 
 ASP623  PHE694  ASN695  SER759  ASP760  ASP761  ALA762  ILE779  LEU786  VAL792 
 PHE793  MET794  SER795  GLU796  ALA797  LYS798  CYS799  TRP800  GLU811  SER814 

> <Gold.Protein.RotatedAtoms>
  152.0213  133.3900  159.4259 H   0  0  0  0  0  0  0  0  0  0  0  0  # atno 6907 bound_to 6896
  150.6890  134.3623  159.4965 H   0  0  0  0  0  0  0  0  0  0  0  0  # atno 6908 bound_to 6896
  152.1397  134.9072  160.0605 H   0  0  0  0  0  0  0  0  0  0  0  0  # atno 6909 bound_to 6896
  144.7934  139.7268  143.6212 H   0  0  0  0  0  0  0  0  0  0  0  0  # atno 7974 bound_to 7965
  155.7314  140.3492  155.5061 H   0  0  0  0  0  0  0  0  0  0  0  0  # atno 8008 bound_to 7997
  155.9179  140.1062  157.1251 H   0  0  0  0  0  0  0  0  0  0  0  0  # atno 8009 bound_to 7997
  154.4065  140.1255  156.4628 H   0  0  0  0  0  0  0  0  0  0  0  0  # atno 8010 bound_to 7997
  140.7200  143.5326  150.9502 H   0  0  0  0  0  0  0  0  0  0  0  0  # atno 10167 bound_to 10162
  157.0235  130.6164  149.5724 H   0  0  0  0  0  0  0  0  0  0  0  0  # atno 10718 bound_to 10713
  153.1159  135.6708  153.9420 H   0  0  0  0  0  0  0  0  0  0  0  0  # atno 10763 bound_to 10752
  153.8949  135.3042  155.3449 H   0  0  0  0  0  0  0  0  0  0  0  0  # atno 10764 bound_to 10752
  154.7575  135.5004  153.9480 H   0  0  0  0  0  0  0  0  0  0  0  0  # atno 10765 bound_to 10752
  140.2906  134.2869  155.7777 H   0  0  0  0  0  0  0  0  0  0  0  0  # atno 11005 bound_to 11000
  146.2195  139.5609  142.9628 LP  0  0  0  0  0  0  0  0  0  0  0  0  # atno 17320 bound_to 7965
  145.5734  141.0391  143.2161 LP  0  0  0  0  0  0  0  0  0  0  0  0  # atno 17321 bound_to 7965
  139.9047  143.6793  152.3125 LP  0  0  0  0  0  0  0  0  0  0  0  0  # atno 17342 bound_to 10162
  139.7155  144.7612  151.1041 LP  0  0  0  0  0  0  0  0  0  0  0  0  # atno 17343 bound_to 10162
  156.0094  130.5184  150.7938 LP  0  0  0  0  0  0  0  0  0  0  0  0  # atno 17370 bound_to 10713
  157.5232  131.0932  151.0052 LP  0  0  0  0  0  0  0  0  0  0  0  0  # atno 17371 bound_to 10713
  141.2147  133.7583  156.9619 LP  0  0  0  0  0  0  0  0  0  0  0  0  # atno 17394 bound_to 11000
  140.1199  134.9423  157.2188 LP  0  0  0  0  0  0  0  0  0  0  0  0  # atno 17395 bound_to 11000

$$$$
