AV-unprocessed.smi:2007|AV-procd|sdf|8133|dock8
  -GOLD-   2272010363D 1   1.00000     0.00000
 Structure written by MMmdl.
 36 37  0  0  0  0  0  0  0  0  1 V2000
  147.9210  141.4874  153.6945 C   0  0  0  0  0  0  0  0  0  0  0  0
  149.1828  141.0639  154.4583 C   0  0  2  0  0  0  0  0  0  0  0  0
  148.9622  139.7243  155.1954 C   0  0  0  0  0  0  0  0  0  0  0  0
  149.7854  138.6048  154.7361 N   0  0  0  0  0  0  0  0  0  0  0  0
  151.2017  138.9520  154.7392 C   0  0  0  0  0  0  0  0  0  0  0  0
  152.0764  137.7891  154.2391 C   0  0  0  0  0  0  0  0  0  0  0  0
  151.8389  136.6356  155.0392 O   0  0  0  0  0  0  0  0  0  0  0  0
  150.4718  136.2365  155.0352 C   0  0  0  0  0  0  0  0  0  0  0  0
  149.5935  137.3962  155.5354 C   0  0  0  0  0  0  0  0  0  0  0  0
  149.5357  142.1154  155.4110 N   0  0  0  0  0  0  0  0  0  0  0  0
  150.4531  142.0158  156.3849 C   0  0  0  0  0  0  0  0  0  0  0  0
  151.1472  141.0157  156.5691 O   0  0  0  0  0  0  0  0  0  0  0  0
  150.5045  143.1406  157.1197 N   0  0  0  0  0  0  0  0  0  0  0  0
  151.2951  143.4013  158.2695 C   0  0  0  0  0  0  0  0  0  0  0  0
  152.0688  142.4931  158.8758 N   0  0  0  0  0  0  0  0  0  0  0  0
  152.7258  143.0225  159.9891 C   0  0  0  0  0  0  0  0  0  0  0  0
  152.4398  144.3457  160.2173 C   0  0  0  0  0  0  0  0  0  0  0  0
  151.3261  144.9824  159.0364 S   0  0  0  0  0  0  0  0  0  0  0  0
  147.6417  140.7369  152.9546 H   0  0  0  0  0  0  0  0  0  0  0  0
  148.0793  142.4273  153.1646 H   0  0  0  0  0  0  0  0  0  0  0  0
  147.0735  141.6222  154.3675 H   0  0  0  0  0  0  0  0  0  0  0  0
  149.9731  140.9512  153.7156 H   0  0  0  0  0  0  0  0  0  0  0  0
  149.1576  139.8946  156.2553 H   0  0  0  0  0  0  0  0  0  0  0  0
  147.9091  139.4455  155.1321 H   0  0  0  0  0  0  0  0  0  0  0  0
  151.3705  139.8247  154.1072 H   0  0  0  0  0  0  0  0  0  0  0  0
  151.5128  139.2312  155.7469 H   0  0  0  0  0  0  0  0  0  0  0  0
  151.8603  137.5656  153.1932 H   0  0  0  0  0  0  0  0  0  0  0  0
  153.1320  138.0544  154.2992 H   0  0  0  0  0  0  0  0  0  0  0  0
  150.1753  135.9354  154.0290 H   0  0  0  0  0  0  0  0  0  0  0  0
  150.3525  135.3650  155.6788 H   0  0  0  0  0  0  0  0  0  0  0  0
  149.8282  137.6024  156.5807 H   0  0  0  0  0  0  0  0  0  0  0  0
  148.5521  137.0794  155.5070 H   0  0  0  0  0  0  0  0  0  0  0  0
  149.0176  142.9785  155.3387 H   0  0  0  0  0  0  0  0  0  0  0  0
  149.8886  143.8889  156.8386 H   0  0  0  0  0  0  0  0  0  0  0  0
  153.3806  142.3849  160.5645 H   0  0  0  0  0  0  0  0  0  0  0  0
  152.8144  144.9809  161.0061 H   0  0  0  0  0  0  0  0  0  0  0  0
  1  2  1  0  0  0  0
  1 19  1  0  0  0  0
  1 20  1  0  0  0  0
  1 21  1  0  0  0  0
  2  3  1  0  0  0  0
  2 10  1  0  0  0  0
  2 22  1  0  0  0  0
  3  4  1  0  0  0  0
  3 23  1  0  0  0  0
  3 24  1  0  0  0  0
  4  9  1  0  0  0  0
  4  5  1  0  0  0  0
  5  6  1  0  0  0  0
  5 25  1  0  0  0  0
  5 26  1  0  0  0  0
  6  7  1  0  0  0  0
  6 27  1  0  0  0  0
  6 28  1  0  0  0  0
  7  8  1  0  0  0  0
  8  9  1  0  0  0  0
  8 29  1  0  0  0  0
  8 30  1  0  0  0  0
  9 31  1  0  0  0  0
  9 32  1  0  0  0  0
 10 11  1  0  0  0  0
 10 33  1  0  0  0  0
 11 12  2  0  0  0  0
 11 13  1  0  0  0  0
 13 14  1  0  0  0  0
 13 34  1  0  0  0  0
 14 18  1  0  0  0  0
 14 15  2  0  0  0  0
 15 16  1  0  0  0  0
 16 17  2  0  0  0  0
 16 35  1  0  0  0  0
 17 18  1  0  0  0  0
 17 36  1  0  0  0  0
M  END
> <s_m_source_file>
AV-unprocessed.smi

> <i_m_source_file_index>
2007

> <i_lp_mmshare_version>
43012

> <i_f3d_flags>
0

> <s_epik_input>
W0NIMl0xW0NIMl1PW0NIMl1bQ0gyXU4xW0NIMl1bQ0BASF0oW0NIM10pW05IXUMoPU8pW05IXWMybltjSF1bY0hdczI=

> <s_epik_cmdline>
J2VwaWtfcHl0aG9uJywgJy1waCcsICc3LjAnLCAnLXRuJywgJzgnLCAnLW1hJywgJzIwMCcsICctbWV0YWxfYmluZGluZycsICctaW1hZScsICc8aW5maWxlLm1hZT4nLCAnLW9tYWUnLCAnPG91dGZpbGUubWFlPic=

> <r_lp_tautomer_probability>
0.999

> <r_epik_Ionization_Penalty>
0.219197

> <r_epik_Ionization_Penalty_Charging>
0

> <r_epik_Ionization_Penalty_Neutral>
0.219197

> <r_epik_State_Penalty>
0.209349

> <r_epik_Charging_Adjusted_Penalty>
0.209349

> <i_epik_Tot_Q>
0

> <i_epik_Tot_abs_Q>
0

> <r_epik_Metal_State_Penalty>
0.254604

> <b_epik_Metal_Only>
0

> <s_lp_Force_Field>
OPLS_2005

> <r_lp_Energy>
23.8142

> <b_lp_Chiralities_Consistent>
1

> <s_lp_Variant>
AV-unprocessed.smi:2007-1

> <Gold.Version>
5.8.1

> <Gold.Id.Protein>
6NUR|6NUR_protein|mol2

> <Gold.PLP.Fitness>
43.5088

> <Gold.PLP.PLP>
-36.2526

> <Gold.PLP.part.hbond>
-2.9353

> <Gold.PLP.part.metal>
0.0000

> <Gold.PLP.part.buried>
-5.4478

> <Gold.PLP.part.nonpolar>
-27.9350

> <Gold.PLP.part.repulsive>
0.4850

> <Gold.PLP.ligand.clash>
0.0000

> <Gold.PLP.ligand.torsion>
0.8871

> <Gold.PLP.Chemscore.Hbond>
3.0000

> <Gold.PLP.Chemscore.CHOScore>
0.0000

> <Gold.PLP.Chemscore.Metal>
0.0000

> <Gold.Chemscore.Hbonds>
donor molecule, donor type, donor heavy atom, donor atom, acceptor molecule, acceptor atom, score
      L1  H    10    33       P1  8028  1.00
      L1  H    13    34       P1  8028  1.00
      P1  H 10752 10765       L1     7  1.00

> <Gold.PLP.Chemscore.Internal.Correction>
0.0305

> <Gold.Rescore>
     Score         DG    S(hbond)    S(metal)    S(lipo)     H(rot)  DE(clash)    DE(int)     intcor
     15.68     -20.42       2.77        0.00      83.31       1.58       0.22       4.52       ----

> <Gold.Chemscore.Fitness>
15.6814

> <Gold.Chemscore.DG>
-20.4181

> <Gold.Chemscore.ZeroCoef>
-5.4800

> <Gold.Chemscore.Hbond>
2.7670

> <Gold.Chemscore.Metal>
0.0000

> <Gold.Chemscore.Lipo>
83.3121

> <Gold.Chemscore.Internal_Hbond>
0.0000

> <Gold.Chemscore.DEClash>
0.2203

> <Gold.Chemscore.DEInternal>
4.5164

> <Gold.Chemscore.Rot>
1.5825

> <Gold.Chemscore.Internal.Correction>
   9.000000E+99

> <Gold.Chemscore.Hbonds>
donor molecule, donor type, donor heavy atom, donor atom, acceptor molecule, acceptor atom, score
      L1  H    10    33       P1  8028  0.95
      L1  H    13    34       P1  8028  0.95
      P1  H 10752 10765       L1     7  0.67

> <Gold.Chemscore.Hbond.Weighted>
-9.2418

> <Gold.Chemscore.Metal.Weighted>
-0.0000

> <Gold.Chemscore.Lipo.Weighted>
-9.7475

> <Gold.Chemscore.Internal_Hbond.Weighted>
0.0000

> <Gold.Chemscore.DEClash.Weighted>
0.2203

> <Gold.Chemscore.DEInternal.Weighted>
4.5164

> <Gold.Chemscore.Rot.Weighted>
4.0512

> <Gold.Chemscore.Internal.Correction.Weighted>
   9.000000E+99

> <Gold.Protein.RotatedTorsions>
[ 6907 6896 6895 6894 ] final  100.87 input  -60.11 | X-H torsion
[ 7974 7965 7964 7962 ] final  159.61 input  175.53 | X-H torsion
[ 8008 7997 7996 7995 ] final -134.00 input   59.86 | X-H torsion
[ 10167 10162 10161 10158 ] final  162.52 input  -65.29 | X-H torsion
[ 10718 10713 10712 10709 ] final  -78.84 input   66.30 | X-H torsion
[ 10763 10752 10751 10750 ] final -167.54 input  -60.55 | X-H torsion
[ 11005 11000 10999 10996 ] final -151.11 input  -57.11 | X-H torsion

> <Gold.Protein.ActiveResidues>
 VAL166  LYS551  ARG553  GLY616  TRP617  ASP618  TYR619  PRO620  LYS621  CYS622 
 ASP623  PHE694  ASN695  SER759  ASP760  ASP761  ALA762  ILE779  LEU786  VAL792 
 PHE793  MET794  SER795  GLU796  ALA797  LYS798  CYS799  TRP800  GLU811  SER814 

> <Gold.Protein.RotatedAtoms>
  152.5362  134.0212  159.7982 H   0  0  0  0  0  0  0  0  0  0  0  0  # atno 6907 bound_to 6896
  151.0398  133.5708  159.2659 H   0  0  0  0  0  0  0  0  0  0  0  0  # atno 6908 bound_to 6896
  151.2682  135.0683  159.9178 H   0  0  0  0  0  0  0  0  0  0  0  0  # atno 6909 bound_to 6896
  144.7781  139.7641  143.6270 H   0  0  0  0  0  0  0  0  0  0  0  0  # atno 7974 bound_to 7965
  155.3549  140.0479  157.3046 H   0  0  0  0  0  0  0  0  0  0  0  0  # atno 8008 bound_to 7997
  154.5208  140.2224  155.8943 H   0  0  0  0  0  0  0  0  0  0  0  0  # atno 8009 bound_to 7997
  156.1687  140.3100  155.8941 H   0  0  0  0  0  0  0  0  0  0  0  0  # atno 8010 bound_to 7997
  139.4862  144.4429  151.8929 H   0  0  0  0  0  0  0  0  0  0  0  0  # atno 10167 bound_to 10162
  156.0107  130.4529  150.3558 H   0  0  0  0  0  0  0  0  0  0  0  0  # atno 10718 bound_to 10713
  154.6721  135.2941  154.9727 H   0  0  0  0  0  0  0  0  0  0  0  0  # atno 10763 bound_to 10752
  154.0751  135.6612  153.4833 H   0  0  0  0  0  0  0  0  0  0  0  0  # atno 10764 bound_to 10752
  153.0493  135.5184  154.7723 H   0  0  0  0  0  0  0  0  0  0  0  0  # atno 10765 bound_to 10752
  140.7330  134.3599  157.5163 H   0  0  0  0  0  0  0  0  0  0  0  0  # atno 11005 bound_to 11000
  146.1973  139.5247  142.9766 LP  0  0  0  0  0  0  0  0  0  0  0  0  # atno 17320 bound_to 7965
  145.6128  141.0336  143.1957 LP  0  0  0  0  0  0  0  0  0  0  0  0  # atno 17321 bound_to 7965
  140.3882  144.2650  150.5902 LP  0  0  0  0  0  0  0  0  0  0  0  0  # atno 17342 bound_to 10162
  140.5171  143.2275  151.8447 LP  0  0  0  0  0  0  0  0  0  0  0  0  # atno 17343 bound_to 10162
  157.1649  131.0354  151.2823 LP  0  0  0  0  0  0  0  0  0  0  0  0  # atno 17370 bound_to 10713
  157.4279  130.7474  149.6966 LP  0  0  0  0  0  0  0  0  0  0  0  0  # atno 17371 bound_to 10713
  139.8822  134.9031  156.2847 LP  0  0  0  0  0  0  0  0  0  0  0  0  # atno 17394 bound_to 11000
  140.9904  133.7212  156.0805 LP  0  0  0  0  0  0  0  0  0  0  0  0  # atno 17395 bound_to 11000

$$$$
