AV-unprocessed.smi:213|AV-procd|sdf|1645|dock8
  -GOLD-   2262020 23D 1   1.00000     0.00000
 Structure written by MMmdl.
 58 61  0  0  0  0  0  0  0  0  1 V2000
  152.4645  139.2849  159.3981 C   0  0  0  0  0  0  0  0  0  0  0  0
  153.5699  140.2356  159.8894 C   0  0  2  0  0  0  0  0  0  0  0  0
  153.5482  141.5937  159.1528 C   0  0  0  0  0  0  0  0  0  0  0  0
  152.6364  142.5957  159.7056 N   0  0  0  0  0  0  0  0  0  0  0  0
  153.0184  143.0262  161.0495 C   0  0  0  0  0  0  0  0  0  0  0  0
  152.0650  144.1012  161.6009 C   0  0  0  0  0  0  0  0  0  0  0  0
  152.0162  145.2070  160.7053 O   0  0  0  0  0  0  0  0  0  0  0  0
  151.6020  144.8333  159.3954 C   0  0  0  0  0  0  0  0  0  0  0  0
  152.5604  143.7666  158.8386 C   0  0  0  0  0  0  0  0  0  0  0  0
  154.8893  139.6047  159.7837 N   0  0  0  0  0  0  0  0  0  0  0  0
  156.1043  140.3803  160.0267 C   0  0  0  0  0  0  0  0  0  0  0  0
  154.9652  138.2543  159.9087 C   0  0  0  0  0  0  0  0  0  0  0  0
  155.2201  137.4999  158.8063 N   0  0  0  0  0  0  0  0  0  0  0  0
  155.2933  136.1687  158.8987 C   0  0  0  0  0  0  0  0  0  0  0  0
  155.1369  135.3973  159.9758 N   0  0  0  0  0  0  0  0  0  0  0  0
  154.8693  136.1461  161.0833 C   0  0  0  0  0  0  0  0  0  0  0  0
  154.7694  137.5653  161.1407 C   0  0  0  0  0  0  0  0  0  0  0  0
  154.4691  137.9622  162.4397 N   0  0  0  0  0  0  0  0  0  0  0  0
  154.4040  136.8450  163.1108 C   0  0  0  0  0  0  0  0  0  0  0  0
  154.6216  135.7057  162.3706 N   0  0  0  0  0  0  0  0  0  0  0  0
  154.5868  134.3347  162.8483 C   0  0  0  0  0  0  0  0  0  0  0  0
  155.2936  134.1731  164.2090 C   0  0  2  0  0  0  0  0  0  0  0  0
  156.6944  134.1921  164.0084 O   0  0  0  0  0  0  0  0  0  0  0  0
  154.9081  132.8625  164.9196 C   0  0  1  0  0  0  0  0  0  0  0  0
  153.4190  132.7405  165.2506 C   0  0  0  0  0  0  0  0  0  0  0  0
  153.2436  131.2421  165.3302 C   0  0  0  0  0  0  0  0  0  0  0  0
  154.1449  130.7664  164.1956 C   0  0  0  0  0  0  0  0  0  0  0  0
  155.1786  131.7413  164.0796 O   0  0  0  0  0  0  0  0  0  0  0  0
  151.4761  139.7114  159.5702 H   0  0  0  0  0  0  0  0  0  0  0  0
  152.5045  138.3342  159.9307 H   0  0  0  0  0  0  0  0  0  0  0  0
  152.5481  139.0758  158.3318 H   0  0  0  0  0  0  0  0  0  0  0  0
  153.3714  140.4347  160.9395 H   0  0  0  0  0  0  0  0  0  0  0  0
  154.5584  142.0056  159.1262 H   0  0  0  0  0  0  0  0  0  0  0  0
  153.2770  141.4077  158.1127 H   0  0  0  0  0  0  0  0  0  0  0  0
  153.0179  142.1810  161.7363 H   0  0  0  0  0  0  0  0  0  0  0  0
  154.0365  143.4190  161.0369 H   0  0  0  0  0  0  0  0  0  0  0  0
  151.0629  143.6927  161.7397 H   0  0  0  0  0  0  0  0  0  0  0  0
  152.4075  144.4477  162.5761 H   0  0  0  0  0  0  0  0  0  0  0  0
  150.5783  144.4566  159.4228 H   0  0  0  0  0  0  0  0  0  0  0  0
  151.6022  145.7157  158.7552 H   0  0  0  0  0  0  0  0  0  0  0  0
  153.5533  144.2023  158.7169 H   0  0  0  0  0  0  0  0  0  0  0  0
  152.2267  143.4696  157.8436 H   0  0  0  0  0  0  0  0  0  0  0  0
  156.9541  139.9397  159.5038 H   0  0  0  0  0  0  0  0  0  0  0  0
  156.3342  140.4123  161.0922 H   0  0  0  0  0  0  0  0  0  0  0  0
  155.9974  141.4056  159.6752 H   0  0  0  0  0  0  0  0  0  0  0  0
  155.5044  135.6472  157.9768 H   0  0  0  0  0  0  0  0  0  0  0  0
  154.1807  136.8206  164.1678 H   0  0  0  0  0  0  0  0  0  0  0  0
  153.5427  134.0286  162.9225 H   0  0  0  0  0  0  0  0  0  0  0  0
  155.0485  133.6907  162.0987 H   0  0  0  0  0  0  0  0  0  0  0  0
  155.0360  135.0164  164.8512 H   0  0  0  0  0  0  0  0  0  0  0  0
  156.8617  134.2495  163.0801 H   0  0  0  0  0  0  0  0  0  0  0  0
  155.4903  132.7398  165.8346 H   0  0  0  0  0  0  0  0  0  0  0  0
  153.1450  133.2521  166.1738 H   0  0  0  0  0  0  0  0  0  0  0  0
  152.8083  133.1441  164.4416 H   0  0  0  0  0  0  0  0  0  0  0  0
  153.6138  130.8720  166.2874 H   0  0  0  0  0  0  0  0  0  0  0  0
  152.2071  130.9234  165.2160 H   0  0  0  0  0  0  0  0  0  0  0  0
  154.5530  129.7723  164.3790 H   0  0  0  0  0  0  0  0  0  0  0  0
  153.5923  130.7377  163.2557 H   0  0  0  0  0  0  0  0  0  0  0  0
  1  2  1  0  0  0  0
  1 29  1  0  0  0  0
  1 30  1  0  0  0  0
  1 31  1  0  0  0  0
  2  3  1  0  0  0  0
  2 10  1  0  0  0  0
  2 32  1  0  0  0  0
  3  4  1  0  0  0  0
  3 33  1  0  0  0  0
  3 34  1  0  0  0  0
  4  9  1  0  0  0  0
  4  5  1  0  0  0  0
  5  6  1  0  0  0  0
  5 35  1  0  0  0  0
  5 36  1  0  0  0  0
  6  7  1  0  0  0  0
  6 37  1  0  0  0  0
  6 38  1  0  0  0  0
  7  8  1  0  0  0  0
  8  9  1  0  0  0  0
  8 39  1  0  0  0  0
  8 40  1  0  0  0  0
  9 41  1  0  0  0  0
  9 42  1  0  0  0  0
 10 11  1  0  0  0  0
 10 12  1  0  0  0  0
 11 43  1  0  0  0  0
 11 44  1  0  0  0  0
 11 45  1  0  0  0  0
 12 17  1  0  0  0  0
 12 13  2  0  0  0  0
 13 14  1  0  0  0  0
 14 15  2  0  0  0  0
 14 46  1  0  0  0  0
 15 16  1  0  0  0  0
 16 20  1  0  0  0  0
 16 17  2  0  0  0  0
 17 18  1  0  0  0  0
 18 19  2  0  0  0  0
 19 20  1  0  0  0  0
 19 47  1  0  0  0  0
 20 21  1  0  0  0  0
 21 22  1  0  0  0  0
 21 48  1  0  0  0  0
 21 49  1  0  0  0  0
 22 23  1  0  0  0  0
 22 24  1  0  0  0  0
 22 50  1  0  0  0  0
 23 51  1  0  0  0  0
 24 28  1  0  0  0  0
 24 25  1  0  0  0  0
 24 52  1  0  0  0  0
 25 26  1  0  0  0  0
 25 53  1  0  0  0  0
 25 54  1  0  0  0  0
 26 27  1  0  0  0  0
 26 55  1  0  0  0  0
 26 56  1  0  0  0  0
 27 28  1  0  0  0  0
 27 57  1  0  0  0  0
 27 58  1  0  0  0  0
M  END
> <s_m_source_file>
AV-unprocessed.smi

> <i_m_source_file_index>
213

> <i_lp_mmshare_version>
43012

> <i_f3d_flags>
0

> <s_epik_input>
W0NIMl0xW0NIMl1PW0NIMl1bQ0gyXU4xW0NIMl1bQ0BASF0oW0NIM10pTihbQ0gzXSljKG5bY0hdbjIpYyhjMjMpbltjSF1uM1tDSDJdW0NASF0oW09IXSlbQ0BASF00W0NIMl1bQ0gyXVtDSDJdTzQ=

> <s_epik_cmdline>
J2VwaWtfcHl0aG9uJywgJy1waCcsICc3LjAnLCAnLXRuJywgJzgnLCAnLW1hJywgJzIwMCcsICctbWV0YWxfYmluZGluZycsICctaW1hZScsICc8aW5maWxlLm1hZT4nLCAnLW9tYWUnLCAnPG91dGZpbGUubWFlPic=

> <r_lp_tautomer_probability>
1

> <r_epik_Ionization_Penalty>
0.423322

> <r_epik_Ionization_Penalty_Charging>
0

> <r_epik_Ionization_Penalty_Neutral>
0.423322

> <r_epik_State_Penalty>
0.569486

> <r_epik_Charging_Adjusted_Penalty>
0.569486

> <i_epik_Tot_Q>
0

> <i_epik_Tot_abs_Q>
0

> <r_epik_Metal_State_Penalty>
0.568671

> <b_epik_Metal_Only>
0

> <s_lp_Force_Field>
OPLS_2005

> <r_lp_Energy>
51.3499

> <b_lp_Chiralities_Consistent>
1

> <s_lp_Variant>
AV-unprocessed.smi:213-13

> <Gold.Version>
5.8.1

> <Gold.Id.Protein>
6NUR|6NUR_protein|mol2

> <Gold.PLP.Fitness>
40.7713

> <Gold.PLP.PLP>
-45.1469

> <Gold.PLP.part.hbond>
0.0000

> <Gold.PLP.part.metal>
0.0000

> <Gold.PLP.part.buried>
-5.9568

> <Gold.PLP.part.nonpolar>
-39.3583

> <Gold.PLP.part.repulsive>
0.2019

> <Gold.PLP.ligand.clash>
0.0000

> <Gold.PLP.ligand.torsion>
2.6303

> <Gold.PLP.Chemscore.Hbond>
0.0000

> <Gold.PLP.Chemscore.CHOScore>
0.0000

> <Gold.PLP.Chemscore.Metal>
0.0000

> <Gold.PLP.Chemscore.Internal.Correction>
0.8850

> <Gold.Rescore>
     Score         DG    S(hbond)    S(metal)    S(lipo)     H(rot)  DE(clash)    DE(int)     intcor
     10.75     -13.47       0.00        0.00     128.17       2.74       0.15       2.57       ----

> <Gold.Chemscore.Fitness>
10.7493

> <Gold.Chemscore.DG>
-13.4667

> <Gold.Chemscore.ZeroCoef>
-5.4800

> <Gold.Chemscore.Hbond>
0.0000

> <Gold.Chemscore.Metal>
0.0000

> <Gold.Chemscore.Lipo>
128.1656

> <Gold.Chemscore.Internal_Hbond>
0.0000

> <Gold.Chemscore.DEClash>
0.1484

> <Gold.Chemscore.DEInternal>
2.5690

> <Gold.Chemscore.Rot>
2.7378

> <Gold.Chemscore.Internal.Correction>
   9.000000E+99

> <Gold.Chemscore.Hbond.Weighted>
-0.0000

> <Gold.Chemscore.Metal.Weighted>
-0.0000

> <Gold.Chemscore.Lipo.Weighted>
-14.9954

> <Gold.Chemscore.Internal_Hbond.Weighted>
0.0000

> <Gold.Chemscore.DEClash.Weighted>
0.1484

> <Gold.Chemscore.DEInternal.Weighted>
2.5690

> <Gold.Chemscore.Rot.Weighted>
7.0087

> <Gold.Chemscore.Internal.Correction.Weighted>
   9.000000E+99

> <Gold.Protein.RotatedTorsions>
[ 6907 6896 6895 6894 ] final  150.62 input  -60.11 | X-H torsion
[ 7974 7965 7964 7962 ] final   31.92 input  175.53 | X-H torsion
[ 8008 7997 7996 7995 ] final  149.29 input   59.86 | X-H torsion
[ 10167 10162 10161 10158 ] final   99.95 input  -65.29 | X-H torsion
[ 10718 10713 10712 10709 ] final  -60.37 input   66.30 | X-H torsion
[ 10763 10752 10751 10750 ] final  172.64 input  -60.55 | X-H torsion
[ 11005 11000 10999 10996 ] final  -67.63 input  -57.11 | X-H torsion

> <Gold.Protein.ActiveResidues>
 VAL166  LYS551  ARG553  GLY616  TRP617  ASP618  TYR619  PRO620  LYS621  CYS622 
 ASP623  PHE694  ASN695  SER759  ASP760  ASP761  ALA762  ILE779  LEU786  VAL792 
 PHE793  MET794  SER795  GLU796  ALA797  LYS798  CYS799  TRP800  GLU811  SER814 

> <Gold.Protein.RotatedAtoms>
  152.1119  133.4305  159.4634 H   0  0  0  0  0  0  0  0  0  0  0  0  # atno 6907 bound_to 6896
  150.6867  134.2637  159.4569 H   0  0  0  0  0  0  0  0  0  0  0  0  # atno 6908 bound_to 6896
  152.0507  134.9655  160.0625 H   0  0  0  0  0  0  0  0  0  0  0  0  # atno 6909 bound_to 6896
  146.1520  139.6594  142.9092 H   0  0  0  0  0  0  0  0  0  0  0  0  # atno 7974 bound_to 7965
  156.2760  140.2105  156.5835 H   0  0  0  0  0  0  0  0  0  0  0  0  # atno 8008 bound_to 7997
  154.7040  140.0518  157.0509 H   0  0  0  0  0  0  0  0  0  0  0  0  # atno 8009 bound_to 7997
  155.0696  140.3175  155.4637 H   0  0  0  0  0  0  0  0  0  0  0  0  # atno 8010 bound_to 7997
  139.7571  144.6966  151.0346 H   0  0  0  0  0  0  0  0  0  0  0  0  # atno 10167 bound_to 10162
  156.0995  130.4188  150.0845 H   0  0  0  0  0  0  0  0  0  0  0  0  # atno 10718 bound_to 10713
  154.4290  135.2759  155.1925 H   0  0  0  0  0  0  0  0  0  0  0  0  # atno 10763 bound_to 10752
  154.3839  135.6081  153.5809 H   0  0  0  0  0  0  0  0  0  0  0  0  # atno 10764 bound_to 10752
  152.9835  135.5887  154.4598 H   0  0  0  0  0  0  0  0  0  0  0  0  # atno 10765 bound_to 10752
  141.1512  133.6723  156.6322 H   0  0  0  0  0  0  0  0  0  0  0  0  # atno 11005 bound_to 11000
  145.4801  141.0438  143.2650 LP  0  0  0  0  0  0  0  0  0  0  0  0  # atno 17320 bound_to 7965
  144.7915  139.6318  143.7111 LP  0  0  0  0  0  0  0  0  0  0  0  0  # atno 17321 bound_to 7965
  140.7804  143.4740  151.0107 LP  0  0  0  0  0  0  0  0  0  0  0  0  # atno 17342 bound_to 10162
  139.8427  143.7542  152.3180 LP  0  0  0  0  0  0  0  0  0  0  0  0  # atno 17343 bound_to 10162
  156.8836  130.9565  151.3596 LP  0  0  0  0  0  0  0  0  0  0  0  0  # atno 17370 bound_to 10713
  157.6163  130.8621  149.9033 LP  0  0  0  0  0  0  0  0  0  0  0  0  # atno 17371 bound_to 10713
  140.3458  134.7810  157.4431 LP  0  0  0  0  0  0  0  0  0  0  0  0  # atno 17394 bound_to 11000
  140.0901  134.5613  155.8453 LP  0  0  0  0  0  0  0  0  0  0  0  0  # atno 17395 bound_to 11000

$$$$
