AV-unprocessed.smi:907|AV-procd|sdf|4110|dock9
  -GOLD-   22720 2 03D 1   1.00000     0.00000
 Structure written by MMmdl.
 54 57  0  0  0  0  0  0  0  0  3 V2000
  149.9171  139.9611  154.3015 O   0  0  0  0  0  0  0  0  0  0  0  0
  149.2101  140.9615  154.4287 C   0  0  0  0  0  0  0  0  0  0  0  0
  149.5344  141.9632  155.2644 N   0  0  0  0  0  0  0  0  0  0  0  0
  150.7435  142.0107  156.0792 C   0  0  0  0  0  0  0  0  0  0  0  0
  150.4332  141.7882  157.5691 C   0  0  0  0  0  0  0  0  0  0  0  0
  150.9590  142.9138  158.4379 C   0  0  0  0  0  0  0  0  0  0  0  0
  151.7423  142.6666  159.5861 C   0  0  0  0  0  0  0  0  0  0  0  0
  152.2089  143.7565  160.3500 C   0  0  0  0  0  0  0  0  0  0  0  0
  151.8837  145.0691  159.9495 C   0  0  0  0  0  0  0  0  0  0  0  0
  151.1007  145.2587  158.7923 C   0  0  0  0  0  0  0  0  0  0  0  0
  150.6726  144.1886  158.0865 N   0  3  0  0  0  0  0  0  0  0  0  0
  148.0195  141.1115  153.7970 N   0  0  0  0  0  0  0  0  0  0  0  0
  147.1030  140.0305  153.4117 C   0  0  0  0  0  0  0  0  0  0  0  0
  145.9083  140.0182  154.3840 C   0  0  0  0  0  0  0  0  0  0  0  0
  145.2185  141.3399  154.4323 N   0  3  0  0  0  0  0  0  0  0  0  0
  144.0583  141.3463  155.3692 C   0  0  2  0  0  0  0  0  0  0  0  0
  142.8550  140.4899  154.9031 C   0  0  0  0  0  0  0  0  0  0  0  0
  141.6605  141.4502  155.0594 C   0  0  2  0  0  0  0  0  0  0  0  0
  141.6915  142.4680  153.9067 C   0  0  0  0  0  0  0  0  0  0  0  0
  142.9010  143.3470  154.2710 C   0  0  0  0  0  0  0  0  0  0  0  0
  143.3945  142.7277  155.5973 C   0  0  1  0  0  0  0  0  0  0  0  0
  142.0785  142.3113  156.2454 C   0  0  0  0  0  0  0  0  0  0  0  0
  146.1721  142.4614  154.6702 C   0  0  0  0  0  0  0  0  0  0  0  0
  147.3582  142.4138  153.6907 C   0  0  0  0  0  0  0  0  0  0  0  0
  148.8980  142.7435  155.3417 H   0  0  0  0  0  0  0  0  0  0  0  0
  151.4560  141.2644  155.7234 H   0  0  0  0  0  0  0  0  0  0  0  0
  151.2162  142.9827  155.9359 H   0  0  0  0  0  0  0  0  0  0  0  0
  149.3566  141.6941  157.7187 H   0  0  0  0  0  0  0  0  0  0  0  0
  150.8725  140.8505  157.9127 H   0  0  0  0  0  0  0  0  0  0  0  0
  151.9854  141.6549  159.8777 H   0  0  0  0  0  0  0  0  0  0  0  0
  152.8098  143.5871  161.2316 H   0  0  0  0  0  0  0  0  0  0  0  0
  152.2314  145.9175  160.5210 H   0  0  0  0  0  0  0  0  0  0  0  0
  150.8065  146.2263  158.4129 H   0  0  0  0  0  0  0  0  0  0  0  0
  146.7521  140.2069  152.3937 H   0  0  0  0  0  0  0  0  0  0  0  0
  147.5671  139.0444  153.3928 H   0  0  0  0  0  0  0  0  0  0  0  0
  145.2156  139.2348  154.0791 H   0  0  0  0  0  0  0  0  0  0  0  0
  146.2547  139.7571  155.3855 H   0  0  0  0  0  0  0  0  0  0  0  0
  144.4062  140.9714  156.3339 H   0  0  0  0  0  0  0  0  0  0  0  0
  142.9392  140.1403  153.8737 H   0  0  0  0  0  0  0  0  0  0  0  0
  142.7408  139.6134  155.5424 H   0  0  0  0  0  0  0  0  0  0  0  0
  140.7007  140.9446  155.1696 H   0  0  0  0  0  0  0  0  0  0  0  0
  141.7992  141.9919  152.9313 H   0  0  0  0  0  0  0  0  0  0  0  0
  140.7768  143.0622  153.8882 H   0  0  0  0  0  0  0  0  0  0  0  0
  143.6624  143.3488  153.4911 H   0  0  0  0  0  0  0  0  0  0  0  0
  142.5854  144.3799  154.4240 H   0  0  0  0  0  0  0  0  0  0  0  0
  143.9894  143.4093  156.2060 H   0  0  0  0  0  0  0  0  0  0  0  0
  141.4032  143.1483  156.4321 H   0  0  0  0  0  0  0  0  0  0  0  0
  142.2070  141.7436  157.1690 H   0  0  0  0  0  0  0  0  0  0  0  0
  145.6697  143.4212  154.5556 H   0  0  0  0  0  0  0  0  0  0  0  0
  146.5374  142.4143  155.6976 H   0  0  0  0  0  0  0  0  0  0  0  0
  148.0361  143.2466  153.8835 H   0  0  0  0  0  0  0  0  0  0  0  0
  147.0053  142.5549  152.6679 H   0  0  0  0  0  0  0  0  0  0  0  0
  144.8378  141.4935  153.5095 H   0  0  0  0  0  0  0  0  0  0  0  0
  150.1076  144.3498  157.2526 H   0  0  0  0  0  0  0  0  0  0  0  0
  1  2  2  0  0  0  0
  2  3  1  0  0  0  0
  2 12  1  0  0  0  0
  3  4  1  0  0  0  0
  3 25  1  0  0  0  0
  4  5  1  0  0  0  0
  4 26  1  0  0  0  0
  4 27  1  0  0  0  0
  5  6  1  0  0  0  0
  5 28  1  0  0  0  0
  5 29  1  0  0  0  0
  6 11  1  0  0  0  0
  6  7  2  0  0  0  0
  7  8  1  0  0  0  0
  7 30  1  0  0  0  0
  8  9  2  0  0  0  0
  8 31  1  0  0  0  0
  9 10  1  0  0  0  0
  9 32  1  0  0  0  0
 10 11  2  0  0  0  0
 10 33  1  0  0  0  0
 11 54  1  0  0  0  0
 12 24  1  0  0  0  0
 12 13  1  0  0  0  0
 13 14  1  0  0  0  0
 13 34  1  0  0  0  0
 13 35  1  0  0  0  0
 14 15  1  0  0  0  0
 14 36  1  0  0  0  0
 14 37  1  0  0  0  0
 15 16  1  0  0  0  0
 15 23  1  0  0  0  0
 15 53  1  0  0  0  0
 16 21  1  0  0  0  0
 16 17  1  0  0  0  0
 16 38  1  0  0  0  0
 17 18  1  0  0  0  0
 17 39  1  0  0  0  0
 17 40  1  0  0  0  0
 18 22  1  0  0  0  0
 18 19  1  0  0  0  0
 18 41  1  0  0  0  0
 19 20  1  0  0  0  0
 19 42  1  0  0  0  0
 19 43  1  0  0  0  0
 20 21  1  0  0  0  0
 20 44  1  0  0  0  0
 20 45  1  0  0  0  0
 21 22  1  0  0  0  0
 21 46  1  0  0  0  0
 22 47  1  0  0  0  0
 22 48  1  0  0  0  0
 23 24  1  0  0  0  0
 23 49  1  0  0  0  0
 23 50  1  0  0  0  0
 24 51  1  0  0  0  0
 24 52  1  0  0  0  0
M  CHG  1  11   1
M  CHG  1  15   1
M  END
> <s_m_source_file>
AV-unprocessed.smi

> <i_m_source_file_index>
907

> <i_lp_mmshare_version>
43012

> <i_f3d_flags>
0

> <s_epik_input>
W0NIMl0xW0NIMl1bQ0BASF0oW0NIMl0yKVtDQEBIXShbQ0gyXVtDQEhdMTIpTihbQ0gyXVtDSDJdMylbQ0gyXVtDSDJdTjNDKD1PKVtOSF1bQ0gyXVtDSDJdYzRbY0hdW2NIXVtjSF1bY0hdbjQ=

> <s_epik_cmdline>
J2VwaWtfcHl0aG9uJywgJy1waCcsICc3LjAnLCAnLXRuJywgJzgnLCAnLW1hJywgJzIwMCcsICctbWV0YWxfYmluZGluZycsICctaW1hZScsICc8aW5maWxlLm1hZT4nLCAnLW9tYWUnLCAnPG91dGZpbGUubWFlPic=

> <r_epik_Ionization_Penalty>
1.63018

> <r_epik_Ionization_Penalty_Charging>
1.63015

> <r_epik_Ionization_Penalty_Neutral>
2.64641e-05

> <r_epik_State_Penalty>
1.72761

> <r_epik_Charging_Adjusted_Penalty>
3.35777

> <i_epik_Tot_Q>
2

> <i_epik_Tot_abs_Q>
2

> <r_epik_Metal_State_Penalty>
1.76501

> <b_epik_Metal_Only>
0

> <s_lp_Force_Field>
OPLS_2005

> <r_lp_Energy>
102.759

> <b_lp_Chiralities_Consistent>
1

> <s_lp_Variant>
AV-unprocessed.smi:907-5

> <Gold.Version>
5.8.1

> <Gold.Id.Protein>
6NUR|6NUR_protein|mol2

> <Gold.PLP.Fitness>
55.0282

> <Gold.PLP.PLP>
-41.5564

> <Gold.PLP.part.hbond>
-4.0877

> <Gold.PLP.part.metal>
0.0000

> <Gold.PLP.part.buried>
-5.7198

> <Gold.PLP.part.nonpolar>
-32.8178

> <Gold.PLP.part.repulsive>
1.0161

> <Gold.PLP.ligand.clash>
0.9721

> <Gold.PLP.ligand.torsion>
0.9614

> <Gold.PLP.Chemscore.Hbond>
5.4240

> <Gold.PLP.Chemscore.CHOScore>
0.0000

> <Gold.PLP.Chemscore.Metal>
0.0000

> <Gold.Chemscore.Hbonds>
donor molecule, donor type, donor heavy atom, donor atom, acceptor molecule, acceptor atom, score
      L1  H     3    25       P1  8028  0.83
      L1  H    11    54       P1  8028  2.00
      L1  H    15    53       P1 10175  0.92
      P1  H  7989  7998       L1     1  0.80

> <Gold.PLP.Chemscore.Internal.Correction>
0.0948

> <Gold.Rescore>
     Score         DG    S(hbond)    S(metal)    S(lipo)     H(rot)  DE(clash)    DE(int)     intcor
     20.57     -21.94       2.80        0.00      92.73       1.46       0.09       1.28       ----

> <Gold.Chemscore.Fitness>
20.5708

> <Gold.Chemscore.DG>
-21.9408

> <Gold.Chemscore.ZeroCoef>
-5.4800

> <Gold.Chemscore.Hbond>
2.7971

> <Gold.Chemscore.Metal>
0.0000

> <Gold.Chemscore.Lipo>
92.7256

> <Gold.Chemscore.Internal_Hbond>
0.0000

> <Gold.Chemscore.DEClash>
0.0863

> <Gold.Chemscore.DEInternal>
1.2836

> <Gold.Chemscore.Rot>
1.4572

> <Gold.Chemscore.Internal.Correction>
   9.000000E+99

> <Gold.Chemscore.Hbonds>
donor molecule, donor type, donor heavy atom, donor atom, acceptor molecule, acceptor atom, score
      L1  H     3    25       P1  8028  0.80
      L1  H    11    54       P1  8028  0.58
      L1  H    15    53       P1 10175  0.05
      P1  H  7989  7998       L1     1  0.17

> <Gold.Chemscore.Hbond.Weighted>
-9.3424

> <Gold.Chemscore.Metal.Weighted>
-0.0000

> <Gold.Chemscore.Lipo.Weighted>
-10.8489

> <Gold.Chemscore.Internal_Hbond.Weighted>
0.0000

> <Gold.Chemscore.DEClash.Weighted>
0.0863

> <Gold.Chemscore.DEInternal.Weighted>
1.2836

> <Gold.Chemscore.Rot.Weighted>
3.7305

> <Gold.Chemscore.Internal.Correction.Weighted>
   9.000000E+99

> <Gold.Protein.RotatedTorsions>
[ 6907 6896 6895 6894 ] final  104.84 input  -60.11 | X-H torsion
[ 7974 7965 7964 7962 ] final  -15.42 input  175.53 | X-H torsion
[ 8008 7997 7996 7995 ] final    6.61 input   59.86 | X-H torsion
[ 10167 10162 10161 10158 ] final -115.76 input  -65.29 | X-H torsion
[ 10718 10713 10712 10709 ] final   68.71 input   66.30 | X-H torsion
[ 10763 10752 10751 10750 ] final -147.08 input  -60.55 | X-H torsion
[ 11005 11000 10999 10996 ] final -107.45 input  -57.11 | X-H torsion

> <Gold.Protein.ActiveResidues>
 VAL166  LYS551  ARG553  GLY616  TRP617  ASP618  TYR619  PRO620  LYS621  CYS622 
 ASP623  PHE694  ASN695  SER759  ASP760  ASP761  ALA762  ILE779  LEU786  VAL792 
 PHE793  MET794  SER795  GLU796  ALA797  LYS798  CYS799  TRP800  GLU811  SER814 

> <Gold.Protein.RotatedAtoms>
  152.5251  133.9617  159.7719 H   0  0  0  0  0  0  0  0  0  0  0  0  # atno 6907 bound_to 6896
  150.9906  133.6145  159.2716 H   0  0  0  0  0  0  0  0  0  0  0  0  # atno 6908 bound_to 6896
  151.3290  135.0843  159.9385 H   0  0  0  0  0  0  0  0  0  0  0  0  # atno 6909 bound_to 6896
  146.2033  140.3490  142.8416 H   0  0  0  0  0  0  0  0  0  0  0  0  # atno 7974 bound_to 7965
  154.7433  140.2753  155.6355 H   0  0  0  0  0  0  0  0  0  0  0  0  # atno 8008 bound_to 7997
  156.2879  140.2693  156.2092 H   0  0  0  0  0  0  0  0  0  0  0  0  # atno 8009 bound_to 7997
  155.0230  140.0371  157.2434 H   0  0  0  0  0  0  0  0  0  0  0  0  # atno 8010 bound_to 7997
  140.0866  143.4739  152.1895 H   0  0  0  0  0  0  0  0  0  0  0  0  # atno 10167 bound_to 10162
  157.6305  130.9388  150.0414 H   0  0  0  0  0  0  0  0  0  0  0  0  # atno 10718 bound_to 10713
  154.8304  135.3369  154.6762 H   0  0  0  0  0  0  0  0  0  0  0  0  # atno 10763 bound_to 10752
  153.7382  135.6947  153.4977 H   0  0  0  0  0  0  0  0  0  0  0  0  # atno 10764 bound_to 10752
  153.2263  135.4432  155.0497 H   0  0  0  0  0  0  0  0  0  0  0  0  # atno 10765 bound_to 10752
  141.0953  133.8982  157.1977 H   0  0  0  0  0  0  0  0  0  0  0  0  # atno 11005 bound_to 11000
  144.8732  140.7301  143.6033 LP  0  0  0  0  0  0  0  0  0  0  0  0  # atno 17320 bound_to 7965
  145.3410  139.1732  143.4486 LP  0  0  0  0  0  0  0  0  0  0  0  0  # atno 17321 bound_to 7965
  139.5749  144.7482  151.3792 LP  0  0  0  0  0  0  0  0  0  0  0  0  # atno 17342 bound_to 10162
  140.7050  143.7535  150.7467 LP  0  0  0  0  0  0  0  0  0  0  0  0  # atno 17343 bound_to 10162
  156.1505  130.3642  149.9445 LP  0  0  0  0  0  0  0  0  0  0  0  0  # atno 17370 bound_to 10713
  156.7466  130.9099  151.3635 LP  0  0  0  0  0  0  0  0  0  0  0  0  # atno 17371 bound_to 10713
  139.9788  135.0105  156.9699 LP  0  0  0  0  0  0  0  0  0  0  0  0  # atno 17394 bound_to 11000
  140.5154  134.0960  155.7280 LP  0  0  0  0  0  0  0  0  0  0  0  0  # atno 17395 bound_to 11000

$$$$
