AV-unprocessed.smi:1738|AV-procd|sdf|7004|dock6
  -GOLD-   22720 8213D 1   1.00000     0.00000
 Structure written by MMmdl.
 46 48  0  0  0  0  0  0  0  0  2 V2000
  153.4027  138.4915  158.9494 C   0  0  0  0  0  0  0  0  0  0  0  0
  154.1884  137.0821  158.0673 S   0  0  0  0  0  0  0  0  0  0  0  0
  155.3795  137.5933  157.3712 O   0  0  0  0  0  0  0  0  0  0  0  0
  154.3242  135.9633  159.0131 O   0  0  0  0  0  0  0  0  0  0  0  0
  152.9729  136.6199  156.8384 C   0  0  0  0  0  0  0  0  0  0  0  0
  152.6572  137.4961  155.7810 C   0  0  0  0  0  0  0  0  0  0  0  0
  151.6639  137.1015  154.8645 C   0  0  0  0  0  0  0  0  0  0  0  0
  151.0151  135.8547  155.0493 C   0  0  0  0  0  0  0  0  0  0  0  0
  150.0013  135.3280  154.2009 N   0  0  0  0  0  0  0  0  0  0  0  0
  149.2754  134.2038  154.3309 C   0  0  0  0  0  0  0  0  0  0  0  0
  149.3759  133.3859  155.2442 O   0  0  0  0  0  0  0  0  0  0  0  0
  148.4099  134.0683  153.3159 N   0  0  0  0  0  0  0  0  0  0  0  0
  147.4586  132.9708  153.1615 C   0  0  1  0  0  0  0  0  0  0  0  0
  146.4501  133.2083  152.0437 C   0  0  0  0  0  0  0  0  0  0  0  0
  145.9310  131.7959  151.7704 C   0  0  0  0  0  0  0  0  0  0  0  0
  147.0737  130.8860  152.0163 N   0  3  2  0  0  0  0  0  0  0  0  0
  146.7017  129.5813  152.6159 C   0  0  0  0  0  0  0  0  0  0  0  0
  147.9460  128.6946  152.8078 C   0  0  0  0  0  0  0  0  0  0  0  0
  149.1086  129.4265  153.5104 C   0  0  0  0  0  0  0  0  0  0  0  0
  148.7343  130.8575  153.9264 C   0  0  0  0  0  0  0  0  0  0  0  0
  148.1270  131.6490  152.7455 C   0  0  2  0  0  0  0  0  0  0  0  0
  151.4115  135.0662  156.1516 C   0  0  0  0  0  0  0  0  0  0  0  0
  152.3612  135.4335  157.0370 N   0  0  0  0  0  0  0  0  0  0  0  0
  154.0734  138.8503  159.7297 H   0  0  0  0  0  0  0  0  0  0  0  0
  152.4660  138.1625  159.3994 H   0  0  0  0  0  0  0  0  0  0  0  0
  153.2026  139.2970  158.2430 H   0  0  0  0  0  0  0  0  0  0  0  0
  153.1610  138.4445  155.6677 H   0  0  0  0  0  0  0  0  0  0  0  0
  151.4317  137.7641  154.0468 H   0  0  0  0  0  0  0  0  0  0  0  0
  149.8136  135.8768  153.3745 H   0  0  0  0  0  0  0  0  0  0  0  0
  148.3960  134.7867  152.6064 H   0  0  0  0  0  0  0  0  0  0  0  0
  146.8987  132.8252  154.0880 H   0  0  0  0  0  0  0  0  0  0  0  0
  145.6575  133.9027  152.3249 H   0  0  0  0  0  0  0  0  0  0  0  0
  146.9480  133.6010  151.1556 H   0  0  0  0  0  0  0  0  0  0  0  0
  145.1195  131.5719  152.4650 H   0  0  0  0  0  0  0  0  0  0  0  0
  145.5423  131.6824  150.7580 H   0  0  0  0  0  0  0  0  0  0  0  0
  146.2064  129.7457  153.5743 H   0  0  0  0  0  0  0  0  0  0  0  0
  145.9797  129.0771  151.9725 H   0  0  0  0  0  0  0  0  0  0  0  0
  147.6709  127.8040  153.3739 H   0  0  0  0  0  0  0  0  0  0  0  0
  148.2873  128.3370  151.8355 H   0  0  0  0  0  0  0  0  0  0  0  0
  149.4365  128.8605  154.3829 H   0  0  0  0  0  0  0  0  0  0  0  0
  149.9654  129.4651  152.8366 H   0  0  0  0  0  0  0  0  0  0  0  0
  148.0259  130.8168  154.7551 H   0  0  0  0  0  0  0  0  0  0  0  0
  149.6161  131.3716  154.3094 H   0  0  0  0  0  0  0  0  0  0  0  0
  148.9106  131.8537  152.0140 H   0  0  0  0  0  0  0  0  0  0  0  0
  150.9472  134.1077  156.3338 H   0  0  0  0  0  0  0  0  0  0  0  0
  147.4729  130.6752  151.1125 H   0  0  0  0  0  0  0  0  0  0  0  0
  1  2  1  0  0  0  0
  1 24  1  0  0  0  0
  1 25  1  0  0  0  0
  1 26  1  0  0  0  0
  2  3  2  0  0  0  0
  2  4  2  0  0  0  0
  2  5  1  0  0  0  0
  5 23  1  0  0  0  0
  5  6  2  0  0  0  0
  6  7  1  0  0  0  0
  6 27  1  0  0  0  0
  7  8  2  0  0  0  0
  7 28  1  0  0  0  0
  8  9  1  0  0  0  0
  8 22  1  0  0  0  0
  9 10  1  0  0  0  0
  9 29  1  0  0  0  0
 10 11  2  0  0  0  0
 10 12  1  0  0  0  0
 12 13  1  0  0  0  0
 12 30  1  0  0  0  0
 13 21  1  0  0  0  0
 13 14  1  0  0  0  0
 13 31  1  0  0  0  0
 14 15  1  0  0  0  0
 14 32  1  0  0  0  0
 14 33  1  0  0  0  0
 15 16  1  0  0  0  0
 15 34  1  0  0  0  0
 15 35  1  0  0  0  0
 16 21  1  0  0  0  0
 16 17  1  0  0  0  0
 16 46  1  0  0  0  0
 17 18  1  0  0  0  0
 17 36  1  0  0  0  0
 17 37  1  0  0  0  0
 18 19  1  0  0  0  0
 18 38  1  0  0  0  0
 18 39  1  0  0  0  0
 19 20  1  0  0  0  0
 19 40  1  0  0  0  0
 19 41  1  0  0  0  0
 20 21  1  0  0  0  0
 20 42  1  0  0  0  0
 20 43  1  0  0  0  0
 21 44  1  0  0  0  0
 22 23  2  0  0  0  0
 22 45  1  0  0  0  0
M  CHG  1  16   1
M  END
> <s_m_source_file>
AV-unprocessed.smi

> <i_m_source_file_index>
1738

> <i_lp_mmshare_version>
43012

> <i_f3d_flags>
0

> <s_epik_input>
W0NIM11TKD1PKSg9TyljMVtjSF1bY0hdYyhbY0hdbjEpW05IXUMoPU8pW05IXVtDQEhdKFtDSDJdW0NIMl0yKVtDQEBIXShOMjMpW0NIMl1bQ0gyXVtDSDJdW0NIMl0z

> <s_epik_cmdline>
J2VwaWtfcHl0aG9uJywgJy1waCcsICc3LjAnLCAnLXRuJywgJzgnLCAnLW1hJywgJzIwMCcsICctbWV0YWxfYmluZGluZycsICctaW1hZScsICc8aW5maWxlLm1hZT4nLCAnLW9tYWUnLCAnPG91dGZpbGUubWFlPic=

> <r_epik_Ionization_Penalty>
0.00100042

> <r_epik_Ionization_Penalty_Charging>
0.000974069

> <r_epik_Ionization_Penalty_Neutral>
2.63543e-05

> <r_epik_State_Penalty>
0.000633842

> <r_epik_Charging_Adjusted_Penalty>
0.00160791

> <i_epik_Tot_Q>
1

> <i_epik_Tot_abs_Q>
1

> <r_epik_Metal_State_Penalty>
-0

> <b_epik_Metal_Only>
0

> <s_lp_Force_Field>
OPLS_2005

> <r_lp_Energy>
42.7986

> <b_lp_Chiralities_Consistent>
1

> <s_lp_Variant>
AV-unprocessed.smi:1738-8

> <Gold.Version>
5.8.1

> <Gold.Id.Protein>
6NUR|6NUR_protein|mol2

> <Gold.PLP.Fitness>
45.2714

> <Gold.PLP.PLP>
-30.9491

> <Gold.PLP.part.hbond>
-6.1913

> <Gold.PLP.part.metal>
0.0000

> <Gold.PLP.part.buried>
-2.0381

> <Gold.PLP.part.nonpolar>
-22.9682

> <Gold.PLP.part.repulsive>
0.0790

> <Gold.PLP.ligand.clash>
0.0000

> <Gold.PLP.ligand.torsion>
1.1703

> <Gold.PLP.Chemscore.Hbond>
4.8786

> <Gold.PLP.Chemscore.CHOScore>
0.0000

> <Gold.PLP.Chemscore.Metal>
0.0000

> <Gold.Chemscore.Hbonds>
donor molecule, donor type, donor heavy atom, donor atom, acceptor molecule, acceptor atom, score
      L1  H     9    29       P1  7948  0.60
      L1  H    12    30       P1  7948  1.00
      L1  H    16    46       P1 10747  0.78
      P1  H  7997  8009       L1     3  0.01

> <Gold.PLP.Chemscore.Internal.Correction>
2.0270

> <Gold.Rescore>
     Score         DG    S(hbond)    S(metal)    S(lipo)     H(rot)  DE(clash)    DE(int)     intcor
     22.56     -25.35       4.31        0.00      68.65       1.00       0.05       2.75       ----

> <Gold.Chemscore.Fitness>
22.5558

> <Gold.Chemscore.DG>
-25.3525

> <Gold.Chemscore.ZeroCoef>
-5.4800

> <Gold.Chemscore.Hbond>
4.3116

> <Gold.Chemscore.Metal>
0.0000

> <Gold.Chemscore.Lipo>
68.6475

> <Gold.Chemscore.Internal_Hbond>
0.0000

> <Gold.Chemscore.DEClash>
0.0473

> <Gold.Chemscore.DEInternal>
2.7494

> <Gold.Chemscore.Rot>
1.0000

> <Gold.Chemscore.Internal.Correction>
   9.000000E+99

> <Gold.Chemscore.Hbonds>
donor molecule, donor type, donor heavy atom, donor atom, acceptor molecule, acceptor atom, score
      L1  H     9    29       P1  7948  0.04
      L1  H    12    30       P1  7948  0.34
      L1  H    16    46       P1 10747  0.80
      P1  H  7997  8009       L1     3  0.01

> <Gold.Chemscore.Hbond.Weighted>
-14.4007

> <Gold.Chemscore.Metal.Weighted>
-0.0000

> <Gold.Chemscore.Lipo.Weighted>
-8.0318

> <Gold.Chemscore.Internal_Hbond.Weighted>
0.0000

> <Gold.Chemscore.DEClash.Weighted>
0.0473

> <Gold.Chemscore.DEInternal.Weighted>
2.7494

> <Gold.Chemscore.Rot.Weighted>
2.5600

> <Gold.Chemscore.Internal.Correction.Weighted>
   9.000000E+99

> <Gold.Protein.RotatedTorsions>
[ 6907 6896 6895 6894 ] final   27.76 input  -60.11 | X-H torsion
[ 7974 7965 7964 7962 ] final   90.85 input  175.53 | X-H torsion
[ 8008 7997 7996 7995 ] final  133.00 input   59.86 | X-H torsion
[ 10167 10162 10161 10158 ] final -144.66 input  -65.29 | X-H torsion
[ 10718 10713 10712 10709 ] final -152.99 input   66.30 | X-H torsion
[ 10763 10752 10751 10750 ] final   44.50 input  -60.55 | X-H torsion
[ 11005 11000 10999 10996 ] final  -24.62 input  -57.11 | X-H torsion

> <Gold.Protein.ActiveResidues>
 VAL166  LYS551  ARG553  GLY616  TRP617  ASP618  TYR619  PRO620  LYS621  CYS622 
 ASP623  PHE694  ASN695  SER759  ASP760  ASP761  ALA762  ILE779  LEU786  VAL792 
 PHE793  MET794  SER795  GLU796  ALA797  LYS798  CYS799  TRP800  GLU811  SER814 

> <Gold.Protein.RotatedAtoms>
  152.0070  134.9897  160.0566 H   0  0  0  0  0  0  0  0  0  0  0  0  # atno 6907 bound_to 6896
  152.1465  133.4491  159.4800 H   0  0  0  0  0  0  0  0  0  0  0  0  # atno 6908 bound_to 6896
  150.6870  134.2160  159.4421 H   0  0  0  0  0  0  0  0  0  0  0  0  # atno 6909 bound_to 6896
  145.5136  139.2277  143.2711 H   0  0  0  0  0  0  0  0  0  0  0  0  # atno 7974 bound_to 7965
  156.2988  140.2532  156.3181 H   0  0  0  0  0  0  0  0  0  0  0  0  # atno 8008 bound_to 7997
  154.9261  140.0399  157.2043 H   0  0  0  0  0  0  0  0  0  0  0  0  # atno 8009 bound_to 7997
  154.8263  140.2868  155.5757 H   0  0  0  0  0  0  0  0  0  0  0  0  # atno 8010 bound_to 7997
  139.7878  143.8009  152.2646 H   0  0  0  0  0  0  0  0  0  0  0  0  # atno 10167 bound_to 10162
  156.4799  130.8298  151.2525 H   0  0  0  0  0  0  0  0  0  0  0  0  # atno 10718 bound_to 10713
  152.9840  135.6069  154.3284 H   0  0  0  0  0  0  0  0  0  0  0  0  # atno 10763 bound_to 10752
  154.2989  135.2773  155.2622 H   0  0  0  0  0  0  0  0  0  0  0  0  # atno 10764 bound_to 10752
  154.4884  135.5899  153.6497 H   0  0  0  0  0  0  0  0  0  0  0  0  # atno 10765 bound_to 10752
  140.8862  133.7619  156.0364 H   0  0  0  0  0  0  0  0  0  0  0  0  # atno 11005 bound_to 11000
  146.2151  140.5944  142.9042 LP  0  0  0  0  0  0  0  0  0  0  0  0  # atno 17320 bound_to 7965
  144.7714  140.5646  143.6667 LP  0  0  0  0  0  0  0  0  0  0  0  0  # atno 17321 bound_to 7965
  139.8091  144.7343  150.9721 LP  0  0  0  0  0  0  0  0  0  0  0  0  # atno 17342 bound_to 10162
  140.7820  143.4268  151.0755 LP  0  0  0  0  0  0  0  0  0  0  0  0  # atno 17343 bound_to 10162
  157.7484  131.0048  150.3091 LP  0  0  0  0  0  0  0  0  0  0  0  0  # atno 17370 bound_to 10713
  156.3532  130.3834  149.7312 LP  0  0  0  0  0  0  0  0  0  0  0  0  # atno 17371 bound_to 10713
  140.8402  134.3076  157.5316 LP  0  0  0  0  0  0  0  0  0  0  0  0  # atno 17394 bound_to 11000
  139.8724  134.9412  156.3789 LP  0  0  0  0  0  0  0  0  0  0  0  0  # atno 17395 bound_to 11000

$$$$
