AV-unprocessed.smi:438|AV-procd|sdf|2567|dock1
  -GOLD-   2262022543D 1   1.00000     0.00000
 Structure written by MMmdl.
 48 49  0  0  0  0  0  0  0  0  1 V2000
  148.3516  134.1553  154.0337 C   0  0  0  0  0  0  0  0  0  0  0  0
  149.5168  134.6893  154.8476 C   0  0  0  0  0  0  0  0  0  0  0  0
  149.9847  135.9249  154.4386 N   0  0  0  0  0  0  0  0  0  0  0  0
  151.0397  136.5049  155.1264 C   0  0  0  0  0  0  0  0  0  0  0  0
  151.4302  138.1284  154.4112 S   0  0  0  0  0  0  0  0  0  0  0  0
  150.7548  139.2541  155.6664 C   0  0  0  0  0  0  0  0  0  0  0  0
  151.8388  139.8134  156.5831 C   0  0  0  0  0  0  0  0  0  0  0  0
  152.9386  139.2643  156.6360 O   0  0  0  0  0  0  0  0  0  0  0  0
  151.5071  140.9005  157.3012 N   0  0  0  0  0  0  0  0  0  0  0  0
  152.3326  141.6051  158.2863 C   0  0  2  0  0  0  0  0  0  0  0  0
  152.4939  140.7928  159.5903 C   0  0  0  0  0  0  0  0  0  0  0  0
  153.4387  141.5021  160.5710 C   0  0  0  0  0  0  0  0  0  0  0  0
  152.9533  142.9289  160.8658 C   0  0  0  0  0  0  0  0  0  0  0  0
  152.8008  143.7430  159.5708 C   0  0  0  0  0  0  0  0  0  0  0  0
  151.8532  143.0555  158.5664 C   0  0  1  0  0  0  0  0  0  0  0  0
  151.7236  143.8970  157.2837 C   0  0  0  0  0  0  0  0  0  0  0  0
  151.6376  135.9421  156.1347 N   0  0  0  0  0  0  0  0  0  0  0  0
  151.2178  134.6820  156.5871 C   0  0  0  0  0  0  0  0  0  0  0  0
  151.7841  134.1387  157.5346 O   0  0  0  0  0  0  0  0  0  0  0  0
  150.0847  134.0368  155.8904 C   0  0  0  0  0  0  0  0  0  0  0  0
  149.5977  132.6802  156.3916 C   0  0  0  0  0  0  0  0  0  0  0  0
  149.8086  131.5680  155.3543 C   0  0  0  0  0  0  0  0  0  0  0  0
  149.2240  130.3691  155.8144 O   0  0  0  0  0  0  0  0  0  0  0  0
  148.5879  133.1692  153.6330 H   0  0  0  0  0  0  0  0  0  0  0  0
  148.1139  134.8098  153.1939 H   0  0  0  0  0  0  0  0  0  0  0  0
  147.4603  134.0718  154.6558 H   0  0  0  0  0  0  0  0  0  0  0  0
  150.0097  138.7267  156.2633 H   0  0  0  0  0  0  0  0  0  0  0  0
  150.2442  140.0799  155.1693 H   0  0  0  0  0  0  0  0  0  0  0  0
  150.5738  141.2637  157.1718 H   0  0  0  0  0  0  0  0  0  0  0  0
  153.3196  141.6721  157.8267 H   0  0  0  0  0  0  0  0  0  0  0  0
  151.5274  140.6480  160.0736 H   0  0  0  0  0  0  0  0  0  0  0  0
  152.8795  139.7977  159.3664 H   0  0  0  0  0  0  0  0  0  0  0  0
  153.5084  140.9329  161.4983 H   0  0  0  0  0  0  0  0  0  0  0  0
  154.4452  141.5366  160.1519 H   0  0  0  0  0  0  0  0  0  0  0  0
  151.9968  142.8902  161.3885 H   0  0  0  0  0  0  0  0  0  0  0  0
  153.6528  143.4277  161.5372 H   0  0  0  0  0  0  0  0  0  0  0  0
  152.4283  144.7392  159.8115 H   0  0  0  0  0  0  0  0  0  0  0  0
  153.7820  143.8839  159.1155 H   0  0  0  0  0  0  0  0  0  0  0  0
  150.8673  143.0141  159.0309 H   0  0  0  0  0  0  0  0  0  0  0  0
  152.6735  143.9562  156.7516 H   0  0  0  0  0  0  0  0  0  0  0  0
  151.4085  144.9147  157.5148 H   0  0  0  0  0  0  0  0  0  0  0  0
  150.9838  143.4799  156.6008 H   0  0  0  0  0  0  0  0  0  0  0  0
  149.5276  136.3719  153.6567 H   0  0  0  0  0  0  0  0  0  0  0  0
  148.5413  132.7370  156.6537 H   0  0  0  0  0  0  0  0  0  0  0  0
  150.1096  132.4294  157.3220 H   0  0  0  0  0  0  0  0  0  0  0  0
  149.3565  131.8401  154.3999 H   0  0  0  0  0  0  0  0  0  0  0  0
  150.8707  131.3977  155.1762 H   0  0  0  0  0  0  0  0  0  0  0  0
  148.7119  130.5608  156.5851 H   0  0  0  0  0  0  0  0  0  0  0  0
  1 24  1  0  0  0  0
  1 25  1  0  0  0  0
  1 26  1  0  0  0  0
  1  2  1  0  0  0  0
  2 20  2  0  0  0  0
  2  3  1  0  0  0  0
  3  4  1  0  0  0  0
  3 43  1  0  0  0  0
  4  5  1  0  0  0  0
  4 17  2  0  0  0  0
  5  6  1  0  0  0  0
  6  7  1  0  0  0  0
  6 27  1  0  0  0  0
  6 28  1  0  0  0  0
  7  8  2  0  0  0  0
  7  9  1  0  0  0  0
  9 10  1  0  0  0  0
  9 29  1  0  0  0  0
 10 15  1  0  0  0  0
 10 11  1  0  0  0  0
 10 30  1  0  0  0  0
 11 12  1  0  0  0  0
 11 31  1  0  0  0  0
 11 32  1  0  0  0  0
 12 13  1  0  0  0  0
 12 33  1  0  0  0  0
 12 34  1  0  0  0  0
 13 14  1  0  0  0  0
 13 35  1  0  0  0  0
 13 36  1  0  0  0  0
 14 15  1  0  0  0  0
 14 37  1  0  0  0  0
 14 38  1  0  0  0  0
 15 16  1  0  0  0  0
 15 39  1  0  0  0  0
 16 40  1  0  0  0  0
 16 41  1  0  0  0  0
 16 42  1  0  0  0  0
 17 18  1  0  0  0  0
 18 19  2  0  0  0  0
 18 20  1  0  0  0  0
 20 21  1  0  0  0  0
 21 22  1  0  0  0  0
 21 44  1  0  0  0  0
 21 45  1  0  0  0  0
 22 23  1  0  0  0  0
 22 46  1  0  0  0  0
 22 47  1  0  0  0  0
 23 48  1  0  0  0  0
M  END
> <s_m_source_file>
AV-unprocessed.smi

> <i_m_source_file_index>
438

> <i_lp_mmshare_version>
43012

> <i_f3d_flags>
0

> <s_epik_input>
W09IXVtDSDJdW0NIMl1jMWMoW09IXSluYyhuYzFbQ0gzXSlTW0NIMl1DKD1PKVtOSF1bQ0BASF0yW0NIMl1bQ0gyXVtDSDJdW0NIMl1bQ0BIXTJbQ0gzXQ==

> <s_epik_cmdline>
J2VwaWtfcHl0aG9uJywgJy1waCcsICc3LjAnLCAnLXRuJywgJzgnLCAnLW1hJywgJzIwMCcsICctbWV0YWxfYmluZGluZycsICctaW1hZScsICc8aW5maWxlLm1hZT4nLCAnLW9tYWUnLCAnPG91dGZpbGUubWFlPic=

> <r_lp_tautomer_probability>
0.273662

> <r_epik_Ionization_Penalty>
0.0875285

> <r_epik_Ionization_Penalty_Charging>
0.0875254

> <r_epik_Ionization_Penalty_Neutral>
3.01536e-06

> <r_epik_State_Penalty>
0.985796

> <r_epik_Charging_Adjusted_Penalty>
1.07332

> <i_epik_Tot_Q>
0

> <i_epik_Tot_abs_Q>
0

> <r_epik_Metal_State_Penalty>
1.58101

> <b_epik_Metal_Only>
0

> <s_lp_Force_Field>
OPLS_2005

> <r_lp_Energy>
18.1285

> <b_lp_Chiralities_Consistent>
1

> <s_lp_Variant>
AV-unprocessed.smi:438-5

> <Gold.Version>
5.8.1

> <Gold.Id.Protein>
6NUR|6NUR_protein|mol2

> <Gold.PLP.Fitness>
50.0020

> <Gold.PLP.PLP>
-42.9606

> <Gold.PLP.part.hbond>
-4.7516

> <Gold.PLP.part.metal>
0.0000

> <Gold.PLP.part.buried>
-1.6457

> <Gold.PLP.part.nonpolar>
-36.6062

> <Gold.PLP.part.repulsive>
0.1580

> <Gold.PLP.ligand.clash>
0.0000

> <Gold.PLP.ligand.torsion>
0.9205

> <Gold.PLP.Chemscore.Hbond>
2.9040

> <Gold.PLP.Chemscore.CHOScore>
0.0000

> <Gold.PLP.Chemscore.Metal>
0.0000

> <Gold.Chemscore.Hbonds>
donor molecule, donor type, donor heavy atom, donor atom, acceptor molecule, acceptor atom, score
      L1  H     3    43       P1  7948  0.93
      P1  H  6896  6909       L1    19  0.13
      P1  H  7997  8010       L1     8  1.00
      P1  H 10752 10765       L1    17  0.90

> <Gold.PLP.Chemscore.Internal.Correction>
0.1704

> <Gold.Rescore>
     Score         DG    S(hbond)    S(metal)    S(lipo)     H(rot)  DE(clash)    DE(int)     intcor
     17.27     -18.20       2.15        0.00     109.94       2.86       0.01       0.91       ----

> <Gold.Chemscore.Fitness>
17.2715

> <Gold.Chemscore.DG>
-18.1964

> <Gold.Chemscore.ZeroCoef>
-5.4800

> <Gold.Chemscore.Hbond>
2.1518

> <Gold.Chemscore.Metal>
0.0000

> <Gold.Chemscore.Lipo>
109.9369

> <Gold.Chemscore.Internal_Hbond>
0.0000

> <Gold.Chemscore.DEClash>
0.0139

> <Gold.Chemscore.DEInternal>
0.9110

> <Gold.Chemscore.Rot>
2.8645

> <Gold.Chemscore.Internal.Correction>
   9.000000E+99

> <Gold.Chemscore.Hbonds>
donor molecule, donor type, donor heavy atom, donor atom, acceptor molecule, acceptor atom, score
      L1  H     3    43       P1  7948  0.58
      P1  H  6896  6909       L1    19  0.13
      P1  H  7997  8010       L1     8  0.99
      P1  H 10752 10765       L1    17  0.04

> <Gold.Chemscore.Hbond.Weighted>
-7.1869

> <Gold.Chemscore.Metal.Weighted>
-0.0000

> <Gold.Chemscore.Lipo.Weighted>
-12.8626

> <Gold.Chemscore.Internal_Hbond.Weighted>
0.0000

> <Gold.Chemscore.DEClash.Weighted>
0.0139

> <Gold.Chemscore.DEInternal.Weighted>
0.9110

> <Gold.Chemscore.Rot.Weighted>
7.3331

> <Gold.Chemscore.Internal.Correction.Weighted>
   9.000000E+99

> <Gold.Protein.RotatedTorsions>
[ 6907 6896 6895 6894 ] final  -59.13 input  -60.11 | X-H torsion
[ 7974 7965 7964 7962 ] final -108.30 input  175.53 | X-H torsion
[ 8008 7997 7996 7995 ] final   65.91 input   59.86 | X-H torsion
[ 10167 10162 10161 10158 ] final   99.50 input  -65.29 | X-H torsion
[ 10718 10713 10712 10709 ] final  126.60 input   66.30 | X-H torsion
[ 10763 10752 10751 10750 ] final -135.37 input  -60.55 | X-H torsion
[ 11005 11000 10999 10996 ] final -160.34 input  -57.11 | X-H torsion

> <Gold.Protein.ActiveResidues>
 VAL166  LYS551  ARG553  GLY616  TRP617  ASP618  TYR619  PRO620  LYS621  CYS622 
 ASP623  PHE694  ASN695  SER759  ASP760  ASP761  ALA762  ILE779  LEU786  VAL792 
 PHE793  MET794  SER795  GLU796  ALA797  LYS798  CYS799  TRP800  GLU811  SER814 

> <Gold.Protein.RotatedAtoms>
  150.7954  134.7009  159.6549 H   0  0  0  0  0  0  0  0  0  0  0  0  # atno 6907 bound_to 6896
  152.4065  134.6194  160.0056 H   0  0  0  0  0  0  0  0  0  0  0  0  # atno 6908 bound_to 6896
  151.6450  133.3287  159.3175 H   0  0  0  0  0  0  0  0  0  0  0  0  # atno 6909 bound_to 6896
  145.1946  140.9029  143.3405 H   0  0  0  0  0  0  0  0  0  0  0  0  # atno 7974 bound_to 7965
  155.6691  140.3497  155.4811 H   0  0  0  0  0  0  0  0  0  0  0  0  # atno 8008 bound_to 7997
  155.9703  140.1154  157.0841 H   0  0  0  0  0  0  0  0  0  0  0  0  # atno 8009 bound_to 7997
  154.4165  140.1158  156.5284 H   0  0  0  0  0  0  0  0  0  0  0  0  # atno 8010 bound_to 7997
  139.7612  144.6954  151.0290 H   0  0  0  0  0  0  0  0  0  0  0  0  # atno 10167 bound_to 10162
  157.5405  131.1097  150.8866 H   0  0  0  0  0  0  0  0  0  0  0  0  # atno 10718 bound_to 10713
  154.8704  135.3705  154.4888 H   0  0  0  0  0  0  0  0  0  0  0  0  # atno 10763 bound_to 10752
  153.5536  135.7024  153.5584 H   0  0  0  0  0  0  0  0  0  0  0  0  # atno 10764 bound_to 10752
  153.3692  135.4026  155.1740 H   0  0  0  0  0  0  0  0  0  0  0  0  # atno 10765 bound_to 10752
  140.6325  134.4636  157.5230 H   0  0  0  0  0  0  0  0  0  0  0  0  # atno 11005 bound_to 11000
  145.0008  139.3600  143.6168 LP  0  0  0  0  0  0  0  0  0  0  0  0  # atno 17320 bound_to 7965
  146.3429  139.9230  142.8764 LP  0  0  0  0  0  0  0  0  0  0  0  0  # atno 17321 bound_to 7965
  140.7807  143.4695  151.0165 LP  0  0  0  0  0  0  0  0  0  0  0  0  # atno 17342 bound_to 10162
  139.8381  143.7600  152.3180 LP  0  0  0  0  0  0  0  0  0  0  0  0  # atno 17343 bound_to 10162
  156.9420  130.5388  149.5280 LP  0  0  0  0  0  0  0  0  0  0  0  0  # atno 17370 bound_to 10713
  156.0493  130.5565  150.8953 LP  0  0  0  0  0  0  0  0  0  0  0  0  # atno 17371 bound_to 10713
  139.9110  134.8344  156.1528 LP  0  0  0  0  0  0  0  0  0  0  0  0  # atno 17394 bound_to 11000
  141.0665  133.6817  156.2054 LP  0  0  0  0  0  0  0  0  0  0  0  0  # atno 17395 bound_to 11000

$$$$
