AV-unprocessed.smi:497|AV-procd|sdf|2726|dock3
  -GOLD-   2262023173D 1   1.00000     0.00000
 Structure written by MMmdl.
 38 40  0  0  0  0  0  0  0  0  2 V2000
  148.9768  140.2771  154.0603 C   0  0  0  0  0  0  0  0  0  0  0  0
  150.2422  140.5664  154.6274 O   0  0  0  0  0  0  0  0  0  0  0  0
  150.1686  141.5648  155.6302 C   0  0  0  0  0  0  0  0  0  0  0  0
  149.4630  140.9835  156.8635 C   0  0  0  0  0  0  0  0  0  0  0  0
  150.4208  140.6114  157.9073 N   0  0  0  0  0  0  0  0  0  0  0  0
  150.6320  139.4150  158.5407 C   0  0  0  0  0  0  0  0  0  0  0  0
  149.8658  138.1409  158.2562 C   0  0  0  0  0  0  0  0  0  0  0  0
  149.2224  137.6095  159.4572 N   0  5  0  0  0  0  0  0  0  0  0  0
  148.7794  136.3270  159.5861 C   0  0  0  0  0  0  0  0  0  0  0  0
  148.9313  135.3579  158.8347 O   0  0  0  0  0  0  0  0  0  0  0  0
  147.9487  136.1475  160.7985 C   0  0  0  0  0  0  0  0  0  0  0  0
  147.4698  135.0256  161.4263 C   0  0  0  0  0  0  0  0  0  0  0  0
  146.7194  135.4713  162.5491 C   0  0  0  0  0  0  0  0  0  0  0  0
  146.7829  136.8345  162.5242 C   0  0  0  0  0  0  0  0  0  0  0  0
  147.5210  137.2610  161.4642 O   0  0  0  0  0  0  0  0  0  0  0  0
  151.5965  139.4258  159.4653 N   0  0  0  0  0  0  0  0  0  0  0  0
  152.0461  140.7299  159.4391 C   0  0  0  0  0  0  0  0  0  0  0  0
  153.0578  141.3673  160.1927 C   0  0  0  0  0  0  0  0  0  0  0  0
  153.3453  142.7330  159.9906 C   0  0  0  0  0  0  0  0  0  0  0  0
  152.6267  143.4787  159.0340 C   0  0  0  0  0  0  0  0  0  0  0  0
  151.6155  142.8615  158.2728 C   0  0  0  0  0  0  0  0  0  0  0  0
  151.3328  141.4971  158.4774 C   0  0  0  0  0  0  0  0  0  0  0  0
  149.0864  139.5134  153.2904 H   0  0  0  0  0  0  0  0  0  0  0  0
  148.5403  141.1632  153.5979 H   0  0  0  0  0  0  0  0  0  0  0  0
  148.2849  139.8974  154.8135 H   0  0  0  0  0  0  0  0  0  0  0  0
  151.1704  141.9081  155.8921 H   0  0  0  0  0  0  0  0  0  0  0  0
  149.6210  142.4290  155.2534 H   0  0  0  0  0  0  0  0  0  0  0  0
  148.7307  141.6896  157.2540 H   0  0  0  0  0  0  0  0  0  0  0  0
  148.8933  140.0978  156.5816 H   0  0  0  0  0  0  0  0  0  0  0  0
  149.1586  138.3594  157.4547 H   0  0  0  0  0  0  0  0  0  0  0  0
  150.5543  137.4101  157.8301 H   0  0  0  0  0  0  0  0  0  0  0  0
  147.6437  134.0054  161.1162 H   0  0  0  0  0  0  0  0  0  0  0  0
  146.1978  134.8709  163.2796 H   0  0  0  0  0  0  0  0  0  0  0  0
  146.3804  137.6170  163.1502 H   0  0  0  0  0  0  0  0  0  0  0  0
  153.6123  140.8039  160.9282 H   0  0  0  0  0  0  0  0  0  0  0  0
  154.1197  143.2103  160.5727 H   0  0  0  0  0  0  0  0  0  0  0  0
  152.8514  144.5247  158.8855 H   0  0  0  0  0  0  0  0  0  0  0  0
  151.0618  143.4303  157.5408 H   0  0  0  0  0  0  0  0  0  0  0  0
  1  2  1  0  0  0  0
  1 23  1  0  0  0  0
  1 24  1  0  0  0  0
  1 25  1  0  0  0  0
  2  3  1  0  0  0  0
  3  4  1  0  0  0  0
  3 26  1  0  0  0  0
  3 27  1  0  0  0  0
  4  5  1  0  0  0  0
  4 28  1  0  0  0  0
  4 29  1  0  0  0  0
  5 22  1  0  0  0  0
  5  6  1  0  0  0  0
  6  7  1  0  0  0  0
  6 16  2  0  0  0  0
  7  8  1  0  0  0  0
  7 30  1  0  0  0  0
  7 31  1  0  0  0  0
  8  9  1  0  0  0  0
  9 10  2  0  0  0  0
  9 11  1  0  0  0  0
 11 15  1  0  0  0  0
 11 12  2  0  0  0  0
 12 13  1  0  0  0  0
 12 32  1  0  0  0  0
 13 14  2  0  0  0  0
 13 33  1  0  0  0  0
 14 15  1  0  0  0  0
 14 34  1  0  0  0  0
 16 17  1  0  0  0  0
 17 22  2  0  0  0  0
 17 18  1  0  0  0  0
 18 19  2  0  0  0  0
 18 35  1  0  0  0  0
 19 20  1  0  0  0  0
 19 36  1  0  0  0  0
 20 21  2  0  0  0  0
 20 37  1  0  0  0  0
 21 22  1  0  0  0  0
 21 38  1  0  0  0  0
M  CHG  1   8  -1
M  END
> <s_m_source_file>
AV-unprocessed.smi

> <i_m_source_file_index>
497

> <i_lp_mmshare_version>
43012

> <i_f3d_flags>
0

> <s_epik_input>
W2NIXTFbY0hdW2NIXVtjSF1jKGMxMiluKFtDSDJdW0NIMl1PW0NIM10pYyhuMilbQ0gyXVtOSF1DKD1PKWMzW2NIXVtjSF1bY0hdbzM=

> <s_epik_cmdline>
J2VwaWtfcHl0aG9uJywgJy1waCcsICc3LjAnLCAnLXRuJywgJzgnLCAnLW1hJywgJzIwMCcsICctbWV0YWxfYmluZGluZycsICctaW1hZScsICc8aW5maWxlLm1hZT4nLCAnLW9tYWUnLCAnPG91dGZpbGUubWFlPic=

> <r_epik_Ionization_Penalty>
7.1745

> <r_epik_Ionization_Penalty_Charging>
6.27046

> <r_epik_Ionization_Penalty_Neutral>
0.90404

> <r_epik_State_Penalty>
6.33612

> <r_epik_Charging_Adjusted_Penalty>
12.6066

> <i_epik_Tot_Q>
-1

> <i_epik_Tot_abs_Q>
1

> <r_epik_Metal_State_Penalty>
2.33688

> <b_epik_Metal_Only>
1

> <s_lp_Force_Field>
OPLS_2005

> <r_lp_Energy>
18.2002

> <b_lp_Chiralities_Consistent>
1

> <s_lp_Variant>
AV-unprocessed.smi:497-3

> <Gold.Version>
5.8.1

> <Gold.Id.Protein>
6NUR|6NUR_protein|mol2

> <Gold.PLP.Fitness>
57.2099

> <Gold.PLP.PLP>
-47.3138

> <Gold.PLP.part.hbond>
-5.0000

> <Gold.PLP.part.metal>
0.0000

> <Gold.PLP.part.buried>
-4.5100

> <Gold.PLP.part.nonpolar>
-38.5156

> <Gold.PLP.part.repulsive>
0.1025

> <Gold.PLP.ligand.clash>
0.0000

> <Gold.PLP.ligand.torsion>
0.5603

> <Gold.PLP.Chemscore.Hbond>
3.6320

> <Gold.PLP.Chemscore.CHOScore>
0.0000

> <Gold.PLP.Chemscore.Metal>
0.0000

> <Gold.Chemscore.Hbonds>
donor molecule, donor type, donor heavy atom, donor atom, acceptor molecule, acceptor atom, score
      P1  H  6896  6908       L1    10  0.91
      P1  H  6931  6943       L1    15  0.91
      P1  H  6934  6947       L1    15  0.85
      P1  H  7989  7998       L1     2  0.91

> <Gold.PLP.Chemscore.Internal.Correction>
0.1207

> <Gold.Rescore>
     Score         DG    S(hbond)    S(metal)    S(lipo)     H(rot)  DE(clash)    DE(int)     intcor
     23.49     -24.33       3.01        0.00     115.34       1.83       0.26       0.58       ----

> <Gold.Chemscore.Fitness>
23.4945

> <Gold.Chemscore.DG>
-24.3342

> <Gold.Chemscore.ZeroCoef>
-5.4800

> <Gold.Chemscore.Hbond>
3.0104

> <Gold.Chemscore.Metal>
0.0000

> <Gold.Chemscore.Lipo>
115.3362

> <Gold.Chemscore.Internal_Hbond>
0.0000

> <Gold.Chemscore.DEClash>
0.2591

> <Gold.Chemscore.DEInternal>
0.5806

> <Gold.Chemscore.Rot>
1.8339

> <Gold.Chemscore.Internal.Correction>
   9.000000E+99

> <Gold.Chemscore.Hbonds>
donor molecule, donor type, donor heavy atom, donor atom, acceptor molecule, acceptor atom, score
      P1  H  6896  6908       L1    10  0.20
      P1  H  6931  6943       L1    15  0.52
      P1  H  6934  6947       L1    15  0.75
      P1  H  7989  7998       L1     2  0.66

> <Gold.Chemscore.Hbond.Weighted>
-10.0546

> <Gold.Chemscore.Metal.Weighted>
-0.0000

> <Gold.Chemscore.Lipo.Weighted>
-13.4943

> <Gold.Chemscore.Internal_Hbond.Weighted>
0.0000

> <Gold.Chemscore.DEClash.Weighted>
0.2591

> <Gold.Chemscore.DEInternal.Weighted>
0.5806

> <Gold.Chemscore.Rot.Weighted>
4.6948

> <Gold.Chemscore.Internal.Correction.Weighted>
   9.000000E+99

> <Gold.Protein.RotatedTorsions>
[ 6907 6896 6895 6894 ] final  174.35 input  -60.11 | X-H torsion
[ 7974 7965 7964 7962 ] final   84.23 input  175.53 | X-H torsion
[ 8008 7997 7996 7995 ] final -154.27 input   59.86 | X-H torsion
[ 10167 10162 10161 10158 ] final   54.53 input  -65.29 | X-H torsion
[ 10718 10713 10712 10709 ] final  -80.63 input   66.30 | X-H torsion
[ 10763 10752 10751 10750 ] final  152.33 input  -60.55 | X-H torsion
[ 11005 11000 10999 10996 ] final  108.13 input  -57.11 | X-H torsion

> <Gold.Protein.ActiveResidues>
 VAL166  LYS551  ARG553  GLY616  TRP617  ASP618  TYR619  PRO620  LYS621  CYS622 
 ASP623  PHE694  ASN695  SER759  ASP760  ASP761  ALA762  ILE779  LEU786  VAL792 
 PHE793  MET794  SER795  GLU796  ALA797  LYS798  CYS799  TRP800  GLU811  SER814 

> <Gold.Protein.RotatedAtoms>
  151.7536  133.3329  159.3398 H   0  0  0  0  0  0  0  0  0  0  0  0  # atno 6907 bound_to 6896
  150.7525  134.6169  159.6125 H   0  0  0  0  0  0  0  0  0  0  0  0  # atno 6908 bound_to 6896
  152.3452  134.7083  160.0304 H   0  0  0  0  0  0  0  0  0  0  0  0  # atno 6909 bound_to 6896
  145.6015  139.2353  143.2243 H   0  0  0  0  0  0  0  0  0  0  0  0  # atno 7974 bound_to 7965
  155.6838  140.0747  157.2474 H   0  0  0  0  0  0  0  0  0  0  0  0  # atno 8008 bound_to 7997
  154.4100  140.1677  156.2064 H   0  0  0  0  0  0  0  0  0  0  0  0  # atno 8009 bound_to 7997
  155.9511  140.3377  155.6412 H   0  0  0  0  0  0  0  0  0  0  0  0  # atno 8010 bound_to 7997
  140.2291  144.3706  150.6421 H   0  0  0  0  0  0  0  0  0  0  0  0  # atno 10167 bound_to 10162
  156.0066  130.4580  150.3829 H   0  0  0  0  0  0  0  0  0  0  0  0  # atno 10718 bound_to 10713
  154.1183  135.2834  155.3214 H   0  0  0  0  0  0  0  0  0  0  0  0  # atno 10763 bound_to 10752
  154.6441  135.5392  153.7827 H   0  0  0  0  0  0  0  0  0  0  0  0  # atno 10764 bound_to 10752
  153.0322  135.6494  154.1338 H   0  0  0  0  0  0  0  0  0  0  0  0  # atno 10765 bound_to 10752
  139.8839  134.9421  156.5925 H   0  0  0  0  0  0  0  0  0  0  0  0  # atno 11005 bound_to 11000
  146.1573  140.6840  142.9294 LP  0  0  0  0  0  0  0  0  0  0  0  0  # atno 17320 bound_to 7965
  144.7308  140.4665  143.6939 LP  0  0  0  0  0  0  0  0  0  0  0  0  # atno 17321 bound_to 7965
  140.6198  143.2175  151.6716 LP  0  0  0  0  0  0  0  0  0  0  0  0  # atno 17342 bound_to 10162
  139.5116  144.3502  152.0659 LP  0  0  0  0  0  0  0  0  0  0  0  0  # atno 17343 bound_to 10162
  157.1908  131.0415  151.2701 LP  0  0  0  0  0  0  0  0  0  0  0  0  # atno 17370 bound_to 10713
  157.4063  130.7360  149.6805 LP  0  0  0  0  0  0  0  0  0  0  0  0  # atno 17371 bound_to 10713
  140.7945  133.8555  155.8674 LP  0  0  0  0  0  0  0  0  0  0  0  0  # atno 17394 bound_to 11000
  140.9648  134.1609  157.4625 LP  0  0  0  0  0  0  0  0  0  0  0  0  # atno 17395 bound_to 11000

$$$$
