AV-unprocessed.smi:290|AV-procd|sdf|2230|dock1
  -GOLD-   2262022 93D 1   1.00000     0.00000
 Structure written by MMmdl.
 59 62  0  0  0  0  0  0  0  0  2 V2000
  153.3688  142.5598  160.2433 C   0  0  0  0  0  0  0  0  0  0  0  0
  151.9856  143.2236  160.1602 C   0  0  1  0  0  0  0  0  0  0  0  0
  152.1221  144.4712  160.8425 O   0  0  0  0  0  0  0  0  0  0  0  0
  151.4103  145.4843  160.1539 C   0  0  0  0  0  0  0  0  0  0  0  0
  151.5832  145.0884  158.6958 C   0  0  0  0  0  0  0  0  0  0  0  0
  151.4462  143.5715  158.7409 C   0  0  2  0  0  0  0  0  0  0  0  0
  150.0582  143.2836  158.7203 O   0  0  0  0  0  0  0  0  0  0  0  0
  152.1006  142.8930  157.5040 C   0  0  0  0  0  0  0  0  0  0  0  0
  151.7561  141.4911  157.2849 N   0  0  0  0  0  0  0  0  0  0  0  0
  152.2338  140.3859  157.9568 C   0  0  0  0  0  0  0  0  0  0  0  0
  151.7384  139.2410  157.5740 N   0  0  0  0  0  0  0  0  0  0  0  0
  150.8281  139.5775  156.5805 C   0  0  0  0  0  0  0  0  0  0  0  0
  149.9412  138.8305  155.7524 C   0  0  0  0  0  0  0  0  0  0  0  0
  149.8558  137.4742  155.7954 N   0  0  0  0  0  0  0  0  0  0  0  0
  151.1157  136.7336  155.7749 C   0  0  0  0  0  0  0  0  0  0  0  0
  150.8636  135.4651  154.9532 C   0  0  0  0  0  0  0  0  0  0  0  0
  149.3430  135.2972  155.0409 C   0  0  2  0  0  0  0  0  0  0  0  0
  148.7231  134.4227  154.0042 N   0  3  2  0  0  0  0  0  0  0  0  0
  147.2735  134.2247  154.2410 C   0  0  0  0  0  0  0  0  0  0  0  0
  149.4374  133.1464  153.7257 C   0  0  0  0  0  0  0  0  0  0  0  0
  148.5499  132.1497  152.9631 C   0  0  0  0  0  0  0  0  0  0  0  0
  148.1980  132.6818  151.7030 O   0  0  0  0  0  0  0  0  0  0  0  0
  148.8355  136.7460  155.0411 C   0  0  1  0  0  0  0  0  0  0  0  0
  147.4308  136.8887  155.6540 C   0  0  0  0  0  0  0  0  0  0  0  0
  149.1607  139.5310  154.8874 N   0  0  0  0  0  0  0  0  0  0  0  0
  149.2412  140.8630  154.8281 C   0  0  0  0  0  0  0  0  0  0  0  0
  150.0244  141.6824  155.5305 N   0  0  0  0  0  0  0  0  0  0  0  0
  150.8112  140.9900  156.4034 C   0  0  0  0  0  0  0  0  0  0  0  0
  149.1136  134.8763  156.0223 H   0  0  0  0  0  0  0  0  0  0  0  0
  148.8198  137.1384  154.0252 H   0  0  0  0  0  0  0  0  0  0  0  0
  153.3383  141.5245  159.9106 H   0  0  0  0  0  0  0  0  0  0  0  0
  153.7240  142.5432  161.2738 H   0  0  0  0  0  0  0  0  0  0  0  0
  154.1095  143.0957  159.6494 H   0  0  0  0  0  0  0  0  0  0  0  0
  151.2696  142.6070  160.7067 H   0  0  0  0  0  0  0  0  0  0  0  0
  150.3599  145.4591  160.4475 H   0  0  0  0  0  0  0  0  0  0  0  0
  151.8073  146.4754  160.3738 H   0  0  0  0  0  0  0  0  0  0  0  0
  150.8686  145.5769  158.0317 H   0  0  0  0  0  0  0  0  0  0  0  0
  152.5856  145.3685  158.3684 H   0  0  0  0  0  0  0  0  0  0  0  0
  149.6068  144.0105  158.3189 H   0  0  0  0  0  0  0  0  0  0  0  0
  151.8359  143.4415  156.5991 H   0  0  0  0  0  0  0  0  0  0  0  0
  153.1854  142.9687  157.5830 H   0  0  0  0  0  0  0  0  0  0  0  0
  152.9648  140.4431  158.7488 H   0  0  0  0  0  0  0  0  0  0  0  0
  151.9360  137.3162  155.3523 H   0  0  0  0  0  0  0  0  0  0  0  0
  151.3813  136.4745  156.8003 H   0  0  0  0  0  0  0  0  0  0  0  0
  151.1923  135.6403  153.9289 H   0  0  0  0  0  0  0  0  0  0  0  0
  151.4101  134.6030  155.3363 H   0  0  0  0  0  0  0  0  0  0  0  0
  147.1000  133.6693  155.1636 H   0  0  0  0  0  0  0  0  0  0  0  0
  146.8092  133.6752  153.4227 H   0  0  0  0  0  0  0  0  0  0  0  0
  146.7588  135.1829  154.3188 H   0  0  0  0  0  0  0  0  0  0  0  0
  150.3420  133.3097  153.1418 H   0  0  0  0  0  0  0  0  0  0  0  0
  149.7701  132.7059  154.6669 H   0  0  0  0  0  0  0  0  0  0  0  0
  149.0904  131.2167  152.8009 H   0  0  0  0  0  0  0  0  0  0  0  0
  147.6471  131.9001  153.5199 H   0  0  0  0  0  0  0  0  0  0  0  0
  148.4343  132.0583  151.0325 H   0  0  0  0  0  0  0  0  0  0  0  0
  146.7010  136.3037  155.0937 H   0  0  0  0  0  0  0  0  0  0  0  0
  147.0896  137.9236  155.6476 H   0  0  0  0  0  0  0  0  0  0  0  0
  147.4119  136.5419  156.6877 H   0  0  0  0  0  0  0  0  0  0  0  0
  148.5867  141.3406  154.1138 H   0  0  0  0  0  0  0  0  0  0  0  0
  148.7881  134.9564  153.1485 H   0  0  0  0  0  0  0  0  0  0  0  0
  1  2  1  0  0  0  0
  1 31  1  0  0  0  0
  1 32  1  0  0  0  0
  1 33  1  0  0  0  0
  2  6  1  0  0  0  0
  2  3  1  0  0  0  0
  2 34  1  0  0  0  0
  3  4  1  0  0  0  0
  4  5  1  0  0  0  0
  4 35  1  0  0  0  0
  4 36  1  0  0  0  0
  5  6  1  0  0  0  0
  5 37  1  0  0  0  0
  5 38  1  0  0  0  0
  6  7  1  0  0  0  0
  6  8  1  0  0  0  0
  7 39  1  0  0  0  0
  8  9  1  0  0  0  0
  8 40  1  0  0  0  0
  8 41  1  0  0  0  0
  9 28  1  0  0  0  0
  9 10  1  0  0  0  0
 10 11  2  0  0  0  0
 10 42  1  0  0  0  0
 11 12  1  0  0  0  0
 12 28  2  0  0  0  0
 12 13  1  0  0  0  0
 13 14  1  0  0  0  0
 13 25  2  0  0  0  0
 14 23  1  0  0  0  0
 14 15  1  0  0  0  0
 15 16  1  0  0  0  0
 15 43  1  0  0  0  0
 15 44  1  0  0  0  0
 16 17  1  0  0  0  0
 16 45  1  0  0  0  0
 16 46  1  0  0  0  0
 17 29  1  0  0  0  0
 17 18  1  0  0  0  0
 17 23  1  0  0  0  0
 18 19  1  0  0  0  0
 18 20  1  0  0  0  0
 18 59  1  0  0  0  0
 19 47  1  0  0  0  0
 19 48  1  0  0  0  0
 19 49  1  0  0  0  0
 20 21  1  0  0  0  0
 20 50  1  0  0  0  0
 20 51  1  0  0  0  0
 21 22  1  0  0  0  0
 21 52  1  0  0  0  0
 21 53  1  0  0  0  0
 22 54  1  0  0  0  0
 23 30  1  0  0  0  0
 23 24  1  0  0  0  0
 24 55  1  0  0  0  0
 24 56  1  0  0  0  0
 24 57  1  0  0  0  0
 25 26  1  0  0  0  0
 26 27  2  0  0  0  0
 26 58  1  0  0  0  0
 27 28  1  0  0  0  0
M  CHG  1  18   1
M  END
> <s_m_source_file>
AV-unprocessed.smi

> <i_m_source_file_index>
290

> <i_lp_mmshare_version>
43012

> <i_f3d_flags>
0

> <s_epik_input>
W0NIMl0xW0NIMl1PW0NAQEhdKFtDSDNdKVtDQEBdMShbT0hdKVtDSDJdbihbY0hdbjIpYyhjMjMpbltjSF1uYzNONFtDSDJdW0NIMl1bQ0BIXShbQ0BIXTRbQ0gzXSlOKFtDSDNdKVtDSDJdW0NIMl1bT0hd

> <s_epik_cmdline>
J2VwaWtfcHl0aG9uJywgJy1waCcsICc3LjAnLCAnLXRuJywgJzgnLCAnLW1hJywgJzIwMCcsICctbWV0YWxfYmluZGluZycsICctaW1hZScsICc8aW5maWxlLm1hZT4nLCAnLW9tYWUnLCAnPG91dGZpbGUubWFlPic=

> <r_lp_tautomer_probability>
1

> <r_epik_Ionization_Penalty>
0.0036983

> <r_epik_Ionization_Penalty_Charging>
0.0032725

> <r_epik_Ionization_Penalty_Neutral>
0.000425798

> <r_epik_State_Penalty>
-0

> <r_epik_Charging_Adjusted_Penalty>
0.0032725

> <i_epik_Tot_Q>
1

> <i_epik_Tot_abs_Q>
1

> <r_epik_Metal_State_Penalty>
-0

> <b_epik_Metal_Only>
0

> <s_lp_Force_Field>
OPLS_2005

> <r_lp_Energy>
62.8721

> <b_lp_Chiralities_Consistent>
1

> <s_lp_Variant>
AV-unprocessed.smi:290-16

> <Gold.Version>
5.8.1

> <Gold.Id.Protein>
6NUR|6NUR_protein|mol2

> <Gold.PLP.Fitness>
50.2386

> <Gold.PLP.PLP>
-42.4513

> <Gold.PLP.part.hbond>
-2.0297

> <Gold.PLP.part.metal>
0.0000

> <Gold.PLP.part.buried>
-5.8189

> <Gold.PLP.part.nonpolar>
-33.7321

> <Gold.PLP.part.repulsive>
0.3735

> <Gold.PLP.ligand.clash>
0.0000

> <Gold.PLP.ligand.torsion>
0.9376

> <Gold.PLP.Chemscore.Hbond>
3.0000

> <Gold.PLP.Chemscore.CHOScore>
0.0000

> <Gold.PLP.Chemscore.Metal>
0.0000

> <Gold.Chemscore.Hbonds>
donor molecule, donor type, donor heavy atom, donor atom, acceptor molecule, acceptor atom, score
      L1  H    18    59       P1  7948  2.00
      L1  H    22    54       P1 10747  0.94

> <Gold.PLP.Chemscore.Internal.Correction>
0.6625

> <Gold.Rescore>
     Score         DG    S(hbond)    S(metal)    S(lipo)     H(rot)  DE(clash)    DE(int)     intcor
     11.41     -13.65       1.85        0.00      97.30       3.67       0.33       1.92       ----

> <Gold.Chemscore.Fitness>
11.4050

> <Gold.Chemscore.DG>
-13.6522

> <Gold.Chemscore.ZeroCoef>
-5.4800

> <Gold.Chemscore.Hbond>
1.8480

> <Gold.Chemscore.Metal>
0.0000

> <Gold.Chemscore.Lipo>
97.3005

> <Gold.Chemscore.Internal_Hbond>
0.0000

> <Gold.Chemscore.DEClash>
0.3270

> <Gold.Chemscore.DEInternal>
1.9202

> <Gold.Chemscore.Rot>
3.6658

> <Gold.Chemscore.Internal.Correction>
   9.000000E+99

> <Gold.Chemscore.Hbonds>
donor molecule, donor type, donor heavy atom, donor atom, acceptor molecule, acceptor atom, score
      L1  H    18    59       P1  7948  0.35
      L1  H    22    54       P1 10747  0.90

> <Gold.Chemscore.Hbond.Weighted>
-6.1725

> <Gold.Chemscore.Metal.Weighted>
-0.0000

> <Gold.Chemscore.Lipo.Weighted>
-11.3842

> <Gold.Chemscore.Internal_Hbond.Weighted>
0.0000

> <Gold.Chemscore.DEClash.Weighted>
0.3270

> <Gold.Chemscore.DEInternal.Weighted>
1.9202

> <Gold.Chemscore.Rot.Weighted>
9.3844

> <Gold.Chemscore.Internal.Correction.Weighted>
   9.000000E+99

> <Gold.Protein.RotatedTorsions>
[ 6907 6896 6895 6894 ] final -159.13 input  -60.11 | X-H torsion
[ 7974 7965 7964 7962 ] final -138.82 input  175.53 | X-H torsion
[ 8008 7997 7996 7995 ] final  127.88 input   59.86 | X-H torsion
[ 10167 10162 10161 10158 ] final  141.59 input  -65.29 | X-H torsion
[ 10718 10713 10712 10709 ] final  160.56 input   66.30 | X-H torsion
[ 10763 10752 10751 10750 ] final   61.92 input  -60.55 | X-H torsion
[ 11005 11000 10999 10996 ] final  -58.65 input  -57.11 | X-H torsion

> <Gold.Protein.ActiveResidues>
 VAL166  LYS551  ARG553  GLY616  TRP617  ASP618  TYR619  PRO620  LYS621  CYS622 
 ASP623  PHE694  ASN695  SER759  ASP760  ASP761  ALA762  ILE779  LEU786  VAL792 
 PHE793  MET794  SER795  GLU796  ALA797  LYS798  CYS799  TRP800  GLU811  SER814 

> <Gold.Protein.RotatedAtoms>
  151.3288  133.4009  159.2660 H   0  0  0  0  0  0  0  0  0  0  0  0  # atno 6907 bound_to 6896
  150.9973  134.9294  159.7944 H   0  0  0  0  0  0  0  0  0  0  0  0  # atno 6908 bound_to 6896
  152.5265  134.3253  159.9215 H   0  0  0  0  0  0  0  0  0  0  0  0  # atno 6909 bound_to 6896
  144.8727  140.6390  143.5257 H   0  0  0  0  0  0  0  0  0  0  0  0  # atno 7974 bound_to 7965
  156.2902  140.2658  156.2345 H   0  0  0  0  0  0  0  0  0  0  0  0  # atno 8008 bound_to 7997
  155.0039  140.0387  157.2389 H   0  0  0  0  0  0  0  0  0  0  0  0  # atno 8009 bound_to 7997
  154.7577  140.2755  155.6244 H   0  0  0  0  0  0  0  0  0  0  0  0  # atno 8010 bound_to 7997
  139.5016  144.6161  151.6159 H   0  0  0  0  0  0  0  0  0  0  0  0  # atno 10167 bound_to 10162
  157.1487  131.0558  151.2291 H   0  0  0  0  0  0  0  0  0  0  0  0  # atno 10718 bound_to 10713
  152.9966  135.5483  154.6110 H   0  0  0  0  0  0  0  0  0  0  0  0  # atno 10763 bound_to 10752
  154.5431  135.2821  155.1080 H   0  0  0  0  0  0  0  0  0  0  0  0  # atno 10764 bound_to 10752
  154.2349  135.6427  153.5240 H   0  0  0  0  0  0  0  0  0  0  0  0  # atno 10765 bound_to 10752
  141.1216  133.6613  156.4952 H   0  0  0  0  0  0  0  0  0  0  0  0  # atno 11005 bound_to 11000
  145.4101  139.1582  143.4130 LP  0  0  0  0  0  0  0  0  0  0  0  0  # atno 17320 bound_to 7965
  146.2941  140.4204  142.8728 LP  0  0  0  0  0  0  0  0  0  0  0  0  # atno 17321 bound_to 7965
  140.5850  143.9880  150.6290 LP  0  0  0  0  0  0  0  0  0  0  0  0  # atno 17342 bound_to 10162
  140.3041  143.3241  152.0943 LP  0  0  0  0  0  0  0  0  0  0  0  0  # atno 17343 bound_to 10162
  157.4240  130.7453  149.6936 LP  0  0  0  0  0  0  0  0  0  0  0  0  # atno 17370 bound_to 10713
  155.9774  130.4063  150.3712 LP  0  0  0  0  0  0  0  0  0  0  0  0  # atno 17371 bound_to 10713
  140.4490  134.6946  157.5030 LP  0  0  0  0  0  0  0  0  0  0  0  0  # atno 17394 bound_to 11000
  140.0178  134.6593  155.9284 LP  0  0  0  0  0  0  0  0  0  0  0  0  # atno 17395 bound_to 11000

$$$$
