AV-unprocessed.smi:81|AV-procd|sdf|788|dock2
  -GOLD-   2262017153D 1   1.00000     0.00000
 Structure written by MMmdl.
 64 67  0  0  0  0  0  0  0  0  2 V2000
  149.5839  139.3777  154.5141 C   0  0  0  0  0  0  0  0  0  0  0  0
  150.0075  138.1155  155.2835 C   0  0  0  0  0  0  0  0  0  0  0  0
  150.9970  137.2865  154.4530 C   0  0  0  0  0  0  0  0  0  0  0  0
  148.7905  137.2532  155.6891 C   0  0  0  0  0  0  0  0  0  0  0  0
  149.1460  135.9598  156.2803 N   0  0  0  0  0  0  0  0  0  0  0  0
  148.9240  134.8898  155.4767 C   0  0  0  0  0  0  0  0  0  0  0  0
  149.9366  134.0279  155.1948 N   0  0  0  0  0  0  0  0  0  0  0  0
  149.7125  132.9644  154.4170 C   0  0  0  0  0  0  0  0  0  0  0  0
  148.5743  132.5821  153.8342 N   0  0  0  0  0  0  0  0  0  0  0  0
  147.5543  133.4391  154.1265 C   0  0  0  0  0  0  0  0  0  0  0  0
  147.6437  134.6089  154.9304 C   0  0  0  0  0  0  0  0  0  0  0  0
  146.4051  135.2329  155.0062 N   0  0  0  0  0  0  0  0  0  0  0  0
  145.6249  134.4725  154.2878 C   0  0  0  0  0  0  0  0  0  0  0  0
  146.2308  133.3692  153.7293 N   0  0  0  0  0  0  0  0  0  0  0  0
  145.5988  132.3555  152.9002 C   0  0  0  0  0  0  0  0  0  0  0  0
  145.6696  132.6704  151.3870 C   0  0  1  0  0  0  0  0  0  0  0  0
  147.0319  132.8126  151.0177 O   0  0  0  0  0  0  0  0  0  0  0  0
  145.0372  131.6079  150.5002 C   0  0  0  0  0  0  0  0  0  0  0  0
  144.7058  132.3882  149.2342 C   0  0  0  0  0  0  0  0  0  0  0  0
  144.3325  133.6831  149.6883 O   0  0  0  0  0  0  0  0  0  0  0  0
  144.8619  133.9255  150.9914 C   0  0  2  0  0  0  0  0  0  0  0  0
  145.6072  135.2688  151.0427 C   0  0  0  0  0  0  0  0  0  0  0  0
  148.8277  135.7810  157.7043 C   0  0  2  0  0  0  0  0  0  0  0  0
  147.4434  135.1485  157.9596 C   0  0  0  0  0  0  0  0  0  0  0  0
  147.2178  134.9119  159.4616 C   0  0  0  0  0  0  0  0  0  0  0  0
  147.3591  136.1765  160.2252 N   0  3  1  0  0  0  0  0  0  0  0  0
  147.0237  136.0112  161.6557 C   0  0  0  0  0  0  0  0  0  0  0  0
  148.6908  136.8008  160.0260 C   0  0  0  0  0  0  0  0  0  0  0  0
  148.9573  137.0753  158.5366 C   0  0  0  0  0  0  0  0  0  0  0  0
  149.0478  139.1227  153.5995 H   0  0  0  0  0  0  0  0  0  0  0  0
  150.4513  139.9766  154.2353 H   0  0  0  0  0  0  0  0  0  0  0  0
  148.9321  140.0123  155.1146 H   0  0  0  0  0  0  0  0  0  0  0  0
  150.5392  138.4316  156.1817 H   0  0  0  0  0  0  0  0  0  0  0  0
  150.5399  136.9328  153.5281 H   0  0  0  0  0  0  0  0  0  0  0  0
  151.3418  136.4142  155.0092 H   0  0  0  0  0  0  0  0  0  0  0  0
  151.8760  137.8742  154.1872 H   0  0  0  0  0  0  0  0  0  0  0  0
  148.1795  137.8108  156.4001 H   0  0  0  0  0  0  0  0  0  0  0  0
  148.1559  137.0848  154.8180 H   0  0  0  0  0  0  0  0  0  0  0  0
  150.5655  132.3263  154.2390 H   0  0  0  0  0  0  0  0  0  0  0  0
  144.5761  134.6928  154.1515 H   0  0  0  0  0  0  0  0  0  0  0  0
  146.0849  131.4018  153.1107 H   0  0  0  0  0  0  0  0  0  0  0  0
  144.5606  132.2448  153.2160 H   0  0  0  0  0  0  0  0  0  0  0  0
  147.3658  131.9634  150.7719 H   0  0  0  0  0  0  0  0  0  0  0  0
  145.6810  130.7464  150.3166 H   0  0  0  0  0  0  0  0  0  0  0  0
  144.1120  131.2450  150.9499 H   0  0  0  0  0  0  0  0  0  0  0  0
  145.5870  132.4779  148.5978 H   0  0  0  0  0  0  0  0  0  0  0  0
  143.9113  131.9235  148.6501 H   0  0  0  0  0  0  0  0  0  0  0  0
  143.9916  133.9966  151.6453 H   0  0  0  0  0  0  0  0  0  0  0  0
  146.0206  135.4499  152.0351 H   0  0  0  0  0  0  0  0  0  0  0  0
  144.9324  136.0925  150.8093 H   0  0  0  0  0  0  0  0  0  0  0  0
  146.4260  135.3040  150.3237 H   0  0  0  0  0  0  0  0  0  0  0  0
  149.5678  135.0750  158.0837 H   0  0  0  0  0  0  0  0  0  0  0  0
  146.6483  135.7930  157.5820 H   0  0  0  0  0  0  0  0  0  0  0  0
  147.3607  134.2010  157.4261 H   0  0  0  0  0  0  0  0  0  0  0  0
  146.2203  134.4990  159.6178 H   0  0  0  0  0  0  0  0  0  0  0  0
  147.9289  134.1744  159.8374 H   0  0  0  0  0  0  0  0  0  0  0  0
  147.7215  135.3310  162.1460 H   0  0  0  0  0  0  0  0  0  0  0  0
  146.0160  135.6107  161.7716 H   0  0  0  0  0  0  0  0  0  0  0  0
  147.0605  136.9705  162.1729 H   0  0  0  0  0  0  0  0  0  0  0  0
  148.7415  137.7378  160.5820 H   0  0  0  0  0  0  0  0  0  0  0  0
  149.4656  136.1485  160.4319 H   0  0  0  0  0  0  0  0  0  0  0  0
  149.9528  137.5052  158.4236 H   0  0  0  0  0  0  0  0  0  0  0  0
  148.2516  137.8278  158.1840 H   0  0  0  0  0  0  0  0  0  0  0  0
  146.6794  136.8198  159.8448 H   0  0  0  0  0  0  0  0  0  0  0  0
  1  2  1  0  0  0  0
  1 30  1  0  0  0  0
  1 31  1  0  0  0  0
  1 32  1  0  0  0  0
  2  3  1  0  0  0  0
  2  4  1  0  0  0  0
  2 33  1  0  0  0  0
  3 34  1  0  0  0  0
  3 35  1  0  0  0  0
  3 36  1  0  0  0  0
  4  5  1  0  0  0  0
  4 37  1  0  0  0  0
  4 38  1  0  0  0  0
  5  6  1  0  0  0  0
  5 23  1  0  0  0  0
  6 11  1  0  0  0  0
  6  7  2  0  0  0  0
  7  8  1  0  0  0  0
  8  9  2  0  0  0  0
  8 39  1  0  0  0  0
  9 10  1  0  0  0  0
 10 14  1  0  0  0  0
 10 11  2  0  0  0  0
 11 12  1  0  0  0  0
 12 13  2  0  0  0  0
 13 14  1  0  0  0  0
 13 40  1  0  0  0  0
 14 15  1  0  0  0  0
 15 16  1  0  0  0  0
 15 41  1  0  0  0  0
 15 42  1  0  0  0  0
 16 21  1  0  0  0  0
 16 17  1  0  0  0  0
 16 18  1  0  0  0  0
 17 43  1  0  0  0  0
 18 19  1  0  0  0  0
 18 44  1  0  0  0  0
 18 45  1  0  0  0  0
 19 20  1  0  0  0  0
 19 46  1  0  0  0  0
 19 47  1  0  0  0  0
 20 21  1  0  0  0  0
 21 22  1  0  0  0  0
 21 48  1  0  0  0  0
 22 49  1  0  0  0  0
 22 50  1  0  0  0  0
 22 51  1  0  0  0  0
 23 29  1  0  0  0  0
 23 24  1  0  0  0  0
 23 52  1  0  0  0  0
 24 25  1  0  0  0  0
 24 53  1  0  0  0  0
 24 54  1  0  0  0  0
 25 26  1  0  0  0  0
 25 55  1  0  0  0  0
 25 56  1  0  0  0  0
 26 27  1  0  0  0  0
 26 28  1  0  0  0  0
 26 64  1  0  0  0  0
 27 57  1  0  0  0  0
 27 58  1  0  0  0  0
 27 59  1  0  0  0  0
 28 29  1  0  0  0  0
 28 60  1  0  0  0  0
 28 61  1  0  0  0  0
 29 62  1  0  0  0  0
 29 63  1  0  0  0  0
M  CHG  1  26   1
M  END
> <s_m_source_file>
AV-unprocessed.smi

> <i_m_source_file_index>
81

> <i_lp_mmshare_version>
43012

> <i_f3d_flags>
0

> <s_epik_input>
W0NIMl0xW0NIMl1OKFtDSDNdKVtDSDJdW0NIMl1bQ0hdMU4oW0NIMl1bQ0hdKFtDSDNdKVtDSDNdKWMobltjSF1uMiljKGMyMyluW2NIXW4zW0NIMl1bQ0BAXTQoW09IXSlbQ0gyXVtDSDJdT1tDQEhdNFtDSDNd

> <s_epik_cmdline>
J2VwaWtfcHl0aG9uJywgJy1waCcsICc3LjAnLCAnLXRuJywgJzgnLCAnLW1hJywgJzIwMCcsICctbWV0YWxfYmluZGluZycsICctaW1hZScsICc8aW5maWxlLm1hZT4nLCAnLW9tYWUnLCAnPG91dGZpbGUubWFlPic=

> <r_lp_tautomer_probability>
1

> <r_epik_Ionization_Penalty>
0.00272708

> <r_epik_Ionization_Penalty_Charging>
0.00158983

> <r_epik_Ionization_Penalty_Neutral>
0.00113725

> <r_epik_State_Penalty>
-0

> <r_epik_Charging_Adjusted_Penalty>
0.00158983

> <i_epik_Tot_Q>
1

> <i_epik_Tot_abs_Q>
1

> <r_epik_Metal_State_Penalty>
-0

> <b_epik_Metal_Only>
0

> <s_lp_Force_Field>
OPLS_2005

> <r_lp_Energy>
45.229

> <b_lp_Chiralities_Consistent>
1

> <s_lp_Variant>
AV-unprocessed.smi:81-3

> <Gold.Version>
5.8.1

> <Gold.Id.Protein>
6NUR|6NUR_protein|mol2

> <Gold.PLP.Fitness>
38.7153

> <Gold.PLP.PLP>
-38.5525

> <Gold.PLP.part.hbond>
-1.0000

> <Gold.PLP.part.metal>
0.0000

> <Gold.PLP.part.buried>
-8.5025

> <Gold.PLP.part.nonpolar>
-29.9472

> <Gold.PLP.part.repulsive>
0.9056

> <Gold.PLP.ligand.clash>
0.0000

> <Gold.PLP.ligand.torsion>
1.8825

> <Gold.PLP.Chemscore.Hbond>
0.9920

> <Gold.PLP.Chemscore.CHOScore>
0.0000

> <Gold.PLP.Chemscore.Metal>
0.0000

> <Gold.Chemscore.Hbonds>
donor molecule, donor type, donor heavy atom, donor atom, acceptor molecule, acceptor atom, score
      L1  H    17    43       P1 10747  0.94

> <Gold.PLP.Chemscore.Internal.Correction>
0.9518

> <Gold.Rescore>
     Score         DG    S(hbond)    S(metal)    S(lipo)     H(rot)  DE(clash)    DE(int)     intcor
     11.08     -12.79       0.99        0.00      90.79       2.58       0.07       1.65       ----

> <Gold.Chemscore.Fitness>
11.0788

> <Gold.Chemscore.DG>
-12.7941

> <Gold.Chemscore.ZeroCoef>
-5.4800

> <Gold.Chemscore.Hbond>
0.9850

> <Gold.Chemscore.Metal>
0.0000

> <Gold.Chemscore.Lipo>
90.7897

> <Gold.Chemscore.Internal_Hbond>
0.0000

> <Gold.Chemscore.DEClash>
0.0673

> <Gold.Chemscore.DEInternal>
1.6481

> <Gold.Chemscore.Rot>
2.5774

> <Gold.Chemscore.Internal.Correction>
   9.000000E+99

> <Gold.Chemscore.Hbonds>
donor molecule, donor type, donor heavy atom, donor atom, acceptor molecule, acceptor atom, score
      L1  H    17    43       P1 10747  0.87

> <Gold.Chemscore.Hbond.Weighted>
-3.2900

> <Gold.Chemscore.Metal.Weighted>
-0.0000

> <Gold.Chemscore.Lipo.Weighted>
-10.6224

> <Gold.Chemscore.Internal_Hbond.Weighted>
0.0000

> <Gold.Chemscore.DEClash.Weighted>
0.0673

> <Gold.Chemscore.DEInternal.Weighted>
1.6481

> <Gold.Chemscore.Rot.Weighted>
6.5982

> <Gold.Chemscore.Internal.Correction.Weighted>
   9.000000E+99

> <Gold.Protein.RotatedTorsions>
[ 6907 6896 6895 6894 ] final   37.31 input  -60.11 | X-H torsion
[ 7974 7965 7964 7962 ] final  -98.90 input  175.53 | X-H torsion
[ 8008 7997 7996 7995 ] final -104.13 input   59.86 | X-H torsion
[ 10167 10162 10161 10158 ] final   66.45 input  -65.29 | X-H torsion
[ 10718 10713 10712 10709 ] final   33.33 input   66.30 | X-H torsion
[ 10763 10752 10751 10750 ] final -178.08 input  -60.55 | X-H torsion
[ 11005 11000 10999 10996 ] final  -29.17 input  -57.11 | X-H torsion

> <Gold.Protein.ActiveResidues>
 VAL166  LYS551  ARG553  GLY616  TRP617  ASP618  TYR619  PRO620  LYS621  CYS622 
 ASP623  PHE694  ASN695  SER759  ASP760  ASP761  ALA762  ILE779  LEU786  VAL792 
 PHE793  MET794  SER795  GLU796  ALA797  LYS798  CYS799  TRP800  GLU811  SER814 

> <Gold.Protein.RotatedAtoms>
  152.1414  134.9059  160.0553 H   0  0  0  0  0  0  0  0  0  0  0  0  # atno 6907 bound_to 6896
  152.0126  133.3862  159.4234 H   0  0  0  0  0  0  0  0  0  0  0  0  # atno 6908 bound_to 6896
  150.6865  134.3636  159.5005 H   0  0  0  0  0  0  0  0  0  0  0  0  # atno 6909 bound_to 6896
  145.3145  140.9408  143.2750 H   0  0  0  0  0  0  0  0  0  0  0  0  # atno 7974 bound_to 7965
  154.8808  140.0419  157.1781 H   0  0  0  0  0  0  0  0  0  0  0  0  # atno 8008 bound_to 7997
  154.8641  140.2948  155.5500 H   0  0  0  0  0  0  0  0  0  0  0  0  # atno 8009 bound_to 7997
  156.2999  140.2441  156.3619 H   0  0  0  0  0  0  0  0  0  0  0  0  # atno 8010 bound_to 7997
  140.1003  144.4910  150.7042 H   0  0  0  0  0  0  0  0  0  0  0  0  # atno 10167 bound_to 10162
  157.2965  130.7329  149.6641 H   0  0  0  0  0  0  0  0  0  0  0  0  # atno 10718 bound_to 10713
  154.5521  135.2813  155.0998 H   0  0  0  0  0  0  0  0  0  0  0  0  # atno 10763 bound_to 10752
  154.2440  135.6352  153.5220 H   0  0  0  0  0  0  0  0  0  0  0  0  # atno 10764 bound_to 10752
  153.0006  135.5566  154.6091 H   0  0  0  0  0  0  0  0  0  0  0  0  # atno 10765 bound_to 10752
  140.9272  133.7361  156.0885 H   0  0  0  0  0  0  0  0  0  0  0  0  # atno 11005 bound_to 11000
  144.8989  139.4676  143.6642 LP  0  0  0  0  0  0  0  0  0  0  0  0  # atno 17320 bound_to 7965
  146.3105  139.7731  142.9023 LP  0  0  0  0  0  0  0  0  0  0  0  0  # atno 17321 bound_to 7965
  140.6981  143.2417  151.4942 LP  0  0  0  0  0  0  0  0  0  0  0  0  # atno 17342 bound_to 10162
  139.5675  144.2007  152.1787 LP  0  0  0  0  0  0  0  0  0  0  0  0  # atno 17343 bound_to 10162
  155.9669  130.4293  150.4825 LP  0  0  0  0  0  0  0  0  0  0  0  0  # atno 17370 bound_to 10713
  157.2798  131.0604  151.2205 LP  0  0  0  0  0  0  0  0  0  0  0  0  # atno 17371 bound_to 10713
  140.7910  134.3618  157.5464 LP  0  0  0  0  0  0  0  0  0  0  0  0  # atno 17394 bound_to 11000
  139.8788  134.9140  156.3097 LP  0  0  0  0  0  0  0  0  0  0  0  0  # atno 17395 bound_to 11000

$$$$
