AV-unprocessed.smi:37|AV-procd|sdf|334|dock10
  -GOLD-   2262016173D 1   1.00000     0.00000
 Structure written by MMmdl.
 43 44  0  0  0  0  0  0  0  0  2 V2000
  147.0620  133.8455  162.2667 C   0  0  0  0  0  0  0  0  0  0  0  0
  146.6543  135.3262  162.2855 C   0  0  0  0  0  0  0  0  0  0  0  0
  147.1101  136.1046  161.0493 C   0  0  0  0  0  0  0  0  0  0  0  0
  146.7730  137.2717  160.8412 O   0  0  0  0  0  0  0  0  0  0  0  0
  147.8995  135.3657  160.2558 O   0  0  0  0  0  0  0  0  0  0  0  0
  148.0315  135.7017  158.8831 C   0  0  0  0  0  0  0  0  0  0  0  0
  148.9168  136.9444  158.7175 C   0  0  1  0  0  0  0  0  0  0  0  0
  150.2087  136.7420  159.2887 O   0  0  0  0  0  0  0  0  0  0  0  0
  151.1892  137.1235  158.3693 C   0  0  2  0  0  0  0  0  0  0  0  0
  152.3489  137.7773  159.0847 N   0  0  0  0  0  0  0  0  0  0  0  0
  152.4126  137.8166  160.4679 C   0  0  0  0  0  0  0  0  0  0  0  0
  153.4482  138.4031  161.1023 C   0  0  0  0  0  0  0  0  0  0  0  0
  153.4801  138.4309  162.4457 F   0  0  0  0  0  0  0  0  0  0  0  0
  154.5266  139.0072  160.3220 C   0  0  0  0  0  0  0  0  0  0  0  0
  155.4712  139.5357  160.9064 O   0  0  0  0  0  0  0  0  0  0  0  0
  154.4349  138.9567  158.9613 N   0  5  0  0  0  0  0  0  0  0  0  0
  153.3870  138.3671  158.3147 C   0  0  0  0  0  0  0  0  0  0  0  0
  153.2909  138.3200  157.0881 O   0  0  0  0  0  0  0  0  0  0  0  0
  150.5077  138.0556  157.3608 C   0  0  2  0  0  0  0  0  0  0  0  0
  150.3202  139.9172  158.0717 Br  0  0  0  0  0  0  0  0  0  0  0  0
  149.1475  137.3859  157.2671 C   0  0  2  0  0  0  0  0  0  0  0  0
  148.1234  138.2599  156.8110 O   0  0  0  0  0  0  0  0  0  0  0  0
  148.3162  139.0142  155.7144 C   0  0  0  0  0  0  0  0  0  0  0  0
  149.3576  139.0881  155.0621 O   0  0  0  0  0  0  0  0  0  0  0  0
  147.0792  139.8234  155.3320 C   0  0  0  0  0  0  0  0  0  0  0  0
  147.3427  140.7588  154.1441 C   0  0  0  0  0  0  0  0  0  0  0  0
  146.7232  133.3439  163.1734 H   0  0  0  0  0  0  0  0  0  0  0  0
  148.1454  133.7317  162.2126 H   0  0  0  0  0  0  0  0  0  0  0  0
  146.6233  133.3215  161.4168 H   0  0  0  0  0  0  0  0  0  0  0  0
  145.5698  135.4064  162.3625 H   0  0  0  0  0  0  0  0  0  0  0  0
  147.0695  135.8091  163.1704 H   0  0  0  0  0  0  0  0  0  0  0  0
  148.4800  134.8657  158.3442 H   0  0  0  0  0  0  0  0  0  0  0  0
  147.0465  135.8785  158.4495 H   0  0  0  0  0  0  0  0  0  0  0  0
  148.4691  137.7687  159.2747 H   0  0  0  0  0  0  0  0  0  0  0  0
  151.5883  136.2168  157.9099 H   0  0  0  0  0  0  0  0  0  0  0  0
  151.6219  137.3833  161.0616 H   0  0  0  0  0  0  0  0  0  0  0  0
  151.0487  138.0923  156.4147 H   0  0  0  0  0  0  0  0  0  0  0  0
  149.2263  136.5039  156.6298 H   0  0  0  0  0  0  0  0  0  0  0  0
  146.2671  139.1359  155.0949 H   0  0  0  0  0  0  0  0  0  0  0  0
  146.7583  140.4056  156.1963 H   0  0  0  0  0  0  0  0  0  0  0  0
  146.4592  141.3579  153.9246 H   0  0  0  0  0  0  0  0  0  0  0  0
  147.5925  140.1991  153.2420 H   0  0  0  0  0  0  0  0  0  0  0  0
  148.1639  141.4453  154.3534 H   0  0  0  0  0  0  0  0  0  0  0  0
  1  2  1  0  0  0  0
  1 27  1  0  0  0  0
  1 28  1  0  0  0  0
  1 29  1  0  0  0  0
  2  3  1  0  0  0  0
  2 30  1  0  0  0  0
  2 31  1  0  0  0  0
  3  4  2  0  0  0  0
  3  5  1  0  0  0  0
  5  6  1  0  0  0  0
  6  7  1  0  0  0  0
  6 32  1  0  0  0  0
  6 33  1  0  0  0  0
  7 21  1  0  0  0  0
  7  8  1  0  0  0  0
  7 34  1  0  0  0  0
  8  9  1  0  0  0  0
  9 10  1  0  0  0  0
  9 19  1  0  0  0  0
  9 35  1  0  0  0  0
 10 17  1  0  0  0  0
 10 11  1  0  0  0  0
 11 12  2  0  0  0  0
 11 36  1  0  0  0  0
 12 13  1  0  0  0  0
 12 14  1  0  0  0  0
 14 15  2  0  0  0  0
 14 16  1  0  0  0  0
 16 17  1  0  0  0  0
 17 18  2  0  0  0  0
 19 20  1  0  0  0  0
 19 21  1  0  0  0  0
 19 37  1  0  0  0  0
 21 22  1  0  0  0  0
 21 38  1  0  0  0  0
 22 23  1  0  0  0  0
 23 24  2  0  0  0  0
 23 25  1  0  0  0  0
 25 26  1  0  0  0  0
 25 39  1  0  0  0  0
 25 40  1  0  0  0  0
 26 41  1  0  0  0  0
 26 42  1  0  0  0  0
 26 43  1  0  0  0  0
M  CHG  1  16  -1
M  END
> <s_m_source_file>
AV-unprocessed.smi

> <i_m_source_file_index>
37

> <i_lp_mmshare_version>
43012

> <i_f3d_flags>
0

> <s_epik_input>
W0NIM11bQ0gyXUMoPU8pT1tDSDJdW0NAQEhdMU9bQ0BASF0objJbY0hdYyhGKWMoPU8pW25IXWMyPU8pW0NAQEhdKEJyKVtDQEhdMU9DKD1PKVtDSDJdW0NIM10=

> <s_epik_cmdline>
J2VwaWtfcHl0aG9uJywgJy1waCcsICc3LjAnLCAnLXRuJywgJzgnLCAnLW1hJywgJzIwMCcsICctbWV0YWxfYmluZGluZycsICctaW1hZScsICc8aW5maWxlLm1hZT4nLCAnLW9tYWUnLCAnPG91dGZpbGUubWFlPic=

> <r_epik_Ionization_Penalty>
1.08158

> <r_epik_Ionization_Penalty_Charging>
9.05154e-09

> <r_epik_Ionization_Penalty_Neutral>
1.08158

> <r_epik_State_Penalty>
1.13706

> <r_epik_Charging_Adjusted_Penalty>
1.13706

> <i_epik_Tot_Q>
-1

> <i_epik_Tot_abs_Q>
1

> <r_epik_Metal_State_Penalty>
0.00343535

> <b_epik_Metal_Only>
0

> <s_epik_Chemistry_Notes>
This compound has an ester and may undergo hydrolysis at high or low pH. This compound contains an acetal/aminal-like group ( X-CH(R)-Y where X, Y are N, S, or O) that may be acid/base labile, releasing an aldehyde.

> <s_lp_Force_Field>
OPLS_2005

> <r_lp_Energy>
36.4441

> <b_lp_Chiralities_Consistent>
1

> <s_lp_Variant>
AV-unprocessed.smi:37-32

> <Gold.Version>
5.8.1

> <Gold.Id.Protein>
6NUR|6NUR_protein|mol2

> <Gold.PLP.Fitness>
48.3878

> <Gold.PLP.PLP>
-34.3647

> <Gold.PLP.part.hbond>
-5.0000

> <Gold.PLP.part.metal>
0.0000

> <Gold.PLP.part.buried>
-4.4949

> <Gold.PLP.part.nonpolar>
-24.0020

> <Gold.PLP.part.repulsive>
0.0275

> <Gold.PLP.ligand.clash>
0.0000

> <Gold.PLP.ligand.torsion>
0.6218

> <Gold.PLP.Chemscore.Hbond>
5.0264

> <Gold.PLP.Chemscore.CHOScore>
0.0000

> <Gold.PLP.Chemscore.Metal>
0.0000

> <Gold.Chemscore.Hbonds>
donor molecule, donor type, donor heavy atom, donor atom, acceptor molecule, acceptor atom, score
      P1  H  6896  6907       L1     8  0.90
      P1  H  6934  6947       L1     4  1.00
      P1  H  7997  8010       L1    16  1.37

> <Gold.PLP.Chemscore.Internal.Correction>
0.1875

> <Gold.Rescore>
     Score         DG    S(hbond)    S(metal)    S(lipo)     H(rot)  DE(clash)    DE(int)     intcor
      8.72     -11.68       2.59        0.00      50.49       3.27       0.05       2.91       ----

> <Gold.Chemscore.Fitness>
8.7169

> <Gold.Chemscore.DG>
-11.6792

> <Gold.Chemscore.ZeroCoef>
-5.4800

> <Gold.Chemscore.Hbond>
2.5915

> <Gold.Chemscore.Metal>
0.0000

> <Gold.Chemscore.Lipo>
50.4860

> <Gold.Chemscore.Internal_Hbond>
0.0000

> <Gold.Chemscore.DEClash>
0.0519

> <Gold.Chemscore.DEInternal>
2.9104

> <Gold.Chemscore.Rot>
3.2669

> <Gold.Chemscore.Internal.Correction>
   9.000000E+99

> <Gold.Chemscore.Hbonds>
donor molecule, donor type, donor heavy atom, donor atom, acceptor molecule, acceptor atom, score
      P1  H  6896  6907       L1     8  0.17
      P1  H  6934  6947       L1     4  1.00
      P1  H  7997  8008       L1    18  0.01
      P1  H  7997  8010       L1    16  0.20

> <Gold.Chemscore.Hbond.Weighted>
-8.6557

> <Gold.Chemscore.Metal.Weighted>
-0.0000

> <Gold.Chemscore.Lipo.Weighted>
-5.9069

> <Gold.Chemscore.Internal_Hbond.Weighted>
0.0000

> <Gold.Chemscore.DEClash.Weighted>
0.0519

> <Gold.Chemscore.DEInternal.Weighted>
2.9104

> <Gold.Chemscore.Rot.Weighted>
8.3634

> <Gold.Chemscore.Internal.Correction.Weighted>
   9.000000E+99

> <Gold.Protein.RotatedTorsions>
[ 6907 6896 6895 6894 ] final  -39.52 input  -60.11 | X-H torsion
[ 7974 7965 7964 7962 ] final -157.78 input  175.53 | X-H torsion
[ 8008 7997 7996 7995 ] final  -17.65 input   59.86 | X-H torsion
[ 10167 10162 10161 10158 ] final   95.00 input  -65.29 | X-H torsion
[ 10718 10713 10712 10709 ] final -168.69 input   66.30 | X-H torsion
[ 10763 10752 10751 10750 ] final   63.33 input  -60.55 | X-H torsion
[ 11005 11000 10999 10996 ] final  -75.44 input  -57.11 | X-H torsion

> <Gold.Protein.ActiveResidues>
 VAL166  LYS551  ARG553  GLY616  TRP617  ASP618  TYR619  PRO620  LYS621  CYS622 
 ASP623  PHE694  ASN695  SER759  ASP760  ASP761  ALA762  ILE779  LEU786  VAL792 
 PHE793  MET794  SER795  GLU796  ALA797  LYS798  CYS799  TRP800  GLU811  SER814 

> <Gold.Protein.RotatedAtoms>
  150.9894  134.9232  159.7890 H   0  0  0  0  0  0  0  0  0  0  0  0  # atno 6907 bound_to 6896
  152.5246  134.3302  159.9190 H   0  0  0  0  0  0  0  0  0  0  0  0  # atno 6908 bound_to 6896
  151.3308  133.3960  159.2697 H   0  0  0  0  0  0  0  0  0  0  0  0  # atno 6909 bound_to 6896
  144.7533  140.3920  143.6031 H   0  0  0  0  0  0  0  0  0  0  0  0  # atno 7974 bound_to 7965
  154.4963  140.2137  155.9441 H   0  0  0  0  0  0  0  0  0  0  0  0  # atno 8008 bound_to 7997
  156.1374  140.3186  155.8410 H   0  0  0  0  0  0  0  0  0  0  0  0  # atno 8009 bound_to 7997
  155.4184  140.0495  157.3018 H   0  0  0  0  0  0  0  0  0  0  0  0  # atno 8010 bound_to 7997
  139.8030  144.6806  150.9740 H   0  0  0  0  0  0  0  0  0  0  0  0  # atno 10167 bound_to 10162
  156.7006  130.9195  151.3079 H   0  0  0  0  0  0  0  0  0  0  0  0  # atno 10718 bound_to 10713
  153.0014  135.5433  154.6335 H   0  0  0  0  0  0  0  0  0  0  0  0  # atno 10763 bound_to 10752
  154.5607  135.2833  155.0924 H   0  0  0  0  0  0  0  0  0  0  0  0  # atno 10764 bound_to 10752
  154.2128  135.6464  153.5173 H   0  0  0  0  0  0  0  0  0  0  0  0  # atno 10765 bound_to 10752
  141.1645  133.6946  156.7516 H   0  0  0  0  0  0  0  0  0  0  0  0  # atno 11005 bound_to 11000
  145.6866  139.1630  143.2670 LP  0  0  0  0  0  0  0  0  0  0  0  0  # atno 17320 bound_to 7965
  146.1512  140.6922  142.9321 LP  0  0  0  0  0  0  0  0  0  0  0  0  # atno 17321 bound_to 7965
  140.7820  143.4262  151.0764 LP  0  0  0  0  0  0  0  0  0  0  0  0  # atno 17342 bound_to 10162
  139.7933  143.8187  152.3154 LP  0  0  0  0  0  0  0  0  0  0  0  0  # atno 17343 bound_to 10162
  157.6974  130.9297  150.0686 LP  0  0  0  0  0  0  0  0  0  0  0  0  # atno 17370 bound_to 10713
  156.1732  130.3647  149.9137 LP  0  0  0  0  0  0  0  0  0  0  0  0  # atno 17371 bound_to 10713
  140.2599  134.8474  157.3749 LP  0  0  0  0  0  0  0  0  0  0  0  0  # atno 17394 bound_to 11000
  140.1621  134.4716  155.7888 LP  0  0  0  0  0  0  0  0  0  0  0  0  # atno 17395 bound_to 11000

$$$$
