AV-unprocessed.smi:1234|AV-procd|sdf|5174|dock7
  -GOLD-   22720 4253D 1   1.00000     0.00000
 Structure written by MMmdl.
 32 33  0  0  0  0  0  0  0  0  2 V2000
  149.0633  135.8246  158.7659 O   0  0  0  0  0  0  0  0  0  0  0  0
  148.9385  136.9141  159.3301 C   0  0  0  0  0  0  0  0  0  0  0  0
  149.6096  137.9810  158.8762 N   0  0  0  0  0  0  0  0  0  0  0  0
  150.5195  137.9801  157.7377 C   0  0  0  0  0  0  0  0  0  0  0  0
  151.2570  139.3275  157.6388 C   0  0  0  0  0  0  0  0  0  0  0  0
  152.2199  139.5962  158.8078 C   0  0  0  0  0  0  0  0  0  0  0  0
  152.8730  138.6707  159.2926 O   0  0  0  0  0  0  0  0  0  0  0  0
  152.3197  140.8595  159.2716 N   0  0  0  0  0  0  0  0  0  0  0  0
  151.5494  141.9800  158.7352 C   0  0  0  0  0  0  0  0  0  0  0  0
  151.7653  143.1364  159.7113 C   0  0  0  0  0  0  0  0  0  0  0  0
  153.1085  142.8308  160.3595 C   0  0  0  0  0  0  0  0  0  0  0  0
  153.1861  141.3034  160.3634 C   0  0  0  0  0  0  0  0  0  0  0  0
  148.1651  137.1748  160.4087 N   0  5  0  0  0  0  0  0  0  0  0  0
  147.6352  136.1626  161.1152 C   0  0  0  0  0  0  0  0  0  0  0  0
  147.1071  135.0768  160.5273 N   0  0  0  0  0  0  0  0  0  0  0  0
  146.6177  134.1476  161.4354 N   0  0  0  0  0  0  0  0  0  0  0  0
  146.7977  134.5551  162.6917 C   0  0  0  0  0  0  0  0  0  0  0  0
  147.5844  136.1082  162.8797 S   0  0  0  0  0  0  0  0  0  0  0  0
  149.4808  138.8556  159.3635 H   0  0  0  0  0  0  0  0  0  0  0  0
  151.2361  137.1646  157.8505 H   0  0  0  0  0  0  0  0  0  0  0  0
  149.9481  137.7895  156.8277 H   0  0  0  0  0  0  0  0  0  0  0  0
  151.8190  139.3609  156.7046 H   0  0  0  0  0  0  0  0  0  0  0  0
  150.5253  140.1354  157.6006 H   0  0  0  0  0  0  0  0  0  0  0  0
  151.9359  142.2344  157.7470 H   0  0  0  0  0  0  0  0  0  0  0  0
  150.4899  141.7397  158.6336 H   0  0  0  0  0  0  0  0  0  0  0  0
  151.7422  144.1113  159.2234 H   0  0  0  0  0  0  0  0  0  0  0  0
  150.9829  143.1246  160.4714 H   0  0  0  0  0  0  0  0  0  0  0  0
  153.9111  143.2362  159.7418 H   0  0  0  0  0  0  0  0  0  0  0  0
  153.2047  143.2616  161.3564 H   0  0  0  0  0  0  0  0  0  0  0  0
  152.8060  140.9056  161.3052 H   0  0  0  0  0  0  0  0  0  0  0  0
  154.2159  140.9655  160.2401 H   0  0  0  0  0  0  0  0  0  0  0  0
  146.4679  133.9360  163.5124 H   0  0  0  0  0  0  0  0  0  0  0  0
  1  2  2  0  0  0  0
  2  3  1  0  0  0  0
  2 13  1  0  0  0  0
  3  4  1  0  0  0  0
  3 19  1  0  0  0  0
  4  5  1  0  0  0  0
  4 20  1  0  0  0  0
  4 21  1  0  0  0  0
  5  6  1  0  0  0  0
  5 22  1  0  0  0  0
  5 23  1  0  0  0  0
  6  7  2  0  0  0  0
  6  8  1  0  0  0  0
  8 12  1  0  0  0  0
  8  9  1  0  0  0  0
  9 10  1  0  0  0  0
  9 24  1  0  0  0  0
  9 25  1  0  0  0  0
 10 11  1  0  0  0  0
 10 26  1  0  0  0  0
 10 27  1  0  0  0  0
 11 12  1  0  0  0  0
 11 28  1  0  0  0  0
 11 29  1  0  0  0  0
 12 30  1  0  0  0  0
 12 31  1  0  0  0  0
 13 14  1  0  0  0  0
 14 18  1  0  0  0  0
 14 15  2  0  0  0  0
 15 16  1  0  0  0  0
 16 17  2  0  0  0  0
 17 18  1  0  0  0  0
 17 32  1  0  0  0  0
M  CHG  1  13  -1
M  END
> <s_m_source_file>
AV-unprocessed.smi

> <i_m_source_file_index>
1234

> <i_lp_mmshare_version>
43012

> <i_f3d_flags>
0

> <s_epik_input>
czFbY0hdbm5jMVtOSF1DKD1PKVtOSF1bQ0gyXVtDSDJdQyg9TylOMltDSDJdW0NIMl1bQ0gyXVtDSDJdMg==

> <s_epik_cmdline>
J2VwaWtfcHl0aG9uJywgJy1waCcsICc3LjAnLCAnLXRuJywgJzgnLCAnLW1hJywgJzIwMCcsICctbWV0YWxfYmluZGluZycsICctaW1hZScsICc8aW5maWxlLm1hZT4nLCAnLW9tYWUnLCAnPG91dGZpbGUubWFlPic=

> <r_lp_tautomer_probability>
1

> <r_epik_Ionization_Penalty>
3.2941

> <r_epik_Ionization_Penalty_Charging>
3.25456

> <r_epik_Ionization_Penalty_Neutral>
0.039538

> <r_epik_State_Penalty>
3.25212

> <r_epik_Charging_Adjusted_Penalty>
6.50668

> <i_epik_Tot_Q>
-1

> <i_epik_Tot_abs_Q>
1

> <r_epik_Metal_State_Penalty>
0.477003

> <b_epik_Metal_Only>
1

> <s_lp_Force_Field>
OPLS_2005

> <r_lp_Energy>
26.7799

> <b_lp_Chiralities_Consistent>
1

> <s_lp_Variant>
AV-unprocessed.smi:1234-2

> <Gold.Version>
5.8.1

> <Gold.Id.Protein>
6NUR|6NUR_protein|mol2

> <Gold.PLP.Fitness>
44.9876

> <Gold.PLP.PLP>
-36.5840

> <Gold.PLP.part.hbond>
-3.0000

> <Gold.PLP.part.metal>
0.0000

> <Gold.PLP.part.buried>
-5.3162

> <Gold.PLP.part.nonpolar>
-29.1771

> <Gold.PLP.part.repulsive>
0.2209

> <Gold.PLP.ligand.clash>
0.0000

> <Gold.PLP.ligand.torsion>
0.7396

> <Gold.PLP.Chemscore.Hbond>
3.2832

> <Gold.PLP.Chemscore.CHOScore>
0.0000

> <Gold.PLP.Chemscore.Metal>
0.0000

> <Gold.Chemscore.Hbonds>
donor molecule, donor type, donor heavy atom, donor atom, acceptor molecule, acceptor atom, score
      P1  H  6896  6909       L1     1  0.65
      P1  H  6931  6943       L1    13  1.47
      P1  H  6934  6947       L1    13  0.98

> <Gold.PLP.Chemscore.Internal.Correction>
0.0333

> <Gold.Rescore>
     Score         DG    S(hbond)    S(metal)    S(lipo)     H(rot)  DE(clash)    DE(int)     intcor
     12.58     -14.94       1.80        0.00      67.93       1.76       0.17       2.19       ----

> <Gold.Chemscore.Fitness>
12.5821

> <Gold.Chemscore.DG>
-14.9410

> <Gold.Chemscore.ZeroCoef>
-5.4800

> <Gold.Chemscore.Hbond>
1.8018

> <Gold.Chemscore.Metal>
0.0000

> <Gold.Chemscore.Lipo>
67.9271

> <Gold.Chemscore.Internal_Hbond>
0.0000

> <Gold.Chemscore.DEClash>
0.1729

> <Gold.Chemscore.DEInternal>
2.1861

> <Gold.Chemscore.Rot>
1.7596

> <Gold.Chemscore.Internal.Correction>
   9.000000E+99

> <Gold.Chemscore.Hbonds>
donor molecule, donor type, donor heavy atom, donor atom, acceptor molecule, acceptor atom, score
      P1  H  6896  6909       L1     1  0.53
      P1  H  6931  6943       L1    13  0.19
      P1  H  6934  6947       L1    13  0.38

> <Gold.Chemscore.Hbond.Weighted>
-6.0182

> <Gold.Chemscore.Metal.Weighted>
-0.0000

> <Gold.Chemscore.Lipo.Weighted>
-7.9475

> <Gold.Chemscore.Internal_Hbond.Weighted>
0.0000

> <Gold.Chemscore.DEClash.Weighted>
0.1729

> <Gold.Chemscore.DEInternal.Weighted>
2.1861

> <Gold.Chemscore.Rot.Weighted>
4.5046

> <Gold.Chemscore.Internal.Correction.Weighted>
   9.000000E+99

> <Gold.Protein.RotatedTorsions>
[ 6907 6896 6895 6894 ] final   55.33 input  -60.11 | X-H torsion
[ 7974 7965 7964 7962 ] final  -79.74 input  175.53 | X-H torsion
[ 8008 7997 7996 7995 ] final   63.41 input   59.86 | X-H torsion
[ 10167 10162 10161 10158 ] final -112.40 input  -65.29 | X-H torsion
[ 10718 10713 10712 10709 ] final  -93.05 input   66.30 | X-H torsion
[ 10763 10752 10751 10750 ] final   42.71 input  -60.55 | X-H torsion
[ 11005 11000 10999 10996 ] final  -64.67 input  -57.11 | X-H torsion

> <Gold.Protein.ActiveResidues>
 VAL166  LYS551  ARG553  GLY616  TRP617  ASP618  TYR619  PRO620  LYS621  CYS622 
 ASP623  PHE694  ASN695  SER759  ASP760  ASP761  ALA762  ILE779  LEU786  VAL792 
 PHE793  MET794  SER795  GLU796  ALA797  LYS798  CYS799  TRP800  GLU811  SER814 

> <Gold.Protein.RotatedAtoms>
  152.3528  134.6981  160.0230 H   0  0  0  0  0  0  0  0  0  0  0  0  # atno 6907 bound_to 6896
  151.7330  133.3313  159.3353 H   0  0  0  0  0  0  0  0  0  0  0  0  # atno 6908 bound_to 6896
  150.7552  134.6280  159.6216 H   0  0  0  0  0  0  0  0  0  0  0  0  # atno 6909 bound_to 6896
  145.5692  140.9469  143.1405 H   0  0  0  0  0  0  0  0  0  0  0  0  # atno 7974 bound_to 7965
  155.6299  140.3496  155.4679 H   0  0  0  0  0  0  0  0  0  0  0  0  # atno 8008 bound_to 7997
  156.0012  140.1213  157.0569 H   0  0  0  0  0  0  0  0  0  0  0  0  # atno 8009 bound_to 7997
  154.4249  140.1100  156.5685 H   0  0  0  0  0  0  0  0  0  0  0  0  # atno 8010 bound_to 7997
  140.1232  143.4425  152.1677 H   0  0  0  0  0  0  0  0  0  0  0  0  # atno 10167 bound_to 10162
  156.0009  130.5011  150.5718 H   0  0  0  0  0  0  0  0  0  0  0  0  # atno 10718 bound_to 10713
  152.9877  135.6123  154.2994 H   0  0  0  0  0  0  0  0  0  0  0  0  # atno 10763 bound_to 10752
  154.2715  135.2779  155.2738 H   0  0  0  0  0  0  0  0  0  0  0  0  # atno 10764 bound_to 10752
  154.5118  135.5839  153.6668 H   0  0  0  0  0  0  0  0  0  0  0  0  # atno 10765 bound_to 10752
  141.1432  133.6669  156.5869 H   0  0  0  0  0  0  0  0  0  0  0  0  # atno 11005 bound_to 11000
  144.7446  139.7355  143.7297 LP  0  0  0  0  0  0  0  0  0  0  0  0  # atno 17320 bound_to 7965
  146.1796  139.4983  142.9875 LP  0  0  0  0  0  0  0  0  0  0  0  0  # atno 17321 bound_to 7965
  139.5558  144.7371  151.4299 LP  0  0  0  0  0  0  0  0  0  0  0  0  # atno 17342 bound_to 10162
  140.6860  143.7972  150.7187 LP  0  0  0  0  0  0  0  0  0  0  0  0  # atno 17343 bound_to 10162
  157.3612  131.0750  151.1635 LP  0  0  0  0  0  0  0  0  0  0  0  0  # atno 17370 bound_to 10713
  157.2419  130.6573  149.5893 LP  0  0  0  0  0  0  0  0  0  0  0  0  # atno 17371 bound_to 10713
  140.3794  134.7536  157.4651 LP  0  0  0  0  0  0  0  0  0  0  0  0  # atno 17394 bound_to 11000
  140.0649  134.5943  155.8706 LP  0  0  0  0  0  0  0  0  0  0  0  0  # atno 17395 bound_to 11000

$$$$
