AV-unprocessed.smi:671|AV-procd|sdf|3273|dock7
  -GOLD-   22720 0233D 1   1.00000     0.00000
 Structure written by MMmdl.
 49 50  0  0  0  0  0  0  0  0  1 V2000
  152.2100  138.3607  154.9181 C   0  0  0  0  0  0  0  0  0  0  0  0
  150.8499  138.9646  155.1257 C   0  0  0  0  0  0  0  0  0  0  0  0
  150.3862  139.8322  154.2421 N   0  0  0  0  0  0  0  0  0  0  0  0
  149.1743  140.1889  154.7128 N   0  0  0  0  0  0  0  0  0  0  0  0
  148.3785  141.1473  153.9707 C   0  0  0  0  0  0  0  0  0  0  0  0
  148.8697  139.5421  155.8949 C   0  0  0  0  0  0  0  0  0  0  0  0
  147.5801  139.7674  156.6165 C   0  0  0  0  0  0  0  0  0  0  0  0
  149.9359  138.7373  156.1966 C   0  0  0  0  0  0  0  0  0  0  0  0
  150.1288  137.8213  157.3776 C   0  0  0  0  0  0  0  0  0  0  0  0
  151.4033  138.1599  158.1830 C   0  0  2  0  0  0  0  0  0  0  0  0
  151.6856  137.1382  159.2957 C   0  0  0  0  0  0  0  0  0  0  0  0
  151.2942  139.4920  158.7831 N   0  0  0  0  0  0  0  0  0  0  0  0
  152.2803  140.2676  159.2709 C   0  0  0  0  0  0  0  0  0  0  0  0
  153.4536  139.9006  159.2738 O   0  0  0  0  0  0  0  0  0  0  0  0
  151.8708  141.4491  159.7620 N   0  0  0  0  0  0  0  0  0  0  0  0
  152.7296  142.4694  160.3548 C   0  0  2  0  0  0  0  0  0  0  0  0
  153.3944  141.9238  161.6324 C   0  0  0  0  0  0  0  0  0  0  0  0
  152.7224  142.6465  162.7992 C   0  0  0  0  0  0  0  0  0  0  0  0
  152.3572  144.0100  162.2230 C   0  0  0  0  0  0  0  0  0  0  0  0
  151.9099  143.7066  160.7889 C   0  0  1  0  0  0  0  0  0  0  0  0
  152.0497  144.9064  159.8415 C   0  0  0  0  0  0  0  0  0  0  0  0
  152.2176  137.3037  155.1819 H   0  0  0  0  0  0  0  0  0  0  0  0
  152.9550  138.8613  155.5360 H   0  0  0  0  0  0  0  0  0  0  0  0
  152.5324  138.4397  153.8794 H   0  0  0  0  0  0  0  0  0  0  0  0
  147.5334  140.6387  153.5062 H   0  0  0  0  0  0  0  0  0  0  0  0
  148.9769  141.6241  153.1932 H   0  0  0  0  0  0  0  0  0  0  0  0
  148.0048  141.9177  154.6456 H   0  0  0  0  0  0  0  0  0  0  0  0
  147.4228  139.0172  157.3907 H   0  0  0  0  0  0  0  0  0  0  0  0
  146.7342  139.7154  155.9307 H   0  0  0  0  0  0  0  0  0  0  0  0
  147.5713  140.7479  157.0926 H   0  0  0  0  0  0  0  0  0  0  0  0
  149.2557  137.8863  158.0271 H   0  0  0  0  0  0  0  0  0  0  0  0
  150.1657  136.7780  157.0629 H   0  0  0  0  0  0  0  0  0  0  0  0
  152.2646  138.1518  157.5133 H   0  0  0  0  0  0  0  0  0  0  0  0
  151.8467  136.1400  158.8885 H   0  0  0  0  0  0  0  0  0  0  0  0
  150.8566  137.0798  160.0016 H   0  0  0  0  0  0  0  0  0  0  0  0
  152.5816  137.4068  159.8561 H   0  0  0  0  0  0  0  0  0  0  0  0
  150.3548  139.8484  158.8846 H   0  0  0  0  0  0  0  0  0  0  0  0
  150.8843  141.6584  159.7197 H   0  0  0  0  0  0  0  0  0  0  0  0
  153.5169  142.7496  159.6520 H   0  0  0  0  0  0  0  0  0  0  0  0
  153.3290  140.8391  161.7282 H   0  0  0  0  0  0  0  0  0  0  0  0
  154.4552  142.1775  161.6194 H   0  0  0  0  0  0  0  0  0  0  0  0
  151.8157  142.1154  163.0916 H   0  0  0  0  0  0  0  0  0  0  0  0
  153.3664  142.7183  163.6761 H   0  0  0  0  0  0  0  0  0  0  0  0
  151.5861  144.5166  162.8043 H   0  0  0  0  0  0  0  0  0  0  0  0
  153.2417  144.6488  162.2160 H   0  0  0  0  0  0  0  0  0  0  0  0
  150.8538  143.4332  160.8362 H   0  0  0  0  0  0  0  0  0  0  0  0
  153.0877  145.2308  159.7611 H   0  0  0  0  0  0  0  0  0  0  0  0
  151.4610  145.7535  160.1944 H   0  0  0  0  0  0  0  0  0  0  0  0
  151.7005  144.6552  158.8396 H   0  0  0  0  0  0  0  0  0  0  0  0
  1  2  1  0  0  0  0
  1 22  1  0  0  0  0
  1 23  1  0  0  0  0
  1 24  1  0  0  0  0
  2  8  1  0  0  0  0
  2  3  2  0  0  0  0
  3  4  1  0  0  0  0
  4  5  1  0  0  0  0
  4  6  1  0  0  0  0
  5 25  1  0  0  0  0
  5 26  1  0  0  0  0
  5 27  1  0  0  0  0
  6  7  1  0  0  0  0
  6  8  2  0  0  0  0
  7 28  1  0  0  0  0
  7 29  1  0  0  0  0
  7 30  1  0  0  0  0
  8  9  1  0  0  0  0
  9 10  1  0  0  0  0
  9 31  1  0  0  0  0
  9 32  1  0  0  0  0
 10 11  1  0  0  0  0
 10 12  1  0  0  0  0
 10 33  1  0  0  0  0
 11 34  1  0  0  0  0
 11 35  1  0  0  0  0
 11 36  1  0  0  0  0
 12 13  1  0  0  0  0
 12 37  1  0  0  0  0
 13 14  2  0  0  0  0
 13 15  1  0  0  0  0
 15 16  1  0  0  0  0
 15 38  1  0  0  0  0
 16 20  1  0  0  0  0
 16 17  1  0  0  0  0
 16 39  1  0  0  0  0
 17 18  1  0  0  0  0
 17 40  1  0  0  0  0
 17 41  1  0  0  0  0
 18 19  1  0  0  0  0
 18 42  1  0  0  0  0
 18 43  1  0  0  0  0
 19 20  1  0  0  0  0
 19 44  1  0  0  0  0
 19 45  1  0  0  0  0
 20 21  1  0  0  0  0
 20 46  1  0  0  0  0
 21 47  1  0  0  0  0
 21 48  1  0  0  0  0
 21 49  1  0  0  0  0
M  END
> <s_m_source_file>
AV-unprocessed.smi

> <i_m_source_file_index>
671

> <i_lp_mmshare_version>
43012

> <i_f3d_flags>
0

> <s_epik_input>
W0NIM11jMW5uKFtDSDNdKWMoW0NIM10pYzFbQ0gyXVtDQEhdKFtDSDNdKVtOSF1DKD1PKVtOSF1bQ0BASF0yW0NIMl1bQ0gyXVtDSDJdW0NASF0yW0NIM10=

> <s_epik_cmdline>
J2VwaWtfcHl0aG9uJywgJy1waCcsICc3LjAnLCAnLXRuJywgJzgnLCAnLW1hJywgJzIwMCcsICctbWV0YWxfYmluZGluZycsICctaW1hZScsICc8aW5maWxlLm1hZT4nLCAnLW9tYWUnLCAnPG91dGZpbGUubWFlPic=

> <r_lp_tautomer_probability>
1

> <r_epik_Ionization_Penalty>
0.0126855

> <r_epik_Ionization_Penalty_Charging>
0

> <r_epik_Ionization_Penalty_Neutral>
0.0126855

> <r_epik_State_Penalty>
0.00977547

> <r_epik_Charging_Adjusted_Penalty>
0.00977547

> <i_epik_Tot_Q>
0

> <i_epik_Tot_abs_Q>
0

> <r_epik_Metal_State_Penalty>
0.00957132

> <b_epik_Metal_Only>
0

> <s_lp_Force_Field>
OPLS_2005

> <r_lp_Energy>
21.9144

> <b_lp_Chiralities_Consistent>
1

> <s_lp_Variant>
AV-unprocessed.smi:671-1

> <Gold.Version>
5.8.1

> <Gold.Id.Protein>
6NUR|6NUR_protein|mol2

> <Gold.PLP.Fitness>
47.9843

> <Gold.PLP.PLP>
-42.4378

> <Gold.PLP.part.hbond>
-2.0000

> <Gold.PLP.part.metal>
0.0000

> <Gold.PLP.part.buried>
-5.9258

> <Gold.PLP.part.nonpolar>
-35.5505

> <Gold.PLP.part.repulsive>
1.0943

> <Gold.PLP.ligand.clash>
0.0000

> <Gold.PLP.ligand.torsion>
0.2255

> <Gold.PLP.Chemscore.Hbond>
1.9920

> <Gold.PLP.Chemscore.CHOScore>
0.0000

> <Gold.PLP.Chemscore.Metal>
0.0000

> <Gold.Chemscore.Hbonds>
donor molecule, donor type, donor heavy atom, donor atom, acceptor molecule, acceptor atom, score
      P1  H  7989  7998       L1     3  1.00

> <Gold.PLP.Chemscore.Internal.Correction>
0.0216

> <Gold.Rescore>
     Score         DG    S(hbond)    S(metal)    S(lipo)     H(rot)  DE(clash)    DE(int)     intcor
     17.24     -17.74       0.97        0.00     108.82       1.45       0.30       0.20       ----

> <Gold.Chemscore.Fitness>
17.2391

> <Gold.Chemscore.DG>
-17.7371

> <Gold.Chemscore.ZeroCoef>
-5.4800

> <Gold.Chemscore.Hbond>
0.9691

> <Gold.Chemscore.Metal>
0.0000

> <Gold.Chemscore.Lipo>
108.8210

> <Gold.Chemscore.Internal_Hbond>
0.0000

> <Gold.Chemscore.DEClash>
0.2985

> <Gold.Chemscore.DEInternal>
0.1994

> <Gold.Chemscore.Rot>
1.4499

> <Gold.Chemscore.Internal.Correction>
   9.000000E+99

> <Gold.Chemscore.Hbonds>
donor molecule, donor type, donor heavy atom, donor atom, acceptor molecule, acceptor atom, score
      P1  H  7989  7998       L1     3  0.90
      P1  H  7997  8008       L1    14  0.03

> <Gold.Chemscore.Hbond.Weighted>
-3.2368

> <Gold.Chemscore.Metal.Weighted>
-0.0000

> <Gold.Chemscore.Lipo.Weighted>
-12.7321

> <Gold.Chemscore.Internal_Hbond.Weighted>
0.0000

> <Gold.Chemscore.DEClash.Weighted>
0.2985

> <Gold.Chemscore.DEInternal.Weighted>
0.1994

> <Gold.Chemscore.Rot.Weighted>
3.7118

> <Gold.Chemscore.Internal.Correction.Weighted>
   9.000000E+99

> <Gold.Protein.RotatedTorsions>
[ 6907 6896 6895 6894 ] final   -4.15 input  -60.11 | X-H torsion
[ 7974 7965 7964 7962 ] final   47.63 input  175.53 | X-H torsion
[ 8008 7997 7996 7995 ] final -101.39 input   59.86 | X-H torsion
[ 10167 10162 10161 10158 ] final  -83.74 input  -65.29 | X-H torsion
[ 10718 10713 10712 10709 ] final  107.02 input   66.30 | X-H torsion
[ 10763 10752 10751 10750 ] final   72.47 input  -60.55 | X-H torsion
[ 11005 11000 10999 10996 ] final -112.77 input  -57.11 | X-H torsion

> <Gold.Protein.ActiveResidues>
 VAL166  LYS551  ARG553  GLY616  TRP617  ASP618  TYR619  PRO620  LYS621  CYS622 
 ASP623  PHE694  ASN695  SER759  ASP760  ASP761  ALA762  ILE779  LEU786  VAL792 
 PHE793  MET794  SER795  GLU796  ALA797  LYS798  CYS799  TRP800  GLU811  SER814 

> <Gold.Protein.RotatedAtoms>
  151.5024  135.1062  159.9832 H   0  0  0  0  0  0  0  0  0  0  0  0  # atno 6907 bound_to 6896
  152.4696  133.7996  159.6956 H   0  0  0  0  0  0  0  0  0  0  0  0  # atno 6908 bound_to 6896
  150.8698  133.7458  159.2991 H   0  0  0  0  0  0  0  0  0  0  0  0  # atno 6909 bound_to 6896
  146.0280  139.4729  142.9856 H   0  0  0  0  0  0  0  0  0  0  0  0  # atno 7974 bound_to 7965
  154.8419  140.0435  157.1547 H   0  0  0  0  0  0  0  0  0  0  0  0  # atno 8008 bound_to 7997
  154.9038  140.3004  155.5283 H   0  0  0  0  0  0  0  0  0  0  0  0  # atno 8009 bound_to 7997
  156.2992  140.2371  156.4069 H   0  0  0  0  0  0  0  0  0  0  0  0  # atno 8010 bound_to 7997
  140.4198  143.2589  151.8905 H   0  0  0  0  0  0  0  0  0  0  0  0  # atno 10167 bound_to 10162
  157.6645  131.0863  150.6094 H   0  0  0  0  0  0  0  0  0  0  0  0  # atno 10718 bound_to 10713
  153.0461  135.5098  154.7749 H   0  0  0  0  0  0  0  0  0  0  0  0  # atno 10763 bound_to 10752
  154.6648  135.2944  154.9822 H   0  0  0  0  0  0  0  0  0  0  0  0  # atno 10764 bound_to 10752
  154.0661  135.6684  153.4870 H   0  0  0  0  0  0  0  0  0  0  0  0  # atno 10765 bound_to 10752
  141.0655  133.9466  157.2587 H   0  0  0  0  0  0  0  0  0  0  0  0  # atno 11005 bound_to 11000
  145.7087  141.0113  143.1465 LP  0  0  0  0  0  0  0  0  0  0  0  0  # atno 17320 bound_to 7965
  144.7018  139.8731  143.7442 LP  0  0  0  0  0  0  0  0  0  0  0  0  # atno 17321 bound_to 7965
  139.4782  144.5449  151.8473 LP  0  0  0  0  0  0  0  0  0  0  0  0  # atno 17342 bound_to 10162
  140.4546  144.1808  150.5900 LP  0  0  0  0  0  0  0  0  0  0  0  0  # atno 17343 bound_to 10162
  156.6396  130.4454  149.5757 LP  0  0  0  0  0  0  0  0  0  0  0  0  # atno 17370 bound_to 10713
  156.2219  130.6742  151.1377 LP  0  0  0  0  0  0  0  0  0  0  0  0  # atno 17371 bound_to 10713
  139.9472  135.0182  156.8888 LP  0  0  0  0  0  0  0  0  0  0  0  0  # atno 17394 bound_to 11000
  140.5782  134.0377  155.7454 LP  0  0  0  0  0  0  0  0  0  0  0  0  # atno 17395 bound_to 11000

$$$$
