AV-unprocessed.smi:2061|AV-procd|sdf|8373|dock8
  -GOLD-   2272011 43D 1   1.00000     0.00000
 Structure written by MMmdl.
 46 47  0  0  0  0  0  0  0  0  2 V2000
  135.9909  137.9159  154.8291 C   0  0  0  0  0  0  0  0  0  0  0  0
  137.4180  138.1517  154.4698 C   0  0  0  0  0  0  0  0  0  0  0  0
  138.5047  137.3273  154.3880 C   0  0  0  0  0  0  0  0  0  0  0  0
  139.5452  138.2085  153.9908 C   0  0  0  0  0  0  0  0  0  0  0  0
  140.8662  137.7319  153.7941 N   0  0  0  0  0  0  0  0  0  0  0  0
  141.3305  136.4914  154.0194 C   0  0  0  0  0  0  0  0  0  0  0  0
  140.6673  135.5528  154.4621 O   0  0  0  0  0  0  0  0  0  0  0  0
  142.6265  136.3872  153.6912 N   0  0  0  0  0  0  0  0  0  0  0  0
  143.4159  135.1633  153.7961 C   0  0  0  0  0  0  0  0  0  0  0  0
  143.6628  134.4755  152.4252 C   0  0  1  0  0  0  0  0  0  0  0  0
  144.5104  135.4000  151.5175 C   0  0  0  0  0  0  0  0  0  0  0  0
  144.2757  133.1174  152.6183 N   0  3  1  0  0  0  0  0  0  0  0  0
  144.3616  132.2965  151.3785 C   0  0  0  0  0  0  0  0  0  0  0  0
  145.5296  132.7486  150.4724 C   0  0  2  0  0  0  0  0  0  0  0  0
  145.6952  131.8353  149.2525 C   0  0  0  0  0  0  0  0  0  0  0  0
  146.7445  132.7143  151.2147 O   0  0  0  0  0  0  0  0  0  0  0  0
  146.7219  133.5557  152.3631 C   0  0  2  0  0  0  0  0  0  0  0  0
  148.0995  133.4861  153.0303 C   0  0  0  0  0  0  0  0  0  0  0  0
  145.5974  133.0715  153.3008 C   0  0  0  0  0  0  0  0  0  0  0  0
  139.1318  139.4579  153.8436 N   0  0  0  0  0  0  0  0  0  0  0  0
  137.7658  139.4277  154.1487 O   0  0  0  0  0  0  0  0  0  0  0  0
  135.8585  136.9284  155.2714 H   0  0  0  0  0  0  0  0  0  0  0  0
  135.3552  137.9786  153.9458 H   0  0  0  0  0  0  0  0  0  0  0  0
  135.6445  138.6571  155.5495 H   0  0  0  0  0  0  0  0  0  0  0  0
  138.5452  136.2657  154.5824 H   0  0  0  0  0  0  0  0  0  0  0  0
  141.5244  138.4060  153.4324 H   0  0  0  0  0  0  0  0  0  0  0  0
  143.0986  137.2078  153.3396 H   0  0  0  0  0  0  0  0  0  0  0  0
  144.3711  135.4188  154.2558 H   0  0  0  0  0  0  0  0  0  0  0  0
  142.9077  134.5084  154.5020 H   0  0  0  0  0  0  0  0  0  0  0  0
  142.7042  134.3465  151.9243 H   0  0  0  0  0  0  0  0  0  0  0  0
  144.0797  136.3979  151.4377 H   0  0  0  0  0  0  0  0  0  0  0  0
  144.5679  135.0284  150.4948 H   0  0  0  0  0  0  0  0  0  0  0  0
  145.5252  135.5130  151.9002 H   0  0  0  0  0  0  0  0  0  0  0  0
  144.5227  131.2593  151.6765 H   0  0  0  0  0  0  0  0  0  0  0  0
  143.4286  132.2937  150.8199 H   0  0  0  0  0  0  0  0  0  0  0  0
  145.3611  133.7636  150.1117 H   0  0  0  0  0  0  0  0  0  0  0  0
  144.7944  131.8334  148.6386 H   0  0  0  0  0  0  0  0  0  0  0  0
  145.8983  130.8070  149.5522 H   0  0  0  0  0  0  0  0  0  0  0  0
  146.5228  132.1682  148.6256 H   0  0  0  0  0  0  0  0  0  0  0  0
  146.5411  134.5862  152.0537 H   0  0  0  0  0  0  0  0  0  0  0  0
  148.1393  134.1222  153.9149 H   0  0  0  0  0  0  0  0  0  0  0  0
  148.8806  133.8201  152.3467 H   0  0  0  0  0  0  0  0  0  0  0  0
  148.3393  132.4680  153.3384 H   0  0  0  0  0  0  0  0  0  0  0  0
  145.5966  133.6134  154.2451 H   0  0  0  0  0  0  0  0  0  0  0  0
  145.7935  132.0351  153.5804 H   0  0  0  0  0  0  0  0  0  0  0  0
  143.6391  132.6348  153.2363 H   0  0  0  0  0  0  0  0  0  0  0  0
  1  2  1  0  0  0  0
  1 22  1  0  0  0  0
  1 23  1  0  0  0  0
  1 24  1  0  0  0  0
  2 21  1  0  0  0  0
  2  3  2  0  0  0  0
  3  4  1  0  0  0  0
  3 25  1  0  0  0  0
  4  5  1  0  0  0  0
  4 20  2  0  0  0  0
  5  6  1  0  0  0  0
  5 26  1  0  0  0  0
  6  7  2  0  0  0  0
  6  8  1  0  0  0  0
  8  9  1  0  0  0  0
  8 27  1  0  0  0  0
  9 10  1  0  0  0  0
  9 28  1  0  0  0  0
  9 29  1  0  0  0  0
 10 11  1  0  0  0  0
 10 12  1  0  0  0  0
 10 30  1  0  0  0  0
 11 31  1  0  0  0  0
 11 32  1  0  0  0  0
 11 33  1  0  0  0  0
 12 19  1  0  0  0  0
 12 13  1  0  0  0  0
 12 46  1  0  0  0  0
 13 14  1  0  0  0  0
 13 34  1  0  0  0  0
 13 35  1  0  0  0  0
 14 15  1  0  0  0  0
 14 16  1  0  0  0  0
 14 36  1  0  0  0  0
 15 37  1  0  0  0  0
 15 38  1  0  0  0  0
 15 39  1  0  0  0  0
 16 17  1  0  0  0  0
 17 18  1  0  0  0  0
 17 19  1  0  0  0  0
 17 40  1  0  0  0  0
 18 41  1  0  0  0  0
 18 42  1  0  0  0  0
 18 43  1  0  0  0  0
 19 44  1  0  0  0  0
 19 45  1  0  0  0  0
 20 21  1  0  0  0  0
M  CHG  1  12   1
M  END
> <s_m_source_file>
AV-unprocessed.smi

> <i_m_source_file_index>
2061

> <i_lp_mmshare_version>
43012

> <i_f3d_flags>
0

> <s_epik_input>
W0NIM11jMVtjSF1jKG5vMSlbTkhdQyg9TylbTkhdW0NIMl1bQ0BIXShbQ0gzXSlOMltDSDJdW0NAQEhdKFtDSDNdKU9bQ0BASF0oW0NIM10pW0NIMl0y

> <s_epik_cmdline>
J2VwaWtfcHl0aG9uJywgJy1waCcsICc3LjAnLCAnLXRuJywgJzgnLCAnLW1hJywgJzIwMCcsICctbWV0YWxfYmluZGluZycsICctaW1hZScsICc8aW5maWxlLm1hZT4nLCAnLW9tYWUnLCAnPG91dGZpbGUubWFlPic=

> <r_epik_Ionization_Penalty>
0.707076

> <r_epik_Ionization_Penalty_Charging>
0.707039

> <r_epik_Ionization_Penalty_Neutral>
3.6548e-05

> <r_epik_State_Penalty>
0.730276

> <r_epik_Charging_Adjusted_Penalty>
1.43732

> <i_epik_Tot_Q>
1

> <i_epik_Tot_abs_Q>
1

> <r_epik_Metal_State_Penalty>
0.743132

> <b_epik_Metal_Only>
0

> <s_lp_Force_Field>
OPLS_2005

> <r_lp_Energy>
17.8186

> <b_lp_Chiralities_Consistent>
1

> <s_lp_Variant>
AV-unprocessed.smi:2061-14

> <Gold.Version>
5.8.1

> <Gold.Id.Protein>
6NUR|6NUR_protein|mol2

> <Gold.PLP.Fitness>
44.9113

> <Gold.PLP.PLP>
-36.1890

> <Gold.PLP.part.hbond>
-2.2867

> <Gold.PLP.part.metal>
0.0000

> <Gold.PLP.part.buried>
-7.2437

> <Gold.PLP.part.nonpolar>
-26.9721

> <Gold.PLP.part.repulsive>
0.7987

> <Gold.PLP.ligand.clash>
0.0000

> <Gold.PLP.ligand.torsion>
0.1652

> <Gold.PLP.Chemscore.Hbond>
3.0000

> <Gold.PLP.Chemscore.CHOScore>
0.0000

> <Gold.PLP.Chemscore.Metal>
0.0000

> <Gold.Chemscore.Hbonds>
donor molecule, donor type, donor heavy atom, donor atom, acceptor molecule, acceptor atom, score
      L1  H    12    46       P1 10957  2.00
      P1  H 11000 11005       L1     7  0.93

> <Gold.PLP.Chemscore.Internal.Correction>
0.0528

> <Gold.Rescore>
     Score         DG    S(hbond)    S(metal)    S(lipo)     H(rot)  DE(clash)    DE(int)     intcor
     12.19     -15.33       1.53        0.00      75.28       1.58       0.24       2.90       ----

> <Gold.Chemscore.Fitness>
12.1899

> <Gold.Chemscore.DG>
-15.3298

> <Gold.Chemscore.ZeroCoef>
-5.4800

> <Gold.Chemscore.Hbond>
1.5254

> <Gold.Chemscore.Metal>
0.0000

> <Gold.Chemscore.Lipo>
75.2846

> <Gold.Chemscore.Internal_Hbond>
0.0000

> <Gold.Chemscore.DEClash>
0.2446

> <Gold.Chemscore.DEInternal>
2.8954

> <Gold.Chemscore.Rot>
1.5834

> <Gold.Chemscore.Internal.Correction>
   9.000000E+99

> <Gold.Chemscore.Hbonds>
donor molecule, donor type, donor heavy atom, donor atom, acceptor molecule, acceptor atom, score
      L1  H    12    46       P1 10957  0.29
      P1  H 11000 11005       L1     7  0.90

> <Gold.Chemscore.Hbond.Weighted>
-5.0949

> <Gold.Chemscore.Metal.Weighted>
-0.0000

> <Gold.Chemscore.Lipo.Weighted>
-8.8083

> <Gold.Chemscore.Internal_Hbond.Weighted>
0.0000

> <Gold.Chemscore.DEClash.Weighted>
0.2446

> <Gold.Chemscore.DEInternal.Weighted>
2.8954

> <Gold.Chemscore.Rot.Weighted>
4.0535

> <Gold.Chemscore.Internal.Correction.Weighted>
   9.000000E+99

> <Gold.Protein.RotatedTorsions>
[ 6907 6896 6895 6894 ] final -147.64 input  -60.11 | X-H torsion
[ 7974 7965 7964 7962 ] final -141.62 input  175.53 | X-H torsion
[ 8008 7997 7996 7995 ] final   62.52 input   59.86 | X-H torsion
[ 10167 10162 10161 10158 ] final  155.53 input  -65.29 | X-H torsion
[ 10718 10713 10712 10709 ] final -123.28 input   66.30 | X-H torsion
[ 10763 10752 10751 10750 ] final -126.19 input  -60.55 | X-H torsion
[ 11005 11000 10999 10996 ] final   33.24 input  -57.11 | X-H torsion

> <Gold.Protein.ActiveResidues>
 VAL166  LYS551  ARG553  GLY616  TRP617  ASP618  TYR619  PRO620  LYS621  CYS622 
 ASP623  PHE694  ASN695  SER759  ASP760  ASP761  ALA762  ILE779  LEU786  VAL792 
 PHE793  MET794  SER795  GLU796  ALA797  LYS798  CYS799  TRP800  GLU811  SER814 

> <Gold.Protein.RotatedAtoms>
  151.1585  133.4860  159.2594 H   0  0  0  0  0  0  0  0  0  0  0  0  # atno 6907 bound_to 6896
  151.1479  135.0212  159.8665 H   0  0  0  0  0  0  0  0  0  0  0  0  # atno 6908 bound_to 6896
  152.5463  134.1472  159.8557 H   0  0  0  0  0  0  0  0  0  0  0  0  # atno 6909 bound_to 6896
  144.8506  140.6058  143.5393 H   0  0  0  0  0  0  0  0  0  0  0  0  # atno 7974 bound_to 7965
  155.6156  140.3495  155.4636 H   0  0  0  0  0  0  0  0  0  0  0  0  # atno 8008 bound_to 7997
  156.0120  140.1235  157.0468 H   0  0  0  0  0  0  0  0  0  0  0  0  # atno 8009 bound_to 7997
  154.4284  140.1079  156.5829 H   0  0  0  0  0  0  0  0  0  0  0  0  # atno 8010 bound_to 7997
  139.4821  144.5090  151.8053 H   0  0  0  0  0  0  0  0  0  0  0  0  # atno 10167 bound_to 10162
  156.1489  130.6520  150.9883 H   0  0  0  0  0  0  0  0  0  0  0  0  # atno 10718 bound_to 10713
  154.8743  135.4004  154.3390 H   0  0  0  0  0  0  0  0  0  0  0  0  # atno 10763 bound_to 10752
  153.4192  135.7022  153.6311 H   0  0  0  0  0  0  0  0  0  0  0  0  # atno 10764 bound_to 10752
  153.4980  135.3734  155.2496 H   0  0  0  0  0  0  0  0  0  0  0  0  # atno 10765 bound_to 10752
  140.2652  134.3146  155.7845 H   0  0  0  0  0  0  0  0  0  0  0  0  # atno 11005 bound_to 11000
  145.4508  139.1524  143.3919 LP  0  0  0  0  0  0  0  0  0  0  0  0  # atno 17320 bound_to 7965
  146.2781  140.4634  142.8787 LP  0  0  0  0  0  0  0  0  0  0  0  0  # atno 17321 bound_to 7965
  140.4591  144.1747  150.5904 LP  0  0  0  0  0  0  0  0  0  0  0  0  # atno 17342 bound_to 10162
  140.4503  143.2489  151.9356 LP  0  0  0  0  0  0  0  0  0  0  0  0  # atno 17343 bound_to 10162
  157.6640  131.0875  150.7772 LP  0  0  0  0  0  0  0  0  0  0  0  0  # atno 17370 bound_to 10713
  156.7842  130.4869  149.5396 LP  0  0  0  0  0  0  0  0  0  0  0  0  # atno 17371 bound_to 10713
  141.2185  133.7433  156.9248 LP  0  0  0  0  0  0  0  0  0  0  0  0  # atno 17394 bound_to 11000
  140.1426  134.9283  157.2487 LP  0  0  0  0  0  0  0  0  0  0  0  0  # atno 17395 bound_to 11000

$$$$
