AV-unprocessed.smi:1734|AV-procd|sdf|6986|dock2
  -GOLD-   22720 8203D 1   1.00000     0.00000
 Structure written by MMmdl.
 51 53  0  0  0  0  0  0  0  0  2 V2000
  144.0848  135.0502  150.7876 C   0  0  0  0  0  0  0  0  0  0  0  0
  145.0099  133.8633  151.0021 C   0  0  0  0  0  0  0  0  0  0  0  0
  144.6170  132.5906  150.5360 C   0  0  0  0  0  0  0  0  0  0  0  0
  145.4726  131.4937  150.7330 C   0  0  0  0  0  0  0  0  0  0  0  0
  146.6930  131.7168  151.3930 C   0  0  0  0  0  0  0  0  0  0  0  0
  147.0757  132.9292  151.8428 N   0  0  0  0  0  0  0  0  0  0  0  0
  146.2611  133.9991  151.6614 C   0  0  0  0  0  0  0  0  0  0  0  0
  146.6019  135.3078  152.1073 N   0  0  0  0  0  0  0  0  0  0  0  0
  145.9163  136.1117  152.9394 C   0  0  0  0  0  0  0  0  0  0  0  0
  144.8257  135.8495  153.4467 O   0  0  0  0  0  0  0  0  0  0  0  0
  146.5772  137.2581  153.1586 N   0  0  0  0  0  0  0  0  0  0  0  0
  146.1184  138.3465  154.0164 C   0  0  0  0  0  0  0  0  0  0  0  0
  146.8621  139.6820  153.7445 C   0  0  2  0  0  0  0  0  0  0  0  0
  148.2853  139.7539  154.3704 C   0  0  1  0  0  0  0  0  0  0  0  0
  149.2251  138.6045  154.0397 C   0  0  0  0  0  0  0  0  0  0  0  0
  150.6032  139.1937  154.3277 C   0  0  0  0  0  0  0  0  0  0  0  0
  150.4786  140.5990  154.1439 O   0  0  0  0  0  0  0  0  0  0  0  0
  149.1262  140.9294  153.8592 C   0  0  0  0  0  0  0  0  0  0  0  0
  146.0593  140.8625  154.1876 N   0  3  0  0  0  0  0  0  0  0  0  0
  145.9441  141.0017  155.6599 C   0  0  0  0  0  0  0  0  0  0  0  0
  144.9422  142.1162  156.0072 C   0  0  0  0  0  0  0  0  0  0  0  0
  145.3478  143.3346  155.3945 O   0  0  0  0  0  0  0  0  0  0  0  0
  145.3850  143.2349  153.9756 C   0  0  0  0  0  0  0  0  0  0  0  0
  146.4083  142.1642  153.5629 C   0  0  0  0  0  0  0  0  0  0  0  0
  143.1747  134.7545  150.2647 H   0  0  0  0  0  0  0  0  0  0  0  0
  144.5797  135.8173  150.1913 H   0  0  0  0  0  0  0  0  0  0  0  0
  143.7950  135.4857  151.7441 H   0  0  0  0  0  0  0  0  0  0  0  0
  143.6714  132.4535  150.0325 H   0  0  0  0  0  0  0  0  0  0  0  0
  145.2003  130.5075  150.3873 H   0  0  0  0  0  0  0  0  0  0  0  0
  147.3803  130.9016  151.5642 H   0  0  0  0  0  0  0  0  0  0  0  0
  147.4755  135.6684  151.7540 H   0  0  0  0  0  0  0  0  0  0  0  0
  147.4647  137.3878  152.6948 H   0  0  0  0  0  0  0  0  0  0  0  0
  145.0493  138.4581  153.8377 H   0  0  0  0  0  0  0  0  0  0  0  0
  146.2290  138.0734  155.0666 H   0  0  0  0  0  0  0  0  0  0  0  0
  146.9888  139.7786  152.6648 H   0  0  0  0  0  0  0  0  0  0  0  0
  148.2111  139.8265  155.4563 H   0  0  0  0  0  0  0  0  0  0  0  0
  149.0437  137.7092  154.6334 H   0  0  0  0  0  0  0  0  0  0  0  0
  149.1466  138.3385  152.9845 H   0  0  0  0  0  0  0  0  0  0  0  0
  150.8922  139.0046  155.3622 H   0  0  0  0  0  0  0  0  0  0  0  0
  151.3736  138.7746  153.6799 H   0  0  0  0  0  0  0  0  0  0  0  0
  149.0187  141.0402  152.7791 H   0  0  0  0  0  0  0  0  0  0  0  0
  148.8523  141.8769  154.3240 H   0  0  0  0  0  0  0  0  0  0  0  0
  145.6100  140.0620  156.1007 H   0  0  0  0  0  0  0  0  0  0  0  0
  146.9169  141.2330  156.0947 H   0  0  0  0  0  0  0  0  0  0  0  0
  143.9351  141.8498  155.6815 H   0  0  0  0  0  0  0  0  0  0  0  0
  144.8995  142.2606  157.0870 H   0  0  0  0  0  0  0  0  0  0  0  0
  144.3932  142.9969  153.5877 H   0  0  0  0  0  0  0  0  0  0  0  0
  145.6658  144.2031  153.5606 H   0  0  0  0  0  0  0  0  0  0  0  0
  147.4036  142.4815  153.8762 H   0  0  0  0  0  0  0  0  0  0  0  0
  146.4233  142.0761  152.4771 H   0  0  0  0  0  0  0  0  0  0  0  0
  145.1198  140.6596  153.8771 H   0  0  0  0  0  0  0  0  0  0  0  0
  1  2  1  0  0  0  0
  1 25  1  0  0  0  0
  1 26  1  0  0  0  0
  1 27  1  0  0  0  0
  2  7  1  0  0  0  0
  2  3  2  0  0  0  0
  3  4  1  0  0  0  0
  3 28  1  0  0  0  0
  4  5  2  0  0  0  0
  4 29  1  0  0  0  0
  5  6  1  0  0  0  0
  5 30  1  0  0  0  0
  6  7  2  0  0  0  0
  7  8  1  0  0  0  0
  8  9  1  0  0  0  0
  8 31  1  0  0  0  0
  9 10  2  0  0  0  0
  9 11  1  0  0  0  0
 11 12  1  0  0  0  0
 11 32  1  0  0  0  0
 12 13  1  0  0  0  0
 12 33  1  0  0  0  0
 12 34  1  0  0  0  0
 13 14  1  0  0  0  0
 13 19  1  0  0  0  0
 13 35  1  0  0  0  0
 14 18  1  0  0  0  0
 14 15  1  0  0  0  0
 14 36  1  0  0  0  0
 15 16  1  0  0  0  0
 15 37  1  0  0  0  0
 15 38  1  0  0  0  0
 16 17  1  0  0  0  0
 16 39  1  0  0  0  0
 16 40  1  0  0  0  0
 17 18  1  0  0  0  0
 18 41  1  0  0  0  0
 18 42  1  0  0  0  0
 19 24  1  0  0  0  0
 19 20  1  0  0  0  0
 19 51  1  0  0  0  0
 20 21  1  0  0  0  0
 20 43  1  0  0  0  0
 20 44  1  0  0  0  0
 21 22  1  0  0  0  0
 21 45  1  0  0  0  0
 21 46  1  0  0  0  0
 22 23  1  0  0  0  0
 23 24  1  0  0  0  0
 23 47  1  0  0  0  0
 23 48  1  0  0  0  0
 24 49  1  0  0  0  0
 24 50  1  0  0  0  0
M  CHG  1  19   1
M  END
> <s_m_source_file>
AV-unprocessed.smi

> <i_m_source_file_index>
1734

> <i_lp_mmshare_version>
43012

> <i_f3d_flags>
0

> <s_epik_input>
W0NIM11jMVtjSF1bY0hdW2NIXW5jMVtOSF1DKD1PKVtOSF1bQ0gyXVtDQEhdKFtDQEBIXTJbQ0gyXVtDSDJdT1tDSDJdMilOM1tDSDJdW0NIMl1PW0NIMl1bQ0gyXTM=

> <s_epik_cmdline>
J2VwaWtfcHl0aG9uJywgJy1waCcsICc3LjAnLCAnLXRuJywgJzgnLCAnLW1hJywgJzIwMCcsICctbWV0YWxfYmluZGluZycsICctaW1hZScsICc8aW5maWxlLm1hZT4nLCAnLW9tYWUnLCAnPG91dGZpbGUubWFlPic=

> <r_epik_Ionization_Penalty>
0.983302

> <r_epik_Ionization_Penalty_Charging>
0.98326

> <r_epik_Ionization_Penalty_Neutral>
4.21967e-05

> <r_epik_State_Penalty>
1.0303

> <r_epik_Charging_Adjusted_Penalty>
2.01356

> <i_epik_Tot_Q>
1

> <i_epik_Tot_abs_Q>
1

> <r_epik_Metal_State_Penalty>
1.03031

> <b_epik_Metal_Only>
0

> <s_lp_Force_Field>
OPLS_2005

> <r_lp_Energy>
41.1253

> <b_lp_Chiralities_Consistent>
1

> <s_lp_Variant>
AV-unprocessed.smi:1734-7

> <Gold.Version>
5.8.1

> <Gold.Id.Protein>
6NUR|6NUR_protein|mol2

> <Gold.PLP.Fitness>
52.1029

> <Gold.PLP.PLP>
-37.4088

> <Gold.PLP.part.hbond>
-4.0000

> <Gold.PLP.part.metal>
0.0000

> <Gold.PLP.part.buried>
-3.2359

> <Gold.PLP.part.nonpolar>
-31.1711

> <Gold.PLP.part.repulsive>
0.6230

> <Gold.PLP.ligand.clash>
0.0041

> <Gold.PLP.ligand.torsion>
1.0858

> <Gold.PLP.Chemscore.Hbond>
4.7030

> <Gold.PLP.Chemscore.CHOScore>
0.7677

> <Gold.PLP.Chemscore.Metal>
0.0000

> <Gold.Chemscore.Hbonds>
donor molecule, donor type, donor heavy atom, donor atom, acceptor molecule, acceptor atom, score
      L1  H     8    31       P1  7948  1.00
      L1  H    11    32       P1  7948  0.74
      L1  H    19    51       P1 10175  2.00
      P1  H  7989  7998       L1    17  0.45
      L1  C     5    30       P1 10747  0.70

> <Gold.PLP.Chemscore.Internal.Correction>
0.4575

> <Gold.Rescore>
     Score         DG    S(hbond)    S(metal)    S(lipo)     H(rot)  DE(clash)    DE(int)     intcor
     18.90     -20.55       2.50        0.00      94.61       1.70       0.33       1.32       ----

> <Gold.Chemscore.Fitness>
18.9037

> <Gold.Chemscore.DG>
-20.5506

> <Gold.Chemscore.ZeroCoef>
-5.4800

> <Gold.Chemscore.Hbond>
2.4998

> <Gold.Chemscore.Metal>
0.0000

> <Gold.Chemscore.Lipo>
94.6131

> <Gold.Chemscore.Internal_Hbond>
0.0000

> <Gold.Chemscore.DEClash>
0.3262

> <Gold.Chemscore.DEInternal>
1.3207

> <Gold.Chemscore.Rot>
1.6986

> <Gold.Chemscore.Internal.Correction>
   9.000000E+99

> <Gold.Chemscore.Hbonds>
donor molecule, donor type, donor heavy atom, donor atom, acceptor molecule, acceptor atom, score
      L1  H     8    31       P1  7948  0.94
      L1  H    11    32       P1  7948  0.70
      L1  H    19    51       P1 10175  0.91
      P1  H  7989  7998       L1    17  0.15

> <Gold.Chemscore.Hbond.Weighted>
-8.3494

> <Gold.Chemscore.Metal.Weighted>
-0.0000

> <Gold.Chemscore.Lipo.Weighted>
-11.0697

> <Gold.Chemscore.Internal_Hbond.Weighted>
0.0000

> <Gold.Chemscore.DEClash.Weighted>
0.3262

> <Gold.Chemscore.DEInternal.Weighted>
1.3207

> <Gold.Chemscore.Rot.Weighted>
4.3485

> <Gold.Chemscore.Internal.Correction.Weighted>
   9.000000E+99

> <Gold.Protein.RotatedTorsions>
[ 6907 6896 6895 6894 ] final   34.87 input  -60.11 | X-H torsion
[ 7974 7965 7964 7962 ] final  -12.03 input  175.53 | X-H torsion
[ 8008 7997 7996 7995 ] final    4.12 input   59.86 | X-H torsion
[ 10167 10162 10161 10158 ] final  173.95 input  -65.29 | X-H torsion
[ 10718 10713 10712 10709 ] final   60.45 input   66.30 | X-H torsion
[ 10763 10752 10751 10750 ] final  -33.64 input  -60.55 | X-H torsion
[ 11005 11000 10999 10996 ] final -135.39 input  -57.11 | X-H torsion

> <Gold.Protein.ActiveResidues>
 VAL166  LYS551  ARG553  GLY616  TRP617  ASP618  TYR619  PRO620  LYS621  CYS622 
 ASP623  PHE694  ASN695  SER759  ASP760  ASP761  ALA762  ILE779  LEU786  VAL792 
 PHE793  MET794  SER795  GLU796  ALA797  LYS798  CYS799  TRP800  GLU811  SER814 

> <Gold.Protein.RotatedAtoms>
  152.1083  134.9293  160.0567 H   0  0  0  0  0  0  0  0  0  0  0  0  # atno 6907 bound_to 6896
  152.0480  133.4001  159.4373 H   0  0  0  0  0  0  0  0  0  0  0  0  # atno 6908 bound_to 6896
  150.6842  134.3260  159.4850 H   0  0  0  0  0  0  0  0  0  0  0  0  # atno 6909 bound_to 6896
  146.2167  140.2997  142.8374 H   0  0  0  0  0  0  0  0  0  0  0  0  # atno 7974 bound_to 7965
  154.7121  140.2694  155.6620 H   0  0  0  0  0  0  0  0  0  0  0  0  # atno 8008 bound_to 7997
  156.2798  140.2751  156.1690 H   0  0  0  0  0  0  0  0  0  0  0  0  # atno 8009 bound_to 7997
  155.0621  140.0371  157.2570 H   0  0  0  0  0  0  0  0  0  0  0  0  # atno 8010 bound_to 7997
  139.5125  144.3202  152.0210 H   0  0  0  0  0  0  0  0  0  0  0  0  # atno 10167 bound_to 10162
  157.5754  130.8939  149.9337 H   0  0  0  0  0  0  0  0  0  0  0  0  # atno 10718 bound_to 10713
  153.8335  135.6864  153.4811 H   0  0  0  0  0  0  0  0  0  0  0  0  # atno 10763 bound_to 10752
  153.1496  135.4623  154.9615 H   0  0  0  0  0  0  0  0  0  0  0  0  # atno 10764 bound_to 10752
  154.7876  135.3290  154.7796 H   0  0  0  0  0  0  0  0  0  0  0  0  # atno 10765 bound_to 10752
  140.8902  134.1821  157.4533 H   0  0  0  0  0  0  0  0  0  0  0  0  # atno 11005 bound_to 11000
  144.9066  140.7707  143.5833 LP  0  0  0  0  0  0  0  0  0  0  0  0  # atno 17320 bound_to 7965
  145.2926  139.1878  143.4732 LP  0  0  0  0  0  0  0  0  0  0  0  0  # atno 17321 bound_to 7965
  140.2644  144.4032  150.6174 LP  0  0  0  0  0  0  0  0  0  0  0  0  # atno 17342 bound_to 10162
  140.6134  143.2171  151.6841 LP  0  0  0  0  0  0  0  0  0  0  0  0  # atno 17343 bound_to 10162
  156.0798  130.3674  150.0603 LP  0  0  0  0  0  0  0  0  0  0  0  0  # atno 17370 bound_to 10713
  156.8750  130.9537  151.3605 LP  0  0  0  0  0  0  0  0  0  0  0  0  # atno 17371 bound_to 10713
  139.8729  134.9855  156.5285 LP  0  0  0  0  0  0  0  0  0  0  0  0  # atno 17394 bound_to 11000
  140.8356  133.8245  155.9025 LP  0  0  0  0  0  0  0  0  0  0  0  0  # atno 17395 bound_to 11000

$$$$
