AV-unprocessed.smi:182|AV-procd|sdf|1456|dock10
  -GOLD-   2262019263D 1   1.00000     0.00000
 Structure written by MMmdl.
 56 59  0  0  0  0  0  0  0  0  1 V2000
  155.1638  138.4203  160.6762 N   0  0  0  0  0  0  0  0  0  0  0  0
  154.9353  139.6670  160.2568 C   0  0  0  0  0  0  0  0  0  0  0  0
  155.3938  140.0934  159.1985 O   0  0  0  0  0  0  0  0  0  0  0  0
  154.0728  140.5491  161.1657 C   0  0  0  0  0  0  0  0  0  0  0  0
  153.6684  141.8902  160.5190 C   0  0  0  0  0  0  0  0  0  0  0  0
  152.5279  141.7625  159.4895 C   0  0  1  0  0  0  0  0  0  0  0  0
  152.0536  143.1482  159.0084 C   0  0  0  0  0  0  0  0  0  0  0  0
  150.9209  143.0082  157.9796 C   0  0  0  0  0  0  0  0  0  0  0  0
  151.3441  142.1050  156.8106 C   0  0  0  0  0  0  0  0  0  0  0  0
  151.8346  140.8171  157.3028 N   0  0  0  0  0  0  0  0  0  0  0  0
  151.9323  139.7912  156.4183 C   0  0  0  0  0  0  0  0  0  0  0  0
  152.8097  139.8701  155.3819 N   0  0  0  0  0  0  0  0  0  0  0  0
  152.9212  138.8623  154.5120 C   0  0  0  0  0  0  0  0  0  0  0  0
  152.2650  137.7010  154.4924 N   0  0  0  0  0  0  0  0  0  0  0  0
  151.3794  137.6153  155.5257 C   0  0  0  0  0  0  0  0  0  0  0  0
  151.1461  138.6079  156.5195 C   0  0  0  0  0  0  0  0  0  0  0  0
  150.1484  138.1791  157.3878 N   0  0  0  0  0  0  0  0  0  0  0  0
  149.8183  136.9995  156.9381 C   0  0  0  0  0  0  0  0  0  0  0  0
  150.5302  136.5689  155.8416 N   0  0  0  0  0  0  0  0  0  0  0  0
  150.3457  135.3386  155.1287 C   0  0  0  0  0  0  0  0  0  0  0  0
  150.4955  135.2743  153.6066 C   0  0  0  0  0  0  0  0  0  0  0  0
  149.4127  134.1722  153.5540 C   0  0  0  0  0  0  0  0  0  0  0  0
  148.3944  134.2944  152.4080 C   0  0  0  0  0  0  0  0  0  0  0  0
  147.9562  135.6289  152.2531 O   0  0  0  0  0  0  0  0  0  0  0  0
  149.9424  132.7250  153.6077 C   0  0  0  0  0  0  0  0  0  0  0  0
  148.9025  131.8044  153.8685 O   0  0  0  0  0  0  0  0  0  0  0  0
  148.9495  134.7525  154.9083 C   0  0  0  0  0  0  0  0  0  0  0  0
  152.9269  140.9016  158.2721 C   0  0  0  0  0  0  0  0  0  0  0  0
  155.7271  137.7983  160.1143 H   0  0  0  0  0  0  0  0  0  0  0  0
  154.7747  138.1029  161.5522 H   0  0  0  0  0  0  0  0  0  0  0  0
  153.1837  139.9838  161.4451 H   0  0  0  0  0  0  0  0  0  0  0  0
  154.6283  140.7351  162.0855 H   0  0  0  0  0  0  0  0  0  0  0  0
  153.3484  142.5761  161.3050 H   0  0  0  0  0  0  0  0  0  0  0  0
  154.5364  142.3537  160.0477 H   0  0  0  0  0  0  0  0  0  0  0  0
  151.6841  141.2794  159.9849 H   0  0  0  0  0  0  0  0  0  0  0  0
  151.7091  143.7452  159.8536 H   0  0  0  0  0  0  0  0  0  0  0  0
  152.8875  143.6919  158.5624 H   0  0  0  0  0  0  0  0  0  0  0  0
  150.0395  142.5868  158.4642 H   0  0  0  0  0  0  0  0  0  0  0  0
  150.6299  143.9903  157.6060 H   0  0  0  0  0  0  0  0  0  0  0  0
  150.4936  141.9552  156.1438 H   0  0  0  0  0  0  0  0  0  0  0  0
  152.1295  142.5906  156.2295 H   0  0  0  0  0  0  0  0  0  0  0  0
  153.6416  139.0056  153.7202 H   0  0  0  0  0  0  0  0  0  0  0  0
  149.0436  136.4060  157.4017 H   0  0  0  0  0  0  0  0  0  0  0  0
  150.9987  134.6099  155.6121 H   0  0  0  0  0  0  0  0  0  0  0  0
  150.1843  136.2000  153.1185 H   0  0  0  0  0  0  0  0  0  0  0  0
  151.4854  134.9698  153.2660 H   0  0  0  0  0  0  0  0  0  0  0  0
  148.8363  133.9793  151.4624 H   0  0  0  0  0  0  0  0  0  0  0  0
  147.5280  133.6523  152.5683 H   0  0  0  0  0  0  0  0  0  0  0  0
  148.6921  136.1575  151.9848 H   0  0  0  0  0  0  0  0  0  0  0  0
  150.4094  132.4398  152.6649 H   0  0  0  0  0  0  0  0  0  0  0  0
  150.7120  132.6094  154.3711 H   0  0  0  0  0  0  0  0  0  0  0  0
  148.8981  131.1543  153.1827 H   0  0  0  0  0  0  0  0  0  0  0  0
  148.6497  134.0087  155.6471 H   0  0  0  0  0  0  0  0  0  0  0  0
  148.1858  135.5255  154.8021 H   0  0  0  0  0  0  0  0  0  0  0  0
  153.7965  141.3363  157.7773 H   0  0  0  0  0  0  0  0  0  0  0  0
  153.2268  139.9098  158.6032 H   0  0  0  0  0  0  0  0  0  0  0  0
  1  2  1  0  0  0  0
  1 29  1  0  0  0  0
  1 30  1  0  0  0  0
  2  3  2  0  0  0  0
  2  4  1  0  0  0  0
  4  5  1  0  0  0  0
  4 31  1  0  0  0  0
  4 32  1  0  0  0  0
  5  6  1  0  0  0  0
  5 33  1  0  0  0  0
  5 34  1  0  0  0  0
  6 28  1  0  0  0  0
  6  7  1  0  0  0  0
  6 35  1  0  0  0  0
  7  8  1  0  0  0  0
  7 36  1  0  0  0  0
  7 37  1  0  0  0  0
  8  9  1  0  0  0  0
  8 38  1  0  0  0  0
  8 39  1  0  0  0  0
  9 10  1  0  0  0  0
  9 40  1  0  0  0  0
  9 41  1  0  0  0  0
 10 11  1  0  0  0  0
 10 28  1  0  0  0  0
 11 16  1  0  0  0  0
 11 12  2  0  0  0  0
 12 13  1  0  0  0  0
 13 14  2  0  0  0  0
 13 42  1  0  0  0  0
 14 15  1  0  0  0  0
 15 19  1  0  0  0  0
 15 16  2  0  0  0  0
 16 17  1  0  0  0  0
 17 18  2  0  0  0  0
 18 19  1  0  0  0  0
 18 43  1  0  0  0  0
 19 20  1  0  0  0  0
 20 27  1  0  0  0  0
 20 21  1  0  0  0  0
 20 44  1  0  0  0  0
 21 22  1  0  0  0  0
 21 45  1  0  0  0  0
 21 46  1  0  0  0  0
 22 23  1  0  0  0  0
 22 25  1  0  0  0  0
 22 27  1  0  0  0  0
 23 24  1  0  0  0  0
 23 47  1  0  0  0  0
 23 48  1  0  0  0  0
 24 49  1  0  0  0  0
 25 26  1  0  0  0  0
 25 50  1  0  0  0  0
 25 51  1  0  0  0  0
 26 52  1  0  0  0  0
 27 53  1  0  0  0  0
 27 54  1  0  0  0  0
 28 55  1  0  0  0  0
 28 56  1  0  0  0  0
M  END
> <s_m_source_file>
AV-unprocessed.smi

> <i_m_source_file_index>
182

> <i_lp_mmshare_version>
43012

> <i_f3d_flags>
0

> <s_epik_input>
W05IMl1DKD1PKVtDSDJdW0NIMl1bQ0BASF0xW0NIMl1bQ0gyXVtDSDJdTihbQ0gyXTEpYyhuW2NIXW4yKWMoYzIzKW5bY0hdbjNbQ0hdKFtDSDJdNClbQ0gyXUM0KFtDSDJdW09IXSlbQ0gyXVtPSF0=

> <s_epik_cmdline>
J2VwaWtfcHl0aG9uJywgJy1waCcsICc3LjAnLCAnLXRuJywgJzgnLCAnLW1hJywgJzIwMCcsICctbWV0YWxfYmluZGluZycsICctaW1hZScsICc8aW5maWxlLm1hZT4nLCAnLW9tYWUnLCAnPG91dGZpbGUubWFlPic=

> <r_lp_tautomer_probability>
1

> <r_epik_Ionization_Penalty>
0.00186057

> <r_epik_Ionization_Penalty_Charging>
0

> <r_epik_Ionization_Penalty_Neutral>
0.00186057

> <r_epik_State_Penalty>
0.00110736

> <r_epik_Charging_Adjusted_Penalty>
0.00110736

> <i_epik_Tot_Q>
0

> <i_epik_Tot_abs_Q>
0

> <r_epik_Metal_State_Penalty>
-0

> <b_epik_Metal_Only>
0

> <s_lp_Force_Field>
OPLS_2005

> <r_lp_Energy>
37.6951

> <b_lp_Chiralities_Consistent>
1

> <s_lp_Variant>
AV-unprocessed.smi:182-2

> <Gold.Version>
5.8.1

> <Gold.Id.Protein>
6NUR|6NUR_protein|mol2

> <Gold.PLP.Fitness>
52.9597

> <Gold.PLP.PLP>
-42.7388

> <Gold.PLP.part.hbond>
-3.8872

> <Gold.PLP.part.metal>
0.0000

> <Gold.PLP.part.buried>
-6.5368

> <Gold.PLP.part.nonpolar>
-32.7101

> <Gold.PLP.part.repulsive>
0.0729

> <Gold.PLP.ligand.clash>
0.0000

> <Gold.PLP.ligand.torsion>
1.1790

> <Gold.PLP.Chemscore.Hbond>
3.8720

> <Gold.PLP.Chemscore.CHOScore>
0.0000

> <Gold.PLP.Chemscore.Metal>
0.0000

> <Gold.Chemscore.Hbonds>
donor molecule, donor type, donor heavy atom, donor atom, acceptor molecule, acceptor atom, score
      P1  H  7997  8008       L1    12  1.00
      P1  H  7997  8010       L1     3  0.99
      P1  H 10752 10765       L1    14  0.23

> <Gold.PLP.Chemscore.Internal.Correction>
0.9629

> <Gold.Rescore>
     Score         DG    S(hbond)    S(metal)    S(lipo)     H(rot)  DE(clash)    DE(int)     intcor
     13.31     -15.95       3.46        0.00      95.64       4.79       0.09       2.55       ----

> <Gold.Chemscore.Fitness>
13.3064

> <Gold.Chemscore.DG>
-15.9485

> <Gold.Chemscore.ZeroCoef>
-5.4800

> <Gold.Chemscore.Hbond>
3.4570

> <Gold.Chemscore.Metal>
0.0000

> <Gold.Chemscore.Lipo>
95.6409

> <Gold.Chemscore.Internal_Hbond>
0.0000

> <Gold.Chemscore.DEClash>
0.0943

> <Gold.Chemscore.DEInternal>
2.5478

> <Gold.Chemscore.Rot>
4.7922

> <Gold.Chemscore.Internal.Correction>
   9.000000E+99

> <Gold.Chemscore.Hbonds>
donor molecule, donor type, donor heavy atom, donor atom, acceptor molecule, acceptor atom, score
      P1  H  7997  8008       L1    12  0.41
      P1  H  7997  8010       L1     3  0.94
      P1  H 10752 10765       L1    14  0.03

> <Gold.Chemscore.Hbond.Weighted>
-11.5465

> <Gold.Chemscore.Metal.Weighted>
-0.0000

> <Gold.Chemscore.Lipo.Weighted>
-11.1900

> <Gold.Chemscore.Internal_Hbond.Weighted>
0.0000

> <Gold.Chemscore.DEClash.Weighted>
0.0943

> <Gold.Chemscore.DEInternal.Weighted>
2.5478

> <Gold.Chemscore.Rot.Weighted>
12.2680

> <Gold.Chemscore.Internal.Correction.Weighted>
   9.000000E+99

> <Gold.Protein.RotatedTorsions>
[ 6907 6896 6895 6894 ] final   87.31 input  -60.11 | X-H torsion
[ 7974 7965 7964 7962 ] final  -73.60 input  175.53 | X-H torsion
[ 8008 7997 7996 7995 ] final  -17.37 input   59.86 | X-H torsion
[ 10167 10162 10161 10158 ] final  104.85 input  -65.29 | X-H torsion
[ 10718 10713 10712 10709 ] final   51.98 input   66.30 | X-H torsion
[ 10763 10752 10751 10750 ] final -174.59 input  -60.55 | X-H torsion
[ 11005 11000 10999 10996 ] final  177.31 input  -57.11 | X-H torsion

> <Gold.Protein.ActiveResidues>
 VAL166  LYS551  ARG553  GLY616  TRP617  ASP618  TYR619  PRO620  LYS621  CYS622 
 ASP623  PHE694  ASN695  SER759  ASP760  ASP761  ALA762  ILE779  LEU786  VAL792 
 PHE793  MET794  SER795  GLU796  ALA797  LYS798  CYS799  TRP800  GLU811  SER814 

> <Gold.Protein.RotatedAtoms>
  152.5409  134.2295  159.8819 H   0  0  0  0  0  0  0  0  0  0  0  0  # atno 6907 bound_to 6896
  151.2268  133.4465  159.2610 H   0  0  0  0  0  0  0  0  0  0  0  0  # atno 6908 bound_to 6896
  151.0753  134.9837  159.8385 H   0  0  0  0  0  0  0  0  0  0  0  0  # atno 6909 bound_to 6896
  145.6500  140.9285  143.0990 H   0  0  0  0  0  0  0  0  0  0  0  0  # atno 7974 bound_to 7965
  154.4983  140.2144  155.9400 H   0  0  0  0  0  0  0  0  0  0  0  0  # atno 8008 bound_to 7997
  156.1400  140.3181  155.8448 H   0  0  0  0  0  0  0  0  0  0  0  0  # atno 8009 bound_to 7997
  155.4138  140.0492  157.3021 H   0  0  0  0  0  0  0  0  0  0  0  0  # atno 8010 bound_to 7997
  139.7142  144.7071  151.0978 H   0  0  0  0  0  0  0  0  0  0  0  0  # atno 10167 bound_to 10162
  157.5032  130.8451  149.8342 H   0  0  0  0  0  0  0  0  0  0  0  0  # atno 10718 bound_to 10713
  154.5944  135.2848  155.0601 H   0  0  0  0  0  0  0  0  0  0  0  0  # atno 10763 bound_to 10752
  154.1890  135.6444  153.5058 H   0  0  0  0  0  0  0  0  0  0  0  0  # atno 10764 bound_to 10752
  153.0133  135.5441  154.6641 H   0  0  0  0  0  0  0  0  0  0  0  0  # atno 10765 bound_to 10752
  140.3827  134.6932  157.4461 H   0  0  0  0  0  0  0  0  0  0  0  0  # atno 11005 bound_to 11000
  144.7126  139.8314  143.7409 LP  0  0  0  0  0  0  0  0  0  0  0  0  # atno 17320 bound_to 7965
  146.1211  139.4229  143.0227 LP  0  0  0  0  0  0  0  0  0  0  0  0  # atno 17321 bound_to 7965
  140.7740  143.5252  150.9488 LP  0  0  0  0  0  0  0  0  0  0  0  0  # atno 17342 bound_to 10162
  139.8938  143.6920  152.3141 LP  0  0  0  0  0  0  0  0  0  0  0  0  # atno 17343 bound_to 10162
  156.0242  130.3785  150.1872 LP  0  0  0  0  0  0  0  0  0  0  0  0  # atno 17370 bound_to 10713
  157.0062  130.9937  151.3378 LP  0  0  0  0  0  0  0  0  0  0  0  0  # atno 17371 bound_to 10713
  140.0466  134.6190  155.8913 LP  0  0  0  0  0  0  0  0  0  0  0  0  # atno 17394 bound_to 11000
  141.1918  133.6573  156.5472 LP  0  0  0  0  0  0  0  0  0  0  0  0  # atno 17395 bound_to 11000

$$$$
