AV-unprocessed.smi:3116|AV-procd|sdf|11865|dock6
  -GOLD-   2272017243D 1   1.00000     0.00000
 Structure written by MMmdl.
 34 34  0  0  0  0  0  0  0  0  2 V2000
  146.5854  137.1700  154.3023 C   0  0  0  0  0  0  0  0  0  0  0  0
  146.9017  138.4424  153.5018 C   0  0  1  0  0  0  0  0  0  0  0  0
  148.3682  138.5712  153.3321 N   0  3  0  0  0  0  0  0  0  0  0  0
  149.1417  138.8960  154.5566 C   0  0  1  0  0  0  0  0  0  0  0  0
  150.6484  138.8530  154.2377 C   0  0  0  0  0  0  0  0  0  0  0  0
  148.6895  140.2696  155.1183 C   0  0  2  0  0  0  0  0  0  0  0  0
  148.5215  141.3517  154.0343 C   0  0  0  0  0  0  0  0  0  0  0  0
  149.6138  140.7369  156.1466 N   0  0  0  0  0  0  0  0  0  0  0  0
  150.2655  141.9514  156.2424 C   0  0  0  0  0  0  0  0  0  0  0  0
  151.0567  141.9049  157.3541 C   0  0  0  0  0  0  0  0  0  0  0  0
  150.8317  140.6008  157.8747 C   0  0  0  0  0  0  0  0  0  0  0  0
  149.9755  139.9025  157.1464 N   0  0  0  0  0  0  0  0  0  0  0  0
  146.1802  138.4016  152.1471 C   0  0  0  0  0  0  0  0  0  0  0  0
  144.8650  138.1702  152.1639 N   0  0  0  0  0  0  0  0  0  0  0  0
  146.8015  138.5625  151.0983 O   0  0  0  0  0  0  0  0  0  0  0  0
  145.5121  137.0582  154.4625 H   0  0  0  0  0  0  0  0  0  0  0  0
  147.0586  137.1988  155.2845 H   0  0  0  0  0  0  0  0  0  0  0  0
  146.9403  136.2743  153.7902 H   0  0  0  0  0  0  0  0  0  0  0  0
  146.5357  139.2971  154.0723 H   0  0  0  0  0  0  0  0  0  0  0  0
  148.7335  137.7096  152.9527 H   0  0  0  0  0  0  0  0  0  0  0  0
  148.9293  138.1414  155.3156 H   0  0  0  0  0  0  0  0  0  0  0  0
  151.2541  138.9876  155.1334 H   0  0  0  0  0  0  0  0  0  0  0  0
  150.9246  139.6329  153.5273 H   0  0  0  0  0  0  0  0  0  0  0  0
  150.9417  137.8962  153.8062 H   0  0  0  0  0  0  0  0  0  0  0  0
  147.7137  140.1402  155.5910 H   0  0  0  0  0  0  0  0  0  0  0  0
  147.6987  141.1200  153.3584 H   0  0  0  0  0  0  0  0  0  0  0  0
  149.4245  141.4626  153.4334 H   0  0  0  0  0  0  0  0  0  0  0  0
  148.2980  142.3214  154.4809 H   0  0  0  0  0  0  0  0  0  0  0  0
  150.1172  142.7400  155.5196 H   0  0  0  0  0  0  0  0  0  0  0  0
  151.7032  142.6821  157.7341 H   0  0  0  0  0  0  0  0  0  0  0  0
  151.2660  140.1419  158.7508 H   0  0  0  0  0  0  0  0  0  0  0  0
  144.3418  138.1415  151.3005 H   0  0  0  0  0  0  0  0  0  0  0  0
  144.3933  138.0319  153.0465 H   0  0  0  0  0  0  0  0  0  0  0  0
  148.5247  139.3067  152.6564 H   0  0  0  0  0  0  0  0  0  0  0  0
  1  2  1  0  0  0  0
  1 16  1  0  0  0  0
  1 17  1  0  0  0  0
  1 18  1  0  0  0  0
  2  3  1  0  0  0  0
  2 13  1  0  0  0  0
  2 19  1  0  0  0  0
  3  4  1  0  0  0  0
  3 20  1  0  0  0  0
  3 34  1  0  0  0  0
  4  5  1  0  0  0  0
  4  6  1  0  0  0  0
  4 21  1  0  0  0  0
  5 22  1  0  0  0  0
  5 23  1  0  0  0  0
  5 24  1  0  0  0  0
  6  7  1  0  0  0  0
  6  8  1  0  0  0  0
  6 25  1  0  0  0  0
  7 26  1  0  0  0  0
  7 27  1  0  0  0  0
  7 28  1  0  0  0  0
  8 12  1  0  0  0  0
  8  9  1  0  0  0  0
  9 10  2  0  0  0  0
  9 29  1  0  0  0  0
 10 11  1  0  0  0  0
 10 30  1  0  0  0  0
 11 12  2  0  0  0  0
 11 31  1  0  0  0  0
 13 14  1  0  0  0  0
 13 15  2  0  0  0  0
 14 32  1  0  0  0  0
 14 33  1  0  0  0  0
M  CHG  1   3   1
M  END
> <s_m_source_file>
AV-unprocessed.smi

> <i_m_source_file_index>
3116

> <i_lp_mmshare_version>
43012

> <i_f3d_flags>
0

> <s_epik_input>
W05IMl1DKD1PKVtDQEhdKFtDSDNdKVtOSF1bQ0BIXShbQ0gzXSlbQ0BIXShbQ0gzXSluMVtjSF1bY0hdW2NIXW4x

> <s_epik_cmdline>
J2VwaWtfcHl0aG9uJywgJy1waCcsICc3LjAnLCAnLXRuJywgJzgnLCAnLW1hJywgJzIwMCcsICctbWV0YWxfYmluZGluZycsICctaW1hZScsICc8aW5maWxlLm1hZT4nLCAnLW9tYWUnLCAnPG91dGZpbGUubWFlPic=

> <r_lp_tautomer_probability>
1

> <r_epik_Ionization_Penalty>
0.15658

> <r_epik_Ionization_Penalty_Charging>
0.156568

> <r_epik_Ionization_Penalty_Neutral>
1.19778e-05

> <r_epik_State_Penalty>
0.145866

> <r_epik_Charging_Adjusted_Penalty>
0.302434

> <i_epik_Tot_Q>
1

> <i_epik_Tot_abs_Q>
1

> <r_epik_Metal_State_Penalty>
0.146064

> <b_epik_Metal_Only>
0

> <s_lp_Force_Field>
OPLS_2005

> <r_lp_Energy>
9.00386

> <b_lp_Chiralities_Consistent>
1

> <s_lp_Variant>
AV-unprocessed.smi:3116-4

> <Gold.Version>
5.8.1

> <Gold.Id.Protein>
6NUR|6NUR_protein|mol2

> <Gold.PLP.Fitness>
44.2412

> <Gold.PLP.PLP>
-27.0729

> <Gold.PLP.part.hbond>
-5.0000

> <Gold.PLP.part.metal>
0.0000

> <Gold.PLP.part.buried>
-4.5090

> <Gold.PLP.part.nonpolar>
-19.3948

> <Gold.PLP.part.repulsive>
0.5076

> <Gold.PLP.ligand.clash>
0.0000

> <Gold.PLP.ligand.torsion>
0.4621

> <Gold.PLP.Chemscore.Hbond>
4.9920

> <Gold.PLP.Chemscore.CHOScore>
0.9980

> <Gold.PLP.Chemscore.Metal>
0.0000

> <Gold.Chemscore.Hbonds>
donor molecule, donor type, donor heavy atom, donor atom, acceptor molecule, acceptor atom, score
      L1  H     3    20       P1  7948  2.00
      L1  H     3    34       P1  7957  0.98
      L1  H    14    32       P1 10171  1.00
      P1  H  7954  7966       L1    15  1.00
      L1  C     9    29       P1  8028  1.00

> <Gold.PLP.Chemscore.Internal.Correction>
0.1225

> <Gold.Rescore>
     Score         DG    S(hbond)    S(metal)    S(lipo)     H(rot)  DE(clash)    DE(int)     intcor
     17.81     -18.15       3.96        0.00      48.71       2.45       0.16       0.18       ----

> <Gold.Chemscore.Fitness>
17.8064

> <Gold.Chemscore.DG>
-18.1490

> <Gold.Chemscore.ZeroCoef>
-5.4800

> <Gold.Chemscore.Hbond>
3.9621

> <Gold.Chemscore.Metal>
0.0000

> <Gold.Chemscore.Lipo>
48.7074

> <Gold.Chemscore.Internal_Hbond>
0.0000

> <Gold.Chemscore.DEClash>
0.1581

> <Gold.Chemscore.DEInternal>
0.1845

> <Gold.Chemscore.Rot>
2.4465

> <Gold.Chemscore.Internal.Correction>
   9.000000E+99

> <Gold.Chemscore.Hbonds>
donor molecule, donor type, donor heavy atom, donor atom, acceptor molecule, acceptor atom, score
      L1  H     3    20       P1  7948  1.00
      L1  H     3    34       P1  7957  0.91
      L1  H    14    32       P1 10171  0.98
      P1  H  7954  7966       L1    15  0.95

> <Gold.Chemscore.Hbond.Weighted>
-13.2333

> <Gold.Chemscore.Metal.Weighted>
-0.0000

> <Gold.Chemscore.Lipo.Weighted>
-5.6988

> <Gold.Chemscore.Internal_Hbond.Weighted>
0.0000

> <Gold.Chemscore.DEClash.Weighted>
0.1581

> <Gold.Chemscore.DEInternal.Weighted>
0.1845

> <Gold.Chemscore.Rot.Weighted>
6.2631

> <Gold.Chemscore.Internal.Correction.Weighted>
   9.000000E+99

> <Gold.Protein.RotatedTorsions>
[ 6907 6896 6895 6894 ] final   45.74 input  -60.11 | X-H torsion
[ 7974 7965 7964 7962 ] final  -94.25 input  175.53 | X-H torsion
[ 8008 7997 7996 7995 ] final -137.85 input   59.86 | X-H torsion
[ 10167 10162 10161 10158 ] final   40.84 input  -65.29 | X-H torsion
[ 10718 10713 10712 10709 ] final  130.34 input   66.30 | X-H torsion
[ 10763 10752 10751 10750 ] final -101.79 input  -60.55 | X-H torsion
[ 11005 11000 10999 10996 ] final  173.94 input  -57.11 | X-H torsion

> <Gold.Protein.ActiveResidues>
 VAL166  LYS551  ARG553  GLY616  TRP617  ASP618  TYR619  PRO620  LYS621  CYS622 
 ASP623  PHE694  ASN695  SER759  ASP760  ASP761  ALA762  ILE779  LEU786  VAL792 
 PHE793  MET794  SER795  GLU796  ALA797  LYS798  CYS799  TRP800  GLU811  SER814 

> <Gold.Protein.RotatedAtoms>
  152.2481  134.8161  160.0449 H   0  0  0  0  0  0  0  0  0  0  0  0  # atno 6907 bound_to 6896
  151.8851  133.3498  159.3787 H   0  0  0  0  0  0  0  0  0  0  0  0  # atno 6908 bound_to 6896
  150.7075  134.4906  159.5558 H   0  0  0  0  0  0  0  0  0  0  0  0  # atno 6909 bound_to 6896
  145.3757  140.9511  143.2422 H   0  0  0  0  0  0  0  0  0  0  0  0  # atno 7974 bound_to 7965
  155.4186  140.0517  157.3027 H   0  0  0  0  0  0  0  0  0  0  0  0  # atno 8008 bound_to 7997
  154.4913  140.2121  155.9501 H   0  0  0  0  0  0  0  0  0  0  0  0  # atno 8009 bound_to 7997
  156.1346  140.3165  155.8406 H   0  0  0  0  0  0  0  0  0  0  0  0  # atno 8010 bound_to 7997
  140.3702  144.2115  150.6133 H   0  0  0  0  0  0  0  0  0  0  0  0  # atno 10167 bound_to 10162
  157.5071  131.1096  150.9345 H   0  0  0  0  0  0  0  0  0  0  0  0  # atno 10718 bound_to 10713
  154.7685  135.4884  153.9602 H   0  0  0  0  0  0  0  0  0  0  0  0  # atno 10763 bound_to 10752
  153.1338  135.6758  153.9143 H   0  0  0  0  0  0  0  0  0  0  0  0  # atno 10764 bound_to 10752
  153.8839  135.3129  155.3424 H   0  0  0  0  0  0  0  0  0  0  0  0  # atno 10765 bound_to 10752
  140.3459  134.7236  157.4235 H   0  0  0  0  0  0  0  0  0  0  0  0  # atno 11005 bound_to 11000
  144.8544  139.5272  143.6841 LP  0  0  0  0  0  0  0  0  0  0  0  0  # atno 17320 bound_to 7965
  146.2865  139.7019  142.9192 LP  0  0  0  0  0  0  0  0  0  0  0  0  # atno 17321 bound_to 7965
  140.5041  143.2309  151.8635 LP  0  0  0  0  0  0  0  0  0  0  0  0  # atno 17342 bound_to 10162
  139.4804  144.5026  151.9040 LP  0  0  0  0  0  0  0  0  0  0  0  0  # atno 17343 bound_to 10162
  156.9998  130.5595  149.5310 LP  0  0  0  0  0  0  0  0  0  0  0  0  # atno 17370 bound_to 10713
  156.0265  130.5359  150.8421 LP  0  0  0  0  0  0  0  0  0  0  0  0  # atno 17371 bound_to 10713
  140.0742  134.5820  155.8609 LP  0  0  0  0  0  0  0  0  0  0  0  0  # atno 17394 bound_to 11000
  141.2025  133.6626  156.6013 LP  0  0  0  0  0  0  0  0  0  0  0  0  # atno 17395 bound_to 11000

$$$$
