AV-unprocessed.smi:1439|AV-procd|sdf|5871|dock2
  -GOLD-   22720 5543D 1   1.00000     0.00000
 Structure written by MMmdl.
 35 36  0  0  0  0  0  0  0  0  2 V2000
  144.7834  138.0844  152.7483 N   0  0  0  0  0  0  0  0  0  0  0  0
  146.0710  137.9953  152.3995 C   0  0  0  0  0  0  0  0  0  0  0  0
  146.4374  138.1057  151.2314 O   0  0  0  0  0  0  0  0  0  0  0  0
  147.1019  137.7809  153.5144 C   0  0  0  0  0  0  0  0  0  0  0  0
  147.3965  139.0565  154.2531 C   0  0  0  0  0  0  0  0  0  0  0  0
  146.7366  140.2518  154.1244 C   0  0  0  0  0  0  0  0  0  0  0  0
  147.4015  141.4713  155.1725 S   0  0  0  0  0  0  0  0  0  0  0  0
  148.5804  140.3008  155.7679 C   0  0  0  0  0  0  0  0  0  0  0  0
  149.5204  140.5578  156.6906 N   0  5  0  0  0  0  0  0  0  0  0  0
  150.8178  140.6508  156.3136 C   0  0  0  0  0  0  0  0  0  0  0  0
  151.3748  140.1354  155.3418 O   0  0  0  0  0  0  0  0  0  0  0  0
  151.6140  141.5322  157.2861 C   0  0  0  0  0  0  0  0  0  0  0  0
  151.1312  142.9944  157.3360 C   0  0  0  0  0  0  0  0  0  0  0  0
  151.9474  143.8523  158.3136 C   0  0  2  0  0  0  0  0  0  0  0  0
  152.2068  143.1821  159.6597 C   0  0  0  0  0  0  0  0  0  0  0  0
  152.4803  144.3586  160.5814 C   0  0  0  0  0  0  0  0  0  0  0  0
  151.8591  145.5547  159.8522 C   0  0  0  0  0  0  0  0  0  0  0  0
  151.2312  145.0158  158.6959 O   0  0  0  0  0  0  0  0  0  0  0  0
  148.4446  139.1084  155.1770 N   0  0  0  0  0  0  0  0  0  0  0  0
  144.0776  138.1977  152.0354 H   0  0  0  0  0  0  0  0  0  0  0  0
  144.5191  138.0104  153.7199 H   0  0  0  0  0  0  0  0  0  0  0  0
  146.7315  137.0217  154.2046 H   0  0  0  0  0  0  0  0  0  0  0  0
  148.0115  137.3743  153.0713 H   0  0  0  0  0  0  0  0  0  0  0  0
  145.9018  140.4881  153.4821 H   0  0  0  0  0  0  0  0  0  0  0  0
  151.5509  141.0962  158.2844 H   0  0  0  0  0  0  0  0  0  0  0  0
  152.6665  141.5070  156.9990 H   0  0  0  0  0  0  0  0  0  0  0  0
  151.1765  143.4362  156.3394 H   0  0  0  0  0  0  0  0  0  0  0  0
  150.0834  143.0181  157.6394 H   0  0  0  0  0  0  0  0  0  0  0  0
  152.8954  144.1490  157.8607 H   0  0  0  0  0  0  0  0  0  0  0  0
  151.3132  142.6540  159.9959 H   0  0  0  0  0  0  0  0  0  0  0  0
  153.0292  142.4670  159.6256 H   0  0  0  0  0  0  0  0  0  0  0  0
  152.0413  144.2032  161.5674 H   0  0  0  0  0  0  0  0  0  0  0  0
  153.5523  144.5110  160.7106 H   0  0  0  0  0  0  0  0  0  0  0  0
  151.1350  146.0882  160.4685 H   0  0  0  0  0  0  0  0  0  0  0  0
  152.6320  146.2615  159.5473 H   0  0  0  0  0  0  0  0  0  0  0  0
  1  2  1  0  0  0  0
  1 20  1  0  0  0  0
  1 21  1  0  0  0  0
  2  3  2  0  0  0  0
  2  4  1  0  0  0  0
  4  5  1  0  0  0  0
  4 22  1  0  0  0  0
  4 23  1  0  0  0  0
  5 19  1  0  0  0  0
  5  6  2  0  0  0  0
  6  7  1  0  0  0  0
  6 24  1  0  0  0  0
  7  8  1  0  0  0  0
  8  9  1  0  0  0  0
  8 19  2  0  0  0  0
  9 10  1  0  0  0  0
 10 11  2  0  0  0  0
 10 12  1  0  0  0  0
 12 13  1  0  0  0  0
 12 25  1  0  0  0  0
 12 26  1  0  0  0  0
 13 14  1  0  0  0  0
 13 27  1  0  0  0  0
 13 28  1  0  0  0  0
 14 18  1  0  0  0  0
 14 15  1  0  0  0  0
 14 29  1  0  0  0  0
 15 16  1  0  0  0  0
 15 30  1  0  0  0  0
 15 31  1  0  0  0  0
 16 17  1  0  0  0  0
 16 32  1  0  0  0  0
 16 33  1  0  0  0  0
 17 18  1  0  0  0  0
 17 34  1  0  0  0  0
 17 35  1  0  0  0  0
M  CHG  1   9  -1
M  END
> <s_m_source_file>
AV-unprocessed.smi

> <i_m_source_file_index>
1439

> <i_lp_mmshare_version>
43012

> <i_f3d_flags>
0

> <s_epik_input>
W05IMl1DKD1PKVtDSDJdYzFbY0hdc2MobjEpW05IXUMoPU8pW0NIMl1bQ0gyXVtDQEBIXTJbQ0gyXVtDSDJdW0NIMl1PMg==

> <s_epik_cmdline>
J2VwaWtfcHl0aG9uJywgJy1waCcsICc3LjAnLCAnLXRuJywgJzgnLCAnLW1hJywgJzIwMCcsICctbWV0YWxfYmluZGluZycsICctaW1hZScsICc8aW5maWxlLm1hZT4nLCAnLW9tYWUnLCAnPG91dGZpbGUubWFlPic=

> <r_lp_tautomer_probability>
1

> <r_epik_Ionization_Penalty>
4.85214

> <r_epik_Ionization_Penalty_Charging>
4.5239

> <r_epik_Ionization_Penalty_Neutral>
0.32824

> <r_epik_State_Penalty>
4.52362

> <r_epik_Charging_Adjusted_Penalty>
9.04752

> <i_epik_Tot_Q>
-1

> <i_epik_Tot_abs_Q>
1

> <r_epik_Metal_State_Penalty>
0.831335

> <b_epik_Metal_Only>
1

> <s_lp_Force_Field>
OPLS_2005

> <r_lp_Energy>
14.205

> <b_lp_Chiralities_Consistent>
1

> <s_lp_Variant>
AV-unprocessed.smi:1439-3

> <Gold.Version>
5.8.1

> <Gold.Id.Protein>
6NUR|6NUR_protein|mol2

> <Gold.PLP.Fitness>
44.8646

> <Gold.PLP.PLP>
-35.3710

> <Gold.PLP.part.hbond>
-3.6698

> <Gold.PLP.part.metal>
0.0000

> <Gold.PLP.part.buried>
-3.8326

> <Gold.PLP.part.nonpolar>
-31.2641

> <Gold.PLP.part.repulsive>
1.0358

> <Gold.PLP.ligand.clash>
0.0000

> <Gold.PLP.ligand.torsion>
1.3126

> <Gold.PLP.Chemscore.Hbond>
2.9920

> <Gold.PLP.Chemscore.CHOScore>
0.9913

> <Gold.PLP.Chemscore.Metal>
0.0000

> <Gold.Chemscore.Hbonds>
donor molecule, donor type, donor heavy atom, donor atom, acceptor molecule, acceptor atom, score
      L1  H     1    20       P1 10171  0.37
      P1  H  7954  7966       L1     3  0.59
      P1  H  7989  7998       L1    11  1.00
      L1  C     6    24       P1 10175  1.00

> <Gold.PLP.Chemscore.Internal.Correction>
0.1689

> <Gold.Rescore>
     Score         DG    S(hbond)    S(metal)    S(lipo)     H(rot)  DE(clash)    DE(int)     intcor
     16.06     -18.57       2.90        0.00      84.04       2.51       1.11       1.40       ----

> <Gold.Chemscore.Fitness>
16.0635

> <Gold.Chemscore.DG>
-18.5720

> <Gold.Chemscore.ZeroCoef>
-5.4800

> <Gold.Chemscore.Hbond>
2.9000

> <Gold.Chemscore.Metal>
0.0000

> <Gold.Chemscore.Lipo>
84.0367

> <Gold.Chemscore.Internal_Hbond>
0.0000

> <Gold.Chemscore.DEClash>
1.1067

> <Gold.Chemscore.DEInternal>
1.4019

> <Gold.Chemscore.Rot>
2.5103

> <Gold.Chemscore.Internal.Correction>
   9.000000E+99

> <Gold.Chemscore.Hbonds>
donor molecule, donor type, donor heavy atom, donor atom, acceptor molecule, acceptor atom, score
      L1  H     1    20       P1 10171  0.36
      P1  H  7954  7966       L1     3  0.58
      P1  H  7989  7998       L1    11  0.93

> <Gold.Chemscore.Hbond.Weighted>
-9.6862

> <Gold.Chemscore.Metal.Weighted>
-0.0000

> <Gold.Chemscore.Lipo.Weighted>
-9.8323

> <Gold.Chemscore.Internal_Hbond.Weighted>
0.0000

> <Gold.Chemscore.DEClash.Weighted>
1.1067

> <Gold.Chemscore.DEInternal.Weighted>
1.4019

> <Gold.Chemscore.Rot.Weighted>
6.4264

> <Gold.Chemscore.Internal.Correction.Weighted>
   9.000000E+99

> <Gold.Protein.RotatedTorsions>
[ 6907 6896 6895 6894 ] final -147.74 input  -60.11 | X-H torsion
[ 7974 7965 7964 7962 ] final  178.96 input  175.53 | X-H torsion
[ 8008 7997 7996 7995 ] final -118.74 input   59.86 | X-H torsion
[ 10167 10162 10161 10158 ] final  -53.55 input  -65.29 | X-H torsion
[ 10718 10713 10712 10709 ] final  162.33 input   66.30 | X-H torsion
[ 10763 10752 10751 10750 ] final -110.36 input  -60.55 | X-H torsion
[ 11005 11000 10999 10996 ] final  -94.52 input  -57.11 | X-H torsion

> <Gold.Protein.ActiveResidues>
 VAL166  LYS551  ARG553  GLY616  TRP617  ASP618  TYR619  PRO620  LYS621  CYS622 
 ASP623  PHE694  ASN695  SER759  ASP760  ASP761  ALA762  ILE779  LEU786  VAL792 
 PHE793  MET794  SER795  GLU796  ALA797  LYS798  CYS799  TRP800  GLU811  SER814 

> <Gold.Protein.RotatedAtoms>
  151.1599  133.4852  159.2594 H   0  0  0  0  0  0  0  0  0  0  0  0  # atno 6907 bound_to 6896
  151.1465  135.0205  159.8659 H   0  0  0  0  0  0  0  0  0  0  0  0  # atno 6908 bound_to 6896
  152.5463  134.1487  159.8563 H   0  0  0  0  0  0  0  0  0  0  0  0  # atno 6909 bound_to 6896
  144.7150  140.0476  143.6436 H   0  0  0  0  0  0  0  0  0  0  0  0  # atno 7974 bound_to 7965
  155.1045  140.0396  157.2706 H   0  0  0  0  0  0  0  0  0  0  0  0  # atno 8008 bound_to 7997
  154.6732  140.2617  155.6959 H   0  0  0  0  0  0  0  0  0  0  0  0  # atno 8009 bound_to 7997
  156.2666  140.2793  156.1249 H   0  0  0  0  0  0  0  0  0  0  0  0  # atno 8010 bound_to 7997
  140.6478  143.2546  151.4808 H   0  0  0  0  0  0  0  0  0  0  0  0  # atno 10167 bound_to 10162
  157.1240  131.0499  151.2402 H   0  0  0  0  0  0  0  0  0  0  0  0  # atno 10718 bound_to 10713
  154.8244  135.4567  154.0874 H   0  0  0  0  0  0  0  0  0  0  0  0  # atno 10763 bound_to 10752
  153.2200  135.6893  153.8017 H   0  0  0  0  0  0  0  0  0  0  0  0  # atno 10764 bound_to 10752
  153.7438  135.3308  155.3285 H   0  0  0  0  0  0  0  0  0  0  0  0  # atno 10765 bound_to 10752
  141.1468  133.7962  157.0309 H   0  0  0  0  0  0  0  0  0  0  0  0  # atno 11005 bound_to 11000
  145.9971  139.3061  143.0950 LP  0  0  0  0  0  0  0  0  0  0  0  0  # atno 17320 bound_to 7965
  145.8836  140.9348  143.0588 LP  0  0  0  0  0  0  0  0  0  0  0  0  # atno 17321 bound_to 7965
  139.5691  144.1972  152.1809 LP  0  0  0  0  0  0  0  0  0  0  0  0  # atno 17342 bound_to 10162
  140.1263  144.5328  150.6831 LP  0  0  0  0  0  0  0  0  0  0  0  0  # atno 17343 bound_to 10162
  157.4451  130.7566  149.7103 LP  0  0  0  0  0  0  0  0  0  0  0  0  # atno 17370 bound_to 10713
  155.9822  130.4012  150.3428 LP  0  0  0  0  0  0  0  0  0  0  0  0  # atno 17371 bound_to 10713
  140.0754  134.9678  157.1537 LP  0  0  0  0  0  0  0  0  0  0  0  0  # atno 17394 bound_to 11000
  140.3651  134.2452  155.7183 LP  0  0  0  0  0  0  0  0  0  0  0  0  # atno 17395 bound_to 11000

$$$$
