#       Name:                AV-unprocessed.smi:3018
#       Creating user name   scv26
#       Creation time:       Fri Mar 27 16:41:49 2020


#       File generated by GOLD software.
#

@<TRIPOS>MOLECULE
AV-unprocessed.smi:3018
    52    53     1
SMALL
NO_CHARGES


@<TRIPOS>ATOM
      1 ****         0.0625  -4.0345  -1.6903 C.3            1 S1                 0.0000
      2 ****        -0.9622  -2.9400  -2.0333 C.3            1 S1                 0.0000
      3 ****        -0.7295  -1.5688  -1.3626 C.3            1 S1                 0.0000
      4 ****        -0.7622  -1.7572   0.0545 O.3            1 S1                 0.0000
      5 ****        -0.7601  -0.5971   0.8888 C.3            1 S1                 0.0000
      6 ****        -0.4459  -1.0762   2.3168 C.3            1 S1                 0.0000
      7 ****        -0.4833   0.0827   3.3256 C.3            1 S1                 0.0000
      8 ****        -1.8314   0.8179   3.2786 C.3            1 S1                 0.0000
      9 ****        -2.1525   1.2989   1.8551 C.3            1 S1                 0.0000
     10 ****        -2.1167   0.1369   0.8492 C.3            1 S1                 0.0000
     11 ****         0.5858  -0.8981  -1.7977 C.2            1 S1                 0.0000
     12 ****         1.6684  -1.3297  -1.4010 O.2            1 S1                 0.0000
     13 ****         0.4648   0.1992  -2.5610 N.am           1 S1                 0.0000
     14 ****         1.5590   1.0782  -2.9663 C.3            1 S1                 0.0000
     15 ****         1.4617   2.4601  -2.2847 C.3            1 S1                 0.0000
     16 ****         1.6188   2.4554  -0.7695 C.2            1 S1                 0.0000
     17 ****         0.9690   3.1535   0.0943 N.2            1 S1                 0.0000
     18 ****         1.5162   2.7151   1.2550 N.am           1 S1                 0.0000
     19 ****         2.4592   1.7781   1.1017 C.2            1 S1                 0.0000
     20 ****         3.0971   1.2015   1.9790 O.2            1 S1                 0.0000
     21 ****         2.5427   1.6067  -0.2112 N.am           1 S1                 0.0000
     22 ****         1.1864   3.0956   2.1304 H              1 S1                 0.0000
     23 ****         3.1411   0.9636  -0.7092 H              1 S1                 0.0000
     24 ****        -0.2346  -4.9871  -2.1293 H              1 S1                 0.0000
     25 ****         0.1436  -4.1802  -0.6127 H              1 S1                 0.0000
     26 ****         1.0541  -3.7987  -2.0753 H              1 S1                 0.0000
     27 ****        -0.9941  -2.8120  -3.1161 H              1 S1                 0.0000
     28 ****        -1.9532  -3.2959  -1.7501 H              1 S1                 0.0000
     29 ****        -1.5623  -0.9279  -1.6525 H              1 S1                 0.0000
     30 ****         0.0278   0.0940   0.5938 H              1 S1                 0.0000
     31 ****        -1.1657  -1.8398   2.6146 H              1 S1                 0.0000
     32 ****         0.5355  -1.5510   2.3393 H              1 S1                 0.0000
     33 ****        -0.3007  -0.2949   4.3319 H              1 S1                 0.0000
     34 ****         0.3234   0.7832   3.1092 H              1 S1                 0.0000
     35 ****        -2.6224   0.1522   3.6262 H              1 S1                 0.0000
     36 ****        -1.8165   1.6658   3.9639 H              1 S1                 0.0000
     37 ****        -3.1325   1.7761   1.8361 H              1 S1                 0.0000
     38 ****        -1.4325   2.0617   1.5568 H              1 S1                 0.0000
     39 ****        -2.3135   0.5304  -0.1474 H              1 S1                 0.0000
     40 ****        -2.9208  -0.5654   1.0721 H              1 S1                 0.0000
     41 ****        -0.4663   0.4797  -2.8339 H              1 S1                 0.0000
     42 ****         2.5356   0.6247  -2.7890 H              1 S1                 0.0000
     43 ****         1.4866   1.2096  -4.0461 H              1 S1                 0.0000
     44 ****         2.2190   3.1241  -2.7021 H              1 S1                 0.0000
     45 ****         0.4993   2.9107  -2.5315 H              1 S1                 0.0000
     46 ****         0.0404  -2.3009   0.3002 LP             1 S1                 0.0000
     47 ****        -1.5920  -2.2735   0.2662 LP             1 S1                 0.0000
     48 ****         1.6978  -2.1219  -0.7914 LP             1 S1                 0.0000
     49 ****         2.5184  -0.8882  -1.6884 LP             1 S1                 0.0000
     50 ****         0.2528   3.8360  -0.0513 LP             1 S1                 0.0000
     51 ****         2.9332   1.4189   2.9412 LP             1 S1                 0.0000
     52 ****         3.7803   0.5146   1.7309 LP             1 S1                 0.0000
@<TRIPOS>BOND
    1    1    2 1     
    2    1   24 1     
    3    1   25 1     
    4    1   26 1     
    5    2    3 1     
    6    2   27 1     
    7    2   28 1     
    8    3    4 1     
    9    3   11 1     
   10    3   29 1     
   11    4    5 1     
   12    5   10 1     
   13    5    6 1     
   14    5   30 1     
   15    6    7 1     
   16    6   31 1     
   17    6   32 1     
   18    7    8 1     
   19    7   33 1     
   20    7   34 1     
   21    8    9 1     
   22    8   35 1     
   23    8   36 1     
   24    9   10 1     
   25    9   37 1     
   26    9   38 1     
   27   10   39 1     
   28   10   40 1     
   29   11   12 2     
   30   11   13 am    
   31   13   14 1     
   32   13   41 1     
   33   14   15 1     
   34   14   42 1     
   35   14   43 1     
   36   15   16 1     
   37   15   44 1     
   38   15   45 1     
   39   16   21 1     
   40   16   17 2     
   41   17   18 1     
   42   18   22 1     
   43   18   19 am    
   44   19   20 2     
   45   19   21 am    
   46   21   23 1     
   47    4   46 1     
   48    4   47 1     
   49   12   48 1     
   50   12   49 1     
   51   17   50 1     
   52   20   51 1     
   53   20   52 1     
@<TRIPOS>SUBSTRUCTURE
      1 S1             1
@<TRIPOS>SET
LONE_PAIRS      STATIC     ATOMS    <user>   **** ""
7 46 47 48 49 50 51 52
DONOR_HYDROGENS      STATIC     ATOMS    <user>   **** ""
3 41 22 23
ATOM$BLUE        STATIC     ATOMS    COLORGROUP SYSTEM
7 46 47 48 49 50 51 52
ATOM$RED        STATIC     ATOMS    COLORGROUP SYSTEM
3 41 22 23
