AV-unprocessed.smi:732|AV-procd|sdf|3528|dock10
  -GOLD-   22720 0523D 1   1.00000     0.00000
 Structure written by MMmdl.
 34 36  0  0  0  0  0  0  0  0  1 V2000
  150.1619  131.1449  154.8010 C   0  0  0  0  0  0  0  0  0  0  0  0
  150.2079  132.4102  155.5871 C   0  0  0  0  0  0  0  0  0  0  0  0
  150.3913  133.7178  155.2350 C   0  0  0  0  0  0  0  0  0  0  0  0
  150.3179  134.3973  156.4800 C   0  0  0  0  0  0  0  0  0  0  0  0
  150.4576  135.8068  156.5483 N   0  0  0  0  0  0  0  0  0  0  0  0
  150.9297  136.6313  155.5978 C   0  0  0  0  0  0  0  0  0  0  0  0
  151.3100  136.2812  154.4801 O   0  0  0  0  0  0  0  0  0  0  0  0
  150.9342  137.9023  156.0211 N   0  0  0  0  0  0  0  0  0  0  0  0
  151.3628  139.0331  155.2593 C   0  0  2  0  0  0  0  0  0  0  0  0
  151.7071  140.3241  155.9814 C   0  0  2  0  0  0  0  0  0  0  0  0
  151.4999  140.5567  157.4705 C   0  0  0  0  0  0  0  0  0  0  0  0
  150.5029  141.7065  157.7154 C   0  0  0  0  0  0  0  0  0  0  0  0
  149.2052  141.6159  156.8715 C   0  0  0  0  0  0  0  0  0  0  0  0
  149.1456  140.3990  155.9271 C   0  0  0  0  0  0  0  0  0  0  0  0
  150.4475  140.2410  155.1557 C   0  0  2  0  0  0  0  0  0  0  0  0
  150.1097  133.5788  157.4999 N   0  0  0  0  0  0  0  0  0  0  0  0
  150.0379  132.3010  156.9327 O   0  0  0  0  0  0  0  0  0  0  0  0
  150.4721  131.3153  153.7700 H   0  0  0  0  0  0  0  0  0  0  0  0
  149.1515  130.7359  154.7873 H   0  0  0  0  0  0  0  0  0  0  0  0
  150.8251  130.3957  155.2339 H   0  0  0  0  0  0  0  0  0  0  0  0
  150.5510  134.1199  154.2456 H   0  0  0  0  0  0  0  0  0  0  0  0
  150.1711  136.2331  157.4169 H   0  0  0  0  0  0  0  0  0  0  0  0
  150.6043  138.0905  156.9565 H   0  0  0  0  0  0  0  0  0  0  0  0
  151.9549  138.8226  154.3698 H   0  0  0  0  0  0  0  0  0  0  0  0
  152.5018  140.9293  155.5494 H   0  0  0  0  0  0  0  0  0  0  0  0
  151.1240  139.6494  157.9425 H   0  0  0  0  0  0  0  0  0  0  0  0
  152.4603  140.7718  157.9396 H   0  0  0  0  0  0  0  0  0  0  0  0
  150.2533  141.7507  158.7759 H   0  0  0  0  0  0  0  0  0  0  0  0
  150.9983  142.6518  157.4899 H   0  0  0  0  0  0  0  0  0  0  0  0
  148.3359  141.6060  157.5296 H   0  0  0  0  0  0  0  0  0  0  0  0
  149.1138  142.5252  156.2760 H   0  0  0  0  0  0  0  0  0  0  0  0
  148.9466  139.5017  156.5125 H   0  0  0  0  0  0  0  0  0  0  0  0
  148.3183  140.4958  155.2236 H   0  0  0  0  0  0  0  0  0  0  0  0
  150.4736  140.7973  154.2206 H   0  0  0  0  0  0  0  0  0  0  0  0
  1  2  1  0  0  0  0
  1 18  1  0  0  0  0
  1 19  1  0  0  0  0
  1 20  1  0  0  0  0
  2 17  1  0  0  0  0
  2  3  2  0  0  0  0
  3  4  1  0  0  0  0
  3 21  1  0  0  0  0
  4  5  1  0  0  0  0
  4 16  2  0  0  0  0
  5  6  1  0  0  0  0
  5 22  1  0  0  0  0
  6  7  2  0  0  0  0
  6  8  1  0  0  0  0
  8  9  1  0  0  0  0
  8 23  1  0  0  0  0
  9 15  1  0  0  0  0
  9 10  1  0  0  0  0
  9 24  1  0  0  0  0
 10 15  1  0  0  0  0
 10 11  1  0  0  0  0
 10 25  1  0  0  0  0
 11 12  1  0  0  0  0
 11 26  1  0  0  0  0
 11 27  1  0  0  0  0
 12 13  1  0  0  0  0
 12 28  1  0  0  0  0
 12 29  1  0  0  0  0
 13 14  1  0  0  0  0
 13 30  1  0  0  0  0
 13 31  1  0  0  0  0
 14 15  1  0  0  0  0
 14 32  1  0  0  0  0
 14 33  1  0  0  0  0
 15 34  1  0  0  0  0
 16 17  1  0  0  0  0
M  END
> <s_m_source_file>
AV-unprocessed.smi

> <i_m_source_file_index>
732

> <i_lp_mmshare_version>
43012

> <i_f3d_flags>
0

> <s_epik_input>
W0NIM11jMVtjSF1jKG5vMSlbTkhdQyg9TylbTkhdW0NASF0yW0NAQEhdKFtDQEBIXTIzKVtDSDJdW0NIMl1bQ0gyXVtDSDJdMw==

> <s_epik_cmdline>
J2VwaWtfcHl0aG9uJywgJy1waCcsICc3LjAnLCAnLXRuJywgJzgnLCAnLW1hJywgJzIwMCcsICctbWV0YWxfYmluZGluZycsICctaW1hZScsICc8aW5maWxlLm1hZT4nLCAnLW9tYWUnLCAnPG91dGZpbGUubWFlPic=

> <r_lp_tautomer_probability>
1

> <r_epik_Ionization_Penalty>
2.39506e-05

> <r_epik_Ionization_Penalty_Charging>
0

> <r_epik_Ionization_Penalty_Neutral>
2.39506e-05

> <r_epik_State_Penalty>
-0

> <r_epik_Charging_Adjusted_Penalty>
0

> <i_epik_Tot_Q>
0

> <i_epik_Tot_abs_Q>
0

> <r_epik_Metal_State_Penalty>
-0

> <b_epik_Metal_Only>
0

> <s_lp_Force_Field>
OPLS_2005

> <r_lp_Energy>
36.3442

> <b_lp_Chiralities_Consistent>
1

> <s_lp_Variant>
AV-unprocessed.smi:732-2

> <Gold.Version>
5.8.1

> <Gold.Id.Protein>
6NUR|6NUR_protein|mol2

> <Gold.PLP.Fitness>
30.1677

> <Gold.PLP.PLP>
-24.5495

> <Gold.PLP.part.hbond>
-2.0000

> <Gold.PLP.part.metal>
0.0000

> <Gold.PLP.part.buried>
-3.4544

> <Gold.PLP.part.nonpolar>
-20.0345

> <Gold.PLP.part.repulsive>
1.2017

> <Gold.PLP.ligand.clash>
0.0000

> <Gold.PLP.ligand.torsion>
0.2125

> <Gold.PLP.Chemscore.Hbond>
2.0000

> <Gold.PLP.Chemscore.CHOScore>
0.0000

> <Gold.PLP.Chemscore.Metal>
0.0000

> <Gold.Chemscore.Hbonds>
donor molecule, donor type, donor heavy atom, donor atom, acceptor molecule, acceptor atom, score
      P1  H  6896  6909       L1    16  1.00
      P1  H 10752 10763       L1     7  1.00

> <Gold.PLP.Chemscore.Internal.Correction>
0.0432

> <Gold.Rescore>
     Score         DG    S(hbond)    S(metal)    S(lipo)     H(rot)  DE(clash)    DE(int)     intcor
     14.27     -15.82       1.93        0.00      55.16       1.00       0.06       1.48       ----

> <Gold.Chemscore.Fitness>
14.2725

> <Gold.Chemscore.DG>
-15.8165

> <Gold.Chemscore.ZeroCoef>
-5.4800

> <Gold.Chemscore.Hbond>
1.9291

> <Gold.Chemscore.Metal>
0.0000

> <Gold.Chemscore.Lipo>
55.1569

> <Gold.Chemscore.Internal_Hbond>
0.0000

> <Gold.Chemscore.DEClash>
0.0609

> <Gold.Chemscore.DEInternal>
1.4831

> <Gold.Chemscore.Rot>
1.0000

> <Gold.Chemscore.Internal.Correction>
   9.000000E+99

> <Gold.Chemscore.Hbonds>
donor molecule, donor type, donor heavy atom, donor atom, acceptor molecule, acceptor atom, score
      P1  H  6896  6909       L1    16  0.87
      P1  H 10752 10763       L1     7  0.97

> <Gold.Chemscore.Hbond.Weighted>
-6.4431

> <Gold.Chemscore.Metal.Weighted>
-0.0000

> <Gold.Chemscore.Lipo.Weighted>
-6.4534

> <Gold.Chemscore.Internal_Hbond.Weighted>
0.0000

> <Gold.Chemscore.DEClash.Weighted>
0.0609

> <Gold.Chemscore.DEInternal.Weighted>
1.4831

> <Gold.Chemscore.Rot.Weighted>
2.5600

> <Gold.Chemscore.Internal.Correction.Weighted>
   9.000000E+99

> <Gold.Protein.RotatedTorsions>
[ 6907 6896 6895 6894 ] final  -11.80 input  -60.11 | X-H torsion
[ 7974 7965 7964 7962 ] final   88.34 input  175.53 | X-H torsion
[ 8008 7997 7996 7995 ] final   25.56 input   59.86 | X-H torsion
[ 10167 10162 10161 10158 ] final  -18.88 input  -65.29 | X-H torsion
[ 10718 10713 10712 10709 ] final -160.90 input   66.30 | X-H torsion
[ 10763 10752 10751 10750 ] final   41.98 input  -60.55 | X-H torsion
[ 11005 11000 10999 10996 ] final -140.57 input  -57.11 | X-H torsion

> <Gold.Protein.ActiveResidues>
 VAL166  LYS551  ARG553  GLY616  TRP617  ASP618  TYR619  PRO620  LYS621  CYS622 
 ASP623  PHE694  ASN695  SER759  ASP760  ASP761  ALA762  ILE779  LEU786  VAL792 
 PHE793  MET794  SER795  GLU796  ALA797  LYS798  CYS799  TRP800  GLU811  SER814 

> <Gold.Protein.RotatedAtoms>
  151.3805  135.0939  159.9494 H   0  0  0  0  0  0  0  0  0  0  0  0  # atno 6907 bound_to 6896
  152.5109  133.9076  159.7482 H   0  0  0  0  0  0  0  0  0  0  0  0  # atno 6908 bound_to 6896
  150.9509  133.6495  159.2801 H   0  0  0  0  0  0  0  0  0  0  0  0  # atno 6909 bound_to 6896
  145.5470  139.2292  143.2534 H   0  0  0  0  0  0  0  0  0  0  0  0  # atno 7974 bound_to 7965
  155.0136  140.3139  155.4820 H   0  0  0  0  0  0  0  0  0  0  0  0  # atno 8008 bound_to 7997
  156.2905  140.2210  156.5192 H   0  0  0  0  0  0  0  0  0  0  0  0  # atno 8009 bound_to 7997
  154.7513  140.0466  157.0884 H   0  0  0  0  0  0  0  0  0  0  0  0  # atno 8010 bound_to 7997
  140.7263  143.4873  151.0038 H   0  0  0  0  0  0  0  0  0  0  0  0  # atno 10167 bound_to 10162
  156.5886  130.8760  151.2884 H   0  0  0  0  0  0  0  0  0  0  0  0  # atno 10718 bound_to 10713
  152.9894  135.6145  154.2875 H   0  0  0  0  0  0  0  0  0  0  0  0  # atno 10763 bound_to 10752
  154.2602  135.2782  155.2783 H   0  0  0  0  0  0  0  0  0  0  0  0  # atno 10764 bound_to 10752
  154.5212  135.5814  153.6740 H   0  0  0  0  0  0  0  0  0  0  0  0  # atno 10765 bound_to 10752
  140.8409  134.2403  157.4810 H   0  0  0  0  0  0  0  0  0  0  0  0  # atno 11005 bound_to 11000
  146.1942  140.6292  142.9131 LP  0  0  0  0  0  0  0  0  0  0  0  0  # atno 17320 bound_to 7965
  144.7548  140.5281  143.6776 LP  0  0  0  0  0  0  0  0  0  0  0  0  # atno 17321 bound_to 7965
  139.8575  143.7357  152.3175 LP  0  0  0  0  0  0  0  0  0  0  0  0  # atno 17342 bound_to 10162
  139.7561  144.7520  151.0433 LP  0  0  0  0  0  0  0  0  0  0  0  0  # atno 17343 bound_to 10162
  157.7309  130.9692  150.1855 LP  0  0  0  0  0  0  0  0  0  0  0  0  # atno 17370 bound_to 10713
  156.2569  130.3706  149.8172 LP  0  0  0  0  0  0  0  0  0  0  0  0  # atno 17371 bound_to 10713
  139.8703  134.9635  156.4463 LP  0  0  0  0  0  0  0  0  0  0  0  0  # atno 17394 bound_to 11000
  140.8896  133.7858  155.9557 LP  0  0  0  0  0  0  0  0  0  0  0  0  # atno 17395 bound_to 11000

$$$$
