#       Name:                AV-unprocessed.smi:2582
#       Creating user name   scv26
#       Creation time:       Fri Mar 27 14:14:53 2020


#       File generated by GOLD software.
#

@<TRIPOS>MOLECULE
AV-unprocessed.smi:2582
    40    42     1
SMALL
NO_CHARGES


@<TRIPOS>ATOM
      1 ****        -0.4235  -2.8107  -0.3082 O.2            1 S1                 0.0000
      2 ****         0.1854  -1.7414  -0.2793 C.2            1 S1                 0.0000
      3 ****         1.6479  -1.6596  -0.2773 C.2            1 S1                 0.0000
      4 ****         2.3272  -0.4901  -0.2008 C.2            1 S1                 0.0000
      5 ****         3.7277  -0.4936  -0.1983 N.3            1 S1                 0.0000
      6 ****         4.4569   0.3515  -1.1397 C.3            1 S1                 0.0000
      7 ****         5.5281   0.4805  -0.0624 C.3            1 S1                 0.0000
      8 ****         4.4390   0.0947   0.9323 C.3            1 S1                 0.0000
      9 ****         1.5133   0.7130  -0.1099 C.2            1 S1                 0.0000
     10 ****         0.2244   0.6853  -0.1175 N.2            1 S1                 0.0000
     11 ****        -0.4412  -0.5258  -0.2301 N.am           1 S1                 0.0000
     12 ****        -1.9167  -0.4398  -0.2193 C.3            1 S1                 0.0000
     13 ****        -2.4733   0.7785  -0.9957 C.3            1 S1                 0.0000
     14 ****        -4.0076   0.7912  -0.9301 C.3            1 S1                 0.0000
     15 ****        -4.4891   0.7656   0.5305 C.3            1 S1                 0.0000
     16 ****        -3.9306  -0.4019   1.2469 N.4            1 S1                 1.0000
     17 ****        -2.4515  -0.4435   1.2292 C.3            1 S1                 0.0000
     18 ****         2.2056  -2.5834  -0.3397 H              1 S1                 0.0000
     19 ****         4.7837  -0.1717  -2.0386 H              1 S1                 0.0000
     20 ****         3.9602   1.2958  -1.3666 H              1 S1                 0.0000
     21 ****         6.3242  -0.2617  -0.1471 H              1 S1                 0.0000
     22 ****         5.9188   1.4902   0.0664 H              1 S1                 0.0000
     23 ****         3.9326   0.9560   1.3710 H              1 S1                 0.0000
     24 ****         4.7502  -0.6318   1.6834 H              1 S1                 0.0000
     25 ****         2.0612   1.6522  -0.0325 H              1 S1                 0.0000
     26 ****        -2.3259  -1.3169  -0.7248 H              1 S1                 0.0000
     27 ****        -2.1054   1.7150  -0.5745 H              1 S1                 0.0000
     28 ****        -2.1432   0.7486  -2.0348 H              1 S1                 0.0000
     29 ****        -4.3949   1.6768  -1.4351 H              1 S1                 0.0000
     30 ****        -4.4069  -0.0709  -1.4665 H              1 S1                 0.0000
     31 ****        -4.1883   1.6790   1.0455 H              1 S1                 0.0000
     32 ****        -5.5778   0.7206   0.5695 H              1 S1                 0.0000
     33 ****        -4.2463  -0.3808   2.2061 H              1 S1                 0.0000
     34 ****        -2.1239  -1.3402   1.7560 H              1 S1                 0.0000
     35 ****        -2.0632   0.4115   1.7846 H              1 S1                 0.0000
     36 ****        -4.2788  -1.2429   0.8087 H              1 S1                 0.0000
     37 ****        -1.4234  -2.8172  -0.2961 LP             1 S1                 0.0000
     38 ****         0.0818  -3.6729  -0.3439 LP             1 S1                 0.0000
     39 ****         3.7411  -1.4851  -0.3274 LP             1 S1                 0.0000
     40 ****        -0.2948   1.5366  -0.0423 LP             1 S1                 0.0000
@<TRIPOS>BOND
    1    1    2 2     
    2    2   11 am    
    3    2    3 1     
    4    3    4 2     
    5    3   18 1     
    6    4    5 1     
    7    4    9 1     
    8    5    8 1     
    9    5    6 1     
   10    6    7 1     
   11    6   19 1     
   12    6   20 1     
   13    7    8 1     
   14    7   21 1     
   15    7   22 1     
   16    8   23 1     
   17    8   24 1     
   18    9   10 2     
   19    9   25 1     
   20   10   11 1     
   21   11   12 1     
   22   12   17 1     
   23   12   13 1     
   24   12   26 1     
   25   13   14 1     
   26   13   27 1     
   27   13   28 1     
   28   14   15 1     
   29   14   29 1     
   30   14   30 1     
   31   15   16 1     
   32   15   31 1     
   33   15   32 1     
   34   16   17 1     
   35   16   33 1     
   36   16   36 1     
   37   17   34 1     
   38   17   35 1     
   39    1   37 1     
   40    1   38 1     
   41    5   39 1     
   42   10   40 1     
@<TRIPOS>SUBSTRUCTURE
      1 S1             1
@<TRIPOS>SET
LONE_PAIRS      STATIC     ATOMS    <user>   **** ""
4 37 38 39 40
DONOR_HYDROGENS      STATIC     ATOMS    <user>   **** ""
2 33 36
ATOM$BLUE        STATIC     ATOMS    COLORGROUP SYSTEM
4 37 38 39 40
ATOM$RED        STATIC     ATOMS    COLORGROUP SYSTEM
2 33 36
