#       Name:                AV-unprocessed.smi:1514
#       Creating user name   scv26
#       Creation time:       Fri Mar 27 06:25:06 2020


#       File generated by GOLD software.
#

@<TRIPOS>MOLECULE
AV-unprocessed.smi:1514
    52    53     1
SMALL
NO_CHARGES


@<TRIPOS>ATOM
      1 ****        -5.6634   5.0808  -0.9739 C.3            1 S1                 0.0000
      2 ****        -4.2773   5.0133  -0.3171 C.3            1 S1                 0.0000
      3 ****        -3.7047   3.6719  -0.2242 N.3            1 S1                 0.0000
      4 ****        -2.4912   3.6768   0.5926 C.3            1 S1                 0.0000
      5 ****        -1.8832   2.2676   0.7187 C.3            1 S1                 0.0000
      6 ****        -1.5502   1.7053  -0.5929 N.3            1 S1                 0.0000
      7 ****        -0.9833   0.3618  -0.4983 C.3            1 S1                 0.0000
      8 ****         0.4132   0.2906   0.1401 C.3            1 S1                 0.0000
      9 ****         0.9189  -1.0738   0.0934 N.am           1 S1                 0.0000
     10 ****         2.1466  -1.4412   0.4837 C.2            1 S1                 0.0000
     11 ****         2.9775  -0.6531   0.9357 O.2            1 S1                 0.0000
     12 ****         2.3324  -2.7623   0.3166 N.am           1 S1                 0.0000
     13 ****         3.4483  -3.5013   0.5548 C.2            1 S1                 0.0000
     14 ****         4.6703  -3.0926   1.0150 C.2            1 S1                 0.0000
     15 ****         5.4158  -4.3071   1.0457 C.2            1 S1                 0.0000
     16 ****         6.8430  -4.5058   1.4632 C.3            1 S1                 0.0000
     17 ****         4.7054  -5.3548   0.6434 N.2            1 S1                 0.0000
     18 ****         3.4868  -4.8603   0.3362 N.pl3          1 S1                 0.0000
     19 ****         2.4453  -5.7454  -0.1478 C.3            1 S1                 0.0000
     20 ****        -2.7635   1.7027  -1.4105 C.3            1 S1                 0.0000
     21 ****        -3.3703   3.1124  -1.5361 C.3            1 S1                 0.0000
     22 ****        -6.0675   6.0911  -0.9102 H              1 S1                 0.0000
     23 ****        -6.3667   4.4117  -0.4774 H              1 S1                 0.0000
     24 ****        -5.6285   4.8130  -2.0297 H              1 S1                 0.0000
     25 ****        -3.5902   5.6751  -0.8464 H              1 S1                 0.0000
     26 ****        -4.3735   5.4238   0.6890 H              1 S1                 0.0000
     27 ****        -1.7533   4.3561   0.1627 H              1 S1                 0.0000
     28 ****        -2.7195   4.0562   1.5891 H              1 S1                 0.0000
     29 ****        -0.9902   2.3323   1.3392 H              1 S1                 0.0000
     30 ****        -2.5815   1.6122   1.2418 H              1 S1                 0.0000
     31 ****        -1.6688  -0.2892   0.0469 H              1 S1                 0.0000
     32 ****        -0.9085  -0.0562  -1.5033 H              1 S1                 0.0000
     33 ****         1.0995   0.9526  -0.3907 H              1 S1                 0.0000
     34 ****         0.3864   0.6147   1.1807 H              1 S1                 0.0000
     35 ****         0.2951  -1.7816  -0.2656 H              1 S1                 0.0000
     36 ****         1.5461  -3.2784  -0.0495 H              1 S1                 0.0000
     37 ****         4.9972  -2.1001   1.2860 H              1 S1                 0.0000
     38 ****         7.3395  -3.5510   1.6364 H              1 S1                 0.0000
     39 ****         7.4070  -5.0374   0.6963 H              1 S1                 0.0000
     40 ****         6.9048  -5.0847   2.3849 H              1 S1                 0.0000
     41 ****         2.0508  -5.3667  -1.0909 H              1 S1                 0.0000
     42 ****         1.6381  -5.7932   0.5833 H              1 S1                 0.0000
     43 ****         2.8385  -6.7503  -0.3083 H              1 S1                 0.0000
     44 ****        -2.5346   1.3245  -2.4074 H              1 S1                 0.0000
     45 ****        -3.5025   1.0236  -0.9822 H              1 S1                 0.0000
     46 ****        -4.2630   3.0495  -2.1576 H              1 S1                 0.0000
     47 ****        -2.6710   3.7683  -2.0571 H              1 S1                 0.0000
     48 ****        -4.4087   3.1019   0.1994 LP             1 S1                 0.0000
     49 ****        -0.8441   2.2729  -1.0163 LP             1 S1                 0.0000
     50 ****         2.7495   0.3163   1.0265 LP             1 S1                 0.0000
     51 ****         3.8804  -0.9824   1.2121 LP             1 S1                 0.0000
     52 ****         5.0080  -6.3059   0.5813 LP             1 S1                 0.0000
@<TRIPOS>BOND
    1    1    2 1     
    2    1   22 1     
    3    1   23 1     
    4    1   24 1     
    5    2    3 1     
    6    2   25 1     
    7    2   26 1     
    8    3   21 1     
    9    3    4 1     
   10    4    5 1     
   11    4   27 1     
   12    4   28 1     
   13    5    6 1     
   14    5   29 1     
   15    5   30 1     
   16    6    7 1     
   17    6   20 1     
   18    7    8 1     
   19    7   31 1     
   20    7   32 1     
   21    8    9 1     
   22    8   33 1     
   23    8   34 1     
   24    9   10 am    
   25    9   35 1     
   26   10   11 2     
   27   10   12 am    
   28   12   13 1     
   29   12   36 1     
   30   13   18 1     
   31   13   14 2     
   32   14   15 1     
   33   14   37 1     
   34   15   16 1     
   35   15   17 2     
   36   16   38 1     
   37   16   39 1     
   38   16   40 1     
   39   17   18 1     
   40   18   19 1     
   41   19   41 1     
   42   19   42 1     
   43   19   43 1     
   44   20   21 1     
   45   20   44 1     
   46   20   45 1     
   47   21   46 1     
   48   21   47 1     
   49    3   48 1     
   50    6   49 1     
   51   11   50 1     
   52   11   51 1     
   53   17   52 1     
@<TRIPOS>SUBSTRUCTURE
      1 S1             1
@<TRIPOS>SET
LONE_PAIRS      STATIC     ATOMS    <user>   **** ""
5 48 49 50 51 52
DONOR_HYDROGENS      STATIC     ATOMS    <user>   **** ""
2 35 36
ATOM$BLUE        STATIC     ATOMS    COLORGROUP SYSTEM
5 48 49 50 51 52
ATOM$RED        STATIC     ATOMS    COLORGROUP SYSTEM
2 35 36
