AV-unprocessed.smi:787|AV-procd|sdf|3730|dock9
  -GOLD-   22720 1163D 1   1.00000     0.00000
 Structure written by MMmdl.
 46 48  0  0  0  0  0  0  0  0  1 V2000
  143.2372  138.2308  155.3828 C   0  0  0  0  0  0  0  0  0  0  0  0
  143.4337  137.8958  153.9815 N   0  0  0  0  0  0  0  0  0  0  0  0
  143.0369  136.6474  153.4818 C   0  0  0  0  0  0  0  0  0  0  0  0
  141.9409  136.0364  153.9885 N   0  0  0  0  0  0  0  0  0  0  0  0
  141.5955  134.8464  153.4799 C   0  0  0  0  0  0  0  0  0  0  0  0
  142.1892  134.1380  152.5072 N   0  0  0  0  0  0  0  0  0  0  0  0
  143.2757  134.7349  151.9982 C   0  0  0  0  0  0  0  0  0  0  0  0
  144.0779  134.2341  150.9874 N   0  0  0  0  0  0  0  0  0  0  0  0
  144.9914  135.1939  150.8670 C   0  0  0  0  0  0  0  0  0  0  0  0
  144.8828  136.2624  151.6805 N   0  0  0  0  0  0  0  0  0  0  0  0
  145.7710  137.4124  151.7085 C   0  0  0  0  0  0  0  0  0  0  0  0
  146.3048  137.7165  153.1240 C   0  0  1  0  0  0  0  0  0  0  0  0
  146.9536  136.5757  153.6502 O   0  0  0  0  0  0  0  0  0  0  0  0
  147.3166  138.8810  153.1409 C   0  0  0  0  0  0  0  0  0  0  0  0
  147.5325  139.5173  154.4420 N   0  0  0  0  0  0  0  0  0  0  0  0
  146.3267  140.2291  154.8554 C   0  0  0  0  0  0  0  0  0  0  0  0
  148.6959  140.4088  154.4417 C   0  0  0  0  0  0  0  0  0  0  0  0
  150.0052  139.7039  154.7526 C   0  0  0  0  0  0  0  0  0  0  0  0
  150.3197  138.4842  154.1161 C   0  0  0  0  0  0  0  0  0  0  0  0
  151.5334  137.8291  154.4019 C   0  0  0  0  0  0  0  0  0  0  0  0
  152.4378  138.3922  155.3226 C   0  0  0  0  0  0  0  0  0  0  0  0
  152.1285  139.6108  155.9578 C   0  0  0  0  0  0  0  0  0  0  0  0
  150.9144  140.2661  155.6733 C   0  0  0  0  0  0  0  0  0  0  0  0
  143.7521  136.0016  152.4531 C   0  0  0  0  0  0  0  0  0  0  0  0
  143.5825  139.2466  155.5740 H   0  0  0  0  0  0  0  0  0  0  0  0
  143.7997  137.5521  156.0247 H   0  0  0  0  0  0  0  0  0  0  0  0
  142.1816  138.1731  155.6500 H   0  0  0  0  0  0  0  0  0  0  0  0
  143.8523  138.5773  153.3654 H   0  0  0  0  0  0  0  0  0  0  0  0
  140.7166  134.3935  153.9142 H   0  0  0  0  0  0  0  0  0  0  0  0
  145.7888  135.1170  150.1421 H   0  0  0  0  0  0  0  0  0  0  0  0
  146.5907  137.2514  151.0096 H   0  0  0  0  0  0  0  0  0  0  0  0
  145.2162  138.2707  151.3269 H   0  0  0  0  0  0  0  0  0  0  0  0
  145.4689  137.9282  153.7899 H   0  0  0  0  0  0  0  0  0  0  0  0
  147.6480  136.3235  153.0608 H   0  0  0  0  0  0  0  0  0  0  0  0
  148.2729  138.5348  152.7454 H   0  0  0  0  0  0  0  0  0  0  0  0
  146.9605  139.6347  152.4365 H   0  0  0  0  0  0  0  0  0  0  0  0
  146.4356  140.6452  155.8572 H   0  0  0  0  0  0  0  0  0  0  0  0
  145.4681  139.5570  154.8787 H   0  0  0  0  0  0  0  0  0  0  0  0
  146.0979  141.0470  154.1707 H   0  0  0  0  0  0  0  0  0  0  0  0
  148.8274  140.8639  153.4615 H   0  0  0  0  0  0  0  0  0  0  0  0
  148.5405  141.2302  155.1429 H   0  0  0  0  0  0  0  0  0  0  0  0
  149.6291  138.0487  153.4088 H   0  0  0  0  0  0  0  0  0  0  0  0
  151.7707  136.8947  153.9148 H   0  0  0  0  0  0  0  0  0  0  0  0
  153.3688  137.8899  155.5411 H   0  0  0  0  0  0  0  0  0  0  0  0
  152.8225  140.0429  156.6634 H   0  0  0  0  0  0  0  0  0  0  0  0
  150.6835  141.1995  156.1654 H   0  0  0  0  0  0  0  0  0  0  0  0
  1  2  1  0  0  0  0
  1 25  1  0  0  0  0
  1 26  1  0  0  0  0
  1 27  1  0  0  0  0
  2  3  1  0  0  0  0
  2 28  1  0  0  0  0
  3 24  1  0  0  0  0
  3  4  2  0  0  0  0
  4  5  1  0  0  0  0
  5  6  2  0  0  0  0
  5 29  1  0  0  0  0
  6  7  1  0  0  0  0
  7 24  2  0  0  0  0
  7  8  1  0  0  0  0
  8  9  2  0  0  0  0
  9 10  1  0  0  0  0
  9 30  1  0  0  0  0
 10 11  1  0  0  0  0
 10 24  1  0  0  0  0
 11 12  1  0  0  0  0
 11 31  1  0  0  0  0
 11 32  1  0  0  0  0
 12 13  1  0  0  0  0
 12 14  1  0  0  0  0
 12 33  1  0  0  0  0
 13 34  1  0  0  0  0
 14 15  1  0  0  0  0
 14 35  1  0  0  0  0
 14 36  1  0  0  0  0
 15 16  1  0  0  0  0
 15 17  1  0  0  0  0
 16 37  1  0  0  0  0
 16 38  1  0  0  0  0
 16 39  1  0  0  0  0
 17 18  1  0  0  0  0
 17 40  1  0  0  0  0
 17 41  1  0  0  0  0
 18 23  1  0  0  0  0
 18 19  2  0  0  0  0
 19 20  1  0  0  0  0
 19 42  1  0  0  0  0
 20 21  2  0  0  0  0
 20 43  1  0  0  0  0
 21 22  1  0  0  0  0
 21 44  1  0  0  0  0
 22 23  2  0  0  0  0
 22 45  1  0  0  0  0
 23 46  1  0  0  0  0
M  END
> <s_m_source_file>
AV-unprocessed.smi

> <i_m_source_file_index>
787

> <i_lp_mmshare_version>
43012

> <i_f3d_flags>
0

> <s_epik_input>
bjFbY0hdbmMoW05IXVtDSDNdKWMoYzEyKW4oW2NIXW4yKVtDSDJdW0NASF0oW09IXSlbQ0gyXU4oW0NIM10pW0NIMl1jM1tjSF1bY0hdW2NIXVtjSF1bY0hdMw==

> <s_epik_cmdline>
J2VwaWtfcHl0aG9uJywgJy1waCcsICc3LjAnLCAnLXRuJywgJzgnLCAnLW1hJywgJzIwMCcsICctbWV0YWxfYmluZGluZycsICctaW1hZScsICc8aW5maWxlLm1hZT4nLCAnLW9tYWUnLCAnPG91dGZpbGUubWFlPic=

> <r_lp_tautomer_probability>
0.999987

> <r_epik_Ionization_Penalty>
1.52367

> <r_epik_Ionization_Penalty_Charging>
0

> <r_epik_Ionization_Penalty_Neutral>
1.52367

> <r_epik_State_Penalty>
1.60995

> <r_epik_Charging_Adjusted_Penalty>
1.60995

> <i_epik_Tot_Q>
0

> <i_epik_Tot_abs_Q>
0

> <r_epik_Metal_State_Penalty>
1.60969

> <b_epik_Metal_Only>
0

> <s_lp_Force_Field>
OPLS_2005

> <r_lp_Energy>
19.785

> <b_lp_Chiralities_Consistent>
1

> <s_lp_Variant>
AV-unprocessed.smi:787-6

> <Gold.Version>
5.8.1

> <Gold.Id.Protein>
6NUR|6NUR_protein|mol2

> <Gold.PLP.Fitness>
50.1203

> <Gold.PLP.PLP>
-41.9384

> <Gold.PLP.part.hbond>
-2.0000

> <Gold.PLP.part.metal>
0.0000

> <Gold.PLP.part.buried>
-0.4955

> <Gold.PLP.part.nonpolar>
-39.4401

> <Gold.PLP.part.repulsive>
0.5984

> <Gold.PLP.ligand.clash>
0.0000

> <Gold.PLP.ligand.torsion>
1.0302

> <Gold.PLP.Chemscore.Hbond>
1.8960

> <Gold.PLP.Chemscore.CHOScore>
1.3717

> <Gold.PLP.Chemscore.Metal>
0.0000

> <Gold.Chemscore.Hbonds>
donor molecule, donor type, donor heavy atom, donor atom, acceptor molecule, acceptor atom, score
      L1  H     2    28       P1 10175  0.80
      L1  H    13    34       P1  7948  1.00
      L1  C     5    29       P1 11000  0.36
      L1  C     9    30       P1  7921  0.97

> <Gold.PLP.Chemscore.Internal.Correction>
0.4393

> <Gold.Rescore>
     Score         DG    S(hbond)    S(metal)    S(lipo)     H(rot)  DE(clash)    DE(int)     intcor
      9.71     -11.03       1.22        0.00      80.57       3.11       0.63       0.69       ----

> <Gold.Chemscore.Fitness>
9.7077

> <Gold.Chemscore.DG>
-11.0350

> <Gold.Chemscore.ZeroCoef>
-5.4800

> <Gold.Chemscore.Hbond>
1.2226

> <Gold.Chemscore.Metal>
0.0000

> <Gold.Chemscore.Lipo>
80.5689

> <Gold.Chemscore.Internal_Hbond>
0.0000

> <Gold.Chemscore.DEClash>
0.6345

> <Gold.Chemscore.DEInternal>
0.6928

> <Gold.Chemscore.Rot>
3.1075

> <Gold.Chemscore.Internal.Correction>
   9.000000E+99

> <Gold.Chemscore.Hbonds>
donor molecule, donor type, donor heavy atom, donor atom, acceptor molecule, acceptor atom, score
      L1  H     2    28       P1 10175  0.75
      L1  H    13    34       P1  7948  1.00

> <Gold.Chemscore.Hbond.Weighted>
-4.0835

> <Gold.Chemscore.Metal.Weighted>
-0.0000

> <Gold.Chemscore.Lipo.Weighted>
-9.4266

> <Gold.Chemscore.Internal_Hbond.Weighted>
0.0000

> <Gold.Chemscore.DEClash.Weighted>
0.6345

> <Gold.Chemscore.DEInternal.Weighted>
0.6928

> <Gold.Chemscore.Rot.Weighted>
7.9551

> <Gold.Chemscore.Internal.Correction.Weighted>
   9.000000E+99

> <Gold.Protein.RotatedTorsions>
[ 6907 6896 6895 6894 ] final -159.70 input  -60.11 | X-H torsion
[ 7974 7965 7964 7962 ] final   36.50 input  175.53 | X-H torsion
[ 8008 7997 7996 7995 ] final -128.83 input   59.86 | X-H torsion
[ 10167 10162 10161 10158 ] final  -30.24 input  -65.29 | X-H torsion
[ 10718 10713 10712 10709 ] final   60.41 input   66.30 | X-H torsion
[ 10763 10752 10751 10750 ] final   34.79 input  -60.55 | X-H torsion
[ 11005 11000 10999 10996 ] final -144.34 input  -57.11 | X-H torsion

> <Gold.Protein.ActiveResidues>
 VAL166  LYS551  ARG553  GLY616  TRP617  ASP618  TYR619  PRO620  LYS621  CYS622 
 ASP623  PHE694  ASN695  SER759  ASP760  ASP761  ALA762  ILE779  LEU786  VAL792 
 PHE793  MET794  SER795  GLU796  ALA797  LYS798  CYS799  TRP800  GLU811  SER814 

> <Gold.Protein.RotatedAtoms>
  151.3377  133.3975  159.2668 H   0  0  0  0  0  0  0  0  0  0  0  0  # atno 6907 bound_to 6896
  150.9903  134.9240  159.7906 H   0  0  0  0  0  0  0  0  0  0  0  0  # atno 6908 bound_to 6896
  152.5245  134.3342  159.9246 H   0  0  0  0  0  0  0  0  0  0  0  0  # atno 6909 bound_to 6896
  146.1207  139.6010  142.9292 H   0  0  0  0  0  0  0  0  0  0  0  0  # atno 7974 bound_to 7965
  155.2691  140.0439  157.3005 H   0  0  0  0  0  0  0  0  0  0  0  0  # atno 8008 bound_to 7997
  154.5664  140.2361  155.8226 H   0  0  0  0  0  0  0  0  0  0  0  0  # atno 8009 bound_to 7997
  156.2088  140.3005  155.9694 H   0  0  0  0  0  0  0  0  0  0  0  0  # atno 8010 bound_to 7997
  140.7251  143.3865  151.1507 H   0  0  0  0  0  0  0  0  0  0  0  0  # atno 10167 bound_to 10162
  157.5750  130.8937  149.9332 H   0  0  0  0  0  0  0  0  0  0  0  0  # atno 10718 bound_to 10713
  153.0148  135.6351  154.1724 H   0  0  0  0  0  0  0  0  0  0  0  0  # atno 10763 bound_to 10752
  154.1463  135.2831  155.3149 H   0  0  0  0  0  0  0  0  0  0  0  0  # atno 10764 bound_to 10752
  154.6087  135.5563  153.7511 H   0  0  0  0  0  0  0  0  0  0  0  0  # atno 10765 bound_to 10752
  140.8034  134.2830  157.4969 H   0  0  0  0  0  0  0  0  0  0  0  0  # atno 11005 bound_to 11000
  145.5473  141.0416  143.2298 LP  0  0  0  0  0  0  0  0  0  0  0  0  # atno 17320 bound_to 7965
  144.7594  139.6994  143.7240 LP  0  0  0  0  0  0  0  0  0  0  0  0  # atno 17321 bound_to 7965
  139.7463  143.8848  152.3064 LP  0  0  0  0  0  0  0  0  0  0  0  0  # atno 17342 bound_to 10162
  139.8686  144.7080  150.9015 LP  0  0  0  0  0  0  0  0  0  0  0  0  # atno 17343 bound_to 10162
  156.0795  130.3675  150.0609 LP  0  0  0  0  0  0  0  0  0  0  0  0  # atno 17370 bound_to 10713
  156.8756  130.9539  151.3605 LP  0  0  0  0  0  0  0  0  0  0  0  0  # atno 17371 bound_to 10713
  139.8720  134.9442  156.3875 LP  0  0  0  0  0  0  0  0  0  0  0  0  # atno 17394 bound_to 11000
  140.9271  133.7604  155.9979 LP  0  0  0  0  0  0  0  0  0  0  0  0  # atno 17395 bound_to 11000

$$$$
