AV-unprocessed.smi:113|AV-procd|sdf|1098|dock3
  -GOLD-   2262018203D 1   1.00000     0.00000
 Structure written by MMmdl.
 52 55  0  0  0  0  0  0  0  0  1 V2000
  151.6115  144.0115  160.0410 C   0  0  0  0  0  0  0  0  0  0  0  0
  152.3557  142.7424  160.4005 C   0  0  0  0  0  0  0  0  0  0  0  0
  152.3773  141.6478  159.5180 C   0  0  0  0  0  0  0  0  0  0  0  0
  153.0832  140.4809  159.8904 C   0  0  0  0  0  0  0  0  0  0  0  0
  153.1451  139.2624  158.9628 C   0  0  0  0  0  0  0  0  0  0  0  0
  151.8931  138.8298  158.3577 N   0  0  0  0  0  0  0  0  0  0  0  0
  151.1125  137.8825  159.0636 C   0  0  0  0  0  0  0  0  0  0  0  0
  151.4742  137.4328  160.1531 O   0  0  0  0  0  0  0  0  0  0  0  0
  149.8740  137.4753  158.3960 C   0  0  0  0  0  0  0  0  0  0  0  0
  148.9837  136.4601  159.0955 C   0  0  0  0  0  0  0  0  0  0  0  0
  149.5560  137.9999  157.1881 C   0  0  0  0  0  0  0  0  0  0  0  0
  150.3433  138.9203  156.5142 N   0  0  0  0  0  0  0  0  0  0  0  0
  149.9533  139.4697  155.1554 C   0  0  1  0  0  0  0  0  0  0  0  0
  148.8620  138.6079  154.5200 C   0  0  0  0  0  0  0  0  0  0  0  0
  147.6061  139.2942  155.0150 C   0  0  2  0  0  0  0  0  0  0  0  0
  146.4974  139.0080  154.1861 O   0  0  0  0  0  0  0  0  0  0  0  0
  148.0209  140.7764  155.0587 C   0  0  2  0  0  0  0  0  0  0  0  0
  147.7947  141.5763  153.7597 C   0  0  0  0  0  0  0  0  0  0  0  0
  147.9771  142.9588  153.9847 O   0  0  0  0  0  0  0  0  0  0  0  0
  149.4314  140.7592  155.2970 O   0  0  0  0  0  0  0  0  0  0  0  0
  151.5584  139.3499  157.0874 C   0  0  0  0  0  0  0  0  0  0  0  0
  152.2986  140.1340  156.4882 O   0  0  0  0  0  0  0  0  0  0  0  0
  153.7355  140.4721  161.1532 C   0  0  0  0  0  0  0  0  0  0  0  0
  154.4600  139.3417  161.6034 C   0  0  0  0  0  0  0  0  0  0  0  0
  155.0997  139.3534  162.8558 C   0  0  0  0  0  0  0  0  0  0  0  0
  155.0215  140.4941  163.6715 C   0  0  0  0  0  0  0  0  0  0  0  0
  154.3029  141.6206  163.2324 C   0  0  0  0  0  0  0  0  0  0  0  0
  153.6535  141.6318  161.9793 C   0  0  0  0  0  0  0  0  0  0  0  0
  152.9743  142.7358  161.5976 N   0  0  0  0  0  0  0  0  0  0  0  0
  151.4856  144.0974  158.9615 H   0  0  0  0  0  0  0  0  0  0  0  0
  152.1534  144.8922  160.3878 H   0  0  0  0  0  0  0  0  0  0  0  0
  150.6237  144.0111  160.5023 H   0  0  0  0  0  0  0  0  0  0  0  0
  151.8578  141.7181  158.5741 H   0  0  0  0  0  0  0  0  0  0  0  0
  153.8475  139.4445  158.1481 H   0  0  0  0  0  0  0  0  0  0  0  0
  153.5658  138.4077  159.4947 H   0  0  0  0  0  0  0  0  0  0  0  0
  148.0879  136.2358  158.5156 H   0  0  0  0  0  0  0  0  0  0  0  0
  148.6650  136.8381  160.0676 H   0  0  0  0  0  0  0  0  0  0  0  0
  149.5226  135.5246  159.2508 H   0  0  0  0  0  0  0  0  0  0  0  0
  148.6366  137.6659  156.7322 H   0  0  0  0  0  0  0  0  0  0  0  0
  150.8757  139.5162  154.5745 H   0  0  0  0  0  0  0  0  0  0  0  0
  148.9515  138.6866  153.4355 H   0  0  0  0  0  0  0  0  0  0  0  0
  148.9395  137.5579  154.8050 H   0  0  0  0  0  0  0  0  0  0  0  0
  147.3833  138.9508  156.0260 H   0  0  0  0  0  0  0  0  0  0  0  0
  145.9078  139.7468  154.2077 H   0  0  0  0  0  0  0  0  0  0  0  0
  147.5338  141.2891  155.8895 H   0  0  0  0  0  0  0  0  0  0  0  0
  148.5231  141.2727  153.0073 H   0  0  0  0  0  0  0  0  0  0  0  0
  146.8059  141.3894  153.3397 H   0  0  0  0  0  0  0  0  0  0  0  0
  147.9743  143.1138  154.9170 H   0  0  0  0  0  0  0  0  0  0  0  0
  154.5391  138.4492  161.0020 H   0  0  0  0  0  0  0  0  0  0  0  0
  155.6502  138.4864  163.1901 H   0  0  0  0  0  0  0  0  0  0  0  0
  155.5120  140.5062  164.6338 H   0  0  0  0  0  0  0  0  0  0  0  0
  154.2498  142.4916  163.8694 H   0  0  0  0  0  0  0  0  0  0  0  0
  1  2  1  0  0  0  0
  1 30  1  0  0  0  0
  1 31  1  0  0  0  0
  1 32  1  0  0  0  0
  2 29  1  0  0  0  0
  2  3  2  0  0  0  0
  3  4  1  0  0  0  0
  3 33  1  0  0  0  0
  4  5  1  0  0  0  0
  4 23  2  0  0  0  0
  5  6  1  0  0  0  0
  5 34  1  0  0  0  0
  5 35  1  0  0  0  0
  6 21  1  0  0  0  0
  6  7  1  0  0  0  0
  7  8  2  0  0  0  0
  7  9  1  0  0  0  0
  9 10  1  0  0  0  0
  9 11  2  0  0  0  0
 10 36  1  0  0  0  0
 10 37  1  0  0  0  0
 10 38  1  0  0  0  0
 11 12  1  0  0  0  0
 11 39  1  0  0  0  0
 12 13  1  0  0  0  0
 12 21  1  0  0  0  0
 13 20  1  0  0  0  0
 13 14  1  0  0  0  0
 13 40  1  0  0  0  0
 14 15  1  0  0  0  0
 14 41  1  0  0  0  0
 14 42  1  0  0  0  0
 15 16  1  0  0  0  0
 15 17  1  0  0  0  0
 15 43  1  0  0  0  0
 16 44  1  0  0  0  0
 17 18  1  0  0  0  0
 17 20  1  0  0  0  0
 17 45  1  0  0  0  0
 18 19  1  0  0  0  0
 18 46  1  0  0  0  0
 18 47  1  0  0  0  0
 19 48  1  0  0  0  0
 21 22  2  0  0  0  0
 23 28  1  0  0  0  0
 23 24  1  0  0  0  0
 24 25  2  0  0  0  0
 24 49  1  0  0  0  0
 25 26  1  0  0  0  0
 25 50  1  0  0  0  0
 26 27  2  0  0  0  0
 26 51  1  0  0  0  0
 27 28  1  0  0  0  0
 27 52  1  0  0  0  0
 28 29  2  0  0  0  0
M  END
> <s_m_source_file>
AV-unprocessed.smi

> <i_m_source_file_index>
113

> <i_lp_mmshare_version>
43012

> <i_f3d_flags>
0

> <s_epik_input>
W2NIXTFbY0hdW2NIXVtjSF1jKGMxMiluYyhbQ0gzXSlbY0hdYzJbQ0gyXW4zYyg9TyljKFtDSDNdKVtjSF1uKGMzPU8pW0NAQEhdNFtDSDJdW0NAQEhdKFtPSF0pW0NASF0oTzQpW0NIMl1bT0hd

> <s_epik_cmdline>
J2VwaWtfcHl0aG9uJywgJy1waCcsICc3LjAnLCAnLXRuJywgJzgnLCAnLW1hJywgJzIwMCcsICctbWV0YWxfYmluZGluZycsICctaW1hZScsICc8aW5maWxlLm1hZT4nLCAnLW9tYWUnLCAnPG91dGZpbGUubWFlPic=

> <r_lp_tautomer_probability>
1

> <r_epik_Ionization_Penalty>
0.214728

> <r_epik_Ionization_Penalty_Charging>
3.04883e-08

> <r_epik_Ionization_Penalty_Neutral>
0.214728

> <r_epik_State_Penalty>
0.204913

> <r_epik_Charging_Adjusted_Penalty>
0.204913

> <i_epik_Tot_Q>
0

> <i_epik_Tot_abs_Q>
0

> <r_epik_Metal_State_Penalty>
0.000244761

> <b_epik_Metal_Only>
0

> <s_epik_Chemistry_Notes>
This compound contains an acetal/aminal-like group ( X-CH(R)-Y where X, Y are N, S, or O) that may be acid/base labile, releasing an aldehyde.

> <s_lp_Force_Field>
OPLS_2005

> <r_lp_Energy>
41.6677

> <b_lp_Chiralities_Consistent>
1

> <s_lp_Variant>
AV-unprocessed.smi:113-8

> <Gold.Version>
5.8.1

> <Gold.Id.Protein>
6NUR|6NUR_protein|mol2

> <Gold.PLP.Fitness>
46.7707

> <Gold.PLP.PLP>
-42.8710

> <Gold.PLP.part.hbond>
-4.1983

> <Gold.PLP.part.metal>
0.0000

> <Gold.PLP.part.buried>
2.6333

> <Gold.PLP.part.nonpolar>
-40.7183

> <Gold.PLP.part.repulsive>
0.1529

> <Gold.PLP.ligand.clash>
0.0000

> <Gold.PLP.ligand.torsion>
1.0756

> <Gold.PLP.Chemscore.Hbond>
2.0080

> <Gold.PLP.Chemscore.CHOScore>
0.0000

> <Gold.PLP.Chemscore.Metal>
0.0000

> <Gold.Chemscore.Hbonds>
donor molecule, donor type, donor heavy atom, donor atom, acceptor molecule, acceptor atom, score
      L1  H    19    48       P1  8028  0.38
      P1  H  7997  8008       L1    22  0.98
      P1  H  8022  8030       L1    19  0.55

> <Gold.PLP.Chemscore.Internal.Correction>
0.0270

> <Gold.Rescore>
     Score         DG    S(hbond)    S(metal)    S(lipo)     H(rot)  DE(clash)    DE(int)     intcor
     18.43     -20.13       2.75        0.00     111.21       2.95       0.73       0.97       ----

> <Gold.Chemscore.Fitness>
18.4331

> <Gold.Chemscore.DG>
-20.1344

> <Gold.Chemscore.ZeroCoef>
-5.4800

> <Gold.Chemscore.Hbond>
2.7506

> <Gold.Chemscore.Metal>
0.0000

> <Gold.Chemscore.Lipo>
111.2078

> <Gold.Chemscore.Internal_Hbond>
0.0000

> <Gold.Chemscore.DEClash>
0.7274

> <Gold.Chemscore.DEInternal>
0.9739

> <Gold.Chemscore.Rot>
2.9469

> <Gold.Chemscore.Internal.Correction>
   9.000000E+99

> <Gold.Chemscore.Hbonds>
donor molecule, donor type, donor heavy atom, donor atom, acceptor molecule, acceptor atom, score
      L1  H    19    48       P1  8028  0.33
      P1  H  6896  6909       L1     8  0.01
      P1  H  7997  8008       L1    22  0.90
      P1  H  8022  8030       L1    19  0.05

> <Gold.Chemscore.Hbond.Weighted>
-9.1870

> <Gold.Chemscore.Metal.Weighted>
-0.0000

> <Gold.Chemscore.Lipo.Weighted>
-13.0113

> <Gold.Chemscore.Internal_Hbond.Weighted>
0.0000

> <Gold.Chemscore.DEClash.Weighted>
0.7274

> <Gold.Chemscore.DEInternal.Weighted>
0.9739

> <Gold.Chemscore.Rot.Weighted>
7.5439

> <Gold.Chemscore.Internal.Correction.Weighted>
   9.000000E+99

> <Gold.Protein.RotatedTorsions>
[ 6907 6896 6895 6894 ] final   83.14 input  -60.11 | X-H torsion
[ 7974 7965 7964 7962 ] final  -77.01 input  175.53 | X-H torsion
[ 8008 7997 7996 7995 ] final  -40.75 input   59.86 | X-H torsion
[ 10167 10162 10161 10158 ] final  172.73 input  -65.29 | X-H torsion
[ 10718 10713 10712 10709 ] final -152.53 input   66.30 | X-H torsion
[ 10763 10752 10751 10750 ] final  124.51 input  -60.55 | X-H torsion
[ 11005 11000 10999 10996 ] final  -25.25 input  -57.11 | X-H torsion

> <Gold.Protein.ActiveResidues>
 VAL166  LYS551  ARG553  GLY616  TRP617  ASP618  TYR619  PRO620  LYS621  CYS622 
 ASP623  PHE694  ASN695  SER759  ASP760  ASP761  ALA762  ILE779  LEU786  VAL792 
 PHE793  MET794  SER795  GLU796  ALA797  LYS798  CYS799  TRP800  GLU811  SER814 

> <Gold.Protein.RotatedAtoms>
  152.5319  134.2942  159.9054 H   0  0  0  0  0  0  0  0  0  0  0  0  # atno 6907 bound_to 6896
  151.2894  133.4166  159.2639 H   0  0  0  0  0  0  0  0  0  0  0  0  # atno 6908 bound_to 6896
  151.0214  134.9488  159.8118 H   0  0  0  0  0  0  0  0  0  0  0  0  # atno 6909 bound_to 6896
  145.6053  140.9399  143.1219 H   0  0  0  0  0  0  0  0  0  0  0  0  # atno 7974 bound_to 7965
  154.4009  140.1517  156.3078 H   0  0  0  0  0  0  0  0  0  0  0  0  # atno 8008 bound_to 7997
  155.8642  140.3452  155.5755 H   0  0  0  0  0  0  0  0  0  0  0  0  # atno 8009 bound_to 7997
  155.7846  140.0848  157.2032 H   0  0  0  0  0  0  0  0  0  0  0  0  # atno 8010 bound_to 7997
  139.5086  144.3341  152.0083 H   0  0  0  0  0  0  0  0  0  0  0  0  # atno 10167 bound_to 10162
  156.4738  130.8271  151.2499 H   0  0  0  0  0  0  0  0  0  0  0  0  # atno 10718 bound_to 10713
  153.6626  135.3344  155.3131 H   0  0  0  0  0  0  0  0  0  0  0  0  # atno 10763 bound_to 10752
  154.8511  135.4367  154.1788 H   0  0  0  0  0  0  0  0  0  0  0  0  # atno 10764 bound_to 10752
  153.2759  135.7004  153.7509 H   0  0  0  0  0  0  0  0  0  0  0  0  # atno 10765 bound_to 10752
  140.8920  133.7582  156.0433 H   0  0  0  0  0  0  0  0  0  0  0  0  # atno 11005 bound_to 11000
  144.7293  139.7777  143.7353 LP  0  0  0  0  0  0  0  0  0  0  0  0  # atno 17320 bound_to 7965
  146.1546  139.4639  143.0027 LP  0  0  0  0  0  0  0  0  0  0  0  0  # atno 17321 bound_to 7965
  140.2780  144.3891  150.6128 LP  0  0  0  0  0  0  0  0  0  0  0  0  # atno 17342 bound_to 10162
  140.6039  143.2167  151.7018 LP  0  0  0  0  0  0  0  0  0  0  0  0  # atno 17343 bound_to 10162
  157.7489  131.0067  150.3164 LP  0  0  0  0  0  0  0  0  0  0  0  0  # atno 17370 bound_to 10713
  156.3592  130.3844  149.7265 LP  0  0  0  0  0  0  0  0  0  0  0  0  # atno 17371 bound_to 10713
  140.8335  134.3150  157.5340 LP  0  0  0  0  0  0  0  0  0  0  0  0  # atno 17394 bound_to 11000
  139.8731  134.9376  156.3693 LP  0  0  0  0  0  0  0  0  0  0  0  0  # atno 17395 bound_to 11000

$$$$
