#       Name:                AV-unprocessed.smi:199
#       Creating user name   scv26
#       Creation time:       Thu Mar 26 19:43:35 2020


#       File generated by GOLD software.
#

@<TRIPOS>MOLECULE
AV-unprocessed.smi:199
    61    65     1
SMALL
NO_CHARGES


@<TRIPOS>ATOM
      1 ****        -2.6051   2.1901  -0.7057 C.3            1 S1                 0.0000
      2 ****        -3.6365   1.0502  -0.7320 C.3            1 S1                 0.0000
      3 ****        -4.8627   1.4951  -1.2930 O.3            1 S1                 0.0000
      4 ****        -5.8464   0.5386  -0.9433 C.3            1 S1                 0.0000
      5 ****        -5.5472   0.2683   0.5265 C.3            1 S1                 0.0000
      6 ****        -4.0255   0.4141   0.6292 C.3            1 S1                 0.0000
      7 ****        -3.7379   1.2816   1.7139 O.3            1 S1                 0.0000
      8 ****        -3.3255  -0.9417   0.8956 C.3            1 S1                 0.0000
      9 ****        -1.8727  -0.8571   0.8745 N.pl3          1 S1                 0.0000
     10 ****        -1.0569  -0.4284   1.8960 C.2            1 S1                 0.0000
     11 ****         0.2190  -0.4325   1.6260 N.2            1 S1                 0.0000
     12 ****         0.2957  -0.8995   0.3187 C.ar           1 S1                 0.0000
     13 ****         1.3620  -1.1409  -0.5973 C.ar           1 S1                 0.0000
     14 ****         2.6761  -0.9147  -0.3196 N.3            1 S1                 0.0000
     15 ****         3.6318  -0.7063  -1.3982 C.3            1 S1                 0.0000
     16 ****         3.3325   0.7236  -1.8969 C.3            1 S1                 0.0000
     17 ****         2.9134   1.4155  -0.5901 C.3            1 S1                 0.0000
     18 ****         3.0840   0.2679   0.4258 C.3            1 S1                 0.0000
     19 ****         4.5929   0.0262   0.6588 C.3            1 S1                 0.0000
     20 ****         4.8948  -0.8066   1.9178 C.3            1 S1                 0.0000
     21 ****         4.6121  -0.0590   3.0816 O.3            1 S1                 0.0000
     22 ****         4.9710  -0.7050  -0.6450 C.3            1 S1                 0.0000
     23 ****         1.0306  -1.6518  -1.8133 N.ar           1 S1                 0.0000
     24 ****        -0.2457  -1.8853  -2.1285 C.ar           1 S1                 0.0000
     25 ****        -1.3359  -1.6889  -1.3870 N.ar           1 S1                 0.0000
     26 ****        -1.0149  -1.1917  -0.1590 C.ar           1 S1                 0.0000
     27 ****        -1.6637   1.8603  -0.2657 H              1 S1                 0.0000
     28 ****        -2.9652   3.0447  -0.1330 H              1 S1                 0.0000
     29 ****        -2.3917   2.5391  -1.7160 H              1 S1                 0.0000
     30 ****        -3.2711   0.2715  -1.4020 H              1 S1                 0.0000
     31 ****        -6.8554   0.9178  -1.1058 H              1 S1                 0.0000
     32 ****        -5.7142  -0.3632  -1.5434 H              1 S1                 0.0000
     33 ****        -6.0561   1.0213   1.1311 H              1 S1                 0.0000
     34 ****        -5.9139  -0.7074   0.8477 H              1 S1                 0.0000
     35 ****        -4.0651   0.8877   2.5079 H              1 S1                 0.0000
     36 ****        -3.6307  -1.3450   1.8622 H              1 S1                 0.0000
     37 ****        -3.6364  -1.6750   0.1503 H              1 S1                 0.0000
     38 ****        -1.4405  -0.1017   2.8515 H              1 S1                 0.0000
     39 ****         3.6043  -1.4562  -2.1895 H              1 S1                 0.0000
     40 ****         4.1976   1.1930  -2.3664 H              1 S1                 0.0000
     41 ****         2.5126   0.7308  -2.6160 H              1 S1                 0.0000
     42 ****         3.5252   2.2865  -0.3538 H              1 S1                 0.0000
     43 ****         1.8725   1.7381  -0.6422 H              1 S1                 0.0000
     44 ****         2.5514   0.4484   1.3573 H              1 S1                 0.0000
     45 ****         5.1296   0.9738   0.7288 H              1 S1                 0.0000
     46 ****         4.3112  -1.7278   1.9294 H              1 S1                 0.0000
     47 ****         5.9476  -1.0893   1.9399 H              1 S1                 0.0000
     48 ****         4.8052  -0.5938   3.8365 H              1 S1                 0.0000
     49 ****         5.2961  -1.7277  -0.4483 H              1 S1                 0.0000
     50 ****         5.7651  -0.2021  -1.1979 H              1 S1                 0.0000
     51 ****        -0.4176  -2.2851  -3.1170 H              1 S1                 0.0000
     52 ****        -4.7828   1.5582  -2.2878 LP             1 S1                 0.0000
     53 ****        -5.1062   2.3907  -0.9207 LP             1 S1                 0.0000
     54 ****        -4.1836   2.1646   1.5669 LP             1 S1                 0.0000
     55 ****        -2.7495   1.4151   1.7861 LP             1 S1                 0.0000
     56 ****         0.9726  -0.1609   2.2246 LP             1 S1                 0.0000
     57 ****         2.7076  -1.7911   0.1610 LP             1 S1                 0.0000
     58 ****         3.6462   0.1997   3.0898 LP             1 S1                 0.0000
     59 ****         5.1781   0.7652   3.0986 LP             1 S1                 0.0000
     60 ****         1.7498  -1.8546  -2.4779 LP             1 S1                 0.0000
     61 ****        -2.2686  -1.8814  -1.6921 LP             1 S1                 0.0000
@<TRIPOS>BOND
    1    1    2 1     
    2    1   27 1     
    3    1   28 1     
    4    1   29 1     
    5    2    6 1     
    6    2    3 1     
    7    2   30 1     
    8    3    4 1     
    9    4    5 1     
   10    4   31 1     
   11    4   32 1     
   12    5    6 1     
   13    5   33 1     
   14    5   34 1     
   15    6    7 1     
   16    6    8 1     
   17    7   35 1     
   18    8    9 1     
   19    8   36 1     
   20    8   37 1     
   21    9   26 1     
   22    9   10 1     
   23   10   11 2     
   24   10   38 1     
   25   11   12 1     
   26   12   26 ar    
   27   12   13 ar    
   28   13   14 1     
   29   13   23 ar    
   30   14   18 1     
   31   14   15 1     
   32   15   22 1     
   33   15   16 1     
   34   15   39 1     
   35   16   17 1     
   36   16   40 1     
   37   16   41 1     
   38   17   18 1     
   39   17   42 1     
   40   17   43 1     
   41   18   19 1     
   42   18   44 1     
   43   19   20 1     
   44   19   22 1     
   45   19   45 1     
   46   20   21 1     
   47   20   46 1     
   48   20   47 1     
   49   21   48 1     
   50   22   49 1     
   51   22   50 1     
   52   23   24 ar    
   53   24   25 ar    
   54   24   51 1     
   55   25   26 ar    
   56    3   52 1     
   57    3   53 1     
   58    7   54 1     
   59    7   55 1     
   60   11   56 1     
   61   14   57 1     
   62   21   58 1     
   63   21   59 1     
   64   23   60 1     
   65   25   61 1     
@<TRIPOS>SUBSTRUCTURE
      1 S1             1
@<TRIPOS>SET
LONE_PAIRS      STATIC     ATOMS    <user>   **** ""
10 52 53 54 55 56 57 58 59 60 61
DONOR_HYDROGENS      STATIC     ATOMS    <user>   **** ""
2 35 48
ATOM$BLUE        STATIC     ATOMS    COLORGROUP SYSTEM
10 52 53 54 55 56 57 58 59 60 61
ATOM$RED        STATIC     ATOMS    COLORGROUP SYSTEM
2 35 48
