#       Name:                AV-unprocessed.smi:2496
#       Creating user name   scv26
#       Creation time:       Fri Mar 27 13:45:49 2020


#       File generated by GOLD software.
#

@<TRIPOS>MOLECULE
AV-unprocessed.smi:2496
    43    43     1
SMALL
NO_CHARGES


@<TRIPOS>ATOM
      1 ****        -3.3685   1.1917   0.6237 C.3            1 S1                 0.0000
      2 ****        -2.5159   0.1408   1.2756 C.2            1 S1                 0.0000
      3 ****        -2.4166   0.1164   2.5954 N.2            1 S1                 0.0000
      4 ****        -1.5935  -0.9174   2.8371 N.pl3          1 S1                 0.0000
      5 ****        -1.1658  -1.5488   1.6929 C.2            1 S1                 0.0000
      6 ****        -0.2365  -2.7164   1.7466 C.3            1 S1                 0.0000
      7 ****        -1.7502  -0.8868   0.6429 C.2            1 S1                 0.0000
      8 ****        -1.6288  -1.1382  -0.8475 C.3            1 S1                 0.0000
      9 ****        -2.1219  -2.5464  -1.2301 C.3            1 S1                 0.0000
     10 ****        -0.1876  -0.8572  -1.3059 C.2            1 S1                 0.0000
     11 ****         0.4722  -1.7214  -1.8845 O.2            1 S1                 0.0000
     12 ****         0.2886   0.3682  -1.0310 N.am           1 S1                 0.0000
     13 ****         1.6474   0.8405  -1.2871 C.3            1 S1                 0.0000
     14 ****         1.6631   1.5809  -2.6364 C.3            1 S1                 0.0000
     15 ****         2.1380   1.7095  -0.0987 C.3            1 S1                 0.0000
     16 ****         3.5909   2.1839  -0.2812 C.3            1 S1                 0.0000
     17 ****         2.0010   0.9820   1.2540 C.3            1 S1                 0.0000
     18 ****        -1.3328  -1.1774   3.7778 H              1 S1                 0.0000
     19 ****        -2.7754   1.8079  -0.0522 H              1 S1                 0.0000
     20 ****        -3.8296   1.8542   1.3571 H              1 S1                 0.0000
     21 ****        -4.1693   0.7356   0.0417 H              1 S1                 0.0000
     22 ****         0.5106  -2.6594   0.9552 H              1 S1                 0.0000
     23 ****        -0.7849  -3.6506   1.6282 H              1 S1                 0.0000
     24 ****         0.2925  -2.7554   2.6992 H              1 S1                 0.0000
     25 ****        -2.2551  -0.4319  -1.3935 H              1 S1                 0.0000
     26 ****        -1.5308  -3.3296  -0.7553 H              1 S1                 0.0000
     27 ****        -2.0740  -2.7034  -2.3082 H              1 S1                 0.0000
     28 ****        -3.1599  -2.6877  -0.9280 H              1 S1                 0.0000
     29 ****        -0.3289   1.0114  -0.5567 H              1 S1                 0.0000
     30 ****         2.3151  -0.0195  -1.3658 H              1 S1                 0.0000
     31 ****         2.6742   1.8534  -2.9371 H              1 S1                 0.0000
     32 ****         1.0671   2.4931  -2.5953 H              1 S1                 0.0000
     33 ****         1.2563   0.9548  -3.4312 H              1 S1                 0.0000
     34 ****         1.5096   2.6001  -0.0494 H              1 S1                 0.0000
     35 ****         4.2719   1.3394  -0.3915 H              1 S1                 0.0000
     36 ****         3.9234   2.7668   0.5783 H              1 S1                 0.0000
     37 ****         3.7035   2.8231  -1.1563 H              1 S1                 0.0000
     38 ****         2.5571   0.0440   1.2555 H              1 S1                 0.0000
     39 ****         0.9618   0.7534   1.4920 H              1 S1                 0.0000
     40 ****         2.3834   1.5950   2.0705 H              1 S1                 0.0000
     41 ****        -2.8526   0.7255   3.2579 LP             1 S1                 0.0000
     42 ****         0.0721  -2.6205  -2.0622 LP             1 S1                 0.0000
     43 ****         1.4080  -1.5239  -2.1766 LP             1 S1                 0.0000
@<TRIPOS>BOND
    1    1    2 1     
    2    1   19 1     
    3    1   20 1     
    4    1   21 1     
    5    2    7 1     
    6    2    3 2     
    7    3    4 1     
    8    4   18 1     
    9    4    5 1     
   10    5    6 1     
   11    5    7 2     
   12    6   22 1     
   13    6   23 1     
   14    6   24 1     
   15    7    8 1     
   16    8    9 1     
   17    8   10 1     
   18    8   25 1     
   19    9   26 1     
   20    9   27 1     
   21    9   28 1     
   22   10   11 2     
   23   10   12 am    
   24   12   13 1     
   25   12   29 1     
   26   13   14 1     
   27   13   15 1     
   28   13   30 1     
   29   14   31 1     
   30   14   32 1     
   31   14   33 1     
   32   15   16 1     
   33   15   17 1     
   34   15   34 1     
   35   16   35 1     
   36   16   36 1     
   37   16   37 1     
   38   17   38 1     
   39   17   39 1     
   40   17   40 1     
   41    3   41 1     
   42   11   42 1     
   43   11   43 1     
@<TRIPOS>SUBSTRUCTURE
      1 S1             1
@<TRIPOS>SET
LONE_PAIRS      STATIC     ATOMS    <user>   **** ""
3 41 42 43
DONOR_HYDROGENS      STATIC     ATOMS    <user>   **** ""
2 18 29
ATOM$BLUE        STATIC     ATOMS    COLORGROUP SYSTEM
3 41 42 43
ATOM$RED        STATIC     ATOMS    COLORGROUP SYSTEM
2 18 29
