AV-unprocessed.smi:1668|AV-procd|sdf|6682|dock8
  -GOLD-   22720 7403D 1   1.00000     0.00000
 Structure written by MMmdl.
 44 46  0  0  0  0  0  0  0  0  1 V2000
  145.8814  143.0293  153.4899 C   0  0  0  0  0  0  0  0  0  0  0  0
  146.4696  142.7307  154.7474 O   0  0  0  0  0  0  0  0  0  0  0  0
  147.5268  141.8466  154.7755 C   0  0  0  0  0  0  0  0  0  0  0  0
  147.9103  141.0291  153.6867 C   0  0  0  0  0  0  0  0  0  0  0  0
  149.0026  140.1501  153.8049 C   0  0  0  0  0  0  0  0  0  0  0  0
  149.7431  140.0681  155.0105 C   0  0  0  0  0  0  0  0  0  0  0  0
  150.8163  139.2177  155.1831 O   0  0  0  0  0  0  0  0  0  0  0  0
  150.9931  138.1518  154.2621 C   0  0  0  0  0  0  0  0  0  0  0  0
  149.3674  140.8917  156.1000 C   0  0  0  0  0  0  0  0  0  0  0  0
  150.1330  140.8227  157.4198 C   0  0  1  0  0  0  0  0  0  0  0  0
  150.0838  139.5295  157.9923 O   0  0  0  0  0  0  0  0  0  0  0  0
  151.6098  141.2158  157.2156 C   0  0  0  0  0  0  0  0  0  0  0  0
  152.2874  141.4649  158.4866 N   0  0  0  0  0  0  0  0  0  0  0  0
  153.1793  140.6498  159.0981 C   0  0  0  0  0  0  0  0  0  0  0  0
  153.5807  139.5673  158.6715 O   0  0  0  0  0  0  0  0  0  0  0  0
  153.5481  141.2320  160.2635 N   0  0  0  0  0  0  0  0  0  0  0  0
  154.4874  140.7077  161.2476 C   0  0  0  0  0  0  0  0  0  0  0  0
  152.8658  142.4466  160.4070 C   0  0  0  0  0  0  0  0  0  0  0  0
  152.8946  143.4056  161.4339 C   0  0  0  0  0  0  0  0  0  0  0  0
  152.0710  144.5451  161.2765 C   0  0  0  0  0  0  0  0  0  0  0  0
  151.2553  144.6994  160.1252 C   0  0  0  0  0  0  0  0  0  0  0  0
  151.2465  143.7178  159.1067 C   0  0  0  0  0  0  0  0  0  0  0  0
  152.0734  142.5954  159.2885 C   0  0  0  0  0  0  0  0  0  0  0  0
  148.2613  141.7625  155.9734 C   0  0  0  0  0  0  0  0  0  0  0  0
  145.0725  143.7457  153.6323 H   0  0  0  0  0  0  0  0  0  0  0  0
  145.4550  142.1385  153.0266 H   0  0  0  0  0  0  0  0  0  0  0  0
  146.6043  143.4805  152.8089 H   0  0  0  0  0  0  0  0  0  0  0  0
  147.3790  141.0537  152.7475 H   0  0  0  0  0  0  0  0  0  0  0  0
  149.2511  139.5434  152.9478 H   0  0  0  0  0  0  0  0  0  0  0  0
  151.8782  137.5807  154.5425 H   0  0  0  0  0  0  0  0  0  0  0  0
  151.1475  138.5221  153.2478 H   0  0  0  0  0  0  0  0  0  0  0  0
  150.1428  137.4689  154.2739 H   0  0  0  0  0  0  0  0  0  0  0  0
  149.6652  141.4960  158.1386 H   0  0  0  0  0  0  0  0  0  0  0  0
  150.7412  138.9930  157.5764 H   0  0  0  0  0  0  0  0  0  0  0  0
  152.1375  140.4673  156.6221 H   0  0  0  0  0  0  0  0  0  0  0  0
  151.6646  142.1399  156.6384 H   0  0  0  0  0  0  0  0  0  0  0  0
  155.2192  141.4695  161.5170 H   0  0  0  0  0  0  0  0  0  0  0  0
  155.0316  139.8403  160.8718 H   0  0  0  0  0  0  0  0  0  0  0  0
  153.9563  140.4086  162.1514 H   0  0  0  0  0  0  0  0  0  0  0  0
  153.5177  143.2806  162.3073 H   0  0  0  0  0  0  0  0  0  0  0  0
  152.0630  145.3071  162.0418 H   0  0  0  0  0  0  0  0  0  0  0  0
  150.6343  145.5771  160.0243 H   0  0  0  0  0  0  0  0  0  0  0  0
  150.6297  143.8313  158.2282 H   0  0  0  0  0  0  0  0  0  0  0  0
  147.9633  142.3794  156.8085 H   0  0  0  0  0  0  0  0  0  0  0  0
  1  2  1  0  0  0  0
  1 25  1  0  0  0  0
  1 26  1  0  0  0  0
  1 27  1  0  0  0  0
  2  3  1  0  0  0  0
  3 24  1  0  0  0  0
  3  4  2  0  0  0  0
  4  5  1  0  0  0  0
  4 28  1  0  0  0  0
  5  6  2  0  0  0  0
  5 29  1  0  0  0  0
  6  7  1  0  0  0  0
  6  9  1  0  0  0  0
  7  8  1  0  0  0  0
  8 30  1  0  0  0  0
  8 31  1  0  0  0  0
  8 32  1  0  0  0  0
  9 10  1  0  0  0  0
  9 24  2  0  0  0  0
 10 11  1  0  0  0  0
 10 12  1  0  0  0  0
 10 33  1  0  0  0  0
 11 34  1  0  0  0  0
 12 13  1  0  0  0  0
 12 35  1  0  0  0  0
 12 36  1  0  0  0  0
 13 23  1  0  0  0  0
 13 14  1  0  0  0  0
 14 15  2  0  0  0  0
 14 16  1  0  0  0  0
 16 17  1  0  0  0  0
 16 18  1  0  0  0  0
 17 37  1  0  0  0  0
 17 38  1  0  0  0  0
 17 39  1  0  0  0  0
 18 23  2  0  0  0  0
 18 19  1  0  0  0  0
 19 20  2  0  0  0  0
 19 40  1  0  0  0  0
 20 21  1  0  0  0  0
 20 41  1  0  0  0  0
 21 22  2  0  0  0  0
 21 42  1  0  0  0  0
 22 23  1  0  0  0  0
 22 43  1  0  0  0  0
 24 44  1  0  0  0  0
M  END
> <s_m_source_file>
AV-unprocessed.smi

> <i_m_source_file_index>
1668

> <i_lp_mmshare_version>
43012

> <i_f3d_flags>
0

> <s_epik_input>
W0NIM11PYzFbY0hdW2NIXWMoT1tDSDNdKWMoW2NIXTEpW0NASF0oW09IXSlbQ0gyXW4oYyg9TyluMltDSDNdKWMoYzIzKVtjSF1bY0hdW2NIXVtjSF0z

> <s_epik_cmdline>
J2VwaWtfcHl0aG9uJywgJy1waCcsICc3LjAnLCAnLXRuJywgJzgnLCAnLW1hJywgJzIwMCcsICctbWV0YWxfYmluZGluZycsICctaW1hZScsICc8aW5maWxlLm1hZT4nLCAnLW9tYWUnLCAnPG91dGZpbGUubWFlPic=

> <r_lp_tautomer_probability>
1

> <r_epik_Ionization_Penalty>
1.34538e-06

> <r_epik_Ionization_Penalty_Charging>
1.76928e-09

> <r_epik_Ionization_Penalty_Neutral>
1.34362e-06

> <r_epik_State_Penalty>
-0

> <r_epik_Charging_Adjusted_Penalty>
1.76928e-09

> <i_epik_Tot_Q>
0

> <i_epik_Tot_abs_Q>
0

> <r_epik_Metal_State_Penalty>
-0

> <b_epik_Metal_Only>
0

> <s_lp_Force_Field>
OPLS_2005

> <r_lp_Energy>
50.494

> <b_lp_Chiralities_Consistent>
1

> <s_lp_Variant>
AV-unprocessed.smi:1668-2

> <Gold.Version>
5.8.1

> <Gold.Id.Protein>
6NUR|6NUR_protein|mol2

> <Gold.PLP.Fitness>
52.8752

> <Gold.PLP.PLP>
-51.0136

> <Gold.PLP.part.hbond>
-1.0000

> <Gold.PLP.part.metal>
0.0000

> <Gold.PLP.part.buried>
-3.1412

> <Gold.PLP.part.nonpolar>
-45.5577

> <Gold.PLP.part.repulsive>
0.3981

> <Gold.PLP.ligand.clash>
0.0000

> <Gold.PLP.ligand.torsion>
0.5811

> <Gold.PLP.Chemscore.Hbond>
1.0000

> <Gold.PLP.Chemscore.CHOScore>
0.0000

> <Gold.PLP.Chemscore.Metal>
0.0000

> <Gold.Chemscore.Hbonds>
donor molecule, donor type, donor heavy atom, donor atom, acceptor molecule, acceptor atom, score
      P1  H  7997  8010       L1    15  1.00

> <Gold.PLP.Chemscore.Internal.Correction>
0.0238

> <Gold.Rescore>
     Score         DG    S(hbond)    S(metal)    S(lipo)     H(rot)  DE(clash)    DE(int)     intcor
     16.00     -18.73       0.95        0.00     135.33       2.24       1.50       1.24       ----

> <Gold.Chemscore.Fitness>
15.9995

> <Gold.Chemscore.DG>
-18.7341

> <Gold.Chemscore.ZeroCoef>
-5.4800

> <Gold.Chemscore.Hbond>
0.9484

> <Gold.Chemscore.Metal>
0.0000

> <Gold.Chemscore.Lipo>
135.3276

> <Gold.Chemscore.Internal_Hbond>
0.0000

> <Gold.Chemscore.DEClash>
1.4960

> <Gold.Chemscore.DEInternal>
1.2386

> <Gold.Chemscore.Rot>
2.2448

> <Gold.Chemscore.Internal.Correction>
   9.000000E+99

> <Gold.Chemscore.Hbonds>
donor molecule, donor type, donor heavy atom, donor atom, acceptor molecule, acceptor atom, score
      P1  H  7997  8010       L1    15  0.44

> <Gold.Chemscore.Hbond.Weighted>
-3.1675

> <Gold.Chemscore.Metal.Weighted>
-0.0000

> <Gold.Chemscore.Lipo.Weighted>
-15.8333

> <Gold.Chemscore.Internal_Hbond.Weighted>
0.0000

> <Gold.Chemscore.DEClash.Weighted>
1.4960

> <Gold.Chemscore.DEInternal.Weighted>
1.2386

> <Gold.Chemscore.Rot.Weighted>
5.7467

> <Gold.Chemscore.Internal.Correction.Weighted>
   9.000000E+99

> <Gold.Protein.RotatedTorsions>
[ 6907 6896 6895 6894 ] final -152.64 input  -60.11 | X-H torsion
[ 7974 7965 7964 7962 ] final    9.14 input  175.53 | X-H torsion
[ 8008 7997 7996 7995 ] final   27.24 input   59.86 | X-H torsion
[ 10167 10162 10161 10158 ] final -159.65 input  -65.29 | X-H torsion
[ 10718 10713 10712 10709 ] final  137.75 input   66.30 | X-H torsion
[ 10763 10752 10751 10750 ] final -149.88 input  -60.55 | X-H torsion
[ 11005 11000 10999 10996 ] final  136.95 input  -57.11 | X-H torsion

> <Gold.Protein.ActiveResidues>
 VAL166  LYS551  ARG553  GLY616  TRP617  ASP618  TYR619  PRO620  LYS621  CYS622 
 ASP623  PHE694  ASN695  SER759  ASP760  ASP761  ALA762  ILE779  LEU786  VAL792 
 PHE793  MET794  SER795  GLU796  ALA797  LYS798  CYS799  TRP800  GLU811  SER814 

> <Gold.Protein.RotatedAtoms>
  151.2307  133.4452  159.2603 H   0  0  0  0  0  0  0  0  0  0  0  0  # atno 6907 bound_to 6896
  151.0797  134.9850  159.8360 H   0  0  0  0  0  0  0  0  0  0  0  0  # atno 6908 bound_to 6896
  152.5422  134.2248  159.8854 H   0  0  0  0  0  0  0  0  0  0  0  0  # atno 6909 bound_to 6896
  146.2407  139.9828  142.8434 H   0  0  0  0  0  0  0  0  0  0  0  0  # atno 7974 bound_to 7965
  155.0398  140.3168  155.4728 H   0  0  0  0  0  0  0  0  0  0  0  0  # atno 8008 bound_to 7997
  156.2857  140.2165  156.5465 H   0  0  0  0  0  0  0  0  0  0  0  0  # atno 8009 bound_to 7997
  154.7299  140.0482  157.0705 H   0  0  0  0  0  0  0  0  0  0  0  0  # atno 8010 bound_to 7997
  139.6599  143.9931  152.2218 H   0  0  0  0  0  0  0  0  0  0  0  0  # atno 10167 bound_to 10162
  157.4327  131.1050  151.0232 H   0  0  0  0  0  0  0  0  0  0  0  0  # atno 10718 bound_to 10713
  154.8151  135.3298  154.7197 H   0  0  0  0  0  0  0  0  0  0  0  0  # atno 10763 bound_to 10752
  153.7839  135.6916  153.4888 H   0  0  0  0  0  0  0  0  0  0  0  0  # atno 10764 bound_to 10752
  153.1961  135.4533  155.0157 H   0  0  0  0  0  0  0  0  0  0  0  0  # atno 10765 bound_to 10752
  140.0081  134.9451  157.0218 H   0  0  0  0  0  0  0  0  0  0  0  0  # atno 11005 bound_to 11000
  145.1576  140.9656  143.4396 LP  0  0  0  0  0  0  0  0  0  0  0  0  # atno 17320 bound_to 7965
  145.0146  139.3478  143.6102 LP  0  0  0  0  0  0  0  0  0  0  0  0  # atno 17321 bound_to 7965
  139.9667  144.6521  150.8027 LP  0  0  0  0  0  0  0  0  0  0  0  0  # atno 17342 bound_to 10162
  140.7575  143.3088  151.2895 LP  0  0  0  0  0  0  0  0  0  0  0  0  # atno 17343 bound_to 10162
  157.1123  130.6027  149.5485 LP  0  0  0  0  0  0  0  0  0  0  0  0  # atno 17370 bound_to 10713
  155.9919  130.4975  150.7318 LP  0  0  0  0  0  0  0  0  0  0  0  0  # atno 17371 bound_to 10713
  140.4605  134.1489  155.7191 LP  0  0  0  0  0  0  0  0  0  0  0  0  # atno 17394 bound_to 11000
  141.1691  133.8644  157.1625 LP  0  0  0  0  0  0  0  0  0  0  0  0  # atno 17395 bound_to 11000

$$$$
