#       Name:                AV-unprocessed.smi:2889
#       Creating user name   scv26
#       Creation time:       Fri Mar 27 15:58:08 2020


#       File generated by GOLD software.
#

@<TRIPOS>MOLECULE
AV-unprocessed.smi:2889
    39    40     1
SMALL
NO_CHARGES


@<TRIPOS>ATOM
      1 ****        -1.8854   1.0939  -2.5966 C.3            1 S1                 0.0000
      2 ****        -0.7712  -0.2340  -2.0567 S.3            1 S1                 0.0000
      3 ****        -1.4981  -0.7145  -0.4509 C.3            1 S1                 0.0000
      4 ****        -1.1033  -2.1741  -0.0957 C.3            1 S1                 0.0000
      5 ****        -1.7468  -2.6682   1.2168 C.3            1 S1                 0.0000
      6 ****        -1.4172  -1.6869   2.3598 C.3            1 S1                 0.0000
      7 ****        -1.7998  -0.2224   2.0217 C.3            1 S1                 0.0000
      8 ****        -1.1964   0.3010   0.6939 C.3            1 S1                 0.0000
      9 ****         0.2393   0.5029   0.8475 N.pl3          1 S1                -1.0000
     10 ****         0.8459   2.0066   0.8418 S.o2           1 S1                 0.0000
     11 ****         0.5645   2.7335  -0.4078 O.2            1 S1                 0.0000
     12 ****         0.5741   2.7120   2.1047 O.2            1 S1                 0.0000
     13 ****         2.6573   1.6462   0.8405 C.3            1 S1                 0.0000
     14 ****         3.1129   1.2422  -0.5357 C.2            1 S1                 0.0000
     15 ****         2.9194  -0.0000  -1.2021 C.2            1 S1                 0.0000
     16 ****         3.5243   0.1873  -2.4107 C.2            1 S1                 0.0000
     17 ****         4.0620   1.4309  -2.4851 O.3            1 S1                 0.0000
     18 ****         3.7983   2.0954  -1.2820 N.2            1 S1                 0.0000
     19 ****        -1.6105   1.4247  -3.5978 H              1 S1                 0.0000
     20 ****        -1.8229   1.9519  -1.9276 H              1 S1                 0.0000
     21 ****        -2.9168   0.7425  -2.6201 H              1 S1                 0.0000
     22 ****        -2.5780  -0.7181  -0.6040 H              1 S1                 0.0000
     23 ****        -1.4026  -2.8377  -0.9075 H              1 S1                 0.0000
     24 ****        -0.0173  -2.2668  -0.0253 H              1 S1                 0.0000
     25 ****        -2.8281  -2.7376   1.0923 H              1 S1                 0.0000
     26 ****        -1.3924  -3.6699   1.4611 H              1 S1                 0.0000
     27 ****        -1.9406  -1.9972   3.2646 H              1 S1                 0.0000
     28 ****        -0.3534  -1.7519   2.5972 H              1 S1                 0.0000
     29 ****        -2.8865  -0.1601   1.9540 H              1 S1                 0.0000
     30 ****        -1.5183   0.4341   2.8462 H              1 S1                 0.0000
     31 ****        -1.6999   1.2374   0.4510 H              1 S1                 0.0000
     32 ****         3.1719   2.5495   1.1683 H              1 S1                 0.0000
     33 ****         2.8603   0.8689   1.5766 H              1 S1                 0.0000
     34 ****         2.4031  -0.8816  -0.8519 H              1 S1                 0.0000
     35 ****         3.6526  -0.4388  -3.2812 H              1 S1                 0.0000
     36 ****         0.8478  -0.2832   0.9560 LP             1 S1                 0.0000
     37 ****         3.6503   1.9325  -3.2459 LP             1 S1                 0.0000
     38 ****         5.0499   1.3645  -2.6254 LP             1 S1                 0.0000
     39 ****         4.0717   3.0252  -1.0358 LP             1 S1                 0.0000
@<TRIPOS>BOND
    1    1    2 1     
    2    1   19 1     
    3    1   20 1     
    4    1   21 1     
    5    2    3 1     
    6    3    8 1     
    7    3    4 1     
    8    3   22 1     
    9    4    5 1     
   10    4   23 1     
   11    4   24 1     
   12    5    6 1     
   13    5   25 1     
   14    5   26 1     
   15    6    7 1     
   16    6   27 1     
   17    6   28 1     
   18    7    8 1     
   19    7   29 1     
   20    7   30 1     
   21    8    9 1     
   22    8   31 1     
   23    9   10 1     
   24   10   11 2     
   25   10   12 2     
   26   10   13 1     
   27   13   14 1     
   28   13   32 1     
   29   13   33 1     
   30   14   18 2     
   31   14   15 1     
   32   15   16 2     
   33   15   34 1     
   34   16   17 1     
   35   16   35 1     
   36   17   18 1     
   37    9   36 1     
   38   17   37 1     
   39   17   38 1     
   40   18   39 1     
@<TRIPOS>SUBSTRUCTURE
      1 S1             1
@<TRIPOS>SET
LONE_PAIRS      STATIC     ATOMS    <user>   **** ""
6 36 11 12 37 38 39
ATOM$BLUE        STATIC     ATOMS    COLORGROUP SYSTEM
6 36 11 12 37 38 39
