AV-unprocessed.smi:302|AV-procd|sdf|2273|dock1
  -GOLD-   2262022163D 1   1.00000     0.00000
 Structure written by MMmdl.
 44 45  0  0  0  0  0  0  0  0  1 V2000
  154.1900  136.1402  157.9453 C   0  0  0  0  0  0  0  0  0  0  0  0
  153.0011  136.9405  157.4089 C   0  0  0  0  0  0  0  0  0  0  0  0
  152.2800  136.1265  156.4913 O   0  0  0  0  0  0  0  0  0  0  0  0
  151.2216  136.7796  155.7938 C   0  0  1  0  0  0  0  0  0  0  0  0
  151.8708  137.6535  154.7011 C   0  0  0  0  0  0  0  0  0  0  0  0
  150.8753  138.5223  153.9167 C   0  0  0  0  0  0  0  0  0  0  0  0
  150.2550  135.7352  155.2075 C   0  0  0  0  0  0  0  0  0  0  0  0
  149.1924  136.1034  154.7074 O   0  0  0  0  0  0  0  0  0  0  0  0
  150.6556  134.4533  155.2960 N   0  0  0  0  0  0  0  0  0  0  0  0
  149.9776  133.2815  154.8645 C   0  0  0  0  0  0  0  0  0  0  0  0
  150.1973  131.9907  155.4013 C   0  0  0  0  0  0  0  0  0  0  0  0
  149.4523  130.9079  154.8965 C   0  0  0  0  0  0  0  0  0  0  0  0
  148.5056  131.1480  153.8797 C   0  0  0  0  0  0  0  0  0  0  0  0
  147.7678  130.0705  153.3699 N   0  0  0  0  0  0  0  0  0  0  0  0
  148.5932  128.9309  152.9898 C   0  0  0  0  0  0  0  0  0  0  0  0
  147.6996  127.7519  152.5674 C   0  0  0  0  0  0  0  0  0  0  0  0
  146.8270  128.1644  151.5191 O   0  0  0  0  0  0  0  0  0  0  0  0
  145.9734  129.2320  151.9222 C   0  0  0  0  0  0  0  0  0  0  0  0
  146.8247  130.4485  152.3247 C   0  0  0  0  0  0  0  0  0  0  0  0
  148.2779  132.3828  153.3730 N   0  0  0  0  0  0  0  0  0  0  0  0
  148.9954  133.4164  153.8616 C   0  0  0  0  0  0  0  0  0  0  0  0
  154.7766  136.7356  158.6453 H   0  0  0  0  0  0  0  0  0  0  0  0
  154.8502  135.8285  157.1358 H   0  0  0  0  0  0  0  0  0  0  0  0
  153.8541  135.2443  158.4681 H   0  0  0  0  0  0  0  0  0  0  0  0
  152.3689  137.2529  158.2407 H   0  0  0  0  0  0  0  0  0  0  0  0
  153.3585  137.8417  156.9089 H   0  0  0  0  0  0  0  0  0  0  0  0
  150.6896  137.4347  156.4868 H   0  0  0  0  0  0  0  0  0  0  0  0
  152.6049  138.3097  155.1696 H   0  0  0  0  0  0  0  0  0  0  0  0
  152.4331  137.0287  154.0055 H   0  0  0  0  0  0  0  0  0  0  0  0
  151.3984  139.1554  153.1999 H   0  0  0  0  0  0  0  0  0  0  0  0
  150.3113  139.1735  154.5847 H   0  0  0  0  0  0  0  0  0  0  0  0
  150.1627  137.9157  153.3575 H   0  0  0  0  0  0  0  0  0  0  0  0
  151.5164  134.2950  155.7998 H   0  0  0  0  0  0  0  0  0  0  0  0
  150.9079  131.8109  156.1927 H   0  0  0  0  0  0  0  0  0  0  0  0
  149.6051  129.9123  155.2868 H   0  0  0  0  0  0  0  0  0  0  0  0
  149.2515  129.2094  152.1653 H   0  0  0  0  0  0  0  0  0  0  0  0
  149.2286  128.6385  153.8268 H   0  0  0  0  0  0  0  0  0  0  0  0
  148.3127  126.9229  152.2141 H   0  0  0  0  0  0  0  0  0  0  0  0
  147.1190  127.3813  153.4137 H   0  0  0  0  0  0  0  0  0  0  0  0
  145.3132  129.4918  151.0947 H   0  0  0  0  0  0  0  0  0  0  0  0
  145.3373  128.9111  152.7491 H   0  0  0  0  0  0  0  0  0  0  0  0
  146.1822  131.2550  152.6803 H   0  0  0  0  0  0  0  0  0  0  0  0
  147.3658  130.8243  151.4552 H   0  0  0  0  0  0  0  0  0  0  0  0
  148.7810  134.3834  153.4305 H   0  0  0  0  0  0  0  0  0  0  0  0
  1  2  1  0  0  0  0
  1 22  1  0  0  0  0
  1 23  1  0  0  0  0
  1 24  1  0  0  0  0
  2  3  1  0  0  0  0
  2 25  1  0  0  0  0
  2 26  1  0  0  0  0
  3  4  1  0  0  0  0
  4  5  1  0  0  0  0
  4  7  1  0  0  0  0
  4 27  1  0  0  0  0
  5  6  1  0  0  0  0
  5 28  1  0  0  0  0
  5 29  1  0  0  0  0
  6 30  1  0  0  0  0
  6 31  1  0  0  0  0
  6 32  1  0  0  0  0
  7  8  2  0  0  0  0
  7  9  1  0  0  0  0
  9 10  1  0  0  0  0
  9 33  1  0  0  0  0
 10 21  1  0  0  0  0
 10 11  2  0  0  0  0
 11 12  1  0  0  0  0
 11 34  1  0  0  0  0
 12 13  2  0  0  0  0
 12 35  1  0  0  0  0
 13 14  1  0  0  0  0
 13 20  1  0  0  0  0
 14 19  1  0  0  0  0
 14 15  1  0  0  0  0
 15 16  1  0  0  0  0
 15 36  1  0  0  0  0
 15 37  1  0  0  0  0
 16 17  1  0  0  0  0
 16 38  1  0  0  0  0
 16 39  1  0  0  0  0
 17 18  1  0  0  0  0
 18 19  1  0  0  0  0
 18 40  1  0  0  0  0
 18 41  1  0  0  0  0
 19 42  1  0  0  0  0
 19 43  1  0  0  0  0
 20 21  2  0  0  0  0
 21 44  1  0  0  0  0
M  END
> <s_m_source_file>
AV-unprocessed.smi

> <i_m_source_file_index>
302

> <i_lp_mmshare_version>
43012

> <i_f3d_flags>
0

> <s_epik_input>
W0NIM11bQ0gyXU9bQ0BIXShbQ0gyXVtDSDNdKUMoPU8pW05IXWMxW2NIXVtjSF1jKG5bY0hdMSlOMltDSDJdW0NIMl1PW0NIMl1bQ0gyXTI=

> <s_epik_cmdline>
J2VwaWtfcHl0aG9uJywgJy1waCcsICc3LjAnLCAnLXRuJywgJzgnLCAnLW1hJywgJzIwMCcsICctbWV0YWxfYmluZGluZycsICctaW1hZScsICc8aW5maWxlLm1hZT4nLCAnLW9tYWUnLCAnPG91dGZpbGUubWFlPic=

> <r_lp_tautomer_probability>
1

> <r_epik_Ionization_Penalty>
0.000497413

> <r_epik_Ionization_Penalty_Charging>
0

> <r_epik_Ionization_Penalty_Neutral>
0.000497413

> <r_epik_State_Penalty>
0.000308489

> <r_epik_Charging_Adjusted_Penalty>
0.000308489

> <i_epik_Tot_Q>
0

> <i_epik_Tot_abs_Q>
0

> <r_epik_Metal_State_Penalty>
-0

> <b_epik_Metal_Only>
0

> <s_lp_Force_Field>
OPLS_2005

> <r_lp_Energy>
26.1218

> <b_lp_Chiralities_Consistent>
1

> <s_lp_Variant>
AV-unprocessed.smi:302-2

> <Gold.Version>
5.8.1

> <Gold.Id.Protein>
6NUR|6NUR_protein|mol2

> <Gold.PLP.Fitness>
37.5716

> <Gold.PLP.PLP>
-32.4068

> <Gold.PLP.part.hbond>
-1.0000

> <Gold.PLP.part.metal>
0.0000

> <Gold.PLP.part.buried>
-4.7807

> <Gold.PLP.part.nonpolar>
-26.6818

> <Gold.PLP.part.repulsive>
0.6454

> <Gold.PLP.ligand.clash>
0.0000

> <Gold.PLP.ligand.torsion>
0.5301

> <Gold.PLP.Chemscore.Hbond>
1.0000

> <Gold.PLP.Chemscore.CHOScore>
1.0000

> <Gold.PLP.Chemscore.Metal>
0.0000

> <Gold.Chemscore.Hbonds>
donor molecule, donor type, donor heavy atom, donor atom, acceptor molecule, acceptor atom, score
      P1  H 10752 10763       L1     3  1.00
      L1  C    21    44       P1  7948  0.90

> <Gold.PLP.Chemscore.Internal.Correction>
0.2250

> <Gold.Rescore>
     Score         DG    S(hbond)    S(metal)    S(lipo)     H(rot)  DE(clash)    DE(int)     intcor
     11.32     -13.65       0.85        0.00      80.98       1.63       0.10       2.22       ----

> <Gold.Chemscore.Fitness>
11.3206

> <Gold.Chemscore.DG>
-13.6451

> <Gold.Chemscore.ZeroCoef>
-5.4800

> <Gold.Chemscore.Hbond>
0.8544

> <Gold.Chemscore.Metal>
0.0000

> <Gold.Chemscore.Lipo>
80.9751

> <Gold.Chemscore.Internal_Hbond>
0.0000

> <Gold.Chemscore.DEClash>
0.1049

> <Gold.Chemscore.DEInternal>
2.2195

> <Gold.Chemscore.Rot>
1.6260

> <Gold.Chemscore.Internal.Correction>
   9.000000E+99

> <Gold.Chemscore.Hbonds>
donor molecule, donor type, donor heavy atom, donor atom, acceptor molecule, acceptor atom, score
      P1  H 10752 10763       L1     3  0.47

> <Gold.Chemscore.Hbond.Weighted>
-2.8536

> <Gold.Chemscore.Metal.Weighted>
-0.0000

> <Gold.Chemscore.Lipo.Weighted>
-9.4741

> <Gold.Chemscore.Internal_Hbond.Weighted>
0.0000

> <Gold.Chemscore.DEClash.Weighted>
0.1049

> <Gold.Chemscore.DEInternal.Weighted>
2.2195

> <Gold.Chemscore.Rot.Weighted>
4.1626

> <Gold.Chemscore.Internal.Correction.Weighted>
   9.000000E+99

> <Gold.Protein.RotatedTorsions>
[ 6907 6896 6895 6894 ] final   11.36 input  -60.11 | X-H torsion
[ 7974 7965 7964 7962 ] final  -73.99 input  175.53 | X-H torsion
[ 8008 7997 7996 7995 ] final -165.15 input   59.86 | X-H torsion
[ 10167 10162 10161 10158 ] final   15.99 input  -65.29 | X-H torsion
[ 10718 10713 10712 10709 ] final   55.60 input   66.30 | X-H torsion
[ 10763 10752 10751 10750 ] final  104.60 input  -60.55 | X-H torsion
[ 11005 11000 10999 10996 ] final  -34.11 input  -57.11 | X-H torsion

> <Gold.Protein.ActiveResidues>
 VAL166  LYS551  ARG553  GLY616  TRP617  ASP618  TYR619  PRO620  LYS621  CYS622 
 ASP623  PHE694  ASN695  SER759  ASP760  ASP761  ALA762  ILE779  LEU786  VAL792 
 PHE793  MET794  SER795  GLU796  ALA797  LYS798  CYS799  TRP800  GLU811  SER814 

> <Gold.Protein.RotatedAtoms>
  151.7531  135.0828  160.0333 H   0  0  0  0  0  0  0  0  0  0  0  0  # atno 6907 bound_to 6896
  152.3404  133.6055  159.5880 H   0  0  0  0  0  0  0  0  0  0  0  0  # atno 6908 bound_to 6896
  150.7475  133.9648  159.3568 H   0  0  0  0  0  0  0  0  0  0  0  0  # atno 6909 bound_to 6896
  145.6450  140.9300  143.1015 H   0  0  0  0  0  0  0  0  0  0  0  0  # atno 7974 bound_to 7965
  155.8457  140.0955  157.1706 H   0  0  0  0  0  0  0  0  0  0  0  0  # atno 8008 bound_to 7997
  154.3983  140.1392  156.3845 H   0  0  0  0  0  0  0  0  0  0  0  0  # atno 8009 bound_to 7997
  155.8015  140.3452  155.5408 H   0  0  0  0  0  0  0  0  0  0  0  0  # atno 8010 bound_to 7997
  140.5828  143.8947  150.6804 H   0  0  0  0  0  0  0  0  0  0  0  0  # atno 10167 bound_to 10162
  157.5359  130.8663  149.8753 H   0  0  0  0  0  0  0  0  0  0  0  0  # atno 10718 bound_to 10713
  153.3681  135.3938  155.1768 H   0  0  0  0  0  0  0  0  0  0  0  0  # atno 10763 bound_to 10752
  154.8690  135.3696  154.5013 H   0  0  0  0  0  0  0  0  0  0  0  0  # atno 10764 bound_to 10752
  153.5478  135.7083  153.5666 H   0  0  0  0  0  0  0  0  0  0  0  0  # atno 10765 bound_to 10752
  140.9689  133.7121  156.1492 H   0  0  0  0  0  0  0  0  0  0  0  0  # atno 11005 bound_to 11000
  144.7143  139.8253  143.7404 LP  0  0  0  0  0  0  0  0  0  0  0  0  # atno 17320 bound_to 7965
  146.1250  139.4275  143.0204 LP  0  0  0  0  0  0  0  0  0  0  0  0  # atno 17321 bound_to 7965
  140.2451  143.3635  152.1454 LP  0  0  0  0  0  0  0  0  0  0  0  0  # atno 17342 bound_to 10162
  139.5180  144.6999  151.5522 LP  0  0  0  0  0  0  0  0  0  0  0  0  # atno 17343 bound_to 10162
  156.0458  130.3728  150.1321 LP  0  0  0  0  0  0  0  0  0  0  0  0  # atno 17370 bound_to 10713
  156.9503  130.9773  151.3499 LP  0  0  0  0  0  0  0  0  0  0  0  0  # atno 17371 bound_to 10713
  140.7357  134.4205  157.5561 LP  0  0  0  0  0  0  0  0  0  0  0  0  # atno 17394 bound_to 11000
  139.8905  134.8803  156.2367 LP  0  0  0  0  0  0  0  0  0  0  0  0  # atno 17395 bound_to 11000

$$$$
