AV-unprocessed.smi:76|AV-procd|sdf|767|dock4
  -GOLD-   2262017113D 1   1.00000     0.00000
 Structure written by MMmdl.
 55 58  0  0  0  0  0  0  0  0  1 V2000
  150.2973  139.7299  157.9454 C   0  0  0  0  0  0  0  0  0  0  0  0
  150.6269  140.9957  157.1289 C   0  0  2  0  0  0  0  0  0  0  0  0
  151.7431  141.8415  157.7777 C   0  0  0  0  0  0  0  0  0  0  0  0
  151.2594  142.6078  159.0284 C   0  0  1  0  0  0  0  0  0  0  0  0
  152.3761  143.4685  159.6528 C   0  0  0  0  0  0  0  0  0  0  0  0
  153.4219  142.7164  159.9965 F   0  0  0  0  0  0  0  0  0  0  0  0
  152.7789  144.3935  158.7816 F   0  0  0  0  0  0  0  0  0  0  0  0
  151.9174  144.0911  160.7386 F   0  0  0  0  0  0  0  0  0  0  0  0
  150.0184  143.4449  158.6601 C   0  0  0  0  0  0  0  0  0  0  0  0
  148.9205  142.5755  158.0282 C   0  0  0  0  0  0  0  0  0  0  0  0
  149.4422  141.8264  156.8826 N   0  0  0  0  0  0  0  0  0  0  0  0
  148.5409  141.3281  155.9965 C   0  0  0  0  0  0  0  0  0  0  0  0
  148.7486  141.4912  154.6621 N   0  0  0  0  0  0  0  0  0  0  0  0
  147.8684  141.0151  153.7775 C   0  0  0  0  0  0  0  0  0  0  0  0
  146.7327  140.3543  154.0055 N   0  0  0  0  0  0  0  0  0  0  0  0
  146.5168  140.1851  155.3410 C   0  0  0  0  0  0  0  0  0  0  0  0
  147.3639  140.6324  156.3944 C   0  0  0  0  0  0  0  0  0  0  0  0
  146.8299  140.2527  157.6201 N   0  0  0  0  0  0  0  0  0  0  0  0
  145.7299  139.6239  157.3091 C   0  0  0  0  0  0  0  0  0  0  0  0
  145.4534  139.5519  155.9621 N   0  0  0  0  0  0  0  0  0  0  0  0
  144.3079  138.9042  155.3382 C   0  0  0  0  0  0  0  0  0  0  0  0
  144.6315  137.5876  154.5624 C   0  0  0  0  0  0  0  0  0  0  0  0
  145.8058  137.8017  153.5708 C   0  0  0  0  0  0  0  0  0  0  0  0
  145.4334  138.5917  152.4596 O   0  0  0  0  0  0  0  0  0  0  0  0
  144.9995  136.4605  155.5596 C   0  0  0  0  0  0  0  0  0  0  0  0
  143.7880  135.9575  156.3668 C   0  0  0  0  0  0  0  0  0  0  0  0
  142.7587  135.5240  155.4864 O   0  0  0  0  0  0  0  0  0  0  0  0
  142.2754  136.5619  154.6430 C   0  0  0  0  0  0  0  0  0  0  0  0
  143.4156  137.0780  153.7475 C   0  0  0  0  0  0  0  0  0  0  0  0
  151.1914  139.1269  158.1043 H   0  0  0  0  0  0  0  0  0  0  0  0
  149.5732  139.1026  157.4247 H   0  0  0  0  0  0  0  0  0  0  0  0
  149.8823  139.9663  158.9249 H   0  0  0  0  0  0  0  0  0  0  0  0
  151.0216  140.6547  156.1731 H   0  0  0  0  0  0  0  0  0  0  0  0
  152.5924  141.2049  158.0269 H   0  0  0  0  0  0  0  0  0  0  0  0
  152.1105  142.5574  157.0414 H   0  0  0  0  0  0  0  0  0  0  0  0
  150.9586  141.8771  159.7801 H   0  0  0  0  0  0  0  0  0  0  0  0
  149.6221  143.9441  159.5445 H   0  0  0  0  0  0  0  0  0  0  0  0
  150.2996  144.2334  157.9611 H   0  0  0  0  0  0  0  0  0  0  0  0
  148.5169  141.8828  158.7677 H   0  0  0  0  0  0  0  0  0  0  0  0
  148.0980  143.2184  157.7109 H   0  0  0  0  0  0  0  0  0  0  0  0
  148.1088  141.1885  152.7389 H   0  0  0  0  0  0  0  0  0  0  0  0
  145.0847  139.1932  158.0609 H   0  0  0  0  0  0  0  0  0  0  0  0
  143.5713  138.7048  156.1173 H   0  0  0  0  0  0  0  0  0  0  0  0
  143.8374  139.6396  154.6875 H   0  0  0  0  0  0  0  0  0  0  0  0
  146.6380  138.3024  154.0667 H   0  0  0  0  0  0  0  0  0  0  0  0
  146.1954  136.8499  153.2094 H   0  0  0  0  0  0  0  0  0  0  0  0
  144.9549  139.3441  152.7748 H   0  0  0  0  0  0  0  0  0  0  0  0
  145.4190  135.6138  155.0142 H   0  0  0  0  0  0  0  0  0  0  0  0
  145.7811  136.7934  156.2435 H   0  0  0  0  0  0  0  0  0  0  0  0
  144.0858  135.1159  156.9924 H   0  0  0  0  0  0  0  0  0  0  0  0
  143.4079  136.7239  157.0425 H   0  0  0  0  0  0  0  0  0  0  0  0
  141.4731  136.1589  154.0247 H   0  0  0  0  0  0  0  0  0  0  0  0
  141.8364  137.3621  155.2392 H   0  0  0  0  0  0  0  0  0  0  0  0
  143.0451  137.8435  153.0671 H   0  0  0  0  0  0  0  0  0  0  0  0
  143.7309  136.2526  153.1075 H   0  0  0  0  0  0  0  0  0  0  0  0
  1  2  1  0  0  0  0
  1 30  1  0  0  0  0
  1 31  1  0  0  0  0
  1 32  1  0  0  0  0
  2 11  1  0  0  0  0
  2  3  1  0  0  0  0
  2 33  1  0  0  0  0
  3  4  1  0  0  0  0
  3 34  1  0  0  0  0
  3 35  1  0  0  0  0
  4  5  1  0  0  0  0
  4  9  1  0  0  0  0
  4 36  1  0  0  0  0
  5  6  1  0  0  0  0
  5  7  1  0  0  0  0
  5  8  1  0  0  0  0
  9 10  1  0  0  0  0
  9 37  1  0  0  0  0
  9 38  1  0  0  0  0
 10 11  1  0  0  0  0
 10 39  1  0  0  0  0
 10 40  1  0  0  0  0
 11 12  1  0  0  0  0
 12 17  1  0  0  0  0
 12 13  2  0  0  0  0
 13 14  1  0  0  0  0
 14 15  2  0  0  0  0
 14 41  1  0  0  0  0
 15 16  1  0  0  0  0
 16 20  1  0  0  0  0
 16 17  2  0  0  0  0
 17 18  1  0  0  0  0
 18 19  2  0  0  0  0
 19 20  1  0  0  0  0
 19 42  1  0  0  0  0
 20 21  1  0  0  0  0
 21 22  1  0  0  0  0
 21 43  1  0  0  0  0
 21 44  1  0  0  0  0
 22 29  1  0  0  0  0
 22 23  1  0  0  0  0
 22 25  1  0  0  0  0
 23 24  1  0  0  0  0
 23 45  1  0  0  0  0
 23 46  1  0  0  0  0
 24 47  1  0  0  0  0
 25 26  1  0  0  0  0
 25 48  1  0  0  0  0
 25 49  1  0  0  0  0
 26 27  1  0  0  0  0
 26 50  1  0  0  0  0
 26 51  1  0  0  0  0
 27 28  1  0  0  0  0
 28 29  1  0  0  0  0
 28 52  1  0  0  0  0
 28 53  1  0  0  0  0
 29 54  1  0  0  0  0
 29 55  1  0  0  0  0
M  END
> <s_m_source_file>
AV-unprocessed.smi

> <i_m_source_file_index>
76

> <i_lp_mmshare_version>
43012

> <i_f3d_flags>
0

> <s_epik_input>
W0NIM11bQ0BASF0xW0NIMl1bQ0BASF0oQyhGKShGKUYpW0NIMl1bQ0gyXU4xYyhuW2NIXW4yKWMoYzIzKW5bY0hdbjNbQ0gyXUM0KFtDSDJdW09IXSlbQ0gyXVtDSDJdT1tDSDJdW0NIMl00

> <s_epik_cmdline>
J2VwaWtfcHl0aG9uJywgJy1waCcsICc3LjAnLCAnLXRuJywgJzgnLCAnLW1hJywgJzIwMCcsICctbWV0YWxfYmluZGluZycsICctaW1hZScsICc8aW5maWxlLm1hZT4nLCAnLW9tYWUnLCAnPG91dGZpbGUubWFlPic=

> <r_lp_tautomer_probability>
1

> <r_epik_Ionization_Penalty>
0.00244097

> <r_epik_Ionization_Penalty_Charging>
0

> <r_epik_Ionization_Penalty_Neutral>
0.00244097

> <r_epik_State_Penalty>
0.00151846

> <r_epik_Charging_Adjusted_Penalty>
0.00151846

> <i_epik_Tot_Q>
0

> <i_epik_Tot_abs_Q>
0

> <r_epik_Metal_State_Penalty>
-0

> <b_epik_Metal_Only>
0

> <s_lp_Force_Field>
OPLS_2005

> <r_lp_Energy>
36.8654

> <b_lp_Chiralities_Consistent>
1

> <s_lp_Variant>
AV-unprocessed.smi:76-1

> <Gold.Version>
5.8.1

> <Gold.Id.Protein>
6NUR|6NUR_protein|mol2

> <Gold.PLP.Fitness>
42.5784

> <Gold.PLP.PLP>
-37.5556

> <Gold.PLP.part.hbond>
-2.4900

> <Gold.PLP.part.metal>
0.0000

> <Gold.PLP.part.buried>
-6.2684

> <Gold.PLP.part.nonpolar>
-29.3716

> <Gold.PLP.part.repulsive>
0.4947

> <Gold.PLP.ligand.clash>
0.0000

> <Gold.PLP.ligand.torsion>
0.7395

> <Gold.PLP.Chemscore.Hbond>
1.0000

> <Gold.PLP.Chemscore.CHOScore>
0.9798

> <Gold.PLP.Chemscore.Metal>
0.0000

> <Gold.Chemscore.Hbonds>
donor molecule, donor type, donor heavy atom, donor atom, acceptor molecule, acceptor atom, score
      L1  H    24    47       P1 10175  0.91
      L1  C    14    41       P1  7957  1.00

> <Gold.PLP.Chemscore.Internal.Correction>
0.5626

> <Gold.Rescore>
     Score         DG    S(hbond)    S(metal)    S(lipo)     H(rot)  DE(clash)    DE(int)     intcor
      8.55      -9.43       0.98        0.00      59.71       2.47       0.07       0.81       ----

> <Gold.Chemscore.Fitness>
8.5495

> <Gold.Chemscore.DG>
-9.4292

> <Gold.Chemscore.ZeroCoef>
-5.4800

> <Gold.Chemscore.Hbond>
0.9813

> <Gold.Chemscore.Metal>
0.0000

> <Gold.Chemscore.Lipo>
59.7080

> <Gold.Chemscore.Internal_Hbond>
0.0000

> <Gold.Chemscore.DEClash>
0.0737

> <Gold.Chemscore.DEInternal>
0.8059

> <Gold.Chemscore.Rot>
2.4665

> <Gold.Chemscore.Internal.Correction>
   9.000000E+99

> <Gold.Chemscore.Hbonds>
donor molecule, donor type, donor heavy atom, donor atom, acceptor molecule, acceptor atom, score
      L1  H    24    47       P1 10175  0.90

> <Gold.Chemscore.Hbond.Weighted>
-3.2775

> <Gold.Chemscore.Metal.Weighted>
-0.0000

> <Gold.Chemscore.Lipo.Weighted>
-6.9858

> <Gold.Chemscore.Internal_Hbond.Weighted>
0.0000

> <Gold.Chemscore.DEClash.Weighted>
0.0737

> <Gold.Chemscore.DEInternal.Weighted>
0.8059

> <Gold.Chemscore.Rot.Weighted>
6.3142

> <Gold.Chemscore.Internal.Correction.Weighted>
   9.000000E+99

> <Gold.Protein.RotatedTorsions>
[ 6907 6896 6895 6894 ] final -128.47 input  -60.11 | X-H torsion
[ 7974 7965 7964 7962 ] final  -31.63 input  175.53 | X-H torsion
[ 8008 7997 7996 7995 ] final    1.67 input   59.86 | X-H torsion
[ 10167 10162 10161 10158 ] final  -61.09 input  -65.29 | X-H torsion
[ 10718 10713 10712 10709 ] final  -72.60 input   66.30 | X-H torsion
[ 10763 10752 10751 10750 ] final   78.26 input  -60.55 | X-H torsion
[ 11005 11000 10999 10996 ] final  -52.45 input  -57.11 | X-H torsion

> <Gold.Protein.ActiveResidues>
 VAL166  LYS551  ARG553  GLY616  TRP617  ASP618  TYR619  PRO620  LYS621  CYS622 
 ASP623  PHE694  ASN695  SER759  ASP760  ASP761  ALA762  ILE779  LEU786  VAL792 
 PHE793  MET794  SER795  GLU796  ALA797  LYS798  CYS799  TRP800  GLU811  SER814 

> <Gold.Protein.RotatedAtoms>
  150.9183  133.6912  159.2837 H   0  0  0  0  0  0  0  0  0  0  0  0  # atno 6907 bound_to 6896
  151.4375  135.1015  159.9670 H   0  0  0  0  0  0  0  0  0  0  0  0  # atno 6908 bound_to 6896
  152.4966  133.8599  159.7300 H   0  0  0  0  0  0  0  0  0  0  0  0  # atno 6909 bound_to 6896
  146.1053  140.5691  142.8802 H   0  0  0  0  0  0  0  0  0  0  0  0  # atno 7974 bound_to 7965
  154.6825  140.2636  155.6893 H   0  0  0  0  0  0  0  0  0  0  0  0  # atno 8008 bound_to 7997
  156.2702  140.2807  156.1298 H   0  0  0  0  0  0  0  0  0  0  0  0  # atno 8009 bound_to 7997
  155.1011  140.0374  157.2687 H   0  0  0  0  0  0  0  0  0  0  0  0  # atno 8010 bound_to 7997
  140.6028  143.2366  151.5889 H   0  0  0  0  0  0  0  0  0  0  0  0  # atno 10167 bound_to 10162
  156.0313  130.4376  150.2617 H   0  0  0  0  0  0  0  0  0  0  0  0  # atno 10718 bound_to 10713
  153.0860  135.4884  154.8598 H   0  0  0  0  0  0  0  0  0  0  0  0  # atno 10763 bound_to 10752
  154.7211  135.3039  154.9047 H   0  0  0  0  0  0  0  0  0  0  0  0  # atno 10764 bound_to 10752
  153.9711  135.6801  153.4800 H   0  0  0  0  0  0  0  0  0  0  0  0  # atno 10765 bound_to 10752
  141.0925  133.6630  156.4026 H   0  0  0  0  0  0  0  0  0  0  0  0  # atno 11005 bound_to 11000
  144.7466  140.5082  143.6831 LP  0  0  0  0  0  0  0  0  0  0  0  0  # atno 17320 bound_to 7965
  145.5773  139.1487  143.3255 LP  0  0  0  0  0  0  0  0  0  0  0  0  # atno 17321 bound_to 7965
  139.5303  144.2935  152.1133 LP  0  0  0  0  0  0  0  0  0  0  0  0  # atno 17342 bound_to 10162
  140.2119  144.4554  150.6382 LP  0  0  0  0  0  0  0  0  0  0  0  0  # atno 17343 bound_to 10162
  157.0719  131.0119  151.3187 LP  0  0  0  0  0  0  0  0  0  0  0  0  # atno 17370 bound_to 10713
  157.4993  130.7870  149.7587 LP  0  0  0  0  0  0  0  0  0  0  0  0  # atno 17371 bound_to 10713
  140.5219  134.6296  157.5321 LP  0  0  0  0  0  0  0  0  0  0  0  0  # atno 17394 bound_to 11000
  139.9754  134.7225  155.9961 LP  0  0  0  0  0  0  0  0  0  0  0  0  # atno 17395 bound_to 11000

$$$$
