AV-unprocessed.smi:3031|AV-procd|sdf|11549|dock9
  -GOLD-   2272016503D 1   1.00000     0.00000
 Structure written by MMmdl.
 48 49  0  0  0  0  0  0  0  0  3 V2000
  143.4441  132.2959  150.8176 C   0  0  0  0  0  0  0  0  0  0  0  0
  143.9810  133.6244  151.2668 C   0  0  0  0  0  0  0  0  0  0  0  0
  143.9480  134.1818  152.5762 C   0  0  0  0  0  0  0  0  0  0  0  0
  144.5061  135.3797  152.6383 N   0  0  0  0  0  0  0  0  0  0  0  0
  144.9209  135.6268  151.3773 N   0  0  0  0  0  0  0  0  0  0  0  0
  145.5749  136.8856  151.0576 C   0  0  0  0  0  0  0  0  0  0  0  0
  146.0005  137.6829  152.3081 C   0  0  2  0  0  0  0  0  0  0  0  0
  146.6531  139.0167  151.9105 C   0  0  0  0  0  0  0  0  0  0  0  0
  146.9171  136.8710  153.1411 N   0  3  0  0  0  0  0  0  0  0  0  0
  147.0005  137.2714  154.5623 C   0  0  0  0  0  0  0  0  0  0  0  0
  148.3706  137.8918  154.8870 C   0  0  2  0  0  0  0  0  0  0  0  0
  149.3651  136.9030  154.6959 O   0  0  0  0  0  0  0  0  0  0  0  0
  148.4465  138.3858  156.3473 C   0  0  0  0  0  0  0  0  0  0  0  0
  149.6778  139.1691  156.6288 N   0  3  0  0  0  0  0  0  0  0  0  0
  150.8063  138.3474  157.1345 C   0  0  0  0  0  0  0  0  0  0  0  0
  152.0272  139.2349  157.4332 C   0  0  0  0  0  0  0  0  0  0  0  0
  152.3944  139.9517  156.2617 O   0  0  0  0  0  0  0  0  0  0  0  0
  151.3537  140.8127  155.8176 C   0  0  0  0  0  0  0  0  0  0  0  0
  150.1106  139.9784  155.4642 C   0  0  0  0  0  0  0  0  0  0  0  0
  144.6051  134.5883  150.5266 C   0  0  0  0  0  0  0  0  0  0  0  0
  142.4006  132.3684  150.5108 H   0  0  0  0  0  0  0  0  0  0  0  0
  143.4949  131.5505  151.6116 H   0  0  0  0  0  0  0  0  0  0  0  0
  144.0023  131.8987  149.9695 H   0  0  0  0  0  0  0  0  0  0  0  0
  143.5349  133.7542  153.4780 H   0  0  0  0  0  0  0  0  0  0  0  0
  146.4422  136.6752  150.4299 H   0  0  0  0  0  0  0  0  0  0  0  0
  144.8866  137.4754  150.4507 H   0  0  0  0  0  0  0  0  0  0  0  0
  145.1053  137.9032  152.8914 H   0  0  0  0  0  0  0  0  0  0  0  0
  145.9841  139.6041  151.2808 H   0  0  0  0  0  0  0  0  0  0  0  0
  147.5763  138.8571  151.3524 H   0  0  0  0  0  0  0  0  0  0  0  0
  146.8903  139.6267  152.7820 H   0  0  0  0  0  0  0  0  0  0  0  0
  146.5722  135.9214  153.1247 H   0  0  0  0  0  0  0  0  0  0  0  0
  146.2135  137.9971  154.7685 H   0  0  0  0  0  0  0  0  0  0  0  0
  146.8147  136.4083  155.2036 H   0  0  0  0  0  0  0  0  0  0  0  0
  148.5560  138.7149  154.1971 H   0  0  0  0  0  0  0  0  0  0  0  0
  149.2828  136.5490  153.8226 H   0  0  0  0  0  0  0  0  0  0  0  0
  147.5743  138.9942  156.5923 H   0  0  0  0  0  0  0  0  0  0  0  0
  148.4048  137.5189  157.0093 H   0  0  0  0  0  0  0  0  0  0  0  0
  150.5195  137.8167  158.0415 H   0  0  0  0  0  0  0  0  0  0  0  0
  151.0714  137.5919  156.3929 H   0  0  0  0  0  0  0  0  0  0  0  0
  151.8162  139.9286  158.2487 H   0  0  0  0  0  0  0  0  0  0  0  0
  152.8700  138.6197  157.7487 H   0  0  0  0  0  0  0  0  0  0  0  0
  151.1221  141.5518  156.5864 H   0  0  0  0  0  0  0  0  0  0  0  0
  151.6990  141.3623  154.9416 H   0  0  0  0  0  0  0  0  0  0  0  0
  150.3287  139.3204  154.6212 H   0  0  0  0  0  0  0  0  0  0  0  0
  149.3031  140.6427  155.1531 H   0  0  0  0  0  0  0  0  0  0  0  0
  144.8488  134.6183  149.4746 H   0  0  0  0  0  0  0  0  0  0  0  0
  147.8388  136.8823  152.7284 H   0  0  0  0  0  0  0  0  0  0  0  0
  149.4400  139.8286  157.3568 H   0  0  0  0  0  0  0  0  0  0  0  0
  1  2  1  0  0  0  0
  1 21  1  0  0  0  0
  1 22  1  0  0  0  0
  1 23  1  0  0  0  0
  2 20  2  0  0  0  0
  2  3  1  0  0  0  0
  3  4  2  0  0  0  0
  3 24  1  0  0  0  0
  4  5  1  0  0  0  0
  5  6  1  0  0  0  0
  5 20  1  0  0  0  0
  6  7  1  0  0  0  0
  6 25  1  0  0  0  0
  6 26  1  0  0  0  0
  7  8  1  0  0  0  0
  7  9  1  0  0  0  0
  7 27  1  0  0  0  0
  8 28  1  0  0  0  0
  8 29  1  0  0  0  0
  8 30  1  0  0  0  0
  9 10  1  0  0  0  0
  9 31  1  0  0  0  0
  9 47  1  0  0  0  0
 10 11  1  0  0  0  0
 10 32  1  0  0  0  0
 10 33  1  0  0  0  0
 11 12  1  0  0  0  0
 11 13  1  0  0  0  0
 11 34  1  0  0  0  0
 12 35  1  0  0  0  0
 13 14  1  0  0  0  0
 13 36  1  0  0  0  0
 13 37  1  0  0  0  0
 14 19  1  0  0  0  0
 14 15  1  0  0  0  0
 14 48  1  0  0  0  0
 15 16  1  0  0  0  0
 15 38  1  0  0  0  0
 15 39  1  0  0  0  0
 16 17  1  0  0  0  0
 16 40  1  0  0  0  0
 16 41  1  0  0  0  0
 17 18  1  0  0  0  0
 18 19  1  0  0  0  0
 18 42  1  0  0  0  0
 18 43  1  0  0  0  0
 19 44  1  0  0  0  0
 19 45  1  0  0  0  0
 20 46  1  0  0  0  0
M  CHG  1   9   1
M  CHG  1  14   1
M  END
> <s_m_source_file>
AV-unprocessed.smi

> <i_m_source_file_index>
3031

> <i_lp_mmshare_version>
43012

> <i_f3d_flags>
0

> <s_epik_input>
W0NIM11jMVtjSF1ubihbY0hdMSlbQ0gyXVtDQEhdKFtDSDNdKVtOSF1bQ0gyXVtDQEhdKFtPSF0pW0NIMl1OMltDSDJdW0NIMl1PW0NIMl1bQ0gyXTI=

> <s_epik_cmdline>
J2VwaWtfcHl0aG9uJywgJy1waCcsICc3LjAnLCAnLXRuJywgJzgnLCAnLW1hJywgJzIwMCcsICctbWV0YWxfYmluZGluZycsICctaW1hZScsICc8aW5maWxlLm1hZT4nLCAnLW9tYWUnLCAnPG91dGZpbGUubWFlPic=

> <r_lp_tautomer_probability>
1

> <r_epik_Ionization_Penalty>
1.76542

> <r_epik_Ionization_Penalty_Charging>
1.76348

> <r_epik_Ionization_Penalty_Neutral>
0.00194017

> <r_epik_State_Penalty>
1.49348

> <r_epik_Charging_Adjusted_Penalty>
3.25696

> <i_epik_Tot_Q>
2

> <i_epik_Tot_abs_Q>
2

> <r_epik_Metal_State_Penalty>
1.49349

> <b_epik_Metal_Only>
0

> <s_lp_Force_Field>
OPLS_2005

> <r_lp_Energy>
27.3319

> <b_lp_Chiralities_Consistent>
1

> <s_lp_Variant>
AV-unprocessed.smi:3031-9

> <Gold.Version>
5.8.1

> <Gold.Id.Protein>
6NUR|6NUR_protein|mol2

> <Gold.PLP.Fitness>
45.8087

> <Gold.PLP.PLP>
-29.8476

> <Gold.PLP.part.hbond>
-2.7700

> <Gold.PLP.part.metal>
0.0000

> <Gold.PLP.part.buried>
0.2665

> <Gold.PLP.part.nonpolar>
-27.9255

> <Gold.PLP.part.repulsive>
0.1044

> <Gold.PLP.ligand.clash>
0.0000

> <Gold.PLP.ligand.torsion>
1.0736

> <Gold.PLP.Chemscore.Hbond>
4.0000

> <Gold.PLP.Chemscore.CHOScore>
1.9988

> <Gold.PLP.Chemscore.Metal>
0.0000

> <Gold.Chemscore.Hbonds>
donor molecule, donor type, donor heavy atom, donor atom, acceptor molecule, acceptor atom, score
      L1  H     9    47       P1  7948  2.00
      L1  H    12    35       P1  7948  1.00
      P1  H  7997  8008       L1    17  1.00
      L1  C     3    24       P1 10957  1.00
      L1  C    20    46       P1  7921  1.00

> <Gold.PLP.Chemscore.Internal.Correction>
0.1121

> <Gold.Rescore>
     Score         DG    S(hbond)    S(metal)    S(lipo)     H(rot)  DE(clash)    DE(int)     intcor
     14.46     -16.82       2.77        0.00      77.88       2.74       1.39       0.97       ----

> <Gold.Chemscore.Fitness>
14.4605

> <Gold.Chemscore.DG>
-16.8234

> <Gold.Chemscore.ZeroCoef>
-5.4800

> <Gold.Chemscore.Hbond>
2.7708

> <Gold.Chemscore.Metal>
0.0000

> <Gold.Chemscore.Lipo>
77.8819

> <Gold.Chemscore.Internal_Hbond>
0.0000

> <Gold.Chemscore.DEClash>
1.3936

> <Gold.Chemscore.DEInternal>
0.9693

> <Gold.Chemscore.Rot>
2.7434

> <Gold.Chemscore.Internal.Correction>
   9.000000E+99

> <Gold.Chemscore.Hbonds>
donor molecule, donor type, donor heavy atom, donor atom, acceptor molecule, acceptor atom, score
      L1  H     9    47       P1  7948  0.91
      L1  H    12    35       P1  7948  0.91
      P1  H  7997  8008       L1    17  0.49

> <Gold.Chemscore.Hbond.Weighted>
-9.2543

> <Gold.Chemscore.Metal.Weighted>
-0.0000

> <Gold.Chemscore.Lipo.Weighted>
-9.1122

> <Gold.Chemscore.Internal_Hbond.Weighted>
0.0000

> <Gold.Chemscore.DEClash.Weighted>
1.3936

> <Gold.Chemscore.DEInternal.Weighted>
0.9693

> <Gold.Chemscore.Rot.Weighted>
7.0231

> <Gold.Chemscore.Internal.Correction.Weighted>
   9.000000E+99

> <Gold.Protein.RotatedTorsions>
[ 6907 6896 6895 6894 ] final   95.61 input  -60.11 | X-H torsion
[ 7974 7965 7964 7962 ] final  -21.28 input  175.53 | X-H torsion
[ 8008 7997 7996 7995 ] final  -44.15 input   59.86 | X-H torsion
[ 10167 10162 10161 10158 ] final -100.16 input  -65.29 | X-H torsion
[ 10718 10713 10712 10709 ] final  116.39 input   66.30 | X-H torsion
[ 10763 10752 10751 10750 ] final  -99.64 input  -60.55 | X-H torsion
[ 11005 11000 10999 10996 ] final -141.78 input  -57.11 | X-H torsion

> <Gold.Protein.ActiveResidues>
 VAL166  LYS551  ARG553  GLY616  TRP617  ASP618  TYR619  PRO620  LYS621  CYS622 
 ASP623  PHE694  ASN695  SER759  ASP760  ASP761  ALA762  ILE779  LEU786  VAL792 
 PHE793  MET794  SER795  GLU796  ALA797  LYS798  CYS799  TRP800  GLU811  SER814 

> <Gold.Protein.RotatedAtoms>
  152.5442  134.1013  159.8318 H   0  0  0  0  0  0  0  0  0  0  0  0  # atno 6907 bound_to 6896
  151.1091  133.5179  159.2614 H   0  0  0  0  0  0  0  0  0  0  0  0  # atno 6908 bound_to 6896
  151.1905  135.0409  159.8885 H   0  0  0  0  0  0  0  0  0  0  0  0  # atno 6909 bound_to 6896
  146.1742  140.4319  142.8520 H   0  0  0  0  0  0  0  0  0  0  0  0  # atno 7974 bound_to 7965
  154.3997  140.1429  156.3636 H   0  0  0  0  0  0  0  0  0  0  0  0  # atno 8008 bound_to 7997
  155.8158  140.3471  155.5464 H   0  0  0  0  0  0  0  0  0  0  0  0  # atno 8009 bound_to 7997
  155.8339  140.0916  157.1766 H   0  0  0  0  0  0  0  0  0  0  0  0  # atno 8010 bound_to 7997
  140.2548  143.3448  152.0681 H   0  0  0  0  0  0  0  0  0  0  0  0  # atno 10167 bound_to 10162
  157.6163  131.1025  150.7466 H   0  0  0  0  0  0  0  0  0  0  0  0  # atno 10718 bound_to 10713
  154.7515  135.4964  153.9297 H   0  0  0  0  0  0  0  0  0  0  0  0  # atno 10763 bound_to 10752
  153.1148  135.6718  153.9444 H   0  0  0  0  0  0  0  0  0  0  0  0  # atno 10764 bound_to 10752
  153.9193  135.3090  155.3427 H   0  0  0  0  0  0  0  0  0  0  0  0  # atno 10765 bound_to 10752
  140.8291  134.2539  157.4865 H   0  0  0  0  0  0  0  0  0  0  0  0  # atno 11005 bound_to 11000
  144.8209  140.6549  143.6353 LP  0  0  0  0  0  0  0  0  0  0  0  0  # atno 17320 bound_to 7965
  145.4258  139.1556  143.4049 LP  0  0  0  0  0  0  0  0  0  0  0  0  # atno 17321 bound_to 7965
  139.5035  144.6756  151.6136 LP  0  0  0  0  0  0  0  0  0  0  0  0  # atno 17342 bound_to 10162
  140.6012  143.9606  150.6388 LP  0  0  0  0  0  0  0  0  0  0  0  0  # atno 17343 bound_to 10162
  156.7833  130.4866  149.5397 LP  0  0  0  0  0  0  0  0  0  0  0  0  # atno 17370 bound_to 10713
  156.1287  130.6162  151.0301 LP  0  0  0  0  0  0  0  0  0  0  0  0  # atno 17371 bound_to 10713
  139.8705  134.9576  156.4275 LP  0  0  0  0  0  0  0  0  0  0  0  0  # atno 17394 bound_to 11000
  140.9017  133.7774  155.9688 LP  0  0  0  0  0  0  0  0  0  0  0  0  # atno 17395 bound_to 11000

$$$$
