AV-unprocessed.smi:1190|AV-procd|sdf|4981|dock6
  -GOLD-   22720 3573D 1   1.00000     0.00000
 Structure written by MMmdl.
 43 44  0  0  0  0  0  0  0  0  1 V2000
  145.9022  128.2777  152.8440 C   0  0  0  0  0  0  0  0  0  0  0  0
  145.6743  129.4586  152.0828 O   0  0  0  0  0  0  0  0  0  0  0  0
  146.3704  130.6009  152.4219 C   0  0  0  0  0  0  0  0  0  0  0  0
  146.1272  131.7804  151.6909 C   0  0  0  0  0  0  0  0  0  0  0  0
  146.8374  132.9470  152.0307 C   0  0  0  0  0  0  0  0  0  0  0  0
  147.7745  132.9010  153.0823 C   0  0  0  0  0  0  0  0  0  0  0  0
  148.4648  134.0993  153.4103 N   0  0  0  0  0  0  0  0  0  0  0  0
  149.0976  134.4173  154.5527 C   0  0  0  0  0  0  0  0  0  0  0  0
  149.2070  133.6831  155.5341 O   0  0  0  0  0  0  0  0  0  0  0  0
  149.6167  135.6519  154.4873 N   0  0  0  0  0  0  0  0  0  0  0  0
  150.3733  136.3159  155.5467 C   0  0  0  0  0  0  0  0  0  0  0  0
  150.7410  137.7865  155.1993 C   0  0  1  0  0  0  0  0  0  0  0  0
  149.5936  138.4132  154.3664 C   0  0  0  0  0  0  0  0  0  0  0  0
  151.0911  138.5975  156.3897 N   0  0  0  0  0  0  0  0  0  0  0  0
  152.1706  138.0036  157.1876 C   0  0  0  0  0  0  0  0  0  0  0  0
  152.5547  138.8600  158.4067 C   0  0  0  0  0  0  0  0  0  0  0  0
  152.9256  140.1631  157.9792 O   0  0  0  0  0  0  0  0  0  0  0  0
  151.8771  140.8084  157.2703 C   0  0  0  0  0  0  0  0  0  0  0  0
  151.4876  139.9675  156.0423 C   0  0  0  0  0  0  0  0  0  0  0  0
  147.9375  131.6711  153.7656 C   0  0  0  0  0  0  0  0  0  0  0  0
  147.2579  130.5491  153.4456 N   0  0  0  0  0  0  0  0  0  0  0  0
  145.2882  127.4693  152.4473 H   0  0  0  0  0  0  0  0  0  0  0  0
  145.6282  128.4185  153.8906 H   0  0  0  0  0  0  0  0  0  0  0  0
  146.9444  127.9600  152.7861 H   0  0  0  0  0  0  0  0  0  0  0  0
  145.4090  131.7898  150.8845 H   0  0  0  0  0  0  0  0  0  0  0  0
  146.6655  133.8633  151.4851 H   0  0  0  0  0  0  0  0  0  0  0  0
  148.5265  134.7788  152.6664 H   0  0  0  0  0  0  0  0  0  0  0  0
  149.4771  136.1778  153.6370 H   0  0  0  0  0  0  0  0  0  0  0  0
  149.8462  136.2786  156.5017 H   0  0  0  0  0  0  0  0  0  0  0  0
  151.2654  135.7043  155.6662 H   0  0  0  0  0  0  0  0  0  0  0  0
  151.6177  137.7487  154.5508 H   0  0  0  0  0  0  0  0  0  0  0  0
  149.3231  137.8029  153.5060 H   0  0  0  0  0  0  0  0  0  0  0  0
  149.8634  139.3810  153.9472 H   0  0  0  0  0  0  0  0  0  0  0  0
  148.6952  138.5443  154.9704 H   0  0  0  0  0  0  0  0  0  0  0  0
  151.8758  137.0287  157.5704 H   0  0  0  0  0  0  0  0  0  0  0  0
  153.0512  137.8484  156.5623 H   0  0  0  0  0  0  0  0  0  0  0  0
  151.7250  138.9214  159.1127 H   0  0  0  0  0  0  0  0  0  0  0  0
  153.3928  138.4081  158.9373 H   0  0  0  0  0  0  0  0  0  0  0  0
  151.0181  140.9550  157.9269 H   0  0  0  0  0  0  0  0  0  0  0  0
  152.2147  141.7972  156.9594 H   0  0  0  0  0  0  0  0  0  0  0  0
  152.3228  139.9441  155.3407 H   0  0  0  0  0  0  0  0  0  0  0  0
  150.6720  140.4905  155.5470 H   0  0  0  0  0  0  0  0  0  0  0  0
  148.6069  131.5649  154.6045 H   0  0  0  0  0  0  0  0  0  0  0  0
  1  2  1  0  0  0  0
  1 22  1  0  0  0  0
  1 23  1  0  0  0  0
  1 24  1  0  0  0  0
  2  3  1  0  0  0  0
  3 21  1  0  0  0  0
  3  4  2  0  0  0  0
  4  5  1  0  0  0  0
  4 25  1  0  0  0  0
  5  6  2  0  0  0  0
  5 26  1  0  0  0  0
  6  7  1  0  0  0  0
  6 20  1  0  0  0  0
  7  8  1  0  0  0  0
  7 27  1  0  0  0  0
  8  9  2  0  0  0  0
  8 10  1  0  0  0  0
 10 11  1  0  0  0  0
 10 28  1  0  0  0  0
 11 12  1  0  0  0  0
 11 29  1  0  0  0  0
 11 30  1  0  0  0  0
 12 13  1  0  0  0  0
 12 14  1  0  0  0  0
 12 31  1  0  0  0  0
 13 32  1  0  0  0  0
 13 33  1  0  0  0  0
 13 34  1  0  0  0  0
 14 19  1  0  0  0  0
 14 15  1  0  0  0  0
 15 16  1  0  0  0  0
 15 35  1  0  0  0  0
 15 36  1  0  0  0  0
 16 17  1  0  0  0  0
 16 37  1  0  0  0  0
 16 38  1  0  0  0  0
 17 18  1  0  0  0  0
 18 19  1  0  0  0  0
 18 39  1  0  0  0  0
 18 40  1  0  0  0  0
 19 41  1  0  0  0  0
 19 42  1  0  0  0  0
 20 21  2  0  0  0  0
 20 43  1  0  0  0  0
M  END
> <s_m_source_file>
AV-unprocessed.smi

> <i_m_source_file_index>
1190

> <i_lp_mmshare_version>
43012

> <i_f3d_flags>
0

> <s_epik_input>
W0NIM11PYzFbY0hdW2NIXWMoW2NIXW4xKVtOSF1DKD1PKVtOSF1bQ0gyXVtDQEhdKFtDSDNdKU4yW0NIMl1bQ0gyXU9bQ0gyXVtDSDJdMg==

> <s_epik_cmdline>
J2VwaWtfcHl0aG9uJywgJy1waCcsICc3LjAnLCAnLXRuJywgJzgnLCAnLW1hJywgJzIwMCcsICctbWV0YWxfYmluZGluZycsICctaW1hZScsICc8aW5maWxlLm1hZT4nLCAnLW9tYWUnLCAnPG91dGZpbGUubWFlPic=

> <r_lp_tautomer_probability>
1

> <r_epik_Ionization_Penalty>
0.266084

> <r_epik_Ionization_Penalty_Charging>
0

> <r_epik_Ionization_Penalty_Neutral>
0.266084

> <r_epik_State_Penalty>
0.257924

> <r_epik_Charging_Adjusted_Penalty>
0.257924

> <i_epik_Tot_Q>
0

> <i_epik_Tot_abs_Q>
0

> <r_epik_Metal_State_Penalty>
0.257922

> <b_epik_Metal_Only>
0

> <s_lp_Force_Field>
OPLS_2005

> <r_lp_Energy>
31.4194

> <b_lp_Chiralities_Consistent>
1

> <s_lp_Variant>
AV-unprocessed.smi:1190-2

> <Gold.Version>
5.8.1

> <Gold.Id.Protein>
6NUR|6NUR_protein|mol2

> <Gold.PLP.Fitness>
38.4216

> <Gold.PLP.PLP>
-30.0991

> <Gold.PLP.part.hbond>
-3.0000

> <Gold.PLP.part.metal>
0.0000

> <Gold.PLP.part.buried>
-2.3388

> <Gold.PLP.part.nonpolar>
-24.5101

> <Gold.PLP.part.repulsive>
0.3123

> <Gold.PLP.ligand.clash>
0.0000

> <Gold.PLP.ligand.torsion>
0.3336

> <Gold.PLP.Chemscore.Hbond>
2.9760

> <Gold.PLP.Chemscore.CHOScore>
0.0000

> <Gold.PLP.Chemscore.Metal>
0.0000

> <Gold.Chemscore.Hbonds>
donor molecule, donor type, donor heavy atom, donor atom, acceptor molecule, acceptor atom, score
      L1  H     7    27       P1  7948  0.95
      L1  H    10    28       P1  7948  0.99
      P1  H  7997  8009       L1    17  1.00

> <Gold.PLP.Chemscore.Internal.Correction>
0.0617

> <Gold.Rescore>
     Score         DG    S(hbond)    S(metal)    S(lipo)     H(rot)  DE(clash)    DE(int)     intcor
     15.46     -17.11       2.38        0.00      69.37       1.73       0.22       1.43       ----

> <Gold.Chemscore.Fitness>
15.4597

> <Gold.Chemscore.DG>
-17.1052

> <Gold.Chemscore.ZeroCoef>
-5.4800

> <Gold.Chemscore.Hbond>
2.3761

> <Gold.Chemscore.Metal>
0.0000

> <Gold.Chemscore.Lipo>
69.3651

> <Gold.Chemscore.Internal_Hbond>
0.0000

> <Gold.Chemscore.DEClash>
0.2187

> <Gold.Chemscore.DEInternal>
1.4268

> <Gold.Chemscore.Rot>
1.7292

> <Gold.Chemscore.Internal.Correction>
   9.000000E+99

> <Gold.Chemscore.Hbonds>
donor molecule, donor type, donor heavy atom, donor atom, acceptor molecule, acceptor atom, score
      L1  H     7    27       P1  7948  0.21
      L1  H    10    28       P1  7948  0.56
      P1  H  7997  8009       L1    17  0.52

> <Gold.Chemscore.Hbond.Weighted>
-7.9363

> <Gold.Chemscore.Metal.Weighted>
-0.0000

> <Gold.Chemscore.Lipo.Weighted>
-8.1157

> <Gold.Chemscore.Internal_Hbond.Weighted>
0.0000

> <Gold.Chemscore.DEClash.Weighted>
0.2187

> <Gold.Chemscore.DEInternal.Weighted>
1.4268

> <Gold.Chemscore.Rot.Weighted>
4.4268

> <Gold.Chemscore.Internal.Correction.Weighted>
   9.000000E+99

> <Gold.Protein.RotatedTorsions>
[ 6907 6896 6895 6894 ] final  -57.32 input  -60.11 | X-H torsion
[ 7974 7965 7964 7962 ] final   83.95 input  175.53 | X-H torsion
[ 8008 7997 7996 7995 ] final  165.11 input   59.86 | X-H torsion
[ 10167 10162 10161 10158 ] final  -58.53 input  -65.29 | X-H torsion
[ 10718 10713 10712 10709 ] final  -87.51 input   66.30 | X-H torsion
[ 10763 10752 10751 10750 ] final  100.51 input  -60.55 | X-H torsion
[ 11005 11000 10999 10996 ] final -136.60 input  -57.11 | X-H torsion

> <Gold.Protein.ActiveResidues>
 VAL166  LYS551  ARG553  GLY616  TRP617  ASP618  TYR619  PRO620  LYS621  CYS622 
 ASP623  PHE694  ASN695  SER759  ASP760  ASP761  ALA762  ILE779  LEU786  VAL792 
 PHE793  MET794  SER795  GLU796  ALA797  LYS798  CYS799  TRP800  GLU811  SER814 

> <Gold.Protein.RotatedAtoms>
  150.8095  134.7241  159.6674 H   0  0  0  0  0  0  0  0  0  0  0  0  # atno 6907 bound_to 6896
  152.4215  134.5943  159.9992 H   0  0  0  0  0  0  0  0  0  0  0  0  # atno 6908 bound_to 6896
  151.6157  133.3306  159.3113 H   0  0  0  0  0  0  0  0  0  0  0  0  # atno 6909 bound_to 6896
  145.6051  139.2359  143.2223 H   0  0  0  0  0  0  0  0  0  0  0  0  # atno 7974 bound_to 7965
  156.1827  140.1679  156.8244 H   0  0  0  0  0  0  0  0  0  0  0  0  # atno 8008 bound_to 7997
  154.5378  140.0743  156.8491 H   0  0  0  0  0  0  0  0  0  0  0  0  # atno 8009 bound_to 7997
  155.3276  140.3377  155.4242 H   0  0  0  0  0  0  0  0  0  0  0  0  # atno 8010 bound_to 7997
  140.6192  143.2413  151.5523 H   0  0  0  0  0  0  0  0  0  0  0  0  # atno 10167 bound_to 10162
  155.9985  130.4802  150.4878 H   0  0  0  0  0  0  0  0  0  0  0  0  # atno 10718 bound_to 10713
  153.3148  135.4076  155.1367 H   0  0  0  0  0  0  0  0  0  0  0  0  # atno 10763 bound_to 10752
  154.8585  135.3573  154.5675 H   0  0  0  0  0  0  0  0  0  0  0  0  # atno 10764 bound_to 10752
  153.6105  135.7068  153.5407 H   0  0  0  0  0  0  0  0  0  0  0  0  # atno 10765 bound_to 10752
  140.8790  134.1955  157.4603 H   0  0  0  0  0  0  0  0  0  0  0  0  # atno 11005 bound_to 11000
  146.1546  140.6876  142.9306 LP  0  0  0  0  0  0  0  0  0  0  0  0  # atno 17320 bound_to 7965
  144.7293  140.4623  143.6949 LP  0  0  0  0  0  0  0  0  0  0  0  0  # atno 17321 bound_to 7965
  139.5424  144.2612  152.1376 LP  0  0  0  0  0  0  0  0  0  0  0  0  # atno 17342 bound_to 10162
  140.1828  144.4828  150.6519 LP  0  0  0  0  0  0  0  0  0  0  0  0  # atno 17343 bound_to 10162
  157.2877  131.0620  151.2155 LP  0  0  0  0  0  0  0  0  0  0  0  0  # atno 17370 bound_to 10713
  157.3179  130.6922  149.6252 LP  0  0  0  0  0  0  0  0  0  0  0  0  # atno 17371 bound_to 10713
  139.8718  134.9809  156.5093 LP  0  0  0  0  0  0  0  0  0  0  0  0  # atno 17394 bound_to 11000
  140.8484  133.8151  155.9144 LP  0  0  0  0  0  0  0  0  0  0  0  0  # atno 17395 bound_to 11000

$$$$
