AV-unprocessed.smi:212|AV-procd|sdf|1622|dock3
  -GOLD-   2262019563D 1   1.00000     0.00000
 Structure written by MMmdl.
 65 68  0  0  0  0  0  0  0  0  2 V2000
  147.6409  131.2601  153.5801 C   0  0  0  0  0  0  0  0  0  0  0  0
  147.8581  132.7557  153.2943 C   0  0  1  0  0  0  0  0  0  0  0  0
  147.1841  133.2020  151.9787 C   0  0  0  0  0  0  0  0  0  0  0  0
  145.7050  133.2683  152.1113 N   0  3  2  0  0  0  0  0  0  0  0  0
  145.0163  133.5821  150.8314 C   0  0  0  0  0  0  0  0  0  0  0  0
  144.7729  132.3271  149.9604 C   0  0  0  0  0  0  0  0  0  0  0  0
  143.7374  132.6375  148.8667 C   0  0  0  0  0  0  0  0  0  0  0  0
  146.0720  131.7935  149.3286 C   0  0  0  0  0  0  0  0  0  0  0  0
  144.2152  131.3042  150.7612 O   0  0  0  0  0  0  0  0  0  0  0  0
  145.2828  134.1432  153.2354 C   0  0  0  0  0  0  0  0  0  0  0  0
  145.9457  133.7063  154.5544 C   0  0  0  0  0  0  0  0  0  0  0  0
  147.3972  133.5896  154.4068 N   0  0  0  0  0  0  0  0  0  0  0  0
  148.1734  134.6643  154.7060 C   0  0  0  0  0  0  0  0  0  0  0  0
  149.5254  134.5799  154.5866 N   0  0  0  0  0  0  0  0  0  0  0  0
  150.2976  135.6276  154.8882 C   0  0  0  0  0  0  0  0  0  0  0  0
  149.9318  136.8372  155.3147 N   0  0  0  0  0  0  0  0  0  0  0  0
  148.5764  136.9340  155.4265 C   0  0  0  0  0  0  0  0  0  0  0  0
  147.6328  135.9047  155.1494 C   0  0  0  0  0  0  0  0  0  0  0  0
  146.3432  136.3730  155.3740 N   0  0  0  0  0  0  0  0  0  0  0  0
  146.5147  137.6071  155.7633 C   0  0  0  0  0  0  0  0  0  0  0  0
  147.8238  138.0296  155.8115 N   0  0  0  0  0  0  0  0  0  0  0  0
  148.2953  139.3496  156.1947 C   0  0  0  0  0  0  0  0  0  0  0  0
  149.1711  140.0284  155.1122 C   0  0  1  0  0  0  0  0  0  0  0  0
  148.3164  140.9846  154.2463 C   0  0  0  0  0  0  0  0  0  0  0  0
  149.0365  141.3985  153.1037 O   0  0  0  0  0  0  0  0  0  0  0  0
  150.4482  140.6956  155.6990 C   0  0  2  0  0  0  0  0  0  0  0  0
  151.3650  139.7796  156.5065 C   0  0  0  0  0  0  0  0  0  0  0  0
  151.9475  140.7211  157.5512 C   0  0  0  0  0  0  0  0  0  0  0  0
  150.8427  141.5510  157.8657 O   0  0  0  0  0  0  0  0  0  0  0  0
  150.1931  141.8831  156.6451 C   0  0  0  0  0  0  0  0  0  0  0  0
  148.0438  130.6474  152.7736 H   0  0  0  0  0  0  0  0  0  0  0  0
  146.5850  131.0104  153.6846 H   0  0  0  0  0  0  0  0  0  0  0  0
  148.1464  130.9633  154.4997 H   0  0  0  0  0  0  0  0  0  0  0  0
  148.9309  132.8892  153.1561 H   0  0  0  0  0  0  0  0  0  0  0  0
  147.5552  134.1874  151.6920 H   0  0  0  0  0  0  0  0  0  0  0  0
  147.4568  132.5174  151.1745 H   0  0  0  0  0  0  0  0  0  0  0  0
  144.0784  134.1053  151.0258 H   0  0  0  0  0  0  0  0  0  0  0  0
  145.6207  134.2828  150.2531 H   0  0  0  0  0  0  0  0  0  0  0  0
  144.0953  133.4184  148.1946 H   0  0  0  0  0  0  0  0  0  0  0  0
  142.7944  132.9806  149.2948 H   0  0  0  0  0  0  0  0  0  0  0  0
  143.5207  131.7578  148.2595 H   0  0  0  0  0  0  0  0  0  0  0  0
  146.5501  132.5549  148.7113 H   0  0  0  0  0  0  0  0  0  0  0  0
  145.8769  130.9300  148.6915 H   0  0  0  0  0  0  0  0  0  0  0  0
  146.7938  131.4802  150.0839 H   0  0  0  0  0  0  0  0  0  0  0  0
  144.5949  130.4774  150.5032 H   0  0  0  0  0  0  0  0  0  0  0  0
  145.5463  135.1764  153.0052 H   0  0  0  0  0  0  0  0  0  0  0  0
  144.1995  134.1151  153.3491 H   0  0  0  0  0  0  0  0  0  0  0  0
  145.6878  134.3952  155.3599 H   0  0  0  0  0  0  0  0  0  0  0  0
  145.5517  132.7367  154.8588 H   0  0  0  0  0  0  0  0  0  0  0  0
  151.3604  135.4756  154.7701 H   0  0  0  0  0  0  0  0  0  0  0  0
  145.6856  138.2515  156.0182 H   0  0  0  0  0  0  0  0  0  0  0  0
  147.4203  139.9618  156.4161 H   0  0  0  0  0  0  0  0  0  0  0  0
  148.8526  139.2644  157.1283 H   0  0  0  0  0  0  0  0  0  0  0  0
  149.5305  139.2381  154.4510 H   0  0  0  0  0  0  0  0  0  0  0  0
  147.3940  140.5044  153.9197 H   0  0  0  0  0  0  0  0  0  0  0  0
  148.0298  141.8795  154.7969 H   0  0  0  0  0  0  0  0  0  0  0  0
  149.1455  140.6541  152.5315 H   0  0  0  0  0  0  0  0  0  0  0  0
  151.0378  141.1013  154.8763 H   0  0  0  0  0  0  0  0  0  0  0  0
  150.8062  138.9917  157.0096 H   0  0  0  0  0  0  0  0  0  0  0  0
  152.1347  139.3053  155.8980 H   0  0  0  0  0  0  0  0  0  0  0  0
  152.3240  140.1973  158.4299 H   0  0  0  0  0  0  0  0  0  0  0  0
  152.7555  141.3232  157.1318 H   0  0  0  0  0  0  0  0  0  0  0  0
  150.6420  142.7916  156.2407 H   0  0  0  0  0  0  0  0  0  0  0  0
  149.1376  142.0931  156.8158 H   0  0  0  0  0  0  0  0  0  0  0  0
  145.4123  132.3331  152.3562 H   0  0  0  0  0  0  0  0  0  0  0  0
  1  2  1  0  0  0  0
  1 31  1  0  0  0  0
  1 32  1  0  0  0  0
  1 33  1  0  0  0  0
  2 12  1  0  0  0  0
  2  3  1  0  0  0  0
  2 34  1  0  0  0  0
  3  4  1  0  0  0  0
  3 35  1  0  0  0  0
  3 36  1  0  0  0  0
  4  5  1  0  0  0  0
  4 10  1  0  0  0  0
  4 65  1  0  0  0  0
  5  6  1  0  0  0  0
  5 37  1  0  0  0  0
  5 38  1  0  0  0  0
  6  7  1  0  0  0  0
  6  8  1  0  0  0  0
  6  9  1  0  0  0  0
  7 39  1  0  0  0  0
  7 40  1  0  0  0  0
  7 41  1  0  0  0  0
  8 42  1  0  0  0  0
  8 43  1  0  0  0  0
  8 44  1  0  0  0  0
  9 45  1  0  0  0  0
 10 11  1  0  0  0  0
 10 46  1  0  0  0  0
 10 47  1  0  0  0  0
 11 12  1  0  0  0  0
 11 48  1  0  0  0  0
 11 49  1  0  0  0  0
 12 13  1  0  0  0  0
 13 18  1  0  0  0  0
 13 14  2  0  0  0  0
 14 15  1  0  0  0  0
 15 16  2  0  0  0  0
 15 50  1  0  0  0  0
 16 17  1  0  0  0  0
 17 21  1  0  0  0  0
 17 18  2  0  0  0  0
 18 19  1  0  0  0  0
 19 20  2  0  0  0  0
 20 21  1  0  0  0  0
 20 51  1  0  0  0  0
 21 22  1  0  0  0  0
 22 23  1  0  0  0  0
 22 52  1  0  0  0  0
 22 53  1  0  0  0  0
 23 24  1  0  0  0  0
 23 26  1  0  0  0  0
 23 54  1  0  0  0  0
 24 25  1  0  0  0  0
 24 55  1  0  0  0  0
 24 56  1  0  0  0  0
 25 57  1  0  0  0  0
 26 30  1  0  0  0  0
 26 27  1  0  0  0  0
 26 58  1  0  0  0  0
 27 28  1  0  0  0  0
 27 59  1  0  0  0  0
 27 60  1  0  0  0  0
 28 29  1  0  0  0  0
 28 61  1  0  0  0  0
 28 62  1  0  0  0  0
 29 30  1  0  0  0  0
 30 63  1  0  0  0  0
 30 64  1  0  0  0  0
M  CHG  1   4   1
M  END
> <s_m_source_file>
AV-unprocessed.smi

> <i_m_source_file_index>
212

> <i_lp_mmshare_version>
43012

> <i_f3d_flags>
0

> <s_epik_input>
W0NIM11bQ0BASF0xW0NIMl1OKFtDSDJdQyhbQ0gzXSkoW0NIM10pW09IXSlbQ0gyXVtDSDJdTjFjKG5bY0hdbjIpYyhjMjMpbltjSF1uM1tDSDJdW0NASF0oW0NIMl1bT0hdKVtDQEBIXTRbQ0gyXVtDSDJdT1tDSDJdNA==

> <s_epik_cmdline>
J2VwaWtfcHl0aG9uJywgJy1waCcsICc3LjAnLCAnLXRuJywgJzgnLCAnLW1hJywgJzIwMCcsICctbWV0YWxfYmluZGluZycsICctaW1hZScsICc8aW5maWxlLm1hZT4nLCAnLW9tYWUnLCAnPG91dGZpbGUubWFlPic=

> <r_lp_tautomer_probability>
1

> <r_epik_Ionization_Penalty>
0.00182193

> <r_epik_Ionization_Penalty_Charging>
0.00173996

> <r_epik_Ionization_Penalty_Neutral>
8.19718e-05

> <r_epik_State_Penalty>
-0

> <r_epik_Charging_Adjusted_Penalty>
0.00173996

> <i_epik_Tot_Q>
1

> <i_epik_Tot_abs_Q>
1

> <r_epik_Metal_State_Penalty>
-0

> <b_epik_Metal_Only>
0

> <s_lp_Force_Field>
OPLS_2005

> <r_lp_Energy>
60.7413

> <b_lp_Chiralities_Consistent>
1

> <s_lp_Variant>
AV-unprocessed.smi:212-6

> <Gold.Version>
5.8.1

> <Gold.Id.Protein>
6NUR|6NUR_protein|mol2

> <Gold.PLP.Fitness>
46.0167

> <Gold.PLP.PLP>
-41.8827

> <Gold.PLP.part.hbond>
-2.9030

> <Gold.PLP.part.metal>
0.0000

> <Gold.PLP.part.buried>
-7.3055

> <Gold.PLP.part.nonpolar>
-33.7325

> <Gold.PLP.part.repulsive>
0.3148

> <Gold.PLP.ligand.clash>
0.0000

> <Gold.PLP.ligand.torsion>
1.3756

> <Gold.PLP.Chemscore.Hbond>
1.9193

> <Gold.PLP.Chemscore.CHOScore>
0.0000

> <Gold.PLP.Chemscore.Metal>
0.0000

> <Gold.Chemscore.Hbonds>
donor molecule, donor type, donor heavy atom, donor atom, acceptor molecule, acceptor atom, score
      L1  H    25    57       P1  7957  0.99
      P1  H  8011  8017       L1    25  0.83

> <Gold.PLP.Chemscore.Internal.Correction>
1.1274

> <Gold.Rescore>
     Score         DG    S(hbond)    S(metal)    S(lipo)     H(rot)  DE(clash)    DE(int)     intcor
     10.92     -13.64       1.44        0.00     102.93       3.40       0.02       2.70       ----

> <Gold.Chemscore.Fitness>
10.9159

> <Gold.Chemscore.DG>
-13.6357

> <Gold.Chemscore.ZeroCoef>
-5.4800

> <Gold.Chemscore.Hbond>
1.4412

> <Gold.Chemscore.Metal>
0.0000

> <Gold.Chemscore.Lipo>
102.9288

> <Gold.Chemscore.Internal_Hbond>
0.0000

> <Gold.Chemscore.DEClash>
0.0202

> <Gold.Chemscore.DEInternal>
2.6996

> <Gold.Chemscore.Rot>
3.3986

> <Gold.Chemscore.Internal.Correction>
   9.000000E+99

> <Gold.Chemscore.Hbonds>
donor molecule, donor type, donor heavy atom, donor atom, acceptor molecule, acceptor atom, score
      L1  H    25    57       P1  7957  0.90
      P1  H  8011  8017       L1    25  0.18

> <Gold.Chemscore.Hbond.Weighted>
-4.8136

> <Gold.Chemscore.Metal.Weighted>
-0.0000

> <Gold.Chemscore.Lipo.Weighted>
-12.0427

> <Gold.Chemscore.Internal_Hbond.Weighted>
0.0000

> <Gold.Chemscore.DEClash.Weighted>
0.0202

> <Gold.Chemscore.DEInternal.Weighted>
2.6996

> <Gold.Chemscore.Rot.Weighted>
8.7005

> <Gold.Chemscore.Internal.Correction.Weighted>
   9.000000E+99

> <Gold.Protein.RotatedTorsions>
[ 6907 6896 6895 6894 ] final  126.04 input  -60.11 | X-H torsion
[ 7974 7965 7964 7962 ] final  132.66 input  175.53 | X-H torsion
[ 8008 7997 7996 7995 ] final -136.63 input   59.86 | X-H torsion
[ 10167 10162 10161 10158 ] final  -89.82 input  -65.29 | X-H torsion
[ 10718 10713 10712 10709 ] final -128.65 input   66.30 | X-H torsion
[ 10763 10752 10751 10750 ] final  -55.05 input  -60.55 | X-H torsion
[ 11005 11000 10999 10996 ] final -161.20 input  -57.11 | X-H torsion

> <Gold.Protein.ActiveResidues>
 VAL166  LYS551  ARG553  GLY616  TRP617  ASP618  TYR619  PRO620  LYS621  CYS622 
 ASP623  PHE694  ASN695  SER759  ASP760  ASP761  ALA762  ILE779  LEU786  VAL792 
 PHE793  MET794  SER795  GLU796  ALA797  LYS798  CYS799  TRP800  GLU811  SER814 

> <Gold.Protein.RotatedAtoms>
  152.3939  133.6718  159.6259 H   0  0  0  0  0  0  0  0  0  0  0  0  # atno 6907 bound_to 6896
  150.7842  133.8908  159.3321 H   0  0  0  0  0  0  0  0  0  0  0  0  # atno 6908 bound_to 6896
  151.6688  135.0980  160.0245 H   0  0  0  0  0  0  0  0  0  0  0  0  # atno 6909 bound_to 6896
  144.9945  139.4373  143.5323 H   0  0  0  0  0  0  0  0  0  0  0  0  # atno 7974 bound_to 7965
  155.3984  140.0504  157.3038 H   0  0  0  0  0  0  0  0  0  0  0  0  # atno 8008 bound_to 7997
  154.5002  140.2154  155.9323 H   0  0  0  0  0  0  0  0  0  0  0  0  # atno 8009 bound_to 7997
  156.1458  140.3145  155.8573 H   0  0  0  0  0  0  0  0  0  0  0  0  # atno 8010 bound_to 7997
  140.3610  143.2842  151.9614 H   0  0  0  0  0  0  0  0  0  0  0  0  # atno 10167 bound_to 10162
  156.1971  130.6833  151.0495 H   0  0  0  0  0  0  0  0  0  0  0  0  # atno 10718 bound_to 10713
  154.1847  135.6437  153.5043 H   0  0  0  0  0  0  0  0  0  0  0  0  # atno 10763 bound_to 10752
  153.0050  135.5414  154.6478 H   0  0  0  0  0  0  0  0  0  0  0  0  # atno 10764 bound_to 10752
  154.5851  135.2929  155.0666 H   0  0  0  0  0  0  0  0  0  0  0  0  # atno 10765 bound_to 10752
  140.6231  134.4730  157.5225 H   0  0  0  0  0  0  0  0  0  0  0  0  # atno 11005 bound_to 11000
  146.3439  139.9296  142.8755 LP  0  0  0  0  0  0  0  0  0  0  0  0  # atno 17320 bound_to 7965
  145.2239  140.9946  143.4029 LP  0  0  0  0  0  0  0  0  0  0  0  0  # atno 17321 bound_to 7965
  139.4814  144.5992  151.7635 LP  0  0  0  0  0  0  0  0  0  0  0  0  # atno 17342 bound_to 10162
  140.5127  144.1001  150.5999 LP  0  0  0  0  0  0  0  0  0  0  0  0  # atno 17343 bound_to 10162
  157.6964  131.0792  150.6956 LP  0  0  0  0  0  0  0  0  0  0  0  0  # atno 17370 bound_to 10713
  156.7013  130.4624  149.5572 LP  0  0  0  0  0  0  0  0  0  0  0  0  # atno 17371 bound_to 10713
  139.9145  134.8274  156.1411 LP  0  0  0  0  0  0  0  0  0  0  0  0  # atno 17394 bound_to 11000
  141.0729  133.6789  156.2176 LP  0  0  0  0  0  0  0  0  0  0  0  0  # atno 17395 bound_to 11000

$$$$
