AV-unprocessed.smi:3322|AV-procd|sdf|12775|dock4
  -GOLD-   2272019123D 1   1.00000     0.00000
 Structure written by MMmdl.
 38 39  0  0  0  0  0  0  0  0  1 V2000
  150.3137  141.2359  158.4250 C   0  0  0  0  0  0  0  0  0  0  0  0
  151.5998  140.9273  157.6362 C   0  0  2  0  0  0  0  0  0  0  0  0
  151.4108  139.7355  156.7877 N   0  0  0  0  0  0  0  0  0  0  0  0
  150.1072  139.6886  156.1331 C   0  0  0  0  0  0  0  0  0  0  0  0
  150.0755  140.5633  154.8621 C   0  0  0  0  0  0  0  0  0  0  0  0
  148.7302  140.8473  154.3941 N   0  0  0  0  0  0  0  0  0  0  0  0
  148.0867  142.0648  154.3238 C   0  0  0  0  0  0  0  0  0  0  0  0
  146.8499  141.8404  153.7899 C   0  0  0  0  0  0  0  0  0  0  0  0
  146.8270  140.4351  153.5682 C   0  0  0  0  0  0  0  0  0  0  0  0
  147.9518  139.8428  153.9346 N   0  0  0  0  0  0  0  0  0  0  0  0
  152.7875  140.7342  158.6027 C   0  0  0  0  0  0  0  0  0  0  0  0
  153.4024  139.6662  158.5649 O   0  0  0  0  0  0  0  0  0  0  0  0
  153.1414  141.7295  159.4557 N   0  0  0  0  0  0  0  0  0  0  0  0
  154.2969  141.6283  160.3545 C   0  0  0  0  0  0  0  0  0  0  0  0
  153.7982  141.6717  161.8086 C   0  0  0  0  0  0  0  0  0  0  0  0
  153.0794  142.8820  162.0271 O   0  0  0  0  0  0  0  0  0  0  0  0
  151.9601  143.0253  161.1579 C   0  0  0  0  0  0  0  0  0  0  0  0
  152.4260  142.9907  159.6907 C   0  0  0  0  0  0  0  0  0  0  0  0
  150.4353  142.1107  159.0639 H   0  0  0  0  0  0  0  0  0  0  0  0
  150.0297  140.3986  159.0642 H   0  0  0  0  0  0  0  0  0  0  0  0
  149.4752  141.4401  157.7595 H   0  0  0  0  0  0  0  0  0  0  0  0
  151.8281  141.7633  156.9816 H   0  0  0  0  0  0  0  0  0  0  0  0
  152.1279  139.6700  156.0787 H   0  0  0  0  0  0  0  0  0  0  0  0
  149.9414  138.6536  155.8337 H   0  0  0  0  0  0  0  0  0  0  0  0
  149.2933  139.9400  156.8139 H   0  0  0  0  0  0  0  0  0  0  0  0
  150.6024  141.5038  155.0321 H   0  0  0  0  0  0  0  0  0  0  0  0
  150.6076  140.0553  154.0569 H   0  0  0  0  0  0  0  0  0  0  0  0
  148.5610  142.9796  154.6476 H   0  0  0  0  0  0  0  0  0  0  0  0
  146.0794  142.5692  153.5865 H   0  0  0  0  0  0  0  0  0  0  0  0
  146.0326  139.8323  153.1538 H   0  0  0  0  0  0  0  0  0  0  0  0
  154.8871  140.7249  160.1967 H   0  0  0  0  0  0  0  0  0  0  0  0
  154.9734  142.4631  160.1651 H   0  0  0  0  0  0  0  0  0  0  0  0
  153.1627  140.8122  162.0287 H   0  0  0  0  0  0  0  0  0  0  0  0
  154.6409  141.6324  162.4987 H   0  0  0  0  0  0  0  0  0  0  0  0
  151.2341  142.2345  161.3530 H   0  0  0  0  0  0  0  0  0  0  0  0
  151.4656  143.9722  161.3741 H   0  0  0  0  0  0  0  0  0  0  0  0
  153.0972  143.8265  159.4882 H   0  0  0  0  0  0  0  0  0  0  0  0
  151.5578  143.1444  159.0554 H   0  0  0  0  0  0  0  0  0  0  0  0
  1  2  1  0  0  0  0
  1 19  1  0  0  0  0
  1 20  1  0  0  0  0
  1 21  1  0  0  0  0
  2  3  1  0  0  0  0
  2 11  1  0  0  0  0
  2 22  1  0  0  0  0
  3  4  1  0  0  0  0
  3 23  1  0  0  0  0
  4  5  1  0  0  0  0
  4 24  1  0  0  0  0
  4 25  1  0  0  0  0
  5  6  1  0  0  0  0
  5 26  1  0  0  0  0
  5 27  1  0  0  0  0
  6 10  1  0  0  0  0
  6  7  1  0  0  0  0
  7  8  2  0  0  0  0
  7 28  1  0  0  0  0
  8  9  1  0  0  0  0
  8 29  1  0  0  0  0
  9 10  2  0  0  0  0
  9 30  1  0  0  0  0
 11 12  2  0  0  0  0
 11 13  1  0  0  0  0
 13 18  1  0  0  0  0
 13 14  1  0  0  0  0
 14 15  1  0  0  0  0
 14 31  1  0  0  0  0
 14 32  1  0  0  0  0
 15 16  1  0  0  0  0
 15 33  1  0  0  0  0
 15 34  1  0  0  0  0
 16 17  1  0  0  0  0
 17 18  1  0  0  0  0
 17 35  1  0  0  0  0
 17 36  1  0  0  0  0
 18 37  1  0  0  0  0
 18 38  1  0  0  0  0
M  END
> <s_m_source_file>
AV-unprocessed.smi

> <i_m_source_file_index>
3322

> <i_lp_mmshare_version>
43012

> <i_f3d_flags>
0

> <s_epik_input>
W0NIMl0xW0NIMl1PW0NIMl1bQ0gyXU4xQyg9TylbQ0BIXShbQ0gzXSlbTkhdW0NIMl1bQ0gyXW4yW2NIXVtjSF1bY0hdbjI=

> <s_epik_cmdline>
J2VwaWtfcHl0aG9uJywgJy1waCcsICc3LjAnLCAnLXRuJywgJzgnLCAnLW1hJywgJzIwMCcsICctbWV0YWxfYmluZGluZycsICctaW1hZScsICc8aW5maWxlLm1hZT4nLCAnLW9tYWUnLCAnPG91dGZpbGUubWFlPic=

> <r_lp_tautomer_probability>
1

> <r_epik_Ionization_Penalty>
0.511228

> <r_epik_Ionization_Penalty_Charging>
0

> <r_epik_Ionization_Penalty_Neutral>
0.511228

> <r_epik_State_Penalty>
0.51753

> <r_epik_Charging_Adjusted_Penalty>
0.51753

> <i_epik_Tot_Q>
0

> <i_epik_Tot_abs_Q>
0

> <r_epik_Metal_State_Penalty>
0.517012

> <b_epik_Metal_Only>
0

> <s_lp_Force_Field>
OPLS_2005

> <r_lp_Energy>
29.3693

> <b_lp_Chiralities_Consistent>
1

> <s_lp_Variant>
AV-unprocessed.smi:3322-3

> <Gold.Version>
5.8.1

> <Gold.Id.Protein>
6NUR|6NUR_protein|mol2

> <Gold.PLP.Fitness>
43.3149

> <Gold.PLP.PLP>
-35.0252

> <Gold.PLP.part.hbond>
-1.0000

> <Gold.PLP.part.metal>
0.0000

> <Gold.PLP.part.buried>
-0.2325

> <Gold.PLP.part.nonpolar>
-33.6954

> <Gold.PLP.part.repulsive>
0.2328

> <Gold.PLP.ligand.clash>
0.0000

> <Gold.PLP.ligand.torsion>
0.3645

> <Gold.PLP.Chemscore.Hbond>
1.0000

> <Gold.PLP.Chemscore.CHOScore>
1.9774

> <Gold.PLP.Chemscore.Metal>
0.0000

> <Gold.Chemscore.Hbonds>
donor molecule, donor type, donor heavy atom, donor atom, acceptor molecule, acceptor atom, score
      P1  H  7997  8009       L1    12  1.00
      L1  C     7    28       P1  8028  0.96
      L1  C     9    30       P1 10175  1.00

> <Gold.PLP.Chemscore.Internal.Correction>
0.0863

> <Gold.Rescore>
     Score         DG    S(hbond)    S(metal)    S(lipo)     H(rot)  DE(clash)    DE(int)     intcor
     12.00     -13.64       0.88        0.00      84.88       1.84       0.21       1.43       ----

> <Gold.Chemscore.Fitness>
11.9990

> <Gold.Chemscore.DG>
-13.6416

> <Gold.Chemscore.ZeroCoef>
-5.4800

> <Gold.Chemscore.Hbond>
0.8839

> <Gold.Chemscore.Metal>
0.0000

> <Gold.Chemscore.Lipo>
84.8766

> <Gold.Chemscore.Internal_Hbond>
0.0000

> <Gold.Chemscore.DEClash>
0.2106

> <Gold.Chemscore.DEInternal>
1.4321

> <Gold.Chemscore.Rot>
1.8442

> <Gold.Chemscore.Internal.Correction>
   9.000000E+99

> <Gold.Chemscore.Hbonds>
donor molecule, donor type, donor heavy atom, donor atom, acceptor molecule, acceptor atom, score
      P1  H  7997  8009       L1    12  0.29

> <Gold.Chemscore.Hbond.Weighted>
-2.9522

> <Gold.Chemscore.Metal.Weighted>
-0.0000

> <Gold.Chemscore.Lipo.Weighted>
-9.9306

> <Gold.Chemscore.Internal_Hbond.Weighted>
0.0000

> <Gold.Chemscore.DEClash.Weighted>
0.2106

> <Gold.Chemscore.DEInternal.Weighted>
1.4321

> <Gold.Chemscore.Rot.Weighted>
4.7212

> <Gold.Chemscore.Internal.Correction.Weighted>
   9.000000E+99

> <Gold.Protein.RotatedTorsions>
[ 6907 6896 6895 6894 ] final -121.18 input  -60.11 | X-H torsion
[ 7974 7965 7964 7962 ] final -157.79 input  175.53 | X-H torsion
[ 8008 7997 7996 7995 ] final  143.26 input   59.86 | X-H torsion
[ 10167 10162 10161 10158 ] final  134.66 input  -65.29 | X-H torsion
[ 10718 10713 10712 10709 ] final -168.02 input   66.30 | X-H torsion
[ 10763 10752 10751 10750 ] final  179.67 input  -60.55 | X-H torsion
[ 11005 11000 10999 10996 ] final  -88.31 input  -57.11 | X-H torsion

> <Gold.Protein.ActiveResidues>
 VAL166  LYS551  ARG553  GLY616  TRP617  ASP618  TYR619  PRO620  LYS621  CYS622 
 ASP623  PHE694  ASN695  SER759  ASP760  ASP761  ALA762  ILE779  LEU786  VAL792 
 PHE793  MET794  SER795  GLU796  ALA797  LYS798  CYS799  TRP800  GLU811  SER814 

> <Gold.Protein.RotatedAtoms>
  150.8460  133.7861  159.3042 H   0  0  0  0  0  0  0  0  0  0  0  0  # atno 6907 bound_to 6896
  151.5548  135.1065  159.9968 H   0  0  0  0  0  0  0  0  0  0  0  0  # atno 6908 bound_to 6896
  152.4514  133.7593  159.6794 H   0  0  0  0  0  0  0  0  0  0  0  0  # atno 6909 bound_to 6896
  144.7533  140.3920  143.6031 H   0  0  0  0  0  0  0  0  0  0  0  0  # atno 7974 bound_to 7965
  156.2934  140.2267  156.4861 H   0  0  0  0  0  0  0  0  0  0  0  0  # atno 8008 bound_to 7997
  154.7811  140.0460  157.1149 H   0  0  0  0  0  0  0  0  0  0  0  0  # atno 8009 bound_to 7997
  154.9758  140.3072  155.4971 H   0  0  0  0  0  0  0  0  0  0  0  0  # atno 8010 bound_to 7997
  139.5247  144.6556  151.5171 H   0  0  0  0  0  0  0  0  0  0  0  0  # atno 10167 bound_to 10162
  156.6908  130.9159  151.3069 H   0  0  0  0  0  0  0  0  0  0  0  0  # atno 10718 bound_to 10713
  154.5236  135.2795  155.1241 H   0  0  0  0  0  0  0  0  0  0  0  0  # atno 10763 bound_to 10752
  154.2788  135.6289  153.5342 H   0  0  0  0  0  0  0  0  0  0  0  0  # atno 10764 bound_to 10752
  152.9942  135.5646  154.5732 H   0  0  0  0  0  0  0  0  0  0  0  0  # atno 10765 bound_to 10752
  141.1603  133.7562  156.9433 H   0  0  0  0  0  0  0  0  0  0  0  0  # atno 11005 bound_to 11000
  145.6867  139.1630  143.2670 LP  0  0  0  0  0  0  0  0  0  0  0  0  # atno 17320 bound_to 7965
  146.1512  140.6923  142.9321 LP  0  0  0  0  0  0  0  0  0  0  0  0  # atno 17321 bound_to 7965
  140.6381  143.8944  150.6666 LP  0  0  0  0  0  0  0  0  0  0  0  0  # atno 17342 bound_to 10162
  140.2270  143.3765  152.1597 LP  0  0  0  0  0  0  0  0  0  0  0  0  # atno 17343 bound_to 10162
  157.7009  130.9332  150.0783 LP  0  0  0  0  0  0  0  0  0  0  0  0  # atno 17370 bound_to 10713
  156.1799  130.3649  149.9050 LP  0  0  0  0  0  0  0  0  0  0  0  0  # atno 17371 bound_to 10713
  140.1307  134.9358  157.2332 LP  0  0  0  0  0  0  0  0  0  0  0  0  # atno 17394 bound_to 11000
  140.2957  134.3189  155.7303 LP  0  0  0  0  0  0  0  0  0  0  0  0  # atno 17395 bound_to 11000

$$$$
