AV-unprocessed.smi:2777|AV-procd|sdf|10709|dock1
  -GOLD-   2272015143D 1   1.00000     0.00000
 Structure written by MMmdl.
 31 32  0  0  0  0  0  0  0  0  1 V2000
  154.6559  139.8145  161.0028 C   0  0  0  0  0  0  0  0  0  0  0  0
  153.7245  140.7352  160.3237 N   0  0  0  0  0  0  0  0  0  0  0  0
  153.2694  140.3937  159.0770 C   0  0  0  0  0  0  0  0  0  0  0  0
  153.5845  139.3706  158.4688 O   0  0  0  0  0  0  0  0  0  0  0  0
  152.3469  141.3730  158.4928 C   0  0  0  0  0  0  0  0  0  0  0  0
  151.9862  142.5142  159.1285 C   0  0  0  0  0  0  0  0  0  0  0  0
  151.1090  143.2690  158.3581 N   0  0  0  0  0  0  0  0  0  0  0  0
  150.9828  142.5169  157.2643 C   0  0  0  0  0  0  0  0  0  0  0  0
  151.6888  141.3677  157.2627 N   0  0  0  0  0  0  0  0  0  0  0  0
  151.7166  140.3838  156.1908 C   0  0  0  0  0  0  0  0  0  0  0  0
  150.3076  140.0283  155.6728 C   0  0  1  0  0  0  0  0  0  0  0  0
  149.9294  140.9158  154.6374 O   0  0  0  0  0  0  0  0  0  0  0  0
  150.2117  138.5798  155.1573 C   0  0  0  0  0  0  0  0  0  0  0  0
  150.3719  137.7218  156.1650 F   0  0  0  0  0  0  0  0  0  0  0  0
  149.0373  138.3598  154.5648 F   0  0  0  0  0  0  0  0  0  0  0  0
  151.1834  138.3596  154.2718 F   0  0  0  0  0  0  0  0  0  0  0  0
  152.5183  142.7740  160.4154 N   0  0  0  0  0  0  0  0  0  0  0  0
  152.1067  144.0195  161.0695 C   0  0  0  0  0  0  0  0  0  0  0  0
  153.3820  141.8872  161.0117 C   0  0  0  0  0  0  0  0  0  0  0  0
  153.8417  142.1138  162.1343 O   0  0  0  0  0  0  0  0  0  0  0  0
  154.9066  138.9150  160.4397 H   0  0  0  0  0  0  0  0  0  0  0  0
  154.2333  139.4772  161.9506 H   0  0  0  0  0  0  0  0  0  0  0  0
  155.5999  140.3181  161.2173 H   0  0  0  0  0  0  0  0  0  0  0  0
  150.3562  142.8115  156.4352 H   0  0  0  0  0  0  0  0  0  0  0  0
  152.3533  140.7429  155.3836 H   0  0  0  0  0  0  0  0  0  0  0  0
  152.2034  139.4862  156.5738 H   0  0  0  0  0  0  0  0  0  0  0  0
  149.5914  140.1571  156.4855 H   0  0  0  0  0  0  0  0  0  0  0  0
  149.2258  141.4624  154.9516 H   0  0  0  0  0  0  0  0  0  0  0  0
  152.5352  144.1721  162.0604 H   0  0  0  0  0  0  0  0  0  0  0  0
  151.0219  144.0401  161.1799 H   0  0  0  0  0  0  0  0  0  0  0  0
  152.3962  144.8736  160.4563 H   0  0  0  0  0  0  0  0  0  0  0  0
  1  2  1  0  0  0  0
  1 21  1  0  0  0  0
  1 22  1  0  0  0  0
  1 23  1  0  0  0  0
  2 19  1  0  0  0  0
  2  3  1  0  0  0  0
  3  4  2  0  0  0  0
  3  5  1  0  0  0  0
  5  9  1  0  0  0  0
  5  6  2  0  0  0  0
  6  7  1  0  0  0  0
  6 17  1  0  0  0  0
  7  8  2  0  0  0  0
  8  9  1  0  0  0  0
  8 24  1  0  0  0  0
  9 10  1  0  0  0  0
 10 11  1  0  0  0  0
 10 25  1  0  0  0  0
 10 26  1  0  0  0  0
 11 12  1  0  0  0  0
 11 13  1  0  0  0  0
 11 27  1  0  0  0  0
 12 28  1  0  0  0  0
 13 14  1  0  0  0  0
 13 15  1  0  0  0  0
 13 16  1  0  0  0  0
 17 18  1  0  0  0  0
 17 19  1  0  0  0  0
 18 29  1  0  0  0  0
 18 30  1  0  0  0  0
 18 31  1  0  0  0  0
 19 20  2  0  0  0  0
M  END
> <s_m_source_file>
AV-unprocessed.smi

> <i_m_source_file_index>
2777

> <i_lp_mmshare_version>
43012

> <i_f3d_flags>
0

> <s_epik_input>
Tz1jMW4oW0NIM10pYyg9TyluKFtDSDNdKWMoYzEyKW5bY0hdbjJbQ0gyXVtDQEhdKFtPSF0pQyhGKShGKUY=

> <s_epik_cmdline>
J2VwaWtfcHl0aG9uJywgJy1waCcsICc3LjAnLCAnLXRuJywgJzgnLCAnLW1hJywgJzIwMCcsICctbWV0YWxfYmluZGluZycsICctaW1hZScsICc8aW5maWxlLm1hZT4nLCAnLW9tYWUnLCAnPG91dGZpbGUubWFlPic=

> <r_epik_Ionization_Penalty>
0.000551612

> <r_epik_Ionization_Penalty_Charging>
2.619e-09

> <r_epik_Ionization_Penalty_Neutral>
0.00055161

> <r_epik_State_Penalty>
0.000345115

> <r_epik_Charging_Adjusted_Penalty>
0.000345118

> <i_epik_Tot_Q>
0

> <i_epik_Tot_abs_Q>
0

> <r_epik_Metal_State_Penalty>
-0

> <b_epik_Metal_Only>
0

> <s_lp_Force_Field>
OPLS_2005

> <r_lp_Energy>
33.5503

> <b_lp_Chiralities_Consistent>
1

> <s_lp_Variant>
AV-unprocessed.smi:2777-2

> <Gold.Version>
5.8.1

> <Gold.Id.Protein>
6NUR|6NUR_protein|mol2

> <Gold.PLP.Fitness>
47.1527

> <Gold.PLP.PLP>
-40.4022

> <Gold.PLP.part.hbond>
-2.7582

> <Gold.PLP.part.metal>
0.0000

> <Gold.PLP.part.buried>
-5.7149

> <Gold.PLP.part.nonpolar>
-31.8609

> <Gold.PLP.part.repulsive>
0.1212

> <Gold.PLP.ligand.clash>
0.0000

> <Gold.PLP.ligand.torsion>
0.6249

> <Gold.PLP.Chemscore.Hbond>
1.6560

> <Gold.PLP.Chemscore.CHOScore>
1.0000

> <Gold.PLP.Chemscore.Metal>
0.0000

> <Gold.Chemscore.Hbonds>
donor molecule, donor type, donor heavy atom, donor atom, acceptor molecule, acceptor atom, score
      P1  H  7989  7998       L1    12  0.67
      P1  H  7997  8010       L1     4  1.00
      L1  C     8    24       P1  8028  1.00

> <Gold.PLP.Chemscore.Internal.Correction>
0.0324

> <Gold.Rescore>
     Score         DG    S(hbond)    S(metal)    S(lipo)     H(rot)  DE(clash)    DE(int)     intcor
     10.90     -11.57       1.91        0.00      45.65       2.20       0.02       0.66       ----

> <Gold.Chemscore.Fitness>
10.8970

> <Gold.Chemscore.DG>
-11.5726

> <Gold.Chemscore.ZeroCoef>
-5.4800

> <Gold.Chemscore.Hbond>
1.9088

> <Gold.Chemscore.Metal>
0.0000

> <Gold.Chemscore.Lipo>
45.6502

> <Gold.Chemscore.Internal_Hbond>
0.0000

> <Gold.Chemscore.DEClash>
0.0158

> <Gold.Chemscore.DEInternal>
0.6598

> <Gold.Chemscore.Rot>
2.1969

> <Gold.Chemscore.Internal.Correction>
   9.000000E+99

> <Gold.Chemscore.Hbonds>
donor molecule, donor type, donor heavy atom, donor atom, acceptor molecule, acceptor atom, score
      P1  H  7989  7998       L1    12  0.19
      P1  H  7997  8010       L1     4  0.38

> <Gold.Chemscore.Hbond.Weighted>
-6.3755

> <Gold.Chemscore.Metal.Weighted>
-0.0000

> <Gold.Chemscore.Lipo.Weighted>
-5.3411

> <Gold.Chemscore.Internal_Hbond.Weighted>
0.0000

> <Gold.Chemscore.DEClash.Weighted>
0.0158

> <Gold.Chemscore.DEInternal.Weighted>
0.6598

> <Gold.Chemscore.Rot.Weighted>
5.6239

> <Gold.Chemscore.Internal.Correction.Weighted>
   9.000000E+99

> <Gold.Protein.RotatedTorsions>
[ 6907 6896 6895 6894 ] final   86.59 input  -60.11 | X-H torsion
[ 7974 7965 7964 7962 ] final  -34.15 input  175.53 | X-H torsion
[ 8008 7997 7996 7995 ] final   45.36 input   59.86 | X-H torsion
[ 10167 10162 10161 10158 ] final  -97.25 input  -65.29 | X-H torsion
[ 10718 10713 10712 10709 ] final  -75.84 input   66.30 | X-H torsion
[ 10763 10752 10751 10750 ] final   49.78 input  -60.55 | X-H torsion
[ 11005 11000 10999 10996 ] final  -75.35 input  -57.11 | X-H torsion

> <Gold.Protein.ActiveResidues>
 VAL166  LYS551  ARG553  GLY616  TRP617  ASP618  TYR619  PRO620  LYS621  CYS622 
 ASP623  PHE694  ASN695  SER759  ASP760  ASP761  ALA762  ILE779  LEU786  VAL792 
 PHE793  MET794  SER795  GLU796  ALA797  LYS798  CYS799  TRP800  GLU811  SER814 

> <Gold.Protein.RotatedAtoms>
  152.5397  134.2407  159.8860 H   0  0  0  0  0  0  0  0  0  0  0  0  # atno 6907 bound_to 6896
  151.2375  133.4410  159.2613 H   0  0  0  0  0  0  0  0  0  0  0  0  # atno 6908 bound_to 6896
  151.0658  134.9780  159.8339 H   0  0  0  0  0  0  0  0  0  0  0  0  # atno 6909 bound_to 6896
  146.0853  140.6003  142.8889 H   0  0  0  0  0  0  0  0  0  0  0  0  # atno 7974 bound_to 7965
  155.3346  140.3404  155.4239 H   0  0  0  0  0  0  0  0  0  0  0  0  # atno 8008 bound_to 7997
  156.1844  140.1675  156.8250 H   0  0  0  0  0  0  0  0  0  0  0  0  # atno 8009 bound_to 7997
  154.5369  140.0733  156.8427 H   0  0  0  0  0  0  0  0  0  0  0  0  # atno 8010 bound_to 7997
  140.2854  143.3255  152.0400 H   0  0  0  0  0  0  0  0  0  0  0  0  # atno 10167 bound_to 10162
  156.0194  130.4450  150.3103 H   0  0  0  0  0  0  0  0  0  0  0  0  # atno 10718 bound_to 10713
  152.9786  135.5900  154.4145 H   0  0  0  0  0  0  0  0  0  0  0  0  # atno 10763 bound_to 10752
  154.3776  135.2767  155.2232 H   0  0  0  0  0  0  0  0  0  0  0  0  # atno 10764 bound_to 10752
  154.4160  135.6070  153.6035 H   0  0  0  0  0  0  0  0  0  0  0  0  # atno 10765 bound_to 10752
  141.1644  133.6943  156.7503 H   0  0  0  0  0  0  0  0  0  0  0  0  # atno 11005 bound_to 11000
  144.7321  140.4702  143.6930 LP  0  0  0  0  0  0  0  0  0  0  0  0  # atno 17320 bound_to 7965
  145.6142  139.1516  143.3059 LP  0  0  0  0  0  0  0  0  0  0  0  0  # atno 17321 bound_to 7965
  139.4951  144.6563  151.6566 LP  0  0  0  0  0  0  0  0  0  0  0  0  # atno 17342 bound_to 10162
  140.5777  144.0000  150.6251 LP  0  0  0  0  0  0  0  0  0  0  0  0  # atno 17343 bound_to 10162
  157.1205  131.0245  151.3011 LP  0  0  0  0  0  0  0  0  0  0  0  0  # atno 17370 bound_to 10713
  157.4632  130.7665  149.7255 LP  0  0  0  0  0  0  0  0  0  0  0  0  # atno 17371 bound_to 10713
  140.2609  134.8467  157.3757 LP  0  0  0  0  0  0  0  0  0  0  0  0  # atno 17394 bound_to 11000
  140.1612  134.4726  155.7893 LP  0  0  0  0  0  0  0  0  0  0  0  0  # atno 17395 bound_to 11000

$$$$
