AV-unprocessed.smi:3127|AV-procd|sdf|11914|dock2
  -GOLD-   2272017293D 1   1.00000     0.00000
 Structure written by MMmdl.
 34 35  0  0  0  0  0  0  0  0  2 V2000
  152.2183  145.2040  159.0164 C   0  0  0  0  0  0  0  0  0  0  0  0
  151.5295  144.0221  159.7322 C   0  0  0  0  0  0  0  0  0  0  0  0
  151.8776  144.1069  161.2315 C   0  0  0  0  0  0  0  0  0  0  0  0
  150.0075  144.1696  159.5382 C   0  0  0  0  0  0  0  0  0  0  0  0
  151.9951  142.6943  159.1687 C   0  0  0  0  0  0  0  0  0  0  0  0
  152.7463  141.7234  159.7912 C   0  0  0  0  0  0  0  0  0  0  0  0
  153.0540  140.3576  158.7546 S   0  0  0  0  0  0  0  0  0  0  0  0
  152.1238  141.1465  157.4899 C   0  0  0  0  0  0  0  0  0  0  0  0
  151.9350  140.5561  156.1296 C   0  0  2  0  0  0  0  0  0  0  0  0
  150.4697  140.1668  155.8569 C   0  0  0  0  0  0  0  0  0  0  0  0
  150.3595  139.5084  154.5407 N   0  3  0  0  0  0  0  0  0  0  0  0
  151.2770  138.3565  154.4333 C   0  0  0  0  0  0  0  0  0  0  0  0
  152.7168  138.7934  154.7566 C   0  0  0  0  0  0  0  0  0  0  0  0
  152.7588  139.3950  156.0465 O   0  0  0  0  0  0  0  0  0  0  0  0
  151.6617  142.3460  157.8530 N   0  0  0  0  0  0  0  0  0  0  0  0
  151.8869  146.1609  159.4214 H   0  0  0  0  0  0  0  0  0  0  0  0
  151.9959  145.2118  157.9485 H   0  0  0  0  0  0  0  0  0  0  0  0
  153.3024  145.1638  159.1303 H   0  0  0  0  0  0  0  0  0  0  0  0
  152.9511  144.0044  161.3949 H   0  0  0  0  0  0  0  0  0  0  0  0
  151.3819  143.3228  161.8050 H   0  0  0  0  0  0  0  0  0  0  0  0
  151.5700  145.0623  161.6577 H   0  0  0  0  0  0  0  0  0  0  0  0
  149.6492  145.1270  159.9181 H   0  0  0  0  0  0  0  0  0  0  0  0
  149.4570  143.3877  160.0625 H   0  0  0  0  0  0  0  0  0  0  0  0
  149.7361  144.1118  158.4833 H   0  0  0  0  0  0  0  0  0  0  0  0
  153.1431  141.7256  160.7957 H   0  0  0  0  0  0  0  0  0  0  0  0
  152.2718  141.2888  155.3939 H   0  0  0  0  0  0  0  0  0  0  0  0
  150.1066  139.4843  156.6270 H   0  0  0  0  0  0  0  0  0  0  0  0
  149.8260  141.0466  155.8762 H   0  0  0  0  0  0  0  0  0  0  0  0
  149.4093  139.1954  154.3998 H   0  0  0  0  0  0  0  0  0  0  0  0
  150.9563  137.5766  155.1254 H   0  0  0  0  0  0  0  0  0  0  0  0
  151.2182  137.9391  153.4280 H   0  0  0  0  0  0  0  0  0  0  0  0
  153.3833  137.9309  154.7469 H   0  0  0  0  0  0  0  0  0  0  0  0
  153.0898  139.4922  154.0060 H   0  0  0  0  0  0  0  0  0  0  0  0
  150.5955  140.1785  153.8227 H   0  0  0  0  0  0  0  0  0  0  0  0
  1  2  1  0  0  0  0
  1 16  1  0  0  0  0
  1 17  1  0  0  0  0
  1 18  1  0  0  0  0
  2  3  1  0  0  0  0
  2  4  1  0  0  0  0
  2  5  1  0  0  0  0
  3 19  1  0  0  0  0
  3 20  1  0  0  0  0
  3 21  1  0  0  0  0
  4 22  1  0  0  0  0
  4 23  1  0  0  0  0
  4 24  1  0  0  0  0
  5 15  1  0  0  0  0
  5  6  2  0  0  0  0
  6  7  1  0  0  0  0
  6 25  1  0  0  0  0
  7  8  1  0  0  0  0
  8  9  1  0  0  0  0
  8 15  2  0  0  0  0
  9 14  1  0  0  0  0
  9 10  1  0  0  0  0
  9 26  1  0  0  0  0
 10 11  1  0  0  0  0
 10 27  1  0  0  0  0
 10 28  1  0  0  0  0
 11 12  1  0  0  0  0
 11 29  1  0  0  0  0
 11 34  1  0  0  0  0
 12 13  1  0  0  0  0
 12 30  1  0  0  0  0
 12 31  1  0  0  0  0
 13 14  1  0  0  0  0
 13 32  1  0  0  0  0
 13 33  1  0  0  0  0
M  CHG  1  11   1
M  END
> <s_m_source_file>
AV-unprocessed.smi

> <i_m_source_file_index>
3127

> <i_lp_mmshare_version>
43012

> <i_f3d_flags>
0

> <s_epik_input>
W0NIM11DKFtDSDNdKShbQ0gzXSljMVtjSF1zYyhuMSlbQ0BASF0yW0NIMl1bTkhdW0NIMl1bQ0gyXU8y

> <s_epik_cmdline>
J2VwaWtfcHl0aG9uJywgJy1waCcsICc3LjAnLCAnLXRuJywgJzgnLCAnLW1hJywgJzIwMCcsICctbWV0YWxfYmluZGluZycsICctaW1hZScsICc8aW5maWxlLm1hZT4nLCAnLW9tYWUnLCAnPG91dGZpbGUubWFlPic=

> <r_epik_Ionization_Penalty>
0.125708

> <r_epik_Ionization_Penalty_Charging>
0.125708

> <r_epik_Ionization_Penalty_Neutral>
5.37588e-07

> <r_epik_State_Penalty>
0.0155352

> <r_epik_Charging_Adjusted_Penalty>
0.141243

> <i_epik_Tot_Q>
1

> <i_epik_Tot_abs_Q>
1

> <r_epik_Metal_State_Penalty>
0.0155796

> <b_epik_Metal_Only>
0

> <s_lp_Force_Field>
OPLS_2005

> <r_lp_Energy>
5.69116

> <b_lp_Chiralities_Consistent>
1

> <s_lp_Variant>
AV-unprocessed.smi:3127-1

> <Gold.Version>
5.8.1

> <Gold.Id.Protein>
6NUR|6NUR_protein|mol2

> <Gold.PLP.Fitness>
36.8784

> <Gold.PLP.PLP>
-34.4345

> <Gold.PLP.part.hbond>
-1.0000

> <Gold.PLP.part.metal>
0.0000

> <Gold.PLP.part.buried>
-5.4060

> <Gold.PLP.part.nonpolar>
-27.6397

> <Gold.PLP.part.repulsive>
0.1402

> <Gold.PLP.ligand.clash>
0.0000

> <Gold.PLP.ligand.torsion>
0.2842

> <Gold.PLP.Chemscore.Hbond>
1.0000

> <Gold.PLP.Chemscore.CHOScore>
0.0000

> <Gold.PLP.Chemscore.Metal>
0.0000

> <Gold.Chemscore.Hbonds>
donor molecule, donor type, donor heavy atom, donor atom, acceptor molecule, acceptor atom, score
      P1  H  7997  8010       L1    14  1.00

> <Gold.PLP.Chemscore.Internal.Correction>
0.0123

> <Gold.Rescore>
     Score         DG    S(hbond)    S(metal)    S(lipo)     H(rot)  DE(clash)    DE(int)     intcor
     17.38     -18.07       0.84        0.00     108.69       1.14       0.14       0.55       ----

> <Gold.Chemscore.Fitness>
17.3839

> <Gold.Chemscore.DG>
-18.0725

> <Gold.Chemscore.ZeroCoef>
-5.4800

> <Gold.Chemscore.Hbond>
0.8361

> <Gold.Chemscore.Metal>
0.0000

> <Gold.Chemscore.Lipo>
108.6906

> <Gold.Chemscore.Internal_Hbond>
0.0000

> <Gold.Chemscore.DEClash>
0.1421

> <Gold.Chemscore.DEInternal>
0.5465

> <Gold.Chemscore.Rot>
1.1393

> <Gold.Chemscore.Internal.Correction>
   9.000000E+99

> <Gold.Chemscore.Hbonds>
donor molecule, donor type, donor heavy atom, donor atom, acceptor molecule, acceptor atom, score
      P1  H  7997  8010       L1    14  0.21

> <Gold.Chemscore.Hbond.Weighted>
-2.7924

> <Gold.Chemscore.Metal.Weighted>
-0.0000

> <Gold.Chemscore.Lipo.Weighted>
-12.7168

> <Gold.Chemscore.Internal_Hbond.Weighted>
0.0000

> <Gold.Chemscore.DEClash.Weighted>
0.1421

> <Gold.Chemscore.DEInternal.Weighted>
0.5465

> <Gold.Chemscore.Rot.Weighted>
2.9167

> <Gold.Chemscore.Internal.Correction.Weighted>
   9.000000E+99

> <Gold.Protein.RotatedTorsions>
[ 6907 6896 6895 6894 ] final  -27.41 input  -60.11 | X-H torsion
[ 7974 7965 7964 7962 ] final  -71.28 input  175.53 | X-H torsion
[ 8008 7997 7996 7995 ] final   72.12 input   59.86 | X-H torsion
[ 10167 10162 10161 10158 ] final  -93.80 input  -65.29 | X-H torsion
[ 10718 10713 10712 10709 ] final -112.52 input   66.30 | X-H torsion
[ 10763 10752 10751 10750 ] final -110.56 input  -60.55 | X-H torsion
[ 11005 11000 10999 10996 ] final  -20.22 input  -57.11 | X-H torsion

> <Gold.Protein.ActiveResidues>
 VAL166  LYS551  ARG553  GLY616  TRP617  ASP618  TYR619  PRO620  LYS621  CYS622 
 ASP623  PHE694  ASN695  SER759  ASP760  ASP761  ALA762  ILE779  LEU786  VAL792 
 PHE793  MET794  SER795  GLU796  ALA797  LYS798  CYS799  TRP800  GLU811  SER814 

> <Gold.Protein.RotatedAtoms>
  151.1473  135.0209  159.8652 H   0  0  0  0  0  0  0  0  0  0  0  0  # atno 6907 bound_to 6896
  152.5453  134.1430  159.8497 H   0  0  0  0  0  0  0  0  0  0  0  0  # atno 6908 bound_to 6896
  151.1511  133.4861  159.2628 H   0  0  0  0  0  0  0  0  0  0  0  0  # atno 6909 bound_to 6896
  145.6801  140.9191  143.0837 H   0  0  0  0  0  0  0  0  0  0  0  0  # atno 7974 bound_to 7965
  155.7641  140.3486  155.5213 H   0  0  0  0  0  0  0  0  0  0  0  0  # atno 8008 bound_to 7997
  155.8886  140.1014  157.1456 H   0  0  0  0  0  0  0  0  0  0  0  0  # atno 8009 bound_to 7997
  154.4031  140.1308  156.4274 H   0  0  0  0  0  0  0  0  0  0  0  0  # atno 8010 bound_to 7997
  140.3209  143.3049  152.0047 H   0  0  0  0  0  0  0  0  0  0  0  0  # atno 10167 bound_to 10162
  156.0711  130.5924  150.8519 H   0  0  0  0  0  0  0  0  0  0  0  0  # atno 10718 bound_to 10713
  154.8254  135.4560  154.0903 H   0  0  0  0  0  0  0  0  0  0  0  0  # atno 10763 bound_to 10752
  153.2222  135.6895  153.7993 H   0  0  0  0  0  0  0  0  0  0  0  0  # atno 10764 bound_to 10752
  153.7406  135.3313  155.3280 H   0  0  0  0  0  0  0  0  0  0  0  0  # atno 10765 bound_to 10752
  140.8443  133.7903  155.9895 H   0  0  0  0  0  0  0  0  0  0  0  0  # atno 11005 bound_to 11000
  144.7029  139.8685  143.7439 LP  0  0  0  0  0  0  0  0  0  0  0  0  # atno 17320 bound_to 7965
  146.0972  139.3965  143.0369 LP  0  0  0  0  0  0  0  0  0  0  0  0  # atno 17321 bound_to 7965
  139.4874  144.6311  151.7067 LP  0  0  0  0  0  0  0  0  0  0  0  0  # atno 17342 bound_to 10162
  140.5484  144.0465  150.6116 LP  0  0  0  0  0  0  0  0  0  0  0  0  # atno 17343 bound_to 10162
  157.5781  131.0946  150.9313 LP  0  0  0  0  0  0  0  0  0  0  0  0  # atno 17370 bound_to 10713
  156.9515  130.5421  149.5282 LP  0  0  0  0  0  0  0  0  0  0  0  0  # atno 17371 bound_to 10713
  140.8860  134.2553  157.5119 LP  0  0  0  0  0  0  0  0  0  0  0  0  # atno 17394 bound_to 11000
  139.8703  134.9638  156.4475 LP  0  0  0  0  0  0  0  0  0  0  0  0  # atno 17395 bound_to 11000

$$$$
