AV-unprocessed.smi:251|AV-procd|sdf|1934|dock3
  -GOLD-   2262021 53D 1   1.00000     0.00000
 Structure written by MMmdl.
 50 54  0  0  0  0  0  0  0  0  1 V2000
  151.3926  136.6383  154.2263 O   0  0  0  0  0  0  0  0  0  0  0  0
  150.1159  136.7222  154.8279 C   0  0  0  0  0  0  0  0  0  0  0  0
  149.7960  135.4806  155.7093 C   0  0  0  0  0  0  0  0  0  0  0  0
  150.7255  135.4303  156.9586 C   0  0  0  0  0  0  0  0  0  0  0  0
  150.9784  136.7197  157.5869 N   0  0  0  0  0  0  0  0  0  0  0  0
  150.0401  137.5717  158.1217 C   0  0  0  0  0  0  0  0  0  0  0  0
  150.5164  138.6739  158.6307 N   0  0  0  0  0  0  0  0  0  0  0  0
  151.8928  138.5707  158.4578 C   0  0  0  0  0  0  0  0  0  0  0  0
  153.0094  139.4008  158.7782 C   0  0  0  0  0  0  0  0  0  0  0  0
  152.9236  140.6119  159.3895 N   0  0  0  0  0  0  0  0  0  0  0  0
  154.1037  141.3284  159.8635 C   0  0  0  0  0  0  0  0  0  0  0  0
  153.6120  142.7039  160.2426 C   0  0  2  0  0  0  0  0  0  0  0  0
  152.5003  142.8998  161.2538 C   0  0  0  0  0  0  0  0  0  0  0  0
  152.1971  142.8371  159.7711 C   0  0  1  0  0  0  0  0  0  0  0  0
  151.6714  144.0637  159.0361 C   0  0  0  0  0  0  0  0  0  0  0  0
  150.3472  143.9911  158.9006 F   0  0  0  0  0  0  0  0  0  0  0  0
  151.9786  145.1637  159.7231 F   0  0  0  0  0  0  0  0  0  0  0  0
  152.2110  144.1588  157.8206 F   0  0  0  0  0  0  0  0  0  0  0  0
  151.8115  141.5234  159.1213 C   0  0  0  0  0  0  0  0  0  0  0  0
  154.2412  138.9422  158.4303 N   0  0  0  0  0  0  0  0  0  0  0  0
  154.3827  137.7592  157.8271 C   0  0  0  0  0  0  0  0  0  0  0  0
  153.4392  136.8857  157.4754 N   0  0  0  0  0  0  0  0  0  0  0  0
  152.1972  137.3391  157.8072 C   0  0  0  0  0  0  0  0  0  0  0  0
  148.3251  135.4997  156.1963 C   0  0  0  0  0  0  0  0  0  0  0  0
  147.3125  135.2573  155.0625 C   0  0  0  0  0  0  0  0  0  0  0  0
  147.5972  134.0240  154.4153 O   0  0  0  0  0  0  0  0  0  0  0  0
  148.8804  134.0053  153.8042 C   0  0  0  0  0  0  0  0  0  0  0  0
  149.9768  134.1910  154.8696 C   0  0  0  0  0  0  0  0  0  0  0  0
  151.5168  137.3987  153.6788 H   0  0  0  0  0  0  0  0  0  0  0  0
  150.0877  137.6442  155.4057 H   0  0  0  0  0  0  0  0  0  0  0  0
  149.3710  136.8434  154.0414 H   0  0  0  0  0  0  0  0  0  0  0  0
  150.3057  134.7667  157.7158 H   0  0  0  0  0  0  0  0  0  0  0  0
  151.6895  134.9941  156.6936 H   0  0  0  0  0  0  0  0  0  0  0  0
  148.9822  137.3523  158.1151 H   0  0  0  0  0  0  0  0  0  0  0  0
  154.5478  140.8398  160.7310 H   0  0  0  0  0  0  0  0  0  0  0  0
  154.8498  141.4072  159.0719 H   0  0  0  0  0  0  0  0  0  0  0  0
  154.3013  143.5321  160.0903 H   0  0  0  0  0  0  0  0  0  0  0  0
  152.2143  142.0473  161.8668 H   0  0  0  0  0  0  0  0  0  0  0  0
  152.4430  143.8655  161.7516 H   0  0  0  0  0  0  0  0  0  0  0  0
  151.6779  141.6535  158.0470 H   0  0  0  0  0  0  0  0  0  0  0  0
  150.8809  141.1505  159.5504 H   0  0  0  0  0  0  0  0  0  0  0  0
  155.3970  137.4724  157.5920 H   0  0  0  0  0  0  0  0  0  0  0  0
  148.1825  134.7181  156.9440 H   0  0  0  0  0  0  0  0  0  0  0  0
  148.0970  136.4380  156.7023 H   0  0  0  0  0  0  0  0  0  0  0  0
  146.3040  135.2080  155.4730 H   0  0  0  0  0  0  0  0  0  0  0  0
  147.3133  136.0740  154.3403 H   0  0  0  0  0  0  0  0  0  0  0  0
  149.0115  133.0453  153.3046 H   0  0  0  0  0  0  0  0  0  0  0  0
  148.9399  134.7682  153.0275 H   0  0  0  0  0  0  0  0  0  0  0  0
  150.9552  134.1785  154.3882 H   0  0  0  0  0  0  0  0  0  0  0  0
  149.9523  133.3231  155.5298 H   0  0  0  0  0  0  0  0  0  0  0  0
  1  2  1  0  0  0  0
  1 29  1  0  0  0  0
  2  3  1  0  0  0  0
  2 30  1  0  0  0  0
  2 31  1  0  0  0  0
  3 28  1  0  0  0  0
  3  4  1  0  0  0  0
  3 24  1  0  0  0  0
  4  5  1  0  0  0  0
  4 32  1  0  0  0  0
  4 33  1  0  0  0  0
  5 23  1  0  0  0  0
  5  6  1  0  0  0  0
  6  7  2  0  0  0  0
  6 34  1  0  0  0  0
  7  8  1  0  0  0  0
  8 23  2  0  0  0  0
  8  9  1  0  0  0  0
  9 10  1  0  0  0  0
  9 20  2  0  0  0  0
 10 19  1  0  0  0  0
 10 11  1  0  0  0  0
 11 12  1  0  0  0  0
 11 35  1  0  0  0  0
 11 36  1  0  0  0  0
 12 14  1  0  0  0  0
 12 13  1  0  0  0  0
 12 37  1  0  0  0  0
 13 14  1  0  0  0  0
 13 38  1  0  0  0  0
 13 39  1  0  0  0  0
 14 15  1  0  0  0  0
 14 19  1  0  0  0  0
 15 16  1  0  0  0  0
 15 17  1  0  0  0  0
 15 18  1  0  0  0  0
 19 40  1  0  0  0  0
 19 41  1  0  0  0  0
 20 21  1  0  0  0  0
 21 22  2  0  0  0  0
 21 42  1  0  0  0  0
 22 23  1  0  0  0  0
 24 25  1  0  0  0  0
 24 43  1  0  0  0  0
 24 44  1  0  0  0  0
 25 26  1  0  0  0  0
 25 45  1  0  0  0  0
 25 46  1  0  0  0  0
 26 27  1  0  0  0  0
 27 28  1  0  0  0  0
 27 47  1  0  0  0  0
 27 48  1  0  0  0  0
 28 49  1  0  0  0  0
 28 50  1  0  0  0  0
M  END
> <s_m_source_file>
AV-unprocessed.smi

> <i_m_source_file_index>
251

> <i_lp_mmshare_version>
43012

> <i_f3d_flags>
0

> <s_epik_input>
W0NIMl0xW0NIMl1PW0NIMl1bQ0gyXUMxKFtDSDJdW09IXSlbQ0gyXW4oW2NIXW4yKWMoYzIzKW5bY0hdbmMzTihbQ0gyXTQpW0NIMl1bQ0BIXShbQ0gyXTUpW0NAQF00NUMoRikoRilG

> <s_epik_cmdline>
J2VwaWtfcHl0aG9uJywgJy1waCcsICc3LjAnLCAnLXRuJywgJzgnLCAnLW1hJywgJzIwMCcsICctbWV0YWxfYmluZGluZycsICctaW1hZScsICc8aW5maWxlLm1hZT4nLCAnLW9tYWUnLCAnPG91dGZpbGUubWFlPic=

> <r_lp_tautomer_probability>
1

> <r_epik_Ionization_Penalty>
0.00226625

> <r_epik_Ionization_Penalty_Charging>
0

> <r_epik_Ionization_Penalty_Neutral>
0.00226625

> <r_epik_State_Penalty>
0.00138204

> <r_epik_Charging_Adjusted_Penalty>
0.00138204

> <i_epik_Tot_Q>
0

> <i_epik_Tot_abs_Q>
0

> <r_epik_Metal_State_Penalty>
-0

> <b_epik_Metal_Only>
0

> <s_lp_Force_Field>
OPLS_2005

> <r_lp_Energy>
66.9783

> <b_lp_Chiralities_Consistent>
1

> <s_lp_Variant>
AV-unprocessed.smi:251-1

> <Gold.Version>
5.8.1

> <Gold.Id.Protein>
6NUR|6NUR_protein|mol2

> <Gold.PLP.Fitness>
53.4054

> <Gold.PLP.PLP>
-48.8253

> <Gold.PLP.part.hbond>
-3.0000

> <Gold.PLP.part.metal>
0.0000

> <Gold.PLP.part.buried>
-4.2390

> <Gold.PLP.part.nonpolar>
-40.8195

> <Gold.PLP.part.repulsive>
0.0621

> <Gold.PLP.ligand.clash>
0.0000

> <Gold.PLP.ligand.torsion>
1.4933

> <Gold.PLP.Chemscore.Hbond>
1.9280

> <Gold.PLP.Chemscore.CHOScore>
0.0000

> <Gold.PLP.Chemscore.Metal>
0.0000

> <Gold.Chemscore.Hbonds>
donor molecule, donor type, donor heavy atom, donor atom, acceptor molecule, acceptor atom, score
      P1  H  7997  8009       L1    20  0.95
      P1  H 10752 10765       L1     1  0.96

> <Gold.PLP.Chemscore.Internal.Correction>
1.7827

> <Gold.Rescore>
     Score         DG    S(hbond)    S(metal)    S(lipo)     H(rot)  DE(clash)    DE(int)     intcor
     10.20     -13.01       0.61        0.00      95.75       2.23       1.25       1.57       ----

> <Gold.Chemscore.Fitness>
10.1962

> <Gold.Chemscore.DG>
-13.0149

> <Gold.Chemscore.ZeroCoef>
-5.4800

> <Gold.Chemscore.Hbond>
0.6144

> <Gold.Chemscore.Metal>
0.0000

> <Gold.Chemscore.Lipo>
95.7510

> <Gold.Chemscore.Internal_Hbond>
0.0000

> <Gold.Chemscore.DEClash>
1.2479

> <Gold.Chemscore.DEInternal>
1.5708

> <Gold.Chemscore.Rot>
2.2344

> <Gold.Chemscore.Internal.Correction>
   9.000000E+99

> <Gold.Chemscore.Hbonds>
donor molecule, donor type, donor heavy atom, donor atom, acceptor molecule, acceptor atom, score
      P1  H  7997  8009       L1    20  0.07
      P1  H 10752 10765       L1     1  0.27

> <Gold.Chemscore.Hbond.Weighted>
-2.0521

> <Gold.Chemscore.Metal.Weighted>
-0.0000

> <Gold.Chemscore.Lipo.Weighted>
-11.2029

> <Gold.Chemscore.Internal_Hbond.Weighted>
0.0000

> <Gold.Chemscore.DEClash.Weighted>
1.2479

> <Gold.Chemscore.DEInternal.Weighted>
1.5708

> <Gold.Chemscore.Rot.Weighted>
5.7200

> <Gold.Chemscore.Internal.Correction.Weighted>
   9.000000E+99

> <Gold.Protein.RotatedTorsions>
[ 6907 6896 6895 6894 ] final -102.72 input  -60.11 | X-H torsion
[ 7974 7965 7964 7962 ] final -124.42 input  175.53 | X-H torsion
[ 8008 7997 7996 7995 ] final  152.55 input   59.86 | X-H torsion
[ 10167 10162 10161 10158 ] final  -32.81 input  -65.29 | X-H torsion
[ 10718 10713 10712 10709 ] final  -82.09 input   66.30 | X-H torsion
[ 10763 10752 10751 10750 ] final  139.23 input  -60.55 | X-H torsion
[ 11005 11000 10999 10996 ] final  -50.42 input  -57.11 | X-H torsion

> <Gold.Protein.ActiveResidues>
 VAL166  LYS551  ARG553  GLY616  TRP617  ASP618  TYR619  PRO620  LYS621  CYS622 
 ASP623  PHE694  ASN695  SER759  ASP760  ASP761  ALA762  ILE779  LEU786  VAL792 
 PHE793  MET794  SER795  GLU796  ALA797  LYS798  CYS799  TRP800  GLU811  SER814 

> <Gold.Protein.RotatedAtoms>
  150.7208  134.0539  159.3807 H   0  0  0  0  0  0  0  0  0  0  0  0  # atno 6907 bound_to 6896
  151.8517  135.0553  160.0469 H   0  0  0  0  0  0  0  0  0  0  0  0  # atno 6908 bound_to 6896
  152.2785  133.5413  159.5520 H   0  0  0  0  0  0  0  0  0  0  0  0  # atno 6909 bound_to 6896
  145.0082  140.7882  143.4454 H   0  0  0  0  0  0  0  0  0  0  0  0  # atno 7974 bound_to 7965
  156.2623  140.2017  156.6352 H   0  0  0  0  0  0  0  0  0  0  0  0  # atno 8008 bound_to 7997
  154.6652  140.0556  157.0130 H   0  0  0  0  0  0  0  0  0  0  0  0  # atno 8009 bound_to 7997
  155.1217  140.3225  155.4498 H   0  0  0  0  0  0  0  0  0  0  0  0  # atno 8010 bound_to 7997
  140.7215  143.3666  151.1858 H   0  0  0  0  0  0  0  0  0  0  0  0  # atno 10167 bound_to 10162
  156.0039  130.4624  150.4052 H   0  0  0  0  0  0  0  0  0  0  0  0  # atno 10718 bound_to 10713
  153.9026  135.3020  155.3448 H   0  0  0  0  0  0  0  0  0  0  0  0  # atno 10763 bound_to 10752
  154.7663  135.4909  153.9563 H   0  0  0  0  0  0  0  0  0  0  0  0  # atno 10764 bound_to 10752
  153.1236  135.6788  153.9394 H   0  0  0  0  0  0  0  0  0  0  0  0  # atno 10765 bound_to 10752
  141.0815  133.6652  156.3728 H   0  0  0  0  0  0  0  0  0  0  0  0  # atno 11005 bound_to 11000
  145.2059  139.2228  143.5168 LP  0  0  0  0  0  0  0  0  0  0  0  0  # atno 17320 bound_to 7965
  146.3465  140.1887  142.8589 LP  0  0  0  0  0  0  0  0  0  0  0  0  # atno 17321 bound_to 7965
  139.7229  143.9194  152.2992 LP  0  0  0  0  0  0  0  0  0  0  0  0  # atno 17342 bound_to 10162
  139.8957  144.6940  150.8721 LP  0  0  0  0  0  0  0  0  0  0  0  0  # atno 17343 bound_to 10162
  157.2119  131.0462  151.2594 LP  0  0  0  0  0  0  0  0  0  0  0  0  # atno 17370 bound_to 10713
  157.3881  130.7267  149.6678 LP  0  0  0  0  0  0  0  0  0  0  0  0  # atno 17371 bound_to 10713
  140.5458  134.6076  157.5393 LP  0  0  0  0  0  0  0  0  0  0  0  0  # atno 17394 bound_to 11000
  139.9629  134.7422  156.0199 LP  0  0  0  0  0  0  0  0  0  0  0  0  # atno 17395 bound_to 11000

$$$$
