AV-unprocessed.smi:1889|AV-procd|sdf|7661|dock3
  -GOLD-   22720 9393D 1   1.00000     0.00000
 Structure written by MMmdl.
 35 36  0  0  0  0  0  0  0  0  2 V2000
  150.4007  142.7875  158.3149 C   0  0  0  0  0  0  0  0  0  0  0  0
  150.7752  141.4114  157.7540 C   0  0  0  0  0  0  0  0  0  0  0  0
  151.0821  141.4520  156.2503 C   0  0  0  0  0  0  0  0  0  0  0  0
  151.4470  140.1127  155.7026 C   0  0  0  0  0  0  0  0  0  0  0  0
  152.6574  139.8352  155.2107 N   0  0  0  0  0  0  0  0  0  0  0  0
  152.7440  138.5336  154.7383 N   0  0  0  0  0  0  0  0  0  0  0  0
  151.5992  137.8488  154.8707 C   0  0  0  0  0  0  0  0  0  0  0  0
  151.4707  136.5739  154.4677 N   0  5  0  0  0  0  0  0  0  0  0  0
  150.6300  135.7402  155.1217 C   0  0  0  0  0  0  0  0  0  0  0  0
  150.7851  135.2941  156.2608 O   0  0  0  0  0  0  0  0  0  0  0  0
  149.5397  135.4103  154.4142 N   0  0  0  0  0  0  0  0  0  0  0  0
  148.4510  134.5427  154.8559 C   0  0  0  0  0  0  0  0  0  0  0  0
  148.3064  133.2995  153.9577 C   0  0  2  0  0  0  0  0  0  0  0  0
  147.1125  132.4147  154.2613 C   0  0  0  0  0  0  0  0  0  0  0  0
  147.5104  131.1006  153.5954 C   0  0  0  0  0  0  0  0  0  0  0  0
  148.9344  131.0546  153.6350 O   0  0  0  0  0  0  0  0  0  0  0  0
  149.4492  132.2963  154.1055 C   0  0  0  0  0  0  0  0  0  0  0  0
  150.2950  138.7926  155.5905 S   0  0  0  0  0  0  0  0  0  0  0  0
  150.1882  142.7266  159.3824 H   0  0  0  0  0  0  0  0  0  0  0  0
  149.5139  143.1857  157.8210 H   0  0  0  0  0  0  0  0  0  0  0  0
  151.2120  143.5028  158.1773 H   0  0  0  0  0  0  0  0  0  0  0  0
  151.6428  141.0287  158.2929 H   0  0  0  0  0  0  0  0  0  0  0  0
  149.9603  140.7115  157.9424 H   0  0  0  0  0  0  0  0  0  0  0  0
  150.2197  141.8322  155.7011 H   0  0  0  0  0  0  0  0  0  0  0  0
  151.9046  142.1407  156.0546 H   0  0  0  0  0  0  0  0  0  0  0  0
  149.4594  135.8006  153.4865 H   0  0  0  0  0  0  0  0  0  0  0  0
  148.6763  134.2278  155.8750 H   0  0  0  0  0  0  0  0  0  0  0  0
  147.5101  135.0929  154.9110 H   0  0  0  0  0  0  0  0  0  0  0  0
  148.2528  133.6114  152.9131 H   0  0  0  0  0  0  0  0  0  0  0  0
  147.0109  132.2708  155.3381 H   0  0  0  0  0  0  0  0  0  0  0  0
  146.1719  132.8141  153.8808 H   0  0  0  0  0  0  0  0  0  0  0  0
  147.0703  130.2352  154.0912 H   0  0  0  0  0  0  0  0  0  0  0  0
  147.1929  131.0908  152.5519 H   0  0  0  0  0  0  0  0  0  0  0  0
  150.3406  132.5928  153.5524 H   0  0  0  0  0  0  0  0  0  0  0  0
  149.7262  132.1783  155.1541 H   0  0  0  0  0  0  0  0  0  0  0  0
  1  2  1  0  0  0  0
  1 19  1  0  0  0  0
  1 20  1  0  0  0  0
  1 21  1  0  0  0  0
  2  3  1  0  0  0  0
  2 22  1  0  0  0  0
  2 23  1  0  0  0  0
  3  4  1  0  0  0  0
  3 24  1  0  0  0  0
  3 25  1  0  0  0  0
  4 18  1  0  0  0  0
  4  5  2  0  0  0  0
  5  6  1  0  0  0  0
  6  7  2  0  0  0  0
  7  8  1  0  0  0  0
  7 18  1  0  0  0  0
  8  9  1  0  0  0  0
  9 10  2  0  0  0  0
  9 11  1  0  0  0  0
 11 12  1  0  0  0  0
 11 26  1  0  0  0  0
 12 13  1  0  0  0  0
 12 27  1  0  0  0  0
 12 28  1  0  0  0  0
 13 17  1  0  0  0  0
 13 14  1  0  0  0  0
 13 29  1  0  0  0  0
 14 15  1  0  0  0  0
 14 30  1  0  0  0  0
 14 31  1  0  0  0  0
 15 16  1  0  0  0  0
 15 32  1  0  0  0  0
 15 33  1  0  0  0  0
 16 17  1  0  0  0  0
 17 34  1  0  0  0  0
 17 35  1  0  0  0  0
M  CHG  1   8  -1
M  END
> <s_m_source_file>
AV-unprocessed.smi

> <i_m_source_file_index>
1889

> <i_lp_mmshare_version>
43012

> <i_f3d_flags>
0

> <s_epik_input>
W0NIM11bQ0gyXVtDSDJdYzFubmMoczEpW05IXUMoPU8pW05IXVtDSDJdW0NAQEhdMltDSDJdW0NIMl1PW0NIMl0y

> <s_epik_cmdline>
J2VwaWtfcHl0aG9uJywgJy1waCcsICc3LjAnLCAnLXRuJywgJzgnLCAnLW1hJywgJzIwMCcsICctbWV0YWxfYmluZGluZycsICctaW1hZScsICc8aW5maWxlLm1hZT4nLCAnLW9tYWUnLCAnPG91dGZpbGUubWFlPic=

> <r_lp_tautomer_probability>
1

> <r_epik_Ionization_Penalty>
4.29669

> <r_epik_Ionization_Penalty_Charging>
4.28522

> <r_epik_Ionization_Penalty_Neutral>
0.0114689

> <r_epik_State_Penalty>
4.28479

> <r_epik_Charging_Adjusted_Penalty>
8.57002

> <i_epik_Tot_Q>
-1

> <i_epik_Tot_abs_Q>
1

> <r_epik_Metal_State_Penalty>
0.72177

> <b_epik_Metal_Only>
1

> <s_lp_Force_Field>
OPLS_2005

> <r_lp_Energy>
11.5011

> <b_lp_Chiralities_Consistent>
1

> <s_lp_Variant>
AV-unprocessed.smi:1889-3

> <Gold.Version>
5.8.1

> <Gold.Id.Protein>
6NUR|6NUR_protein|mol2

> <Gold.PLP.Fitness>
39.0236

> <Gold.PLP.PLP>
-28.7972

> <Gold.PLP.part.hbond>
-4.0000

> <Gold.PLP.part.metal>
0.0000

> <Gold.PLP.part.buried>
-4.4053

> <Gold.PLP.part.nonpolar>
-20.6582

> <Gold.PLP.part.repulsive>
1.0157

> <Gold.PLP.ligand.clash>
0.0000

> <Gold.PLP.ligand.torsion>
0.9458

> <Gold.PLP.Chemscore.Hbond>
4.0000

> <Gold.PLP.Chemscore.CHOScore>
0.0000

> <Gold.PLP.Chemscore.Metal>
0.0000

> <Gold.Chemscore.Hbonds>
donor molecule, donor type, donor heavy atom, donor atom, acceptor molecule, acceptor atom, score
      L1  H    11    26       P1  7948  1.00
      P1  H  7997  8008       L1     5  1.00
      P1  H 10752 10765       L1     8  2.00

> <Gold.PLP.Chemscore.Internal.Correction>
0.1181

> <Gold.Rescore>
     Score         DG    S(hbond)    S(metal)    S(lipo)     H(rot)  DE(clash)    DE(int)     intcor
     14.15     -15.22       2.37        0.00      50.34       1.59       0.17       0.90       ----

> <Gold.Chemscore.Fitness>
14.1496

> <Gold.Chemscore.DG>
-15.2190

> <Gold.Chemscore.ZeroCoef>
-5.4800

> <Gold.Chemscore.Hbond>
2.3730

> <Gold.Chemscore.Metal>
0.0000

> <Gold.Chemscore.Lipo>
50.3368

> <Gold.Chemscore.Internal_Hbond>
0.0000

> <Gold.Chemscore.DEClash>
0.1696

> <Gold.Chemscore.DEInternal>
0.8999

> <Gold.Chemscore.Rot>
1.5922

> <Gold.Chemscore.Internal.Correction>
   9.000000E+99

> <Gold.Chemscore.Hbonds>
donor molecule, donor type, donor heavy atom, donor atom, acceptor molecule, acceptor atom, score
      L1  H    11    26       P1  7948  0.35
      P1  H  7997  8008       L1     5  0.44
      P1  H 10752 10765       L1     8  0.61

> <Gold.Chemscore.Hbond.Weighted>
-7.9257

> <Gold.Chemscore.Metal.Weighted>
-0.0000

> <Gold.Chemscore.Lipo.Weighted>
-5.8894

> <Gold.Chemscore.Internal_Hbond.Weighted>
0.0000

> <Gold.Chemscore.DEClash.Weighted>
0.1696

> <Gold.Chemscore.DEInternal.Weighted>
0.8999

> <Gold.Chemscore.Rot.Weighted>
4.0761

> <Gold.Chemscore.Internal.Correction.Weighted>
   9.000000E+99

> <Gold.Protein.RotatedTorsions>
[ 6907 6896 6895 6894 ] final  140.65 input  -60.11 | X-H torsion
[ 7974 7965 7964 7962 ] final -168.06 input  175.53 | X-H torsion
[ 8008 7997 7996 7995 ] final  -20.13 input   59.86 | X-H torsion
[ 10167 10162 10161 10158 ] final  127.10 input  -65.29 | X-H torsion
[ 10718 10713 10712 10709 ] final  -31.50 input   66.30 | X-H torsion
[ 10763 10752 10751 10750 ] final  150.86 input  -60.55 | X-H torsion
[ 11005 11000 10999 10996 ] final  -21.60 input  -57.11 | X-H torsion

> <Gold.Protein.ActiveResidues>
 VAL166  LYS551  ARG553  GLY616  TRP617  ASP618  TYR619  PRO620  LYS621  CYS622 
 ASP623  PHE694  ASN695  SER759  ASP760  ASP761  ALA762  ILE779  LEU786  VAL792 
 PHE793  MET794  SER795  GLU796  ALA797  LYS798  CYS799  TRP800  GLU811  SER814 

> <Gold.Protein.RotatedAtoms>
  152.2404  133.5131  159.5266 H   0  0  0  0  0  0  0  0  0  0  0  0  # atno 6907 bound_to 6896
  150.7063  134.1096  159.4004 H   0  0  0  0  0  0  0  0  0  0  0  0  # atno 6908 bound_to 6896
  151.9017  135.0375  160.0557 H   0  0  0  0  0  0  0  0  0  0  0  0  # atno 6909 bound_to 6896
  144.7210  140.2427  143.6289 H   0  0  0  0  0  0  0  0  0  0  0  0  # atno 7974 bound_to 7965
  154.4790  140.2070  155.9808 H   0  0  0  0  0  0  0  0  0  0  0  0  # atno 8008 bound_to 7997
  156.1135  140.3225  155.8076 H   0  0  0  0  0  0  0  0  0  0  0  0  # atno 8009 bound_to 7997
  155.4593  140.0523  157.2983 H   0  0  0  0  0  0  0  0  0  0  0  0  # atno 8010 bound_to 7997
  139.5596  144.6872  151.4082 H   0  0  0  0  0  0  0  0  0  0  0  0  # atno 10167 bound_to 10162
  156.3866  130.4365  149.7427 H   0  0  0  0  0  0  0  0  0  0  0  0  # atno 10718 bound_to 10713
  154.0943  135.2850  155.3265 H   0  0  0  0  0  0  0  0  0  0  0  0  # atno 10763 bound_to 10752
  154.6598  135.5338  153.8007 H   0  0  0  0  0  0  0  0  0  0  0  0  # atno 10764 bound_to 10752
  153.0402  135.6531  154.1111 H   0  0  0  0  0  0  0  0  0  0  0  0  # atno 10765 bound_to 10752
  140.8576  133.7811  156.0038 H   0  0  0  0  0  0  0  0  0  0  0  0  # atno 11005 bound_to 11000
  145.8304  139.2083  143.1886 LP  0  0  0  0  0  0  0  0  0  0  0  0  # atno 17320 bound_to 7965
  146.0436  140.8141  142.9816 LP  0  0  0  0  0  0  0  0  0  0  0  0  # atno 17321 bound_to 7965
  140.6874  143.7942  150.7205 LP  0  0  0  0  0  0  0  0  0  0  0  0  # atno 17342 bound_to 10162
  140.1414  143.4438  152.2191 LP  0  0  0  0  0  0  0  0  0  0  0  0  # atno 17343 bound_to 10162
  156.4497  130.7901  151.2922 LP  0  0  0  0  0  0  0  0  0  0  0  0  # atno 17370 bound_to 10713
  157.7496  131.0099  150.3285 LP  0  0  0  0  0  0  0  0  0  0  0  0  # atno 17371 bound_to 10713
  140.8719  134.2716  157.5186 LP  0  0  0  0  0  0  0  0  0  0  0  0  # atno 17394 bound_to 11000
  139.8706  134.9571  156.4259 LP  0  0  0  0  0  0  0  0  0  0  0  0  # atno 17395 bound_to 11000

$$$$
