AV-unprocessed.smi:2482|AV-procd|sdf|9780|dock4
  -GOLD-   2272013423D 1   1.00000     0.00000
 Structure written by MMmdl.
 34 35  0  0  0  0  0  0  0  0  1 V2000
  153.0739  144.0229  163.1673 C   0  0  0  0  0  0  0  0  0  0  0  0
  153.3399  142.8450  162.2486 C   0  0  0  0  0  0  0  0  0  0  0  0
  154.2162  141.9277  162.7127 N   0  0  0  0  0  0  0  0  0  0  0  0
  154.4946  140.8639  161.9320 C   0  0  0  0  0  0  0  0  0  0  0  0
  153.9151  140.6595  160.6654 C   0  0  0  0  0  0  0  0  0  0  0  0
  152.9838  141.6102  160.1829 C   0  0  0  0  0  0  0  0  0  0  0  0
  152.3563  141.5140  158.9102 N   0  0  0  0  0  0  0  0  0  0  0  0
  152.4411  140.5303  157.9953 C   0  0  0  0  0  0  0  0  0  0  0  0
  153.1215  139.5130  158.1295 O   0  0  0  0  0  0  0  0  0  0  0  0
  151.6162  140.7411  156.7173 C   0  0  1  0  0  0  0  0  0  0  0  0
  151.5433  139.4758  155.8317 C   0  0  0  0  0  0  0  0  0  0  0  0
  150.7001  139.6815  154.6606 N   0  0  0  0  0  0  0  0  0  0  0  0
  150.6323  138.4873  153.8324 C   0  0  0  0  0  0  0  0  0  0  0  0
  149.3763  140.1203  155.0802 C   0  0  0  0  0  0  0  0  0  0  0  0
  149.4498  141.3800  155.9590 C   0  0  0  0  0  0  0  0  0  0  0  0
  150.2900  141.1290  157.0811 O   0  0  0  0  0  0  0  0  0  0  0  0
  152.7014  142.7367  160.9908 C   0  0  0  0  0  0  0  0  0  0  0  0
  151.5924  143.9550  160.4554 Cl  0  0  0  0  0  0  0  0  0  0  0  0
  152.0168  144.0679  163.4295 H   0  0  0  0  0  0  0  0  0  0  0  0
  153.3486  144.9569  162.6765 H   0  0  0  0  0  0  0  0  0  0  0  0
  153.6470  143.9475  164.0925 H   0  0  0  0  0  0  0  0  0  0  0  0
  155.2081  140.1555  162.3260 H   0  0  0  0  0  0  0  0  0  0  0  0
  154.2045  139.7937  160.0907 H   0  0  0  0  0  0  0  0  0  0  0  0
  151.6932  142.2467  158.7006 H   0  0  0  0  0  0  0  0  0  0  0  0
  152.0808  141.5540  156.1565 H   0  0  0  0  0  0  0  0  0  0  0  0
  152.5469  139.1952  155.5091 H   0  0  0  0  0  0  0  0  0  0  0  0
  151.1594  138.6396  156.4189 H   0  0  0  0  0  0  0  0  0  0  0  0
  150.0281  138.6679  152.9429 H   0  0  0  0  0  0  0  0  0  0  0  0
  150.1915  137.6526  154.3791 H   0  0  0  0  0  0  0  0  0  0  0  0
  151.6279  138.1891  153.5024 H   0  0  0  0  0  0  0  0  0  0  0  0
  148.7582  140.3230  154.2049 H   0  0  0  0  0  0  0  0  0  0  0  0
  148.8807  139.3223  155.6353 H   0  0  0  0  0  0  0  0  0  0  0  0
  149.8350  142.2274  155.3898 H   0  0  0  0  0  0  0  0  0  0  0  0
  148.4559  141.6553  156.3119 H   0  0  0  0  0  0  0  0  0  0  0  0
  1  2  1  0  0  0  0
  1 19  1  0  0  0  0
  1 20  1  0  0  0  0
  1 21  1  0  0  0  0
  2 17  1  0  0  0  0
  2  3  2  0  0  0  0
  3  4  1  0  0  0  0
  4  5  2  0  0  0  0
  4 22  1  0  0  0  0
  5  6  1  0  0  0  0
  5 23  1  0  0  0  0
  6  7  1  0  0  0  0
  6 17  2  0  0  0  0
  7  8  1  0  0  0  0
  7 24  1  0  0  0  0
  8  9  2  0  0  0  0
  8 10  1  0  0  0  0
 10 16  1  0  0  0  0
 10 11  1  0  0  0  0
 10 25  1  0  0  0  0
 11 12  1  0  0  0  0
 11 26  1  0  0  0  0
 11 27  1  0  0  0  0
 12 13  1  0  0  0  0
 12 14  1  0  0  0  0
 13 28  1  0  0  0  0
 13 29  1  0  0  0  0
 13 30  1  0  0  0  0
 14 15  1  0  0  0  0
 14 31  1  0  0  0  0
 14 32  1  0  0  0  0
 15 16  1  0  0  0  0
 15 33  1  0  0  0  0
 15 34  1  0  0  0  0
 17 18  1  0  0  0  0
M  END
> <s_m_source_file>
AV-unprocessed.smi

> <i_m_source_file_index>
2482

> <i_lp_mmshare_version>
43012

> <i_f3d_flags>
0

> <s_epik_input>
W0NIM11jMW5bY0hdW2NIXWMoYzFDbClbTkhdQyg9TylbQ0BASF0yW0NIMl1OKFtDSDNdKVtDSDJdW0NIMl1PMg==

> <s_epik_cmdline>
J2VwaWtfcHl0aG9uJywgJy1waCcsICc3LjAnLCAnLXRuJywgJzgnLCAnLW1hJywgJzIwMCcsICctbWV0YWxfYmluZGluZycsICctaW1hZScsICc8aW5maWxlLm1hZT4nLCAnLW9tYWUnLCAnPG91dGZpbGUubWFlPic=

> <r_epik_Ionization_Penalty>
0.52656

> <r_epik_Ionization_Penalty_Charging>
0

> <r_epik_Ionization_Penalty_Neutral>
0.52656

> <r_epik_State_Penalty>
0.534659

> <r_epik_Charging_Adjusted_Penalty>
0.534659

> <i_epik_Tot_Q>
0

> <i_epik_Tot_abs_Q>
0

> <r_epik_Metal_State_Penalty>
0.54077

> <b_epik_Metal_Only>
0

> <s_lp_Force_Field>
OPLS_2005

> <r_lp_Energy>
25.124

> <b_lp_Chiralities_Consistent>
1

> <s_lp_Variant>
AV-unprocessed.smi:2482-6

> <Gold.Version>
5.8.1

> <Gold.Id.Protein>
6NUR|6NUR_protein|mol2

> <Gold.PLP.Fitness>
42.6086

> <Gold.PLP.PLP>
-37.0787

> <Gold.PLP.part.hbond>
-3.0000

> <Gold.PLP.part.metal>
0.0000

> <Gold.PLP.part.buried>
-3.8191

> <Gold.PLP.part.nonpolar>
-28.6399

> <Gold.PLP.part.repulsive>
0.2447

> <Gold.PLP.ligand.clash>
0.0000

> <Gold.PLP.ligand.torsion>
0.2360

> <Gold.PLP.Chemscore.Hbond>
2.0000

> <Gold.PLP.Chemscore.CHOScore>
0.0000

> <Gold.PLP.Chemscore.Metal>
0.0000

> <Gold.Chemscore.Hbonds>
donor molecule, donor type, donor heavy atom, donor atom, acceptor molecule, acceptor atom, score
      P1  H  7989  7998       L1    12  1.00
      P1  H  7997  8009       L1     9  0.95

> <Gold.PLP.Chemscore.Internal.Correction>
0.0020

> <Gold.Rescore>
     Score         DG    S(hbond)    S(metal)    S(lipo)     H(rot)  DE(clash)    DE(int)     intcor
     15.57     -18.85       0.85        0.00     111.98       1.00       1.56       1.72       ----

> <Gold.Chemscore.Fitness>
15.5719

> <Gold.Chemscore.DG>
-18.8477

> <Gold.Chemscore.ZeroCoef>
-5.4800

> <Gold.Chemscore.Hbond>
0.8461

> <Gold.Chemscore.Metal>
0.0000

> <Gold.Chemscore.Lipo>
111.9809

> <Gold.Chemscore.Internal_Hbond>
0.0000

> <Gold.Chemscore.DEClash>
1.5585

> <Gold.Chemscore.DEInternal>
1.7173

> <Gold.Chemscore.Rot>
1.0000

> <Gold.Chemscore.Internal.Correction>
   9.000000E+99

> <Gold.Chemscore.Hbonds>
donor molecule, donor type, donor heavy atom, donor atom, acceptor molecule, acceptor atom, score
      P1  H  7989  7998       L1    12  0.14
      P1  H  7997  8009       L1     9  0.21

> <Gold.Chemscore.Hbond.Weighted>
-2.8259

> <Gold.Chemscore.Metal.Weighted>
-0.0000

> <Gold.Chemscore.Lipo.Weighted>
-13.1018

> <Gold.Chemscore.Internal_Hbond.Weighted>
0.0000

> <Gold.Chemscore.DEClash.Weighted>
1.5585

> <Gold.Chemscore.DEInternal.Weighted>
1.7173

> <Gold.Chemscore.Rot.Weighted>
2.5600

> <Gold.Chemscore.Internal.Correction.Weighted>
   9.000000E+99

> <Gold.Protein.RotatedTorsions>
[ 6907 6896 6895 6894 ] final  121.36 input  -60.11 | X-H torsion
[ 7974 7965 7964 7962 ] final   61.48 input  175.53 | X-H torsion
[ 8008 7997 7996 7995 ] final  151.15 input   59.86 | X-H torsion
[ 10167 10162 10161 10158 ] final  -45.70 input  -65.29 | X-H torsion
[ 10718 10713 10712 10709 ] final  -72.50 input   66.30 | X-H torsion
[ 10763 10752 10751 10750 ] final  -58.12 input  -60.55 | X-H torsion
[ 11005 11000 10999 10996 ] final  -91.53 input  -57.11 | X-H torsion

> <Gold.Protein.ActiveResidues>
 VAL166  LYS551  ARG553  GLY616  TRP617  ASP618  TYR619  PRO620  LYS621  CYS622 
 ASP623  PHE694  ASN695  SER759  ASP760  ASP761  ALA762  ILE779  LEU786  VAL792 
 PHE793  MET794  SER795  GLU796  ALA797  LYS798  CYS799  TRP800  GLU811  SER814 

> <Gold.Protein.RotatedAtoms>
  152.4328  133.7307  159.6585 H   0  0  0  0  0  0  0  0  0  0  0  0  # atno 6907 bound_to 6896
  150.8208  133.8245  159.3146 H   0  0  0  0  0  0  0  0  0  0  0  0  # atno 6908 bound_to 6896
  151.5928  135.1054  160.0094 H   0  0  0  0  0  0  0  0  0  0  0  0  # atno 6909 bound_to 6896
  145.8843  139.3465  143.0687 H   0  0  0  0  0  0  0  0  0  0  0  0  # atno 7974 bound_to 7965
  156.2686  140.2055  156.6131 H   0  0  0  0  0  0  0  0  0  0  0  0  # atno 8008 bound_to 7997
  154.6816  140.0539  157.0295 H   0  0  0  0  0  0  0  0  0  0  0  0  # atno 8009 bound_to 7997
  155.0993  140.3204  155.4554 H   0  0  0  0  0  0  0  0  0  0  0  0  # atno 8010 bound_to 7997
  140.6847  143.2866  151.3677 H   0  0  0  0  0  0  0  0  0  0  0  0  # atno 10167 bound_to 10162
  156.0318  130.4373  150.2602 H   0  0  0  0  0  0  0  0  0  0  0  0  # atno 10718 bound_to 10713
  154.2332  135.6357  153.5182 H   0  0  0  0  0  0  0  0  0  0  0  0  # atno 10763 bound_to 10752
  152.9945  135.5524  154.5990 H   0  0  0  0  0  0  0  0  0  0  0  0  # atno 10764 bound_to 10752
  154.5478  135.2899  155.1011 H   0  0  0  0  0  0  0  0  0  0  0  0  # atno 10765 bound_to 10752
  141.1543  133.7761  156.9891 H   0  0  0  0  0  0  0  0  0  0  0  0  # atno 11005 bound_to 11000
  145.8986  140.9258  143.0515 LP  0  0  0  0  0  0  0  0  0  0  0  0  # atno 17320 bound_to 7965
  144.6728  140.1001  143.7461 LP  0  0  0  0  0  0  0  0  0  0  0  0  # atno 17321 bound_to 7965
  139.6197  144.0932  152.2379 LP  0  0  0  0  0  0  0  0  0  0  0  0  # atno 17342 bound_to 10162
  140.0373  144.6035  150.7439 LP  0  0  0  0  0  0  0  0  0  0  0  0  # atno 17343 bound_to 10162
  157.0704  131.0115  151.3192 LP  0  0  0  0  0  0  0  0  0  0  0  0  # atno 17370 bound_to 10713
  157.5004  130.7876  149.7598 LP  0  0  0  0  0  0  0  0  0  0  0  0  # atno 17371 bound_to 10713
  140.1014  134.9533  157.1929 LP  0  0  0  0  0  0  0  0  0  0  0  0  # atno 17394 bound_to 11000
  140.3313  134.2807  155.7227 LP  0  0  0  0  0  0  0  0  0  0  0  0  # atno 17395 bound_to 11000

$$$$
