#       Name:                AV-unprocessed.smi:411
#       Creating user name   scv26
#       Creation time:       Thu Mar 26 22:45:54 2020


#       File generated by GOLD software.
#

@<TRIPOS>MOLECULE
AV-unprocessed.smi:411
    39    40     1
SMALL
NO_CHARGES


@<TRIPOS>ATOM
      1 ****        -0.3460   2.0037   2.5175 O.2            1 S1                 0.0000
      2 ****         0.1568   1.3911   1.5763 C.2            1 S1                 0.0000
      3 ****         1.6071   1.7055   1.1689 C.3            1 S1                 0.0000
      4 ****         2.0891   0.9793  -0.0212 N.am           1 S1                 0.0000
      5 ****         2.7882  -0.2192   0.2076 C.2            1 S1                 0.0000
      6 ****         3.2596  -0.9646  -0.8008 C.2            1 S1                 0.0000
      7 ****         3.0350  -0.5071  -2.1503 C.2            1 S1                 0.0000
      8 ****         2.3613   0.6391  -2.4023 C.2            1 S1                 0.0000
      9 ****         2.1147   1.1381  -3.8239 C.3            1 S1                 0.0000
     10 ****         0.8067   1.1976  -4.0766 F              1 S1                 0.0000
     11 ****         2.6270   2.3581  -3.9902 F              1 S1                 0.0000
     12 ****         2.6701   0.3360  -4.7335 F              1 S1                 0.0000
     13 ****         1.8427   1.4515  -1.2828 C.2            1 S1                 0.0000
     14 ****         1.2120   2.4946  -1.4616 O.2            1 S1                 0.0000
     15 ****        -0.5084   0.4509   0.8838 N.am           1 S1                 0.0000
     16 ****        -1.8841   0.0343   1.1270 C.3            1 S1                 0.0000
     17 ****        -1.9983  -0.9127   2.3392 C.3            1 S1                 0.0000
     18 ****        -3.3660  -1.6042   2.2957 C.3            1 S1                 0.0000
     19 ****        -3.8061  -1.7521   0.5226 S.o2           1 S1                 0.0000
     20 ****        -3.5827  -3.1345   0.0727 O.2            1 S1                 0.0000
     21 ****        -5.0936  -1.0794   0.2929 O.2            1 S1                 0.0000
     22 ****        -2.4460  -0.6953  -0.1011 C.3            1 S1                 0.0000
     23 ****         1.6983   2.7828   1.0197 H              1 S1                 0.0000
     24 ****         2.2491   1.4892   2.0239 H              1 S1                 0.0000
     25 ****         2.9073  -0.4932   1.2460 H              1 S1                 0.0000
     26 ****         3.7909  -1.8853  -0.6088 H              1 S1                 0.0000
     27 ****         3.4178  -1.1046  -2.9643 H              1 S1                 0.0000
     28 ****        -0.0223  -0.0076   0.1269 H              1 S1                 0.0000
     29 ****        -2.5062   0.9123   1.3115 H              1 S1                 0.0000
     30 ****        -1.2204  -1.6748   2.2732 H              1 S1                 0.0000
     31 ****        -1.8484  -0.3873   3.2830 H              1 S1                 0.0000
     32 ****        -3.3614  -2.5868   2.7676 H              1 S1                 0.0000
     33 ****        -4.1250  -0.9888   2.7792 H              1 S1                 0.0000
     34 ****        -2.8186  -0.0155  -0.8677 H              1 S1                 0.0000
     35 ****        -1.6990  -1.3507  -0.5506 H              1 S1                 0.0000
     36 ****         0.1867   2.6948   3.0060 LP             1 S1                 0.0000
     37 ****        -1.2874   1.8105   2.7940 LP             1 S1                 0.0000
     38 ****         0.8698   3.0126  -0.6776 LP             1 S1                 0.0000
     39 ****         1.0422   2.8232  -2.3907 LP             1 S1                 0.0000
@<TRIPOS>BOND
    1    1    2 2     
    2    2    3 1     
    3    2   15 am    
    4    3    4 1     
    5    3   23 1     
    6    3   24 1     
    7    4   13 am    
    8    4    5 1     
    9    5    6 2     
   10    5   25 1     
   11    6    7 1     
   12    6   26 1     
   13    7    8 2     
   14    7   27 1     
   15    8    9 1     
   16    8   13 1     
   17    9   10 1     
   18    9   11 1     
   19    9   12 1     
   20   13   14 2     
   21   15   16 1     
   22   15   28 1     
   23   16   22 1     
   24   16   17 1     
   25   16   29 1     
   26   17   18 1     
   27   17   30 1     
   28   17   31 1     
   29   18   19 1     
   30   18   32 1     
   31   18   33 1     
   32   19   20 2     
   33   19   21 2     
   34   19   22 1     
   35   22   34 1     
   36   22   35 1     
   37    1   36 1     
   38    1   37 1     
   39   14   38 1     
   40   14   39 1     
@<TRIPOS>SUBSTRUCTURE
      1 S1             1
@<TRIPOS>SET
LONE_PAIRS      STATIC     ATOMS    <user>   **** ""
6 36 37 38 39 20 21
DONOR_HYDROGENS      STATIC     ATOMS    <user>   **** ""
1 28
ATOM$BLUE        STATIC     ATOMS    COLORGROUP SYSTEM
6 36 37 38 39 20 21
ATOM$RED        STATIC     ATOMS    COLORGROUP SYSTEM
1 28
