AV-unprocessed.smi:3247|AV-procd|sdf|12412|dock9
  -GOLD-   2272018293D 1   1.00000     0.00000
 Structure written by MMmdl.
 35 36  0  0  0  0  0  0  0  0  1 V2000
  151.9725  138.6871  159.0241 O   0  0  0  0  0  0  0  0  0  0  0  0
  151.5247  139.6061  158.3385 C   0  0  0  0  0  0  0  0  0  0  0  0
  151.4651  141.0238  158.9022 C   0  0  0  0  0  0  0  0  0  0  0  0
  152.7259  141.6476  158.7050 O   0  0  0  0  0  0  0  0  0  0  0  0
  152.9014  142.8353  159.4633 C   0  0  0  0  0  0  0  0  0  0  0  0
  152.4758  142.6097  160.9128 C   0  0  0  0  0  0  0  0  0  0  0  0
  152.2069  144.0151  161.4589 C   0  0  0  0  0  0  0  0  0  0  0  0
  151.8371  144.8813  160.2441 C   0  0  0  0  0  0  0  0  0  0  0  0
  151.9983  143.9863  159.0088 C   0  0  0  0  0  0  0  0  0  0  0  0
  151.0577  139.4400  157.0915 N   0  0  0  0  0  0  0  0  0  0  0  0
  151.0179  138.1735  156.3696 C   0  0  0  0  0  0  0  0  0  0  0  0
  150.8868  138.3856  154.8520 C   0  0  0  0  0  0  0  0  0  0  0  0
  149.7675  139.3202  154.5058 C   0  0  0  0  0  0  0  0  0  0  0  0
  148.5654  138.9864  153.9292 C   0  0  0  0  0  0  0  0  0  0  0  0
  147.5447  140.3797  153.6889 S   0  0  0  0  0  0  0  0  0  0  0  0
  148.8132  141.3701  154.3902 C   0  0  0  0  0  0  0  0  0  0  0  0
  149.8977  140.6896  154.7630 N   0  0  0  0  0  0  0  0  0  0  0  0
  150.6771  141.5788  158.3910 H   0  0  0  0  0  0  0  0  0  0  0  0
  151.2126  140.9846  159.9627 H   0  0  0  0  0  0  0  0  0  0  0  0
  153.9467  143.1500  159.4477 H   0  0  0  0  0  0  0  0  0  0  0  0
  151.5527  142.0287  160.9388 H   0  0  0  0  0  0  0  0  0  0  0  0
  153.2242  142.0682  161.4918 H   0  0  0  0  0  0  0  0  0  0  0  0
  151.4212  144.0097  162.2150 H   0  0  0  0  0  0  0  0  0  0  0  0
  153.1089  144.4095  161.9286 H   0  0  0  0  0  0  0  0  0  0  0  0
  150.8193  145.2663  160.3170 H   0  0  0  0  0  0  0  0  0  0  0  0
  152.5066  145.7403  160.1831 H   0  0  0  0  0  0  0  0  0  0  0  0
  152.4038  144.5275  158.1535 H   0  0  0  0  0  0  0  0  0  0  0  0
  151.0230  143.5931  158.7184 H   0  0  0  0  0  0  0  0  0  0  0  0
  150.7122  140.2547  156.6049 H   0  0  0  0  0  0  0  0  0  0  0  0
  151.9389  137.6335  156.5914 H   0  0  0  0  0  0  0  0  0  0  0  0
  150.1982  137.5565  156.7418 H   0  0  0  0  0  0  0  0  0  0  0  0
  151.8249  138.7728  154.4526 H   0  0  0  0  0  0  0  0  0  0  0  0
  150.7301  137.4235  154.3623 H   0  0  0  0  0  0  0  0  0  0  0  0
  148.2205  138.0075  153.6305 H   0  0  0  0  0  0  0  0  0  0  0  0
  148.7606  142.4403  154.5256 H   0  0  0  0  0  0  0  0  0  0  0  0
  1  2  2  0  0  0  0
  2  3  1  0  0  0  0
  2 10  1  0  0  0  0
  3  4  1  0  0  0  0
  3 18  1  0  0  0  0
  3 19  1  0  0  0  0
  4  5  1  0  0  0  0
  5  9  1  0  0  0  0
  5  6  1  0  0  0  0
  5 20  1  0  0  0  0
  6  7  1  0  0  0  0
  6 21  1  0  0  0  0
  6 22  1  0  0  0  0
  7  8  1  0  0  0  0
  7 23  1  0  0  0  0
  7 24  1  0  0  0  0
  8  9  1  0  0  0  0
  8 25  1  0  0  0  0
  8 26  1  0  0  0  0
  9 27  1  0  0  0  0
  9 28  1  0  0  0  0
 10 11  1  0  0  0  0
 10 29  1  0  0  0  0
 11 12  1  0  0  0  0
 11 30  1  0  0  0  0
 11 31  1  0  0  0  0
 12 13  1  0  0  0  0
 12 32  1  0  0  0  0
 12 33  1  0  0  0  0
 13 17  1  0  0  0  0
 13 14  2  0  0  0  0
 14 15  1  0  0  0  0
 14 34  1  0  0  0  0
 15 16  1  0  0  0  0
 16 17  2  0  0  0  0
 16 35  1  0  0  0  0
M  END
> <s_m_source_file>
AV-unprocessed.smi

> <i_m_source_file_index>
3247

> <i_lp_mmshare_version>
43012

> <i_f3d_flags>
0

> <s_epik_input>
W0NIMl0xW0NIMl1bQ0gyXVtDSDJdW0NIXTFPW0NIMl1DKD1PKVtOSF1bQ0gyXVtDSDJdYzJbY0hdc1tjSF1uMg==

> <s_epik_cmdline>
J2VwaWtfcHl0aG9uJywgJy1waCcsICc3LjAnLCAnLXRuJywgJzgnLCAnLW1hJywgJzIwMCcsICctbWV0YWxfYmluZGluZycsICctaW1hZScsICc8aW5maWxlLm1hZT4nLCAnLW9tYWUnLCAnPG91dGZpbGUubWFlPic=

> <r_lp_tautomer_probability>
1

> <r_epik_Ionization_Penalty>
0.00018119

> <r_epik_Ionization_Penalty_Charging>
0

> <r_epik_Ionization_Penalty_Neutral>
0.00018119

> <r_epik_State_Penalty>
-0

> <r_epik_Charging_Adjusted_Penalty>
0

> <i_epik_Tot_Q>
0

> <i_epik_Tot_abs_Q>
0

> <r_epik_Metal_State_Penalty>
-0

> <b_epik_Metal_Only>
0

> <s_lp_Force_Field>
OPLS_2005

> <r_lp_Energy>
17.1434

> <b_lp_Chiralities_Consistent>
1

> <s_lp_Variant>
AV-unprocessed.smi:3247-1

> <Gold.Version>
5.8.1

> <Gold.Id.Protein>
6NUR|6NUR_protein|mol2

> <Gold.PLP.Fitness>
43.9410

> <Gold.PLP.PLP>
-37.9107

> <Gold.PLP.part.hbond>
-1.0000

> <Gold.PLP.part.metal>
0.0000

> <Gold.PLP.part.buried>
-1.6548

> <Gold.PLP.part.nonpolar>
-34.7398

> <Gold.PLP.part.repulsive>
0.1550

> <Gold.PLP.ligand.clash>
0.0000

> <Gold.PLP.ligand.torsion>
0.7408

> <Gold.PLP.Chemscore.Hbond>
0.5096

> <Gold.PLP.Chemscore.CHOScore>
1.9813

> <Gold.PLP.Chemscore.Metal>
0.0000

> <Gold.Chemscore.Hbonds>
donor molecule, donor type, donor heavy atom, donor atom, acceptor molecule, acceptor atom, score
      P1  H  7989  7998       L1    17  0.37
      L1  C    14    34       P1  7948  0.83
      L1  C    16    35       P1  8028  1.00

> <Gold.PLP.Chemscore.Internal.Correction>
0.0391

> <Gold.Rescore>
     Score         DG    S(hbond)    S(metal)    S(lipo)     H(rot)  DE(clash)    DE(int)     intcor
     11.24     -13.11       0.00        0.00     104.24       1.78       0.05       1.82       ----

> <Gold.Chemscore.Fitness>
11.2436

> <Gold.Chemscore.DG>
-13.1134

> <Gold.Chemscore.ZeroCoef>
-5.4800

> <Gold.Chemscore.Hbond>
0.0000

> <Gold.Chemscore.Metal>
0.0000

> <Gold.Chemscore.Lipo>
104.2417

> <Gold.Chemscore.Internal_Hbond>
0.0000

> <Gold.Chemscore.DEClash>
0.0502

> <Gold.Chemscore.DEInternal>
1.8196

> <Gold.Chemscore.Rot>
1.7824

> <Gold.Chemscore.Internal.Correction>
   9.000000E+99

> <Gold.Chemscore.Hbonds>
donor molecule, donor type, donor heavy atom, donor atom, acceptor molecule, acceptor atom, score
      P1  H  7989  7998       L1    17  0.03

> <Gold.Chemscore.Hbond.Weighted>
-0.0000

> <Gold.Chemscore.Metal.Weighted>
-0.0000

> <Gold.Chemscore.Lipo.Weighted>
-12.1963

> <Gold.Chemscore.Internal_Hbond.Weighted>
0.0000

> <Gold.Chemscore.DEClash.Weighted>
0.0502

> <Gold.Chemscore.DEInternal.Weighted>
1.8196

> <Gold.Chemscore.Rot.Weighted>
4.5629

> <Gold.Chemscore.Internal.Correction.Weighted>
   9.000000E+99

> <Gold.Protein.RotatedTorsions>
[ 6907 6896 6895 6894 ] final  -71.34 input  -60.11 | X-H torsion
[ 7974 7965 7964 7962 ] final -101.23 input  175.53 | X-H torsion
[ 8008 7997 7996 7995 ] final -100.90 input   59.86 | X-H torsion
[ 10167 10162 10161 10158 ] final   48.37 input  -65.29 | X-H torsion
[ 10718 10713 10712 10709 ] final   45.46 input   66.30 | X-H torsion
[ 10763 10752 10751 10750 ] final -155.97 input  -60.55 | X-H torsion
[ 11005 11000 10999 10996 ] final  145.51 input  -57.11 | X-H torsion

> <Gold.Protein.ActiveResidues>
 VAL166  LYS551  ARG553  GLY616  TRP617  ASP618  TYR619  PRO620  LYS621  CYS622 
 ASP623  PHE694  ASN695  SER759  ASP760  ASP761  ALA762  ILE779  LEU786  VAL792 
 PHE793  MET794  SER795  GLU796  ALA797  LYS798  CYS799  TRP800  GLU811  SER814 

> <Gold.Protein.RotatedAtoms>
  150.7217  134.5323  159.5705 H   0  0  0  0  0  0  0  0  0  0  0  0  # atno 6907 bound_to 6896
  152.2853  134.7780  160.0397 H   0  0  0  0  0  0  0  0  0  0  0  0  # atno 6908 bound_to 6896
  151.8412  133.3388  159.3680 H   0  0  0  0  0  0  0  0  0  0  0  0  # atno 6909 bound_to 6896
  145.2842  140.9335  143.2914 H   0  0  0  0  0  0  0  0  0  0  0  0  # atno 7974 bound_to 7965
  154.8350  140.0438  157.1503 H   0  0  0  0  0  0  0  0  0  0  0  0  # atno 8008 bound_to 7997
  154.9110  140.3013  155.5246 H   0  0  0  0  0  0  0  0  0  0  0  0  # atno 8009 bound_to 7997
  156.2989  140.2358  156.4149 H   0  0  0  0  0  0  0  0  0  0  0  0  # atno 8010 bound_to 7997
  140.2940  144.3013  150.6234 H   0  0  0  0  0  0  0  0  0  0  0  0  # atno 10167 bound_to 10162
  157.4378  130.8063  149.7664 H   0  0  0  0  0  0  0  0  0  0  0  0  # atno 10718 bound_to 10713
  154.7748  135.3156  154.8115 H   0  0  0  0  0  0  0  0  0  0  0  0  # atno 10763 bound_to 10752
  153.8841  135.6832  153.4769 H   0  0  0  0  0  0  0  0  0  0  0  0  # atno 10764 bound_to 10752
  153.1369  135.4756  154.9372 H   0  0  0  0  0  0  0  0  0  0  0  0  # atno 10765 bound_to 10752
  140.0718  134.9147  157.1357 H   0  0  0  0  0  0  0  0  0  0  0  0  # atno 11005 bound_to 11000
  144.9227  139.4392  143.6533 LP  0  0  0  0  0  0  0  0  0  0  0  0  # atno 17320 bound_to 7965
  146.3206  139.8096  142.8948 LP  0  0  0  0  0  0  0  0  0  0  0  0  # atno 17321 bound_to 7965
  140.5708  143.2181  151.7602 LP  0  0  0  0  0  0  0  0  0  0  0  0  # atno 17342 bound_to 10162
  139.4931  144.4219  151.9968 LP  0  0  0  0  0  0  0  0  0  0  0  0  # atno 17343 bound_to 10162
  155.9937  130.3923  150.2890 LP  0  0  0  0  0  0  0  0  0  0  0  0  # atno 17370 bound_to 10713
  157.1052  131.0206  151.3070 LP  0  0  0  0  0  0  0  0  0  0  0  0  # atno 17371 bound_to 10713
  140.3616  134.2488  155.7186 LP  0  0  0  0  0  0  0  0  0  0  0  0  # atno 17394 bound_to 11000
  141.2014  133.7962  157.0440 LP  0  0  0  0  0  0  0  0  0  0  0  0  # atno 17395 bound_to 11000

$$$$
