AV-unprocessed.smi:283|AV-procd|sdf|2136|dock1
  -GOLD-   2262021453D 1   1.00000     0.00000
 Structure written by MMmdl.
 48 51  0  0  0  0  0  0  0  0  1 V2000
  149.7667  141.3743  157.2773 C   0  0  0  0  0  0  0  0  0  0  0  0
  151.0669  141.2997  158.0891 C   0  0  1  0  0  0  0  0  0  0  0  0
  152.1622  140.8696  157.2230 N   0  0  0  0  0  0  0  0  0  0  0  0
  152.1325  139.6754  156.5909 C   0  0  0  0  0  0  0  0  0  0  0  0
  152.6257  139.6730  155.3301 N   0  0  0  0  0  0  0  0  0  0  0  0
  152.6570  138.5397  154.6249 C   0  0  0  0  0  0  0  0  0  0  0  0
  152.2479  137.3233  154.9859 N   0  0  0  0  0  0  0  0  0  0  0  0
  151.7344  137.3152  156.2497 C   0  0  0  0  0  0  0  0  0  0  0  0
  151.6378  138.4441  157.1146 C   0  0  0  0  0  0  0  0  0  0  0  0
  151.0515  138.0539  158.3127 N   0  0  0  0  0  0  0  0  0  0  0  0
  150.8321  136.7768  158.1670 C   0  0  0  0  0  0  0  0  0  0  0  0
  151.2146  136.2467  156.9564 N   0  0  0  0  0  0  0  0  0  0  0  0
  151.0862  134.8159  156.5227 C   0  0  1  0  0  0  0  0  0  0  0  0
  150.5088  134.0590  157.5454 O   0  0  0  0  0  0  0  0  0  0  0  0
  149.2613  133.5121  157.1198 C   0  0  2  0  0  0  0  0  0  0  0  0
  148.9500  132.1990  157.8578 C   0  0  0  0  0  0  0  0  0  0  0  0
  149.0626  132.3921  159.2514 O   0  0  0  0  0  0  0  0  0  0  0  0
  149.4125  133.4000  155.5973 C   0  0  2  0  0  0  0  0  0  0  0  0
  150.1199  132.2268  155.2370 O   0  0  0  0  0  0  0  0  0  0  0  0
  150.2230  134.6406  155.2567 C   0  0  1  0  0  0  0  0  0  0  0  0
  149.3655  135.7371  154.9908 O   0  0  0  0  0  0  0  0  0  0  0  0
  151.3102  142.6217  158.8230 C   0  0  0  0  0  0  0  0  0  0  0  0
  150.3753  143.6770  158.7061 C   0  0  0  0  0  0  0  0  0  0  0  0
  150.5808  144.8970  159.3769 C   0  0  0  0  0  0  0  0  0  0  0  0
  151.7210  145.0734  160.1807 C   0  0  0  0  0  0  0  0  0  0  0  0
  152.6509  144.0264  160.3161 C   0  0  0  0  0  0  0  0  0  0  0  0
  152.4504  142.8028  159.6461 C   0  0  0  0  0  0  0  0  0  0  0  0
  153.6194  141.5470  159.8615 Cl  0  0  0  0  0  0  0  0  0  0  0  0
  152.1143  134.4815  156.3800 H   0  0  0  0  0  0  0  0  0  0  0  0
  148.4716  134.2384  157.3163 H   0  0  0  0  0  0  0  0  0  0  0  0
  148.4461  133.3793  155.0916 H   0  0  0  0  0  0  0  0  0  0  0  0
  150.8669  134.4956  154.3882 H   0  0  0  0  0  0  0  0  0  0  0  0
  148.9162  141.6088  157.9183 H   0  0  0  0  0  0  0  0  0  0  0  0
  149.5545  140.4242  156.7865 H   0  0  0  0  0  0  0  0  0  0  0  0
  149.8232  142.1434  156.5061 H   0  0  0  0  0  0  0  0  0  0  0  0
  150.9325  140.5060  158.8218 H   0  0  0  0  0  0  0  0  0  0  0  0
  153.0243  141.3790  157.3524 H   0  0  0  0  0  0  0  0  0  0  0  0
  153.0695  138.6181  153.6297 H   0  0  0  0  0  0  0  0  0  0  0  0
  150.3826  136.1804  158.9475 H   0  0  0  0  0  0  0  0  0  0  0  0
  147.9253  131.8865  157.6538 H   0  0  0  0  0  0  0  0  0  0  0  0
  149.6084  131.3926  157.5340 H   0  0  0  0  0  0  0  0  0  0  0  0
  149.9677  132.5708  159.4565 H   0  0  0  0  0  0  0  0  0  0  0  0
  149.7284  131.8685  154.4551 H   0  0  0  0  0  0  0  0  0  0  0  0
  149.3955  135.9228  154.0646 H   0  0  0  0  0  0  0  0  0  0  0  0
  149.4905  143.5579  158.0982 H   0  0  0  0  0  0  0  0  0  0  0  0
  149.8613  145.6962  159.2763 H   0  0  0  0  0  0  0  0  0  0  0  0
  151.8793  146.0080  160.6979 H   0  0  0  0  0  0  0  0  0  0  0  0
  153.5214  144.1622  160.9408 H   0  0  0  0  0  0  0  0  0  0  0  0
  1  2  1  0  0  0  0
  1 33  1  0  0  0  0
  1 34  1  0  0  0  0
  1 35  1  0  0  0  0
  2  3  1  0  0  0  0
  2 22  1  0  0  0  0
  2 36  1  0  0  0  0
  3  4  1  0  0  0  0
  3 37  1  0  0  0  0
  4  9  1  0  0  0  0
  4  5  2  0  0  0  0
  5  6  1  0  0  0  0
  6  7  2  0  0  0  0
  6 38  1  0  0  0  0
  7  8  1  0  0  0  0
  8 12  1  0  0  0  0
  8  9  2  0  0  0  0
  9 10  1  0  0  0  0
 10 11  2  0  0  0  0
 11 12  1  0  0  0  0
 11 39  1  0  0  0  0
 12 13  1  0  0  0  0
 13 29  1  0  0  0  0
 13 20  1  0  0  0  0
 13 14  1  0  0  0  0
 14 15  1  0  0  0  0
 15 30  1  0  0  0  0
 15 16  1  0  0  0  0
 15 18  1  0  0  0  0
 16 17  1  0  0  0  0
 16 40  1  0  0  0  0
 16 41  1  0  0  0  0
 17 42  1  0  0  0  0
 18 31  1  0  0  0  0
 18 19  1  0  0  0  0
 18 20  1  0  0  0  0
 19 43  1  0  0  0  0
 20 32  1  0  0  0  0
 20 21  1  0  0  0  0
 21 44  1  0  0  0  0
 22 27  1  0  0  0  0
 22 23  2  0  0  0  0
 23 24  1  0  0  0  0
 23 45  1  0  0  0  0
 24 25  2  0  0  0  0
 24 46  1  0  0  0  0
 25 26  1  0  0  0  0
 25 47  1  0  0  0  0
 26 27  2  0  0  0  0
 26 48  1  0  0  0  0
 27 28  1  0  0  0  0
M  END
> <s_m_source_file>
AV-unprocessed.smi

> <i_m_source_file_index>
283

> <i_lp_mmshare_version>
43012

> <i_f3d_flags>
0

> <s_epik_input>
Q2xjMVtjSF1bY0hdW2NIXVtjSF1jMVtDQEhdKFtDSDNdKVtOSF1jKG5bY0hdbjIpYyhjMjMpbltjSF1uM1tDQEBIXTRPW0NASF0oW0NIMl1bT0hdKVtDQEBIXShbT0hdKVtDQEhdNFtPSF0=

> <s_epik_cmdline>
J2VwaWtfcHl0aG9uJywgJy1waCcsICc3LjAnLCAnLXRuJywgJzgnLCAnLW1hJywgJzIwMCcsICctbWV0YWxfYmluZGluZycsICctaW1hZScsICc8aW5maWxlLm1hZT4nLCAnLW9tYWUnLCAnPG91dGZpbGUubWFlPic=

> <r_lp_tautomer_probability>
1

> <r_epik_Ionization_Penalty>
0.000266407

> <r_epik_Ionization_Penalty_Charging>
0

> <r_epik_Ionization_Penalty_Neutral>
0.000266407

> <r_epik_State_Penalty>
-0

> <r_epik_Charging_Adjusted_Penalty>
0

> <i_epik_Tot_Q>
0

> <i_epik_Tot_abs_Q>
0

> <r_epik_Metal_State_Penalty>
-0

> <b_epik_Metal_Only>
0

> <s_epik_Chemistry_Notes>
This compound contains an acetal/aminal-like group ( X-CH(R)-Y where X, Y are N, S, or O) that may be acid/base labile, releasing an aldehyde.

> <s_lp_Force_Field>
OPLS_2005

> <r_lp_Energy>
46.6605

> <b_lp_Chiralities_Consistent>
1

> <s_lp_Variant>
AV-unprocessed.smi:283-12

> <Gold.Version>
5.8.1

> <Gold.Id.Protein>
6NUR|6NUR_protein|mol2

> <Gold.PLP.Fitness>
54.7770

> <Gold.PLP.PLP>
-44.5879

> <Gold.PLP.part.hbond>
-4.0616

> <Gold.PLP.part.metal>
0.0000

> <Gold.PLP.part.buried>
-6.5615

> <Gold.PLP.part.nonpolar>
-34.4354

> <Gold.PLP.part.repulsive>
0.1881

> <Gold.PLP.ligand.clash>
0.0000

> <Gold.PLP.ligand.torsion>
0.3708

> <Gold.PLP.Chemscore.Hbond>
3.6160

> <Gold.PLP.Chemscore.CHOScore>
0.0000

> <Gold.PLP.Chemscore.Metal>
0.0000

> <Gold.Chemscore.Hbonds>
donor molecule, donor type, donor heavy atom, donor atom, acceptor molecule, acceptor atom, score
      L1  H    21    44       P1  7948  0.47
      P1  H  6896  6908       L1    14  0.67
      P1  H  7989  7998       L1     5  0.05
      P1  H  7997  8008       L1     5  0.65
      P1  H 10752 10763       L1     7  0.74

> <Gold.PLP.Chemscore.Internal.Correction>
0.0826

> <Gold.Rescore>
     Score         DG    S(hbond)    S(metal)    S(lipo)     H(rot)  DE(clash)    DE(int)     intcor
     14.72     -16.00       2.84        0.00      98.46       4.10       0.14       1.14       ----

> <Gold.Chemscore.Fitness>
14.7201

> <Gold.Chemscore.DG>
-15.9996

> <Gold.Chemscore.ZeroCoef>
-5.4800

> <Gold.Chemscore.Hbond>
2.8407

> <Gold.Chemscore.Metal>
0.0000

> <Gold.Chemscore.Lipo>
98.4578

> <Gold.Chemscore.Internal_Hbond>
0.0000

> <Gold.Chemscore.DEClash>
0.1413

> <Gold.Chemscore.DEInternal>
1.1382

> <Gold.Chemscore.Rot>
4.0968

> <Gold.Chemscore.Internal.Correction>
   9.000000E+99

> <Gold.Chemscore.Hbonds>
donor molecule, donor type, donor heavy atom, donor atom, acceptor molecule, acceptor atom, score
      L1  H    21    44       P1  7948  0.33
      P1  H  6896  6908       L1    14  0.58
      P1  H  7997  8008       L1     5  0.04
      P1  H 10752 10763       L1     7  0.63

> <Gold.Chemscore.Hbond.Weighted>
-9.4879

> <Gold.Chemscore.Metal.Weighted>
-0.0000

> <Gold.Chemscore.Lipo.Weighted>
-11.5196

> <Gold.Chemscore.Internal_Hbond.Weighted>
0.0000

> <Gold.Chemscore.DEClash.Weighted>
0.1413

> <Gold.Chemscore.DEInternal.Weighted>
1.1382

> <Gold.Chemscore.Rot.Weighted>
10.4879

> <Gold.Chemscore.Internal.Correction.Weighted>
   9.000000E+99

> <Gold.Protein.RotatedTorsions>
[ 6907 6896 6895 6894 ] final  132.32 input  -60.11 | X-H torsion
[ 7974 7965 7964 7962 ] final   23.00 input  175.53 | X-H torsion
[ 8008 7997 7996 7995 ] final  -17.27 input   59.86 | X-H torsion
[ 10167 10162 10161 10158 ] final   92.30 input  -65.29 | X-H torsion
[ 10718 10713 10712 10709 ] final  -54.68 input   66.30 | X-H torsion
[ 10763 10752 10751 10750 ] final   48.64 input  -60.55 | X-H torsion
[ 11005 11000 10999 10996 ] final  -62.33 input  -57.11 | X-H torsion

> <Gold.Protein.ActiveResidues>
 VAL166  LYS551  ARG553  GLY616  TRP617  ASP618  TYR619  PRO620  LYS621  CYS622 
 ASP623  PHE694  ASN695  SER759  ASP760  ASP761  ALA762  ILE779  LEU786  VAL792 
 PHE793  MET794  SER795  GLU796  ALA797  LYS798  CYS799  TRP800  GLU811  SER814 

> <Gold.Protein.RotatedAtoms>
  152.3336  133.5986  159.5826 H   0  0  0  0  0  0  0  0  0  0  0  0  # atno 6907 bound_to 6896
  150.7437  133.9831  159.3591 H   0  0  0  0  0  0  0  0  0  0  0  0  # atno 6908 bound_to 6896
  151.7703  135.0789  160.0410 H   0  0  0  0  0  0  0  0  0  0  0  0  # atno 6909 bound_to 6896
  146.2004  139.7806  142.8766 H   0  0  0  0  0  0  0  0  0  0  0  0  # atno 7974 bound_to 7965
  154.4991  140.2147  155.9385 H   0  0  0  0  0  0  0  0  0  0  0  0  # atno 8008 bound_to 7997
  156.1410  140.3179  155.8462 H   0  0  0  0  0  0  0  0  0  0  0  0  # atno 8009 bound_to 7997
  155.4121  140.0491  157.3022 H   0  0  0  0  0  0  0  0  0  0  0  0  # atno 8010 bound_to 7997
  139.8290  144.6696  150.9424 H   0  0  0  0  0  0  0  0  0  0  0  0  # atno 10167 bound_to 10162
  156.1430  130.4154  150.0070 H   0  0  0  0  0  0  0  0  0  0  0  0  # atno 10718 bound_to 10713
  152.9791  135.5937  154.3958 H   0  0  0  0  0  0  0  0  0  0  0  0  # atno 10763 bound_to 10752
  154.3609  135.2767  155.2322 H   0  0  0  0  0  0  0  0  0  0  0  0  # atno 10764 bound_to 10752
  154.4320  135.6034  153.6129 H   0  0  0  0  0  0  0  0  0  0  0  0  # atno 10765 bound_to 10752
  141.1356  133.6639  156.5511 H   0  0  0  0  0  0  0  0  0  0  0  0  # atno 11005 bound_to 11000
  145.3503  141.0306  143.3342 LP  0  0  0  0  0  0  0  0  0  0  0  0  # atno 17320 bound_to 7965
  144.8670  139.5093  143.6785 LP  0  0  0  0  0  0  0  0  0  0  0  0  # atno 17321 bound_to 7965
  140.7808  143.4019  151.1135 LP  0  0  0  0  0  0  0  0  0  0  0  0  # atno 17342 bound_to 10162
  139.7674  143.8545  152.3113 LP  0  0  0  0  0  0  0  0  0  0  0  0  # atno 17343 bound_to 10162
  156.7950  130.9270  151.3646 LP  0  0  0  0  0  0  0  0  0  0  0  0  # atno 17370 bound_to 10713
  157.6592  130.8951  149.9794 LP  0  0  0  0  0  0  0  0  0  0  0  0  # atno 17371 bound_to 10713
  140.4063  134.7312  157.4809 LP  0  0  0  0  0  0  0  0  0  0  0  0  # atno 17394 bound_to 11000
  140.0459  134.6199  155.8921 LP  0  0  0  0  0  0  0  0  0  0  0  0  # atno 17395 bound_to 11000

$$$$
