AV-unprocessed.smi:1|AV-procd|sdf|1|dock5
  -GOLD-   2262015 83D 1   1.00000     0.00000
 Structure written by MMmdl.
 57 62  0  0  0  0  0  0  0  0  1 V2000
  151.0364  142.1842  156.6416 O   0  0  0  0  0  0  0  0  0  0  0  0
  151.6423  141.7279  157.6115 C   0  0  0  0  0  0  0  0  0  0  0  0
  152.1311  140.3604  157.6437 N   0  0  0  0  0  0  0  0  0  0  0  0
  152.0963  139.4361  156.6552 C   0  0  0  0  0  0  0  0  0  0  0  0
  153.1054  139.2910  155.7566 N   0  0  0  0  0  0  0  0  0  0  0  0
  153.0258  138.3612  154.8007 C   0  0  0  0  0  0  0  0  0  0  0  0
  152.0459  137.4860  154.5696 N   0  0  0  0  0  0  0  0  0  0  0  0
  151.0279  137.6227  155.4675 C   0  0  0  0  0  0  0  0  0  0  0  0
  150.9808  138.5672  156.5310 C   0  0  0  0  0  0  0  0  0  0  0  0
  149.7962  138.4186  157.2397 N   0  0  0  0  0  0  0  0  0  0  0  0
  149.1791  137.4470  156.6233 C   0  0  0  0  0  0  0  0  0  0  0  0
  149.8455  136.9123  155.5431 N   0  0  0  0  0  0  0  0  0  0  0  0
  149.3800  135.8035  154.6505 C   0  0  2  0  0  0  0  0  0  0  0  0
  148.1262  135.3642  155.0799 O   0  0  0  0  0  0  0  0  0  0  0  0
  148.1621  133.9762  155.3976 C   0  0  1  0  0  0  0  0  0  0  0  0
  146.8283  133.3017  155.0516 C   0  0  0  0  0  0  0  0  0  0  0  0
  146.6945  133.1788  153.6438 O   0  0  0  0  0  0  0  0  0  0  0  0
  146.0878  134.1480  152.9327 C   0  0  0  0  0  0  0  0  0  0  0  0
  145.9637  135.3089  153.3282 O   0  0  0  0  0  0  0  0  0  0  0  0
  145.5763  133.6667  151.6170 C   0  0  0  0  0  0  0  0  0  0  0  0
  145.7336  132.3048  151.2683 C   0  0  0  0  0  0  0  0  0  0  0  0
  145.2609  131.8214  150.0328 C   0  0  0  0  0  0  0  0  0  0  0  0
  144.6230  132.6934  149.1316 C   0  0  0  0  0  0  0  0  0  0  0  0
  144.4598  134.0502  149.4668 C   0  0  0  0  0  0  0  0  0  0  0  0
  144.9334  134.5360  150.7012 C   0  0  0  0  0  0  0  0  0  0  0  0
  149.3885  133.4049  154.6781 C   0  0  2  0  0  0  0  0  0  0  0  0
  149.9978  132.3600  155.4178 O   0  0  0  0  0  0  0  0  0  0  0  0
  151.1815  133.0135  156.4017 S   0  0  0  0  0  0  0  0  0  0  0  0
  150.6752  133.0391  157.7824 O   0  0  0  0  0  0  0  0  0  0  0  0
  152.4681  132.3992  156.0411 O   0  0  0  0  0  0  0  0  0  0  0  0
  151.1616  134.5735  155.8088 O   0  0  0  0  0  0  0  0  0  0  0  0
  150.3412  134.6032  154.6522 C   0  0  2  0  0  0  0  0  0  0  0  0
  151.8388  142.5275  158.8665 C   0  0  0  0  0  0  0  0  0  0  0  0
  152.6167  142.0040  159.9239 C   0  0  0  0  0  0  0  0  0  0  0  0
  152.7925  142.7397  161.1119 C   0  0  0  0  0  0  0  0  0  0  0  0
  152.1864  144.0018  161.2561 C   0  0  0  0  0  0  0  0  0  0  0  0
  151.4002  144.5260  160.2127 C   0  0  0  0  0  0  0  0  0  0  0  0
  151.2236  143.7914  159.0239 C   0  0  0  0  0  0  0  0  0  0  0  0
  152.5640  140.0671  158.5072 H   0  0  0  0  0  0  0  0  0  0  0  0
  153.8669  138.3112  154.1252 H   0  0  0  0  0  0  0  0  0  0  0  0
  148.2085  137.0939  156.9401 H   0  0  0  0  0  0  0  0  0  0  0  0
  149.2769  136.2607  153.6657 H   0  0  0  0  0  0  0  0  0  0  0  0
  148.3155  133.9026  156.4740 H   0  0  0  0  0  0  0  0  0  0  0  0
  146.7896  132.3150  155.5156 H   0  0  0  0  0  0  0  0  0  0  0  0
  145.9961  133.8835  155.4499 H   0  0  0  0  0  0  0  0  0  0  0  0
  146.2203  131.6162  151.9440 H   0  0  0  0  0  0  0  0  0  0  0  0
  145.3884  130.7799  149.7766 H   0  0  0  0  0  0  0  0  0  0  0  0
  144.2597  132.3221  148.1846 H   0  0  0  0  0  0  0  0  0  0  0  0
  143.9696  134.7199  148.7755 H   0  0  0  0  0  0  0  0  0  0  0  0
  144.7908  135.5827  150.9272 H   0  0  0  0  0  0  0  0  0  0  0  0
  149.1557  133.0865  153.6615 H   0  0  0  0  0  0  0  0  0  0  0  0
  150.9718  134.6190  153.7629 H   0  0  0  0  0  0  0  0  0  0  0  0
  153.0876  141.0360  159.8296 H   0  0  0  0  0  0  0  0  0  0  0  0
  153.3923  142.3344  161.9133 H   0  0  0  0  0  0  0  0  0  0  0  0
  152.3204  144.5654  162.1676 H   0  0  0  0  0  0  0  0  0  0  0  0
  150.9290  145.4911  160.3252 H   0  0  0  0  0  0  0  0  0  0  0  0
  150.6082  144.2084  158.2398 H   0  0  0  0  0  0  0  0  0  0  0  0
  1  2  2  0  0  0  0
  2  3  1  0  0  0  0
  2 33  1  0  0  0  0
  3  4  1  0  0  0  0
  3 39  1  0  0  0  0
  4  9  1  0  0  0  0
  4  5  2  0  0  0  0
  5  6  1  0  0  0  0
  6  7  2  0  0  0  0
  6 40  1  0  0  0  0
  7  8  1  0  0  0  0
  8 12  1  0  0  0  0
  8  9  2  0  0  0  0
  9 10  1  0  0  0  0
 10 11  2  0  0  0  0
 11 12  1  0  0  0  0
 11 41  1  0  0  0  0
 12 13  1  0  0  0  0
 13 32  1  0  0  0  0
 13 14  1  0  0  0  0
 13 42  1  0  0  0  0
 14 15  1  0  0  0  0
 15 16  1  0  0  0  0
 15 26  1  0  0  0  0
 15 43  1  0  0  0  0
 16 17  1  0  0  0  0
 16 44  1  0  0  0  0
 16 45  1  0  0  0  0
 17 18  1  0  0  0  0
 18 19  2  0  0  0  0
 18 20  1  0  0  0  0
 20 25  1  0  0  0  0
 20 21  2  0  0  0  0
 21 22  1  0  0  0  0
 21 46  1  0  0  0  0
 22 23  2  0  0  0  0
 22 47  1  0  0  0  0
 23 24  1  0  0  0  0
 23 48  1  0  0  0  0
 24 25  2  0  0  0  0
 24 49  1  0  0  0  0
 25 50  1  0  0  0  0
 26 32  1  0  0  0  0
 26 27  1  0  0  0  0
 26 51  1  0  0  0  0
 27 28  1  0  0  0  0
 28 29  2  0  0  0  0
 28 30  2  0  0  0  0
 28 31  1  0  0  0  0
 31 32  1  0  0  0  0
 32 52  1  0  0  0  0
 33 38  1  0  0  0  0
 33 34  2  0  0  0  0
 34 35  1  0  0  0  0
 34 53  1  0  0  0  0
 35 36  2  0  0  0  0
 35 54  1  0  0  0  0
 36 37  1  0  0  0  0
 36 55  1  0  0  0  0
 37 38  2  0  0  0  0
 37 56  1  0  0  0  0
 38 57  1  0  0  0  0
M  END
> <s_m_source_file>
AV-unprocessed.smi

> <i_m_source_file_index>
1

> <i_lp_mmshare_version>
43012

> <i_f3d_flags>
0

> <s_epik_input>
W2NIXTFbY0hdW2NIXVtjSF1bY0hdYzFDKD1PKVtOSF1jKG5bY0hdbjIpYyhjMjMpbltjSF1uM1tDQEBIXShbQ0BIXShbQ0BIXTQ1KU9TKE81KSg9Tyk9TylPW0NASF00W0NIMl1PQyg9TyljNltjSF1bY0hdW2NIXVtjSF1bY0hdNg==

> <s_epik_cmdline>
J2VwaWtfcHl0aG9uJywgJy1waCcsICc3LjAnLCAnLXRuJywgJzgnLCAnLW1hJywgJzIwMCcsICctbWV0YWxfYmluZGluZycsICctaW1hZScsICc8aW5maWxlLm1hZT4nLCAnLW9tYWUnLCAnPG91dGZpbGUubWFlPic=

> <r_lp_tautomer_probability>
1

> <r_epik_Ionization_Penalty>
0.00195722

> <r_epik_Ionization_Penalty_Charging>
0

> <r_epik_Ionization_Penalty_Neutral>
0.00195722

> <r_epik_State_Penalty>
0.00633741

> <r_epik_Charging_Adjusted_Penalty>
0.00633741

> <i_epik_Tot_Q>
0

> <i_epik_Tot_abs_Q>
0

> <r_epik_Metal_State_Penalty>
0.341185

> <b_epik_Metal_Only>
0

> <s_epik_Chemistry_Notes>
This compound has an ester and may undergo hydrolysis at high or low pH. This compound contains an acetal/aminal-like group ( X-CH(R)-Y where X, Y are N, S, or O) that may be acid/base labile, releasing an aldehyde.

> <s_lp_Force_Field>
OPLS_2005

> <r_lp_Energy>
46.2159

> <b_lp_Chiralities_Consistent>
1

> <s_lp_Variant>
AV-unprocessed.smi:1-1

> <Gold.Version>
5.8.1

> <Gold.Id.Protein>
6NUR|6NUR_protein|mol2

> <Gold.PLP.Fitness>
58.6932

> <Gold.PLP.PLP>
-52.3806

> <Gold.PLP.part.hbond>
-2.8739

> <Gold.PLP.part.metal>
0.0000

> <Gold.PLP.part.buried>
-2.9281

> <Gold.PLP.part.nonpolar>
-46.5722

> <Gold.PLP.part.repulsive>
0.5312

> <Gold.PLP.ligand.clash>
0.0000

> <Gold.PLP.ligand.torsion>
1.3603

> <Gold.PLP.Chemscore.Hbond>
2.8870

> <Gold.PLP.Chemscore.CHOScore>
0.0000

> <Gold.PLP.Chemscore.Metal>
0.0000

> <Gold.Chemscore.Hbonds>
donor molecule, donor type, donor heavy atom, donor atom, acceptor molecule, acceptor atom, score
      P1  H  6896  6907       L1    29  1.00
      P1  H  7997  8008       L1     5  1.00
      P1  H 10752 10764       L1     7  0.77

> <Gold.PLP.Chemscore.Internal.Correction>
0.3721

> <Gold.Rescore>
     Score         DG    S(hbond)    S(metal)    S(lipo)     H(rot)  DE(clash)    DE(int)     intcor
     17.85     -21.50       1.83        0.00     131.40       2.13       0.21       3.44       ----

> <Gold.Chemscore.Fitness>
17.8453

> <Gold.Chemscore.DG>
-21.5015

> <Gold.Chemscore.ZeroCoef>
-5.4800

> <Gold.Chemscore.Hbond>
1.8292

> <Gold.Chemscore.Metal>
0.0000

> <Gold.Chemscore.Lipo>
131.3972

> <Gold.Chemscore.Internal_Hbond>
0.0000

> <Gold.Chemscore.DEClash>
0.2140

> <Gold.Chemscore.DEInternal>
3.4421

> <Gold.Chemscore.Rot>
2.1333

> <Gold.Chemscore.Internal.Correction>
   9.000000E+99

> <Gold.Chemscore.Hbonds>
donor molecule, donor type, donor heavy atom, donor atom, acceptor molecule, acceptor atom, score
      P1  H  6896  6907       L1    29  0.94
      P1  H  7997  8008       L1     5  0.85
      P1  H 10752 10764       L1     7  0.38

> <Gold.Chemscore.Hbond.Weighted>
-6.1094

> <Gold.Chemscore.Metal.Weighted>
-0.0000

> <Gold.Chemscore.Lipo.Weighted>
-15.3735

> <Gold.Chemscore.Internal_Hbond.Weighted>
0.0000

> <Gold.Chemscore.DEClash.Weighted>
0.2140

> <Gold.Chemscore.DEInternal.Weighted>
3.4421

> <Gold.Chemscore.Rot.Weighted>
5.4614

> <Gold.Chemscore.Internal.Correction.Weighted>
   9.000000E+99

> <Gold.Protein.RotatedTorsions>
[ 6907 6896 6895 6894 ] final -147.45 input  -60.11 | X-H torsion
[ 7974 7965 7964 7962 ] final  108.10 input  175.53 | X-H torsion
[ 8008 7997 7996 7995 ] final  -27.26 input   59.86 | X-H torsion
[ 10167 10162 10161 10158 ] final  159.51 input  -65.29 | X-H torsion
[ 10718 10713 10712 10709 ] final   71.76 input   66.30 | X-H torsion
[ 10763 10752 10751 10750 ] final  -66.68 input  -60.55 | X-H torsion
[ 11005 11000 10999 10996 ] final  109.82 input  -57.11 | X-H torsion

> <Gold.Protein.ActiveResidues>
 VAL166  LYS551  ARG553  GLY616  TRP617  ASP618  TYR619  PRO620  LYS621  CYS622 
 ASP623  PHE694  ASN695  SER759  ASP760  ASP761  ALA762  ILE779  LEU786  VAL792 
 PHE793  MET794  SER795  GLU796  ALA797  LYS798  CYS799  TRP800  GLU811  SER814 

> <Gold.Protein.RotatedAtoms>
  151.1558  133.4877  159.2594 H   0  0  0  0  0  0  0  0  0  0  0  0  # atno 6907 bound_to 6896
  151.1506  135.0225  159.8676 H   0  0  0  0  0  0  0  0  0  0  0  0  # atno 6908 bound_to 6896
  152.5463  134.1442  159.8545 H   0  0  0  0  0  0  0  0  0  0  0  0  # atno 6909 bound_to 6896
  145.2851  139.2619  143.3895 H   0  0  0  0  0  0  0  0  0  0  0  0  # atno 7974 bound_to 7965
  154.4385  140.1877  156.0905 H   0  0  0  0  0  0  0  0  0  0  0  0  # atno 8008 bound_to 7997
  156.0369  140.3324  155.7175 H   0  0  0  0  0  0  0  0  0  0  0  0  # atno 8009 bound_to 7997
  155.5756  140.0617  157.2786 H   0  0  0  0  0  0  0  0  0  0  0  0  # atno 8010 bound_to 7997
  139.4833  144.4723  151.8559 H   0  0  0  0  0  0  0  0  0  0  0  0  # atno 10167 bound_to 10162
  157.6468  130.9544  150.0834 H   0  0  0  0  0  0  0  0  0  0  0  0  # atno 10718 bound_to 10713
  154.3634  135.6111  153.5702 H   0  0  0  0  0  0  0  0  0  0  0  0  # atno 10763 bound_to 10752
  152.9792  135.5821  154.4606 H   0  0  0  0  0  0  0  0  0  0  0  0  # atno 10764 bound_to 10752
  154.4347  135.2848  155.1866 H   0  0  0  0  0  0  0  0  0  0  0  0  # atno 10765 bound_to 10752
  139.8869  134.9468  156.6184 H   0  0  0  0  0  0  0  0  0  0  0  0  # atno 11005 bound_to 11000
  146.3204  140.3328  142.8641 LP  0  0  0  0  0  0  0  0  0  0  0  0  # atno 17320 bound_to 7965
  144.9220  140.7879  143.5742 LP  0  0  0  0  0  0  0  0  0  0  0  0  # atno 17321 bound_to 7965
  140.4193  144.2265  150.5887 LP  0  0  0  0  0  0  0  0  0  0  0  0  # atno 17342 bound_to 10162
  140.4890  143.2354  151.8846 LP  0  0  0  0  0  0  0  0  0  0  0  0  # atno 17343 bound_to 10162
  156.1804  130.3650  149.9044 LP  0  0  0  0  0  0  0  0  0  0  0  0  # atno 17370 bound_to 10713
  156.6997  130.8928  151.3598 LP  0  0  0  0  0  0  0  0  0  0  0  0  # atno 17371 bound_to 10713
  140.7758  133.8700  155.8528 LP  0  0  0  0  0  0  0  0  0  0  0  0  # atno 17394 bound_to 11000
  140.9803  134.1415  157.4500 LP  0  0  0  0  0  0  0  0  0  0  0  0  # atno 17395 bound_to 11000

$$$$
