AV-unprocessed.smi:2052|AV-procd|sdf|8329|dock2
  -GOLD-   2272010593D 1   1.00000     0.00000
 Structure written by MMmdl.
 41 42  0  0  0  0  0  0  0  0  1 V2000
  151.8578  144.3603  160.8575 C   0  0  0  0  0  0  0  0  0  0  0  0
  150.4555  144.4310  159.7096 S   0  0  0  0  0  0  0  0  0  0  0  0
  151.3066  144.2515  158.1133 C   0  0  1  0  0  0  0  0  0  0  0  0
  152.7731  144.6946  158.2392 C   0  0  0  0  0  0  0  0  0  0  0  0
  151.2041  142.8220  157.5672 C   0  0  0  0  0  0  0  0  0  0  0  0
  151.6871  141.8788  158.1944 O   0  0  0  0  0  0  0  0  0  0  0  0
  150.5677  142.6735  156.3949 N   0  0  0  0  0  0  0  0  0  0  0  0
  150.3768  141.4017  155.7059 C   0  0  0  0  0  0  0  0  0  0  0  0
  149.0293  141.2688  155.0112 C   0  0  0  0  0  0  0  0  0  0  0  0
  148.6746  140.0996  154.3062 C   0  0  0  0  0  0  0  0  0  0  0  0
  147.4107  140.0479  153.6912 C   0  0  0  0  0  0  0  0  0  0  0  0
  146.5244  141.0643  153.7341 N   0  0  0  0  0  0  0  0  0  0  0  0
  146.8586  142.2001  154.3958 C   0  0  0  0  0  0  0  0  0  0  0  0
  145.9212  143.2564  154.4260 N   0  0  0  0  0  0  0  0  0  0  0  0
  145.6112  143.8693  153.1364 C   0  0  0  0  0  0  0  0  0  0  0  0
  144.8344  145.1820  153.3385 C   0  0  0  0  0  0  0  0  0  0  0  0
  143.6745  144.9410  154.1280 O   0  0  0  0  0  0  0  0  0  0  0  0
  144.0098  144.4519  155.4222 C   0  0  0  0  0  0  0  0  0  0  0  0
  144.7530  143.1116  155.2932 C   0  0  0  0  0  0  0  0  0  0  0  0
  148.1070  142.3349  155.0499 C   0  0  0  0  0  0  0  0  0  0  0  0
  151.5005  144.4032  161.8864 H   0  0  0  0  0  0  0  0  0  0  0  0
  152.5332  145.2000  160.6952 H   0  0  0  0  0  0  0  0  0  0  0  0
  152.4142  143.4326  160.7238 H   0  0  0  0  0  0  0  0  0  0  0  0
  150.8202  144.9292  157.4100 H   0  0  0  0  0  0  0  0  0  0  0  0
  153.3048  144.5815  157.2936 H   0  0  0  0  0  0  0  0  0  0  0  0
  153.3056  144.1141  158.9936 H   0  0  0  0  0  0  0  0  0  0  0  0
  152.8377  145.7445  158.5259 H   0  0  0  0  0  0  0  0  0  0  0  0
  150.1986  143.4983  155.9448 H   0  0  0  0  0  0  0  0  0  0  0  0
  151.1844  141.2482  154.9881 H   0  0  0  0  0  0  0  0  0  0  0  0
  150.4616  140.6012  156.4408 H   0  0  0  0  0  0  0  0  0  0  0  0
  149.3474  139.2578  154.2373 H   0  0  0  0  0  0  0  0  0  0  0  0
  147.1030  139.1667  153.1479 H   0  0  0  0  0  0  0  0  0  0  0  0
  146.5105  144.0779  152.5589 H   0  0  0  0  0  0  0  0  0  0  0  0
  145.0137  143.1695  152.5509 H   0  0  0  0  0  0  0  0  0  0  0  0
  145.4628  145.9357  153.8160 H   0  0  0  0  0  0  0  0  0  0  0  0
  144.5285  145.5884  152.3743 H   0  0  0  0  0  0  0  0  0  0  0  0
  144.6186  145.1849  155.9542 H   0  0  0  0  0  0  0  0  0  0  0  0
  143.0950  144.3189  155.9997 H   0  0  0  0  0  0  0  0  0  0  0  0
  144.0866  142.3542  154.8780 H   0  0  0  0  0  0  0  0  0  0  0  0
  145.0566  142.7716  156.2841 H   0  0  0  0  0  0  0  0  0  0  0  0
  148.3565  143.2335  155.5941 H   0  0  0  0  0  0  0  0  0  0  0  0
  1  2  1  0  0  0  0
  1 21  1  0  0  0  0
  1 22  1  0  0  0  0
  1 23  1  0  0  0  0
  2  3  1  0  0  0  0
  3  4  1  0  0  0  0
  3  5  1  0  0  0  0
  3 24  1  0  0  0  0
  4 25  1  0  0  0  0
  4 26  1  0  0  0  0
  4 27  1  0  0  0  0
  5  6  2  0  0  0  0
  5  7  1  0  0  0  0
  7  8  1  0  0  0  0
  7 28  1  0  0  0  0
  8  9  1  0  0  0  0
  8 29  1  0  0  0  0
  8 30  1  0  0  0  0
  9 20  1  0  0  0  0
  9 10  2  0  0  0  0
 10 11  1  0  0  0  0
 10 31  1  0  0  0  0
 11 12  2  0  0  0  0
 11 32  1  0  0  0  0
 12 13  1  0  0  0  0
 13 14  1  0  0  0  0
 13 20  2  0  0  0  0
 14 19  1  0  0  0  0
 14 15  1  0  0  0  0
 15 16  1  0  0  0  0
 15 33  1  0  0  0  0
 15 34  1  0  0  0  0
 16 17  1  0  0  0  0
 16 35  1  0  0  0  0
 16 36  1  0  0  0  0
 17 18  1  0  0  0  0
 18 19  1  0  0  0  0
 18 37  1  0  0  0  0
 18 38  1  0  0  0  0
 19 39  1  0  0  0  0
 19 40  1  0  0  0  0
 20 41  1  0  0  0  0
M  END
> <s_m_source_file>
AV-unprocessed.smi

> <i_m_source_file_index>
2052

> <i_lp_mmshare_version>
43012

> <i_f3d_flags>
0

> <s_epik_input>
W0NIM11TW0NASF0oW0NIM10pQyg9TylbTkhdW0NIMl1jMVtjSF1bY0hdbmMoW2NIXTEpTjJbQ0gyXVtDSDJdT1tDSDJdW0NIMl0y

> <s_epik_cmdline>
J2VwaWtfcHl0aG9uJywgJy1waCcsICc3LjAnLCAnLXRuJywgJzgnLCAnLW1hJywgJzIwMCcsICctbWV0YWxfYmluZGluZycsICctaW1hZScsICc8aW5maWxlLm1hZT4nLCAnLW9tYWUnLCAnPG91dGZpbGUubWFlPic=

> <r_lp_tautomer_probability>
1

> <r_epik_Ionization_Penalty>
0.00463955

> <r_epik_Ionization_Penalty_Charging>
0

> <r_epik_Ionization_Penalty_Neutral>
0.00463955

> <r_epik_State_Penalty>
0.00335544

> <r_epik_Charging_Adjusted_Penalty>
0.00335544

> <i_epik_Tot_Q>
0

> <i_epik_Tot_abs_Q>
0

> <r_epik_Metal_State_Penalty>
-0

> <b_epik_Metal_Only>
0

> <s_lp_Force_Field>
OPLS_2005

> <r_lp_Energy>
15.5355

> <b_lp_Chiralities_Consistent>
1

> <s_lp_Variant>
AV-unprocessed.smi:2052-2

> <Gold.Version>
5.8.1

> <Gold.Id.Protein>
6NUR|6NUR_protein|mol2

> <Gold.PLP.Fitness>
43.4202

> <Gold.PLP.PLP>
-41.8490

> <Gold.PLP.part.hbond>
-1.0000

> <Gold.PLP.part.metal>
0.0000

> <Gold.PLP.part.buried>
-3.9504

> <Gold.PLP.part.nonpolar>
-38.3267

> <Gold.PLP.part.repulsive>
0.6677

> <Gold.PLP.ligand.clash>
0.0000

> <Gold.PLP.ligand.torsion>
0.9032

> <Gold.PLP.Chemscore.Hbond>
1.0000

> <Gold.PLP.Chemscore.CHOScore>
0.0000

> <Gold.PLP.Chemscore.Metal>
0.0000

> <Gold.Chemscore.Hbonds>
donor molecule, donor type, donor heavy atom, donor atom, acceptor molecule, acceptor atom, score
      L1  H     7    28       P1  8028  1.00

> <Gold.PLP.Chemscore.Internal.Correction>
0.3775

> <Gold.Rescore>
     Score         DG    S(hbond)    S(metal)    S(lipo)     H(rot)  DE(clash)    DE(int)     intcor
     14.61     -17.39       1.00        0.00     109.81       1.67       1.77       1.01       ----

> <Gold.Chemscore.Fitness>
14.6149

> <Gold.Chemscore.DG>
-17.3900

> <Gold.Chemscore.ZeroCoef>
-5.4800

> <Gold.Chemscore.Hbond>
0.9978

> <Gold.Chemscore.Metal>
0.0000

> <Gold.Chemscore.Lipo>
109.8132

> <Gold.Chemscore.Internal_Hbond>
0.0000

> <Gold.Chemscore.DEClash>
1.7677

> <Gold.Chemscore.DEInternal>
1.0074

> <Gold.Chemscore.Rot>
1.6682

> <Gold.Chemscore.Internal.Correction>
   9.000000E+99

> <Gold.Chemscore.Hbonds>
donor molecule, donor type, donor heavy atom, donor atom, acceptor molecule, acceptor atom, score
      L1  H     7    28       P1  8028  0.97

> <Gold.Chemscore.Hbond.Weighted>
-3.3325

> <Gold.Chemscore.Metal.Weighted>
-0.0000

> <Gold.Chemscore.Lipo.Weighted>
-12.8481

> <Gold.Chemscore.Internal_Hbond.Weighted>
0.0000

> <Gold.Chemscore.DEClash.Weighted>
1.7677

> <Gold.Chemscore.DEInternal.Weighted>
1.0074

> <Gold.Chemscore.Rot.Weighted>
4.2707

> <Gold.Chemscore.Internal.Correction.Weighted>
   9.000000E+99

> <Gold.Protein.RotatedTorsions>
[ 6907 6896 6895 6894 ] final  -45.81 input  -60.11 | X-H torsion
[ 7974 7965 7964 7962 ] final  -57.28 input  175.53 | X-H torsion
[ 8008 7997 7996 7995 ] final   70.63 input   59.86 | X-H torsion
[ 10167 10162 10161 10158 ] final -176.71 input  -65.29 | X-H torsion
[ 10718 10713 10712 10709 ] final  -65.59 input   66.30 | X-H torsion
[ 10763 10752 10751 10750 ] final -110.33 input  -60.55 | X-H torsion
[ 11005 11000 10999 10996 ] final -156.53 input  -57.11 | X-H torsion

> <Gold.Protein.ActiveResidues>
 VAL166  LYS551  ARG553  GLY616  TRP617  ASP618  TYR619  PRO620  LYS621  CYS622 
 ASP623  PHE694  ASN695  SER759  ASP760  ASP761  ALA762  ILE779  LEU786  VAL792 
 PHE793  MET794  SER795  GLU796  ALA797  LYS798  CYS799  TRP800  GLU811  SER814 

> <Gold.Protein.RotatedAtoms>
  150.9179  134.8597  159.7469 H   0  0  0  0  0  0  0  0  0  0  0  0  # atno 6907 bound_to 6896
  152.4978  134.4261  159.9506 H   0  0  0  0  0  0  0  0  0  0  0  0  # atno 6908 bound_to 6896
  151.4298  133.3634  159.2802 H   0  0  0  0  0  0  0  0  0  0  0  0  # atno 6909 bound_to 6896
  145.8528  140.8340  142.9977 H   0  0  0  0  0  0  0  0  0  0  0  0  # atno 7974 bound_to 7965
  155.7417  140.3490  155.5107 H   0  0  0  0  0  0  0  0  0  0  0  0  # atno 8008 bound_to 7997
  155.9088  140.1047  157.1316 H   0  0  0  0  0  0  0  0  0  0  0  0  # atno 8009 bound_to 7997
  154.4053  140.1272  156.4517 H   0  0  0  0  0  0  0  0  0  0  0  0  # atno 8010 bound_to 7997
  139.5516  144.2095  152.1086 H   0  0  0  0  0  0  0  0  0  0  0  0  # atno 10167 bound_to 10162
  156.0661  130.4249  150.1585 H   0  0  0  0  0  0  0  0  0  0  0  0  # atno 10718 bound_to 10713
  154.8242  135.4568  154.0868 H   0  0  0  0  0  0  0  0  0  0  0  0  # atno 10763 bound_to 10752
  153.2197  135.6892  153.8022 H   0  0  0  0  0  0  0  0  0  0  0  0  # atno 10764 bound_to 10752
  153.7443  135.3307  155.3286 H   0  0  0  0  0  0  0  0  0  0  0  0  # atno 10765 bound_to 10752
  140.6745  134.4211  157.5230 H   0  0  0  0  0  0  0  0  0  0  0  0  # atno 11005 bound_to 11000
  144.6728  140.0979  143.7462 LP  0  0  0  0  0  0  0  0  0  0  0  0  # atno 17320 bound_to 7965
  145.9338  139.2623  143.1309 LP  0  0  0  0  0  0  0  0  0  0  0  0  # atno 17321 bound_to 7965
  140.1592  144.5042  150.6642 LP  0  0  0  0  0  0  0  0  0  0  0  0  # atno 17342 bound_to 10162
  140.6779  143.2313  151.5459 LP  0  0  0  0  0  0  0  0  0  0  0  0  # atno 17343 bound_to 10162
  156.9645  130.9815  151.3472 LP  0  0  0  0  0  0  0  0  0  0  0  0  # atno 17370 bound_to 10713
  157.5703  130.8306  149.8383 LP  0  0  0  0  0  0  0  0  0  0  0  0  # atno 17371 bound_to 10713
  139.8971  134.8644  156.2059 LP  0  0  0  0  0  0  0  0  0  0  0  0  # atno 17394 bound_to 11000
  141.0366  133.6960  156.1523 LP  0  0  0  0  0  0  0  0  0  0  0  0  # atno 17395 bound_to 11000

$$$$
