AV-unprocessed.smi:3127|AV-procd|sdf|11914|dock4
  -GOLD-   2272017293D 1   1.00000     0.00000
 Structure written by MMmdl.
 34 35  0  0  0  0  0  0  0  0  2 V2000
  150.1451  143.3908  158.6970 C   0  0  0  0  0  0  0  0  0  0  0  0
  151.4137  144.1231  159.1846 C   0  0  0  0  0  0  0  0  0  0  0  0
  152.2774  144.4499  157.9504 C   0  0  0  0  0  0  0  0  0  0  0  0
  150.9738  145.4280  159.8771 C   0  0  0  0  0  0  0  0  0  0  0  0
  152.2026  143.2653  160.1539 C   0  0  0  0  0  0  0  0  0  0  0  0
  152.5090  143.5314  161.4690 C   0  0  0  0  0  0  0  0  0  0  0  0
  153.4481  142.2597  162.2009 S   0  0  0  0  0  0  0  0  0  0  0  0
  153.3823  141.3786  160.6822 C   0  0  0  0  0  0  0  0  0  0  0  0
  154.0593  140.0620  160.4750 C   0  0  2  0  0  0  0  0  0  0  0  0
  153.0836  138.9686  160.0001 C   0  0  0  0  0  0  0  0  0  0  0  0
  153.7862  137.6746  159.9005 N   0  3  0  0  0  0  0  0  0  0  0  0
  154.4522  137.3214  161.1701 C   0  0  0  0  0  0  0  0  0  0  0  0
  155.3802  138.4644  161.6180 C   0  0  0  0  0  0  0  0  0  0  0  0
  154.6376  139.6751  161.7199 O   0  0  0  0  0  0  0  0  0  0  0  0
  152.7212  142.0360  159.7257 N   0  0  0  0  0  0  0  0  0  0  0  0
  149.5765  144.0048  157.9974 H   0  0  0  0  0  0  0  0  0  0  0  0
  149.4791  143.1457  159.5255 H   0  0  0  0  0  0  0  0  0  0  0  0
  150.3924  142.4613  158.1826 H   0  0  0  0  0  0  0  0  0  0  0  0
  152.6022  143.5408  157.4427 H   0  0  0  0  0  0  0  0  0  0  0  0
  153.1719  145.0115  158.2221 H   0  0  0  0  0  0  0  0  0  0  0  0
  151.7259  145.0512  157.2271 H   0  0  0  0  0  0  0  0  0  0  0  0
  150.3865  146.0557  159.2061 H   0  0  0  0  0  0  0  0  0  0  0  0
  151.8301  146.0186  160.2048 H   0  0  0  0  0  0  0  0  0  0  0  0
  150.3611  145.2221  160.7556 H   0  0  0  0  0  0  0  0  0  0  0  0
  152.2448  144.3990  162.0556 H   0  0  0  0  0  0  0  0  0  0  0  0
  154.8527  140.2027  159.7387 H   0  0  0  0  0  0  0  0  0  0  0  0
  152.2525  138.8687  160.7000 H   0  0  0  0  0  0  0  0  0  0  0  0
  152.6586  139.2250  159.0292 H   0  0  0  0  0  0  0  0  0  0  0  0
  153.1250  136.9510  159.6552 H   0  0  0  0  0  0  0  0  0  0  0  0
  153.6948  137.1314  161.9319 H   0  0  0  0  0  0  0  0  0  0  0  0
  155.0157  136.3975  161.0387 H   0  0  0  0  0  0  0  0  0  0  0  0
  155.8180  138.2354  162.5897 H   0  0  0  0  0  0  0  0  0  0  0  0
  156.2078  138.5915  160.9181 H   0  0  0  0  0  0  0  0  0  0  0  0
  154.4860  137.7410  159.1752 H   0  0  0  0  0  0  0  0  0  0  0  0
  1  2  1  0  0  0  0
  1 16  1  0  0  0  0
  1 17  1  0  0  0  0
  1 18  1  0  0  0  0
  2  3  1  0  0  0  0
  2  4  1  0  0  0  0
  2  5  1  0  0  0  0
  3 19  1  0  0  0  0
  3 20  1  0  0  0  0
  3 21  1  0  0  0  0
  4 22  1  0  0  0  0
  4 23  1  0  0  0  0
  4 24  1  0  0  0  0
  5 15  1  0  0  0  0
  5  6  2  0  0  0  0
  6  7  1  0  0  0  0
  6 25  1  0  0  0  0
  7  8  1  0  0  0  0
  8  9  1  0  0  0  0
  8 15  2  0  0  0  0
  9 14  1  0  0  0  0
  9 10  1  0  0  0  0
  9 26  1  0  0  0  0
 10 11  1  0  0  0  0
 10 27  1  0  0  0  0
 10 28  1  0  0  0  0
 11 12  1  0  0  0  0
 11 29  1  0  0  0  0
 11 34  1  0  0  0  0
 12 13  1  0  0  0  0
 12 30  1  0  0  0  0
 12 31  1  0  0  0  0
 13 14  1  0  0  0  0
 13 32  1  0  0  0  0
 13 33  1  0  0  0  0
M  CHG  1  11   1
M  END
> <s_m_source_file>
AV-unprocessed.smi

> <i_m_source_file_index>
3127

> <i_lp_mmshare_version>
43012

> <i_f3d_flags>
0

> <s_epik_input>
W0NIM11DKFtDSDNdKShbQ0gzXSljMVtjSF1zYyhuMSlbQ0BASF0yW0NIMl1bTkhdW0NIMl1bQ0gyXU8y

> <s_epik_cmdline>
J2VwaWtfcHl0aG9uJywgJy1waCcsICc3LjAnLCAnLXRuJywgJzgnLCAnLW1hJywgJzIwMCcsICctbWV0YWxfYmluZGluZycsICctaW1hZScsICc8aW5maWxlLm1hZT4nLCAnLW9tYWUnLCAnPG91dGZpbGUubWFlPic=

> <r_epik_Ionization_Penalty>
0.125708

> <r_epik_Ionization_Penalty_Charging>
0.125708

> <r_epik_Ionization_Penalty_Neutral>
5.37588e-07

> <r_epik_State_Penalty>
0.0155352

> <r_epik_Charging_Adjusted_Penalty>
0.141243

> <i_epik_Tot_Q>
1

> <i_epik_Tot_abs_Q>
1

> <r_epik_Metal_State_Penalty>
0.0155796

> <b_epik_Metal_Only>
0

> <s_lp_Force_Field>
OPLS_2005

> <r_lp_Energy>
5.69116

> <b_lp_Chiralities_Consistent>
1

> <s_lp_Variant>
AV-unprocessed.smi:3127-1

> <Gold.Version>
5.8.1

> <Gold.Id.Protein>
6NUR|6NUR_protein|mol2

> <Gold.PLP.Fitness>
39.3066

> <Gold.PLP.PLP>
-39.3460

> <Gold.PLP.part.hbond>
0.0000

> <Gold.PLP.part.metal>
0.0000

> <Gold.PLP.part.buried>
-4.8166

> <Gold.PLP.part.nonpolar>
-33.9054

> <Gold.PLP.part.repulsive>
0.0637

> <Gold.PLP.ligand.clash>
0.0000

> <Gold.PLP.ligand.torsion>
0.0258

> <Gold.PLP.Chemscore.Hbond>
0.0000

> <Gold.PLP.Chemscore.CHOScore>
0.0000

> <Gold.PLP.Chemscore.Metal>
0.0000

> <Gold.PLP.Chemscore.Internal.Correction>
0.0123

> <Gold.Rescore>
     Score         DG    S(hbond)    S(metal)    S(lipo)     H(rot)  DE(clash)    DE(int)     intcor
     16.41     -16.64       0.00        0.00     120.30       1.14       0.05       0.17       ----

> <Gold.Chemscore.Fitness>
16.4131

> <Gold.Chemscore.DG>
-16.6386

> <Gold.Chemscore.ZeroCoef>
-5.4800

> <Gold.Chemscore.Hbond>
0.0000

> <Gold.Chemscore.Metal>
0.0000

> <Gold.Chemscore.Lipo>
120.3023

> <Gold.Chemscore.Internal_Hbond>
0.0000

> <Gold.Chemscore.DEClash>
0.0515

> <Gold.Chemscore.DEInternal>
0.1740

> <Gold.Chemscore.Rot>
1.1393

> <Gold.Chemscore.Internal.Correction>
   9.000000E+99

> <Gold.Chemscore.Hbond.Weighted>
-0.0000

> <Gold.Chemscore.Metal.Weighted>
-0.0000

> <Gold.Chemscore.Lipo.Weighted>
-14.0754

> <Gold.Chemscore.Internal_Hbond.Weighted>
0.0000

> <Gold.Chemscore.DEClash.Weighted>
0.0515

> <Gold.Chemscore.DEInternal.Weighted>
0.1740

> <Gold.Chemscore.Rot.Weighted>
2.9167

> <Gold.Chemscore.Internal.Correction.Weighted>
   9.000000E+99

> <Gold.Protein.RotatedTorsions>
[ 6907 6896 6895 6894 ] final  116.62 input  -60.11 | X-H torsion
[ 7974 7965 7964 7962 ] final   80.40 input  175.53 | X-H torsion
[ 8008 7997 7996 7995 ] final  142.31 input   59.86 | X-H torsion
[ 10167 10162 10161 10158 ] final  -31.67 input  -65.29 | X-H torsion
[ 10718 10713 10712 10709 ] final   73.55 input   66.30 | X-H torsion
[ 10763 10752 10751 10750 ] final  152.00 input  -60.55 | X-H torsion
[ 11005 11000 10999 10996 ] final   19.78 input  -57.11 | X-H torsion

> <Gold.Protein.ActiveResidues>
 VAL166  LYS551  ARG553  GLY616  TRP617  ASP618  TYR619  PRO620  LYS621  CYS622 
 ASP623  PHE694  ASN695  SER759  ASP760  ASP761  ALA762  ILE779  LEU786  VAL792 
 PHE793  MET794  SER795  GLU796  ALA797  LYS798  CYS799  TRP800  GLU811  SER814 

> <Gold.Protein.RotatedAtoms>
  152.4666  133.7936  159.6914 H   0  0  0  0  0  0  0  0  0  0  0  0  # atno 6907 bound_to 6896
  150.8633  133.7601  159.2991 H   0  0  0  0  0  0  0  0  0  0  0  0  # atno 6908 bound_to 6896
  151.5160  135.1069  159.9918 H   0  0  0  0  0  0  0  0  0  0  0  0  # atno 6909 bound_to 6896
  145.6517  139.2449  143.1973 H   0  0  0  0  0  0  0  0  0  0  0  0  # atno 7974 bound_to 7965
  156.2951  140.2292  156.4707 H   0  0  0  0  0  0  0  0  0  0  0  0  # atno 8008 bound_to 7997
  154.7938  140.0452  157.1242 H   0  0  0  0  0  0  0  0  0  0  0  0  # atno 8009 bound_to 7997
  154.9614  140.3055  155.5032 H   0  0  0  0  0  0  0  0  0  0  0  0  # atno 8010 bound_to 7997
  140.7233  143.3753  151.1701 H   0  0  0  0  0  0  0  0  0  0  0  0  # atno 10167 bound_to 10162
  157.6553  130.9634  150.1085 H   0  0  0  0  0  0  0  0  0  0  0  0  # atno 10718 bound_to 10713
  154.1128  135.2838  155.3226 H   0  0  0  0  0  0  0  0  0  0  0  0  # atno 10763 bound_to 10752
  154.6477  135.5380  153.7868 H   0  0  0  0  0  0  0  0  0  0  0  0  # atno 10764 bound_to 10752
  153.0339  135.6502  154.1286 H   0  0  0  0  0  0  0  0  0  0  0  0  # atno 10765 bound_to 10752
  140.4099  134.1629  155.7667 H   0  0  0  0  0  0  0  0  0  0  0  0  # atno 11005 bound_to 11000
  146.1198  140.7324  142.9463 LP  0  0  0  0  0  0  0  0  0  0  0  0  # atno 17320 bound_to 7965
  144.7120  140.4073  143.7073 LP  0  0  0  0  0  0  0  0  0  0  0  0  # atno 17321 bound_to 7965
  139.7332  143.9039  152.3026 LP  0  0  0  0  0  0  0  0  0  0  0  0  # atno 17342 bound_to 10162
  139.8836  144.7004  150.8850 LP  0  0  0  0  0  0  0  0  0  0  0  0  # atno 17343 bound_to 10162
  156.1988  130.3659  149.8814 LP  0  0  0  0  0  0  0  0  0  0  0  0  # atno 17370 bound_to 10713
  156.6723  130.8825  151.3564 LP  0  0  0  0  0  0  0  0  0  0  0  0  # atno 17371 bound_to 10713
  141.1825  133.8383  157.1207 LP  0  0  0  0  0  0  0  0  0  0  0  0  # atno 17394 bound_to 11000
  140.0275  134.9917  157.0715 LP  0  0  0  0  0  0  0  0  0  0  0  0  # atno 17395 bound_to 11000

$$$$
