AV-unprocessed.smi:1383|AV-procd|sdf|5624|dock2
  -GOLD-   22720 5233D 1   1.00000     0.00000
 Structure written by MMmdl.
 30 30  0  0  0  0  0  0  0  0  2 V2000
  147.1417  135.8514  162.5649 C   0  0  0  0  0  0  0  0  0  0  0  0
  146.3621  135.7241  161.2467 C   0  0  0  0  0  0  0  0  0  0  0  0
  147.1841  135.1366  160.0773 C   0  0  2  0  0  0  0  0  0  0  0  0
  147.7004  133.7270  160.4138 C   0  0  0  0  0  0  0  0  0  0  0  0
  148.3628  136.0490  159.6866 C   0  0  0  0  0  0  0  0  0  0  0  0
  148.4175  137.1921  160.1443 O   0  0  0  0  0  0  0  0  0  0  0  0
  149.2272  135.4349  158.8428 N   0  5  0  0  0  0  0  0  0  0  0  0
  149.2590  135.7945  157.5505 C   0  0  0  0  0  0  0  0  0  0  0  0
  150.3334  136.3450  156.9749 N   0  0  0  0  0  0  0  0  0  0  0  0
  150.1490  136.6555  155.6242 C   0  0  0  0  0  0  0  0  0  0  0  0
  151.2672  137.2777  154.8384 C   0  0  0  0  0  0  0  0  0  0  0  0
  150.8035  138.5748  154.1710 C   0  0  0  0  0  0  0  0  0  0  0  0
  149.8992  138.4715  153.1928 N   0  0  0  0  0  0  0  0  0  0  0  0
  151.2471  139.6597  154.5422 O   0  0  0  0  0  0  0  0  0  0  0  0
  148.8988  136.3287  155.1652 C   0  0  0  0  0  0  0  0  0  0  0  0
  147.9140  135.6319  156.4196 S   0  0  0  0  0  0  0  0  0  0  0  0
  146.5283  136.3246  163.3318 H   0  0  0  0  0  0  0  0  0  0  0  0
  148.0375  136.4588  162.4337 H   0  0  0  0  0  0  0  0  0  0  0  0
  147.4503  134.8779  162.9467 H   0  0  0  0  0  0  0  0  0  0  0  0
  145.4667  135.1236  161.4139 H   0  0  0  0  0  0  0  0  0  0  0  0
  146.0058  136.7152  160.9643 H   0  0  0  0  0  0  0  0  0  0  0  0
  146.5069  135.0290  159.2269 H   0  0  0  0  0  0  0  0  0  0  0  0
  148.2880  133.3141  159.5929 H   0  0  0  0  0  0  0  0  0  0  0  0
  146.8722  133.0421  160.5976 H   0  0  0  0  0  0  0  0  0  0  0  0
  148.3291  133.7322  161.3050 H   0  0  0  0  0  0  0  0  0  0  0  0
  152.1220  137.4943  155.4803 H   0  0  0  0  0  0  0  0  0  0  0  0
  151.6249  136.5867  154.0741 H   0  0  0  0  0  0  0  0  0  0  0  0
  149.5528  139.3061  152.7409 H   0  0  0  0  0  0  0  0  0  0  0  0
  149.5509  137.5634  152.9227 H   0  0  0  0  0  0  0  0  0  0  0  0
  148.4972  136.4598  154.1717 H   0  0  0  0  0  0  0  0  0  0  0  0
  1  2  1  0  0  0  0
  1 17  1  0  0  0  0
  1 18  1  0  0  0  0
  1 19  1  0  0  0  0
  2  3  1  0  0  0  0
  2 20  1  0  0  0  0
  2 21  1  0  0  0  0
  3  4  1  0  0  0  0
  3  5  1  0  0  0  0
  3 22  1  0  0  0  0
  4 23  1  0  0  0  0
  4 24  1  0  0  0  0
  4 25  1  0  0  0  0
  5  6  2  0  0  0  0
  5  7  1  0  0  0  0
  7  8  1  0  0  0  0
  8 16  1  0  0  0  0
  8  9  2  0  0  0  0
  9 10  1  0  0  0  0
 10 11  1  0  0  0  0
 10 15  2  0  0  0  0
 11 12  1  0  0  0  0
 11 26  1  0  0  0  0
 11 27  1  0  0  0  0
 12 13  1  0  0  0  0
 12 14  2  0  0  0  0
 13 28  1  0  0  0  0
 13 29  1  0  0  0  0
 15 16  1  0  0  0  0
 15 30  1  0  0  0  0
M  CHG  1   7  -1
M  END
> <s_m_source_file>
AV-unprocessed.smi

> <i_m_source_file_index>
1383

> <i_lp_mmshare_version>
43012

> <i_f3d_flags>
0

> <s_epik_input>
W0NIM11bQ0gyXVtDQEhdKFtDSDNdKUMoPU8pW05IXWMxbmMoW2NIXXMxKVtDSDJdQyg9TylbTkgyXQ==

> <s_epik_cmdline>
J2VwaWtfcHl0aG9uJywgJy1waCcsICc3LjAnLCAnLXRuJywgJzgnLCAnLW1hJywgJzIwMCcsICctbWV0YWxfYmluZGluZycsICctaW1hZScsICc8aW5maWxlLm1hZT4nLCAnLW9tYWUnLCAnPG91dGZpbGUubWFlPic=

> <r_lp_tautomer_probability>
1

> <r_epik_Ionization_Penalty>
5.3563

> <r_epik_Ionization_Penalty_Charging>
4.90463

> <r_epik_Ionization_Penalty_Neutral>
0.451677

> <r_epik_State_Penalty>
4.90447

> <r_epik_Charging_Adjusted_Penalty>
9.8091

> <i_epik_Tot_Q>
-1

> <i_epik_Tot_abs_Q>
1

> <r_epik_Metal_State_Penalty>
1.05508

> <b_epik_Metal_Only>
1

> <s_lp_Force_Field>
OPLS_2005

> <r_lp_Energy>
-0.655456

> <b_lp_Chiralities_Consistent>
1

> <s_lp_Variant>
AV-unprocessed.smi:1383-3

> <Gold.Version>
5.8.1

> <Gold.Id.Protein>
6NUR|6NUR_protein|mol2

> <Gold.PLP.Fitness>
42.2566

> <Gold.PLP.PLP>
-26.2654

> <Gold.PLP.part.hbond>
-5.9379

> <Gold.PLP.part.metal>
0.0000

> <Gold.PLP.part.buried>
-4.6016

> <Gold.PLP.part.nonpolar>
-16.1101

> <Gold.PLP.part.repulsive>
0.1937

> <Gold.PLP.ligand.clash>
0.0000

> <Gold.PLP.ligand.torsion>
1.6986

> <Gold.PLP.Chemscore.Hbond>
5.3958

> <Gold.PLP.Chemscore.CHOScore>
1.0000

> <Gold.PLP.Chemscore.Metal>
0.0000

> <Gold.Chemscore.Hbonds>
donor molecule, donor type, donor heavy atom, donor atom, acceptor molecule, acceptor atom, score
      L1  H    13    28       P1  7957  0.74
      L1  H    13    29       P1  7948  1.00
      P1  H  6896  6909       L1     7  2.00
      P1  H  6931  6943       L1     6  0.47
      P1  H  6934  6947       L1     6  0.14
      P1  H  7989  7998       L1    14  1.00
      L1  C    15    30       P1  7948  1.00

> <Gold.PLP.Chemscore.Internal.Correction>
0.2008

> <Gold.Rescore>
     Score         DG    S(hbond)    S(metal)    S(lipo)     H(rot)  DE(clash)    DE(int)     intcor
     17.72     -19.24       4.31        0.00      41.73       2.15       0.01       1.51       ----

> <Gold.Chemscore.Fitness>
17.7234

> <Gold.Chemscore.DG>
-19.2420

> <Gold.Chemscore.ZeroCoef>
-5.4800

> <Gold.Chemscore.Hbond>
4.3088

> <Gold.Chemscore.Metal>
0.0000

> <Gold.Chemscore.Lipo>
41.7338

> <Gold.Chemscore.Internal_Hbond>
0.0000

> <Gold.Chemscore.DEClash>
0.0057

> <Gold.Chemscore.DEInternal>
1.5129

> <Gold.Chemscore.Rot>
2.1532

> <Gold.Chemscore.Internal.Correction>
   9.000000E+99

> <Gold.Chemscore.Hbonds>
donor molecule, donor type, donor heavy atom, donor atom, acceptor molecule, acceptor atom, score
      L1  H    13    28       P1  7957  0.74
      L1  H    13    29       P1  7948  0.74
      P1  H  6896  6909       L1     7  0.93
      P1  H  6931  6943       L1     6  0.46
      P1  H  6934  6947       L1     6  0.14
      P1  H  7989  7998       L1    14  0.98

> <Gold.Chemscore.Hbond.Weighted>
-14.3914

> <Gold.Chemscore.Metal.Weighted>
-0.0000

> <Gold.Chemscore.Lipo.Weighted>
-4.8829

> <Gold.Chemscore.Internal_Hbond.Weighted>
0.0000

> <Gold.Chemscore.DEClash.Weighted>
0.0057

> <Gold.Chemscore.DEInternal.Weighted>
1.5129

> <Gold.Chemscore.Rot.Weighted>
5.5123

> <Gold.Chemscore.Internal.Correction.Weighted>
   9.000000E+99

> <Gold.Protein.RotatedTorsions>
[ 6907 6896 6895 6894 ] final   36.01 input  -60.11 | X-H torsion
[ 7974 7965 7964 7962 ] final   21.79 input  175.53 | X-H torsion
[ 8008 7997 7996 7995 ] final  -63.69 input   59.86 | X-H torsion
[ 10167 10162 10161 10158 ] final   29.39 input  -65.29 | X-H torsion
[ 10718 10713 10712 10709 ] final -175.51 input   66.30 | X-H torsion
[ 10763 10752 10751 10750 ] final  -93.31 input  -60.55 | X-H torsion
[ 11005 11000 10999 10996 ] final -168.78 input  -57.11 | X-H torsion

> <Gold.Protein.ActiveResidues>
 VAL166  LYS551  ARG553  GLY616  TRP617  ASP618  TYR619  PRO620  LYS621  CYS622 
 ASP623  PHE694  ASN695  SER759  ASP760  ASP761  ALA762  ILE779  LEU786  VAL792 
 PHE793  MET794  SER795  GLU796  ALA797  LYS798  CYS799  TRP800  GLU811  SER814 

> <Gold.Protein.RotatedAtoms>
  152.1239  134.9185  160.0561 H   0  0  0  0  0  0  0  0  0  0  0  0  # atno 6907 bound_to 6896
  152.0316  133.3935  159.4307 H   0  0  0  0  0  0  0  0  0  0  0  0  # atno 6908 bound_to 6896
  150.6851  134.3436  159.4922 H   0  0  0  0  0  0  0  0  0  0  0  0  # atno 6909 bound_to 6896
  146.2056  139.7977  142.8728 H   0  0  0  0  0  0  0  0  0  0  0  0  # atno 7974 bound_to 7965
  154.4568  140.0969  156.6781 H   0  0  0  0  0  0  0  0  0  0  0  0  # atno 8008 bound_to 7997
  155.5113  140.3476  155.4370 H   0  0  0  0  0  0  0  0  0  0  0  0  # atno 8009 bound_to 7997
  156.0794  140.1369  156.9720 H   0  0  0  0  0  0  0  0  0  0  0  0  # atno 8010 bound_to 7997
  140.4770  144.0675  150.6253 H   0  0  0  0  0  0  0  0  0  0  0  0  # atno 10167 bound_to 10162
  156.8010  130.9552  151.3118 H   0  0  0  0  0  0  0  0  0  0  0  0  # atno 10718 bound_to 10713
  154.6947  135.5199  153.8441 H   0  0  0  0  0  0  0  0  0  0  0  0  # atno 10763 bound_to 10752
  153.0658  135.6584  154.0367 H   0  0  0  0  0  0  0  0  0  0  0  0  # atno 10764 bound_to 10752
  154.0236  135.2991  155.3357 H   0  0  0  0  0  0  0  0  0  0  0  0  # atno 10765 bound_to 10752
  140.5381  134.5549  157.5092 H   0  0  0  0  0  0  0  0  0  0  0  0  # atno 11005 bound_to 11000
  145.3329  141.0270  143.3436 LP  0  0  0  0  0  0  0  0  0  0  0  0  # atno 17320 bound_to 7965
  144.8786  139.4936  143.6734 LP  0  0  0  0  0  0  0  0  0  0  0  0  # atno 17321 bound_to 7965
  140.3906  143.2754  152.0064 LP  0  0  0  0  0  0  0  0  0  0  0  0  # atno 17342 bound_to 10162
  139.4827  144.6080  151.7485 LP  0  0  0  0  0  0  0  0  0  0  0  0  # atno 17343 bound_to 10162
  157.6554  130.8920  149.9718 LP  0  0  0  0  0  0  0  0  0  0  0  0  # atno 17370 bound_to 10713
  156.1101  130.3650  150.0064 LP  0  0  0  0  0  0  0  0  0  0  0  0  # atno 17371 bound_to 10713
  139.9518  134.7603  156.0431 LP  0  0  0  0  0  0  0  0  0  0  0  0  # atno 17394 bound_to 11000
  141.1243  133.6604  156.3295 LP  0  0  0  0  0  0  0  0  0  0  0  0  # atno 17395 bound_to 11000

$$$$
