AV-unprocessed.smi:3187|AV-procd|sdf|12177|dock7
  -GOLD-   2272018 13D 1   1.00000     0.00000
 Structure written by MMmdl.
 41 42  0  0  0  0  0  0  0  0  2 V2000
  151.7669  144.9078  158.8945 C   0  0  0  0  0  0  0  0  0  0  0  0
  152.2319  143.4812  159.1365 C   0  0  0  0  0  0  0  0  0  0  0  0
  153.3368  143.2555  159.8728 C   0  0  0  0  0  0  0  0  0  0  0  0
  153.8512  141.8830  160.2408 C   0  0  0  0  0  0  0  0  0  0  0  0
  152.7465  140.8308  160.1184 C   0  0  0  0  0  0  0  0  0  0  0  0
  152.0230  140.9303  158.7655 C   0  0  1  0  0  0  0  0  0  0  0  0
  150.9922  139.7901  158.6527 C   0  0  0  0  0  0  0  0  0  0  0  0
  151.3878  142.3370  158.5370 C   0  0  2  0  0  0  0  0  0  0  0  0
  151.0764  142.5453  157.0309 C   0  0  0  0  0  0  0  0  0  0  0  0
  149.6530  142.3235  156.7022 N   0  3  0  0  0  0  0  0  0  0  0  0
  149.4306  141.4099  155.5652 C   0  0  0  0  0  0  0  0  0  0  0  0
  147.9859  140.8934  155.5502 C   0  0  0  0  0  0  0  0  0  0  0  0
  147.0480  141.9491  155.2266 N   0  0  0  0  0  0  0  0  0  0  0  0
  146.9275  142.6210  154.0172 C   0  0  0  0  0  0  0  0  0  0  0  0
  145.9055  143.5302  154.1730 C   0  0  0  0  0  0  0  0  0  0  0  0
  145.3852  143.4337  155.4615 N   0  0  0  0  0  0  0  0  0  0  0  0
  146.1121  142.4786  156.0265 C   0  0  0  0  0  0  0  0  0  0  0  0
  150.7148  145.0169  159.1586 H   0  0  0  0  0  0  0  0  0  0  0  0
  151.9041  145.1907  157.8511 H   0  0  0  0  0  0  0  0  0  0  0  0
  152.3336  145.6169  159.4992 H   0  0  0  0  0  0  0  0  0  0  0  0
  153.9100  144.0882  160.2545 H   0  0  0  0  0  0  0  0  0  0  0  0
  154.6940  141.6396  159.5933 H   0  0  0  0  0  0  0  0  0  0  0  0
  154.2275  141.9042  161.2640 H   0  0  0  0  0  0  0  0  0  0  0  0
  153.1786  139.8379  160.2501 H   0  0  0  0  0  0  0  0  0  0  0  0
  152.0266  140.9631  160.9277 H   0  0  0  0  0  0  0  0  0  0  0  0
  152.7776  140.7711  157.9932 H   0  0  0  0  0  0  0  0  0  0  0  0
  150.1947  139.9042  159.3876 H   0  0  0  0  0  0  0  0  0  0  0  0
  151.4620  138.8218  158.8283 H   0  0  0  0  0  0  0  0  0  0  0  0
  150.5301  139.7399  157.6682 H   0  0  0  0  0  0  0  0  0  0  0  0
  150.4449  142.3557  159.0859 H   0  0  0  0  0  0  0  0  0  0  0  0
  151.3709  143.5520  156.7305 H   0  0  0  0  0  0  0  0  0  0  0  0
  151.6536  141.8617  156.4106 H   0  0  0  0  0  0  0  0  0  0  0  0
  149.1896  141.9464  157.5166 H   0  0  0  0  0  0  0  0  0  0  0  0
  149.6475  141.9370  154.6348 H   0  0  0  0  0  0  0  0  0  0  0  0
  150.1282  140.5738  155.6338 H   0  0  0  0  0  0  0  0  0  0  0  0
  147.8724  140.0911  154.8195 H   0  0  0  0  0  0  0  0  0  0  0  0
  147.7178  140.4788  156.5229 H   0  0  0  0  0  0  0  0  0  0  0  0
  147.5600  142.4043  153.1688 H   0  0  0  0  0  0  0  0  0  0  0  0
  145.5069  144.2395  153.4628 H   0  0  0  0  0  0  0  0  0  0  0  0
  145.9581  142.1554  157.0457 H   0  0  0  0  0  0  0  0  0  0  0  0
  149.2374  143.2168  156.4792 H   0  0  0  0  0  0  0  0  0  0  0  0
  1  2  1  0  0  0  0
  1 18  1  0  0  0  0
  1 19  1  0  0  0  0
  1 20  1  0  0  0  0
  2  8  1  0  0  0  0
  2  3  2  0  0  0  0
  3  4  1  0  0  0  0
  3 21  1  0  0  0  0
  4  5  1  0  0  0  0
  4 22  1  0  0  0  0
  4 23  1  0  0  0  0
  5  6  1  0  0  0  0
  5 24  1  0  0  0  0
  5 25  1  0  0  0  0
  6  7  1  0  0  0  0
  6  8  1  0  0  0  0
  6 26  1  0  0  0  0
  7 27  1  0  0  0  0
  7 28  1  0  0  0  0
  7 29  1  0  0  0  0
  8  9  1  0  0  0  0
  8 30  1  0  0  0  0
  9 10  1  0  0  0  0
  9 31  1  0  0  0  0
  9 32  1  0  0  0  0
 10 11  1  0  0  0  0
 10 33  1  0  0  0  0
 10 41  1  0  0  0  0
 11 12  1  0  0  0  0
 11 34  1  0  0  0  0
 11 35  1  0  0  0  0
 12 13  1  0  0  0  0
 12 36  1  0  0  0  0
 12 37  1  0  0  0  0
 13 17  1  0  0  0  0
 13 14  1  0  0  0  0
 14 15  2  0  0  0  0
 14 38  1  0  0  0  0
 15 16  1  0  0  0  0
 15 39  1  0  0  0  0
 16 17  2  0  0  0  0
 17 40  1  0  0  0  0
M  CHG  1  10   1
M  END
> <s_m_source_file>
AV-unprocessed.smi

> <i_m_source_file_index>
3187

> <i_lp_mmshare_version>
43012

> <i_f3d_flags>
0

> <s_epik_input>
W0NIM11DMT1bQ0hdW0NIMl1bQ0gyXVtDQEBIXShbQ0gzXSlbQ0BIXTFbQ0gyXVtOSF1bQ0gyXVtDSDJdbjJbY0hdW2NIXW5bY0hdMg==

> <s_epik_cmdline>
J2VwaWtfcHl0aG9uJywgJy1waCcsICc3LjAnLCAnLXRuJywgJzgnLCAnLW1hJywgJzIwMCcsICctbWV0YWxfYmluZGluZycsICctaW1hZScsICc8aW5maWxlLm1hZT4nLCAnLW9tYWUnLCAnPG91dGZpbGUubWFlPic=

> <r_lp_tautomer_probability>
1

> <r_epik_Ionization_Penalty>
0.0501625

> <r_epik_Ionization_Penalty_Charging>
0.0501625

> <r_epik_Ionization_Penalty_Neutral>
0

> <r_epik_State_Penalty>
0.0972392

> <r_epik_Charging_Adjusted_Penalty>
0.147402

> <i_epik_Tot_Q>
1

> <i_epik_Tot_abs_Q>
1

> <r_epik_Metal_State_Penalty>
0.000104376

> <b_epik_Metal_Only>
0

> <s_lp_Force_Field>
OPLS_2005

> <r_lp_Energy>
17.2086

> <b_lp_Chiralities_Consistent>
1

> <s_lp_Variant>
AV-unprocessed.smi:3187-3

> <Gold.Version>
5.8.1

> <Gold.Id.Protein>
6NUR|6NUR_protein|mol2

> <Gold.PLP.Fitness>
44.7834

> <Gold.PLP.PLP>
-40.9519

> <Gold.PLP.part.hbond>
-1.0000

> <Gold.PLP.part.metal>
0.0000

> <Gold.PLP.part.buried>
-6.6571

> <Gold.PLP.part.nonpolar>
-34.6101

> <Gold.PLP.part.repulsive>
0.2268

> <Gold.PLP.ligand.clash>
0.0000

> <Gold.PLP.ligand.torsion>
1.1041

> <Gold.PLP.Chemscore.Hbond>
2.0000

> <Gold.PLP.Chemscore.CHOScore>
0.0000

> <Gold.PLP.Chemscore.Metal>
0.0000

> <Gold.Chemscore.Hbonds>
donor molecule, donor type, donor heavy atom, donor atom, acceptor molecule, acceptor atom, score
      L1  H    10    41       P1  8028  2.00

> <Gold.PLP.Chemscore.Internal.Correction>
0.0398

> <Gold.Rescore>
     Score         DG    S(hbond)    S(metal)    S(lipo)     H(rot)  DE(clash)    DE(int)     intcor
     15.76     -17.10       0.98        0.00     112.49       1.89       0.03       1.30       ----

> <Gold.Chemscore.Fitness>
15.7647

> <Gold.Chemscore.DG>
-17.0973

> <Gold.Chemscore.ZeroCoef>
-5.4800

> <Gold.Chemscore.Hbond>
0.9826

> <Gold.Chemscore.Metal>
0.0000

> <Gold.Chemscore.Lipo>
112.4937

> <Gold.Chemscore.Internal_Hbond>
0.0000

> <Gold.Chemscore.DEClash>
0.0323

> <Gold.Chemscore.DEInternal>
1.3003

> <Gold.Chemscore.Rot>
1.8853

> <Gold.Chemscore.Internal.Correction>
   9.000000E+99

> <Gold.Chemscore.Hbonds>
donor molecule, donor type, donor heavy atom, donor atom, acceptor molecule, acceptor atom, score
      L1  H    10    41       P1  8028  1.00

> <Gold.Chemscore.Hbond.Weighted>
-3.2818

> <Gold.Chemscore.Metal.Weighted>
-0.0000

> <Gold.Chemscore.Lipo.Weighted>
-13.1618

> <Gold.Chemscore.Internal_Hbond.Weighted>
0.0000

> <Gold.Chemscore.DEClash.Weighted>
0.0323

> <Gold.Chemscore.DEInternal.Weighted>
1.3003

> <Gold.Chemscore.Rot.Weighted>
4.8263

> <Gold.Chemscore.Internal.Correction.Weighted>
   9.000000E+99

> <Gold.Protein.RotatedTorsions>
[ 6907 6896 6895 6894 ] final -113.19 input  -60.11 | X-H torsion
[ 7974 7965 7964 7962 ] final   -7.67 input  175.53 | X-H torsion
[ 8008 7997 7996 7995 ] final   33.07 input   59.86 | X-H torsion
[ 10167 10162 10161 10158 ] final    7.30 input  -65.29 | X-H torsion
[ 10718 10713 10712 10709 ] final  152.05 input   66.30 | X-H torsion
[ 10763 10752 10751 10750 ] final   -2.82 input  -60.55 | X-H torsion
[ 11005 11000 10999 10996 ] final -131.61 input  -57.11 | X-H torsion

> <Gold.Protein.ActiveResidues>
 VAL166  LYS551  ARG553  GLY616  TRP617  ASP618  TYR619  PRO620  LYS621  CYS622 
 ASP623  PHE694  ASN695  SER759  ASP760  ASP761  ALA762  ILE779  LEU786  VAL792 
 PHE793  MET794  SER795  GLU796  ALA797  LYS798  CYS799  TRP800  GLU811  SER814 

> <Gold.Protein.RotatedAtoms>
  150.7811  133.8981  159.3332 H   0  0  0  0  0  0  0  0  0  0  0  0  # atno 6907 bound_to 6896
  151.6843  135.0955  160.0231 H   0  0  0  0  0  0  0  0  0  0  0  0  # atno 6908 bound_to 6896
  152.3863  133.6577  159.6236 H   0  0  0  0  0  0  0  0  0  0  0  0  # atno 6909 bound_to 6896
  146.2301  140.2354  142.8341 H   0  0  0  0  0  0  0  0  0  0  0  0  # atno 7974 bound_to 7965
  155.1327  140.3259  155.4470 H   0  0  0  0  0  0  0  0  0  0  0  0  # atno 8008 bound_to 7997
  156.2629  140.2007  156.6394 H   0  0  0  0  0  0  0  0  0  0  0  0  # atno 8009 bound_to 7997
  154.6601  140.0548  157.0039 H   0  0  0  0  0  0  0  0  0  0  0  0  # atno 8010 bound_to 7997
  140.6379  143.7842  150.7386 H   0  0  0  0  0  0  0  0  0  0  0  0  # atno 10167 bound_to 10162
  157.2628  131.0801  151.1654 H   0  0  0  0  0  0  0  0  0  0  0  0  # atno 10718 bound_to 10713
  153.3632  135.6991  153.6696 H   0  0  0  0  0  0  0  0  0  0  0  0  # atno 10763 bound_to 10752
  153.5376  135.3579  155.2704 H   0  0  0  0  0  0  0  0  0  0  0  0  # atno 10764 bound_to 10752
  154.8671  135.4196  154.2893 H   0  0  0  0  0  0  0  0  0  0  0  0  # atno 10765 bound_to 10752
  140.9243  134.1403  157.4288 H   0  0  0  0  0  0  0  0  0  0  0  0  # atno 11005 bound_to 11000
  144.9525  140.8193  143.5563 LP  0  0  0  0  0  0  0  0  0  0  0  0  # atno 17320 bound_to 7965
  145.2317  139.2112  143.5039 LP  0  0  0  0  0  0  0  0  0  0  0  0  # atno 17321 bound_to 7965
  140.1467  143.4393  152.2158 LP  0  0  0  0  0  0  0  0  0  0  0  0  # atno 17342 bound_to 10162
  139.5589  144.7392  151.4212 LP  0  0  0  0  0  0  0  0  0  0  0  0  # atno 17343 bound_to 10162
  157.3157  130.6912  149.6240 LP  0  0  0  0  0  0  0  0  0  0  0  0  # atno 17370 bound_to 10713
  155.9664  130.4350  150.5074 LP  0  0  0  0  0  0  0  0  0  0  0  0  # atno 17371 bound_to 10713
  139.8782  134.9982  156.5890 LP  0  0  0  0  0  0  0  0  0  0  0  0  # atno 17394 bound_to 11000
  140.7946  133.8554  155.8675 LP  0  0  0  0  0  0  0  0  0  0  0  0  # atno 17395 bound_to 11000

$$$$
