AV-unprocessed.smi:251|AV-procd|sdf|1934|dock4
  -GOLD-   2262021 53D 1   1.00000     0.00000
 Structure written by MMmdl.
 50 54  0  0  0  0  0  0  0  0  1 V2000
  147.2974  137.0254  154.4241 O   0  0  0  0  0  0  0  0  0  0  0  0
  147.8188  136.7739  155.7140 C   0  0  0  0  0  0  0  0  0  0  0  0
  149.1433  135.9589  155.6668 C   0  0  0  0  0  0  0  0  0  0  0  0
  150.2337  136.7153  154.8506 C   0  0  0  0  0  0  0  0  0  0  0  0
  150.5298  138.0608  155.3230 N   0  0  0  0  0  0  0  0  0  0  0  0
  150.2269  139.2414  154.6851 C   0  0  0  0  0  0  0  0  0  0  0  0
  150.5972  140.3230  155.3126 N   0  0  0  0  0  0  0  0  0  0  0  0
  151.1814  139.8610  156.4873 C   0  0  0  0  0  0  0  0  0  0  0  0
  151.7874  140.4850  157.6196 C   0  0  0  0  0  0  0  0  0  0  0  0
  151.9302  141.8274  157.7795 N   0  0  0  0  0  0  0  0  0  0  0  0
  151.0927  142.7881  157.0679 C   0  0  0  0  0  0  0  0  0  0  0  0
  151.3945  144.1261  157.6972 C   0  0  2  0  0  0  0  0  0  0  0  0
  152.8049  144.6776  157.7544 C   0  0  0  0  0  0  0  0  0  0  0  0
  152.2339  143.8879  158.9140 C   0  0  1  0  0  0  0  0  0  0  0  0
  151.9740  144.5614  160.2556 C   0  0  0  0  0  0  0  0  0  0  0  0
  152.1926  145.8734  160.1660 F   0  0  0  0  0  0  0  0  0  0  0  0
  150.7096  144.3552  160.6230 F   0  0  0  0  0  0  0  0  0  0  0  0
  152.7755  144.0681  161.2000 F   0  0  0  0  0  0  0  0  0  0  0  0
  152.4694  142.3942  159.0154 C   0  0  0  0  0  0  0  0  0  0  0  0
  152.2639  139.6671  158.5955 N   0  0  0  0  0  0  0  0  0  0  0  0
  152.1503  138.3408  158.4889 C   0  0  0  0  0  0  0  0  0  0  0  0
  151.6089  137.6281  157.5011 N   0  0  0  0  0  0  0  0  0  0  0  0
  151.1383  138.4361  156.5090 C   0  0  0  0  0  0  0  0  0  0  0  0
  149.6943  135.6969  157.0910 C   0  0  0  0  0  0  0  0  0  0  0  0
  148.8325  134.7089  157.8976 C   0  0  0  0  0  0  0  0  0  0  0  0
  148.7095  133.4833  157.1880 O   0  0  0  0  0  0  0  0  0  0  0  0
  148.0593  133.6354  155.9332 C   0  0  0  0  0  0  0  0  0  0  0  0
  148.8748  134.5743  155.0249 C   0  0  0  0  0  0  0  0  0  0  0  0
  147.8861  136.6537  153.7849 H   0  0  0  0  0  0  0  0  0  0  0  0
  147.9555  137.7364  156.2037 H   0  0  0  0  0  0  0  0  0  0  0  0
  147.0607  136.2509  156.2968 H   0  0  0  0  0  0  0  0  0  0  0  0
  151.1661  136.1491  154.8497 H   0  0  0  0  0  0  0  0  0  0  0  0
  149.9378  136.7876  153.8032 H   0  0  0  0  0  0  0  0  0  0  0  0
  149.7262  139.2753  153.7282 H   0  0  0  0  0  0  0  0  0  0  0  0
  151.3292  142.8154  156.0041 H   0  0  0  0  0  0  0  0  0  0  0  0
  150.0367  142.5479  157.1972 H   0  0  0  0  0  0  0  0  0  0  0  0
  150.5754  144.8407  157.7503 H   0  0  0  0  0  0  0  0  0  0  0  0
  153.5637  144.1984  157.1388 H   0  0  0  0  0  0  0  0  0  0  0  0
  152.9156  145.7539  157.8682 H   0  0  0  0  0  0  0  0  0  0  0  0
  151.9481  141.9833  159.8805 H   0  0  0  0  0  0  0  0  0  0  0  0
  153.5355  142.1874  159.1144 H   0  0  0  0  0  0  0  0  0  0  0  0
  152.5516  137.7693  159.3128 H   0  0  0  0  0  0  0  0  0  0  0  0
  150.6999  135.2800  157.0178 H   0  0  0  0  0  0  0  0  0  0  0  0
  149.8011  136.6312  157.6428 H   0  0  0  0  0  0  0  0  0  0  0  0
  149.3051  134.5065  158.8587 H   0  0  0  0  0  0  0  0  0  0  0  0
  147.8472  135.1206  158.1178 H   0  0  0  0  0  0  0  0  0  0  0  0
  147.9744  132.6539  155.4665 H   0  0  0  0  0  0  0  0  0  0  0  0
  147.0412  133.9980  156.0770 H   0  0  0  0  0  0  0  0  0  0  0  0
  148.3642  134.6858  154.0678 H   0  0  0  0  0  0  0  0  0  0  0  0
  149.8256  134.0864  154.8067 H   0  0  0  0  0  0  0  0  0  0  0  0
  1  2  1  0  0  0  0
  1 29  1  0  0  0  0
  2  3  1  0  0  0  0
  2 30  1  0  0  0  0
  2 31  1  0  0  0  0
  3 28  1  0  0  0  0
  3  4  1  0  0  0  0
  3 24  1  0  0  0  0
  4  5  1  0  0  0  0
  4 32  1  0  0  0  0
  4 33  1  0  0  0  0
  5 23  1  0  0  0  0
  5  6  1  0  0  0  0
  6  7  2  0  0  0  0
  6 34  1  0  0  0  0
  7  8  1  0  0  0  0
  8 23  2  0  0  0  0
  8  9  1  0  0  0  0
  9 10  1  0  0  0  0
  9 20  2  0  0  0  0
 10 19  1  0  0  0  0
 10 11  1  0  0  0  0
 11 12  1  0  0  0  0
 11 35  1  0  0  0  0
 11 36  1  0  0  0  0
 12 14  1  0  0  0  0
 12 13  1  0  0  0  0
 12 37  1  0  0  0  0
 13 14  1  0  0  0  0
 13 38  1  0  0  0  0
 13 39  1  0  0  0  0
 14 15  1  0  0  0  0
 14 19  1  0  0  0  0
 15 16  1  0  0  0  0
 15 17  1  0  0  0  0
 15 18  1  0  0  0  0
 19 40  1  0  0  0  0
 19 41  1  0  0  0  0
 20 21  1  0  0  0  0
 21 22  2  0  0  0  0
 21 42  1  0  0  0  0
 22 23  1  0  0  0  0
 24 25  1  0  0  0  0
 24 43  1  0  0  0  0
 24 44  1  0  0  0  0
 25 26  1  0  0  0  0
 25 45  1  0  0  0  0
 25 46  1  0  0  0  0
 26 27  1  0  0  0  0
 27 28  1  0  0  0  0
 27 47  1  0  0  0  0
 27 48  1  0  0  0  0
 28 49  1  0  0  0  0
 28 50  1  0  0  0  0
M  END
> <s_m_source_file>
AV-unprocessed.smi

> <i_m_source_file_index>
251

> <i_lp_mmshare_version>
43012

> <i_f3d_flags>
0

> <s_epik_input>
W0NIMl0xW0NIMl1PW0NIMl1bQ0gyXUMxKFtDSDJdW09IXSlbQ0gyXW4oW2NIXW4yKWMoYzIzKW5bY0hdbmMzTihbQ0gyXTQpW0NIMl1bQ0BIXShbQ0gyXTUpW0NAQF00NUMoRikoRilG

> <s_epik_cmdline>
J2VwaWtfcHl0aG9uJywgJy1waCcsICc3LjAnLCAnLXRuJywgJzgnLCAnLW1hJywgJzIwMCcsICctbWV0YWxfYmluZGluZycsICctaW1hZScsICc8aW5maWxlLm1hZT4nLCAnLW9tYWUnLCAnPG91dGZpbGUubWFlPic=

> <r_lp_tautomer_probability>
1

> <r_epik_Ionization_Penalty>
0.00226625

> <r_epik_Ionization_Penalty_Charging>
0

> <r_epik_Ionization_Penalty_Neutral>
0.00226625

> <r_epik_State_Penalty>
0.00138204

> <r_epik_Charging_Adjusted_Penalty>
0.00138204

> <i_epik_Tot_Q>
0

> <i_epik_Tot_abs_Q>
0

> <r_epik_Metal_State_Penalty>
-0

> <b_epik_Metal_Only>
0

> <s_lp_Force_Field>
OPLS_2005

> <r_lp_Energy>
66.9783

> <b_lp_Chiralities_Consistent>
1

> <s_lp_Variant>
AV-unprocessed.smi:251-1

> <Gold.Version>
5.8.1

> <Gold.Id.Protein>
6NUR|6NUR_protein|mol2

> <Gold.PLP.Fitness>
54.8278

> <Gold.PLP.PLP>
-49.7967

> <Gold.PLP.part.hbond>
-1.5461

> <Gold.PLP.part.metal>
0.0000

> <Gold.PLP.part.buried>
-4.9641

> <Gold.PLP.part.nonpolar>
-42.6909

> <Gold.PLP.part.repulsive>
0.0403

> <Gold.PLP.ligand.clash>
0.0000

> <Gold.PLP.ligand.torsion>
1.5958

> <Gold.PLP.Chemscore.Hbond>
1.1760

> <Gold.PLP.Chemscore.CHOScore>
0.9707

> <Gold.PLP.Chemscore.Metal>
0.0000

> <Gold.Chemscore.Hbonds>
donor molecule, donor type, donor heavy atom, donor atom, acceptor molecule, acceptor atom, score
      L1  H     1    29       P1  7948  0.49
      P1  H  7989  7998       L1     7  0.24
      L1  C     6    34       P1  7957  0.63

> <Gold.PLP.Chemscore.Internal.Correction>
1.7827

> <Gold.Rescore>
     Score         DG    S(hbond)    S(metal)    S(lipo)     H(rot)  DE(clash)    DE(int)     intcor
     11.20     -14.17       0.95        0.00      96.13       2.23       0.03       2.94       ----

> <Gold.Chemscore.Fitness>
11.1962

> <Gold.Chemscore.DG>
-14.1668

> <Gold.Chemscore.ZeroCoef>
-5.4800

> <Gold.Chemscore.Hbond>
0.9459

> <Gold.Chemscore.Metal>
0.0000

> <Gold.Chemscore.Lipo>
96.1339

> <Gold.Chemscore.Internal_Hbond>
0.0000

> <Gold.Chemscore.DEClash>
0.0319

> <Gold.Chemscore.DEInternal>
2.9387

> <Gold.Chemscore.Rot>
2.2344

> <Gold.Chemscore.Internal.Correction>
   9.000000E+99

> <Gold.Chemscore.Hbonds>
donor molecule, donor type, donor heavy atom, donor atom, acceptor molecule, acceptor atom, score
      L1  H     1    29       P1  7948  0.48

> <Gold.Chemscore.Hbond.Weighted>
-3.1592

> <Gold.Chemscore.Metal.Weighted>
-0.0000

> <Gold.Chemscore.Lipo.Weighted>
-11.2477

> <Gold.Chemscore.Internal_Hbond.Weighted>
0.0000

> <Gold.Chemscore.DEClash.Weighted>
0.0319

> <Gold.Chemscore.DEInternal.Weighted>
2.9387

> <Gold.Chemscore.Rot.Weighted>
5.7200

> <Gold.Chemscore.Internal.Correction.Weighted>
   9.000000E+99

> <Gold.Protein.RotatedTorsions>
[ 6907 6896 6895 6894 ] final  171.78 input  -60.11 | X-H torsion
[ 7974 7965 7964 7962 ] final  147.08 input  175.53 | X-H torsion
[ 8008 7997 7996 7995 ] final   34.32 input   59.86 | X-H torsion
[ 10167 10162 10161 10158 ] final -107.79 input  -65.29 | X-H torsion
[ 10718 10713 10712 10709 ] final  155.35 input   66.30 | X-H torsion
[ 10763 10752 10751 10750 ] final  -19.24 input  -60.55 | X-H torsion
[ 11005 11000 10999 10996 ] final  -18.42 input  -57.11 | X-H torsion

> <Gold.Protein.ActiveResidues>
 VAL166  LYS551  ARG553  GLY616  TRP617  ASP618  TYR619  PRO620  LYS621  CYS622 
 ASP623  PHE694  ASN695  SER759  ASP760  ASP761  ALA762  ILE779  LEU786  VAL792 
 PHE793  MET794  SER795  GLU796  ALA797  LYS798  CYS799  TRP800  GLU811  SER814 

> <Gold.Protein.RotatedAtoms>
  151.7948  133.3363  159.3509 H   0  0  0  0  0  0  0  0  0  0  0  0  # atno 6907 bound_to 6896
  150.7379  134.5809  159.5947 H   0  0  0  0  0  0  0  0  0  0  0  0  # atno 6908 bound_to 6896
  152.3184  134.7412  160.0371 H   0  0  0  0  0  0  0  0  0  0  0  0  # atno 6909 bound_to 6896
  144.8620  139.5984  143.5926 H   0  0  0  0  0  0  0  0  0  0  0  0  # atno 7974 bound_to 7965
  155.1529  140.3276  155.4427 H   0  0  0  0  0  0  0  0  0  0  0  0  # atno 8008 bound_to 7997
  156.2568  140.1973  156.6590 H   0  0  0  0  0  0  0  0  0  0  0  0  # atno 8009 bound_to 7997
  154.6460  140.0564  156.9887 H   0  0  0  0  0  0  0  0  0  0  0  0  # atno 8010 bound_to 7997
  140.1731  143.4026  152.1339 H   0  0  0  0  0  0  0  0  0  0  0  0  # atno 10167 bound_to 10162
  157.2195  131.0715  151.1921 H   0  0  0  0  0  0  0  0  0  0  0  0  # atno 10718 bound_to 10713
  153.6017  135.6999  153.5382 H   0  0  0  0  0  0  0  0  0  0  0  0  # atno 10763 bound_to 10752
  153.3091  135.4106  155.1320 H   0  0  0  0  0  0  0  0  0  0  0  0  # atno 10764 bound_to 10752
  154.8581  135.3668  154.5553 H   0  0  0  0  0  0  0  0  0  0  0  0  # atno 10765 bound_to 10752
  140.8267  133.8028  155.9715 H   0  0  0  0  0  0  0  0  0  0  0  0  # atno 11005 bound_to 11000
  146.2867  139.7025  142.9190 LP  0  0  0  0  0  0  0  0  0  0  0  0  # atno 17320 bound_to 7965
  145.4294  141.0414  143.2919 LP  0  0  0  0  0  0  0  0  0  0  0  0  # atno 17321 bound_to 7965
  139.5329  144.7178  151.4994 LP  0  0  0  0  0  0  0  0  0  0  0  0  # atno 17342 bound_to 10162
  140.6569  143.8581  150.6844 LP  0  0  0  0  0  0  0  0  0  0  0  0  # atno 17343 bound_to 10162
  157.3590  130.7121  149.6489 LP  0  0  0  0  0  0  0  0  0  0  0  0  # atno 17370 bound_to 10713
  155.9683  130.4231  150.4546 LP  0  0  0  0  0  0  0  0  0  0  0  0  # atno 17371 bound_to 10713
  140.9042  134.2341  157.5024 LP  0  0  0  0  0  0  0  0  0  0  0  0  # atno 17394 bound_to 11000
  139.8706  134.9720  156.4759 LP  0  0  0  0  0  0  0  0  0  0  0  0  # atno 17395 bound_to 11000

$$$$
