AV-unprocessed.smi:2229|AV-procd|sdf|9032|dock4
  -GOLD-   2272012233D 1   1.00000     0.00000
 Structure written by MMmdl.
 43 44  0  0  0  0  0  0  0  0  2 V2000
  152.5023  144.8211  159.1728 C   0  0  0  0  0  0  0  0  0  0  0  0
  151.9327  143.3981  159.0388 C   0  0  0  0  0  0  0  0  0  0  0  0
  152.9309  142.3666  159.5860 C   0  0  0  0  0  0  0  0  0  0  0  0
  151.5287  143.0501  157.5905 C   0  0  0  0  0  0  0  0  0  0  0  0
  150.7256  141.7439  157.4741 C   0  0  0  0  0  0  0  0  0  0  0  0
  150.6902  141.1417  156.0513 C   0  0  1  0  0  0  0  0  0  0  0  0
  150.4921  139.6219  156.0251 C   0  0  0  0  0  0  0  0  0  0  0  0
  150.0402  139.3287  154.5991 C   0  0  0  0  0  0  0  0  0  0  0  0
  149.1289  140.5025  154.2386 C   0  0  0  0  0  0  0  0  0  0  0  0
  149.6016  141.6975  155.0910 C   0  0  1  0  0  0  0  0  0  0  0  0
  148.4664  142.2965  155.7955 N   0  0  0  0  0  0  0  0  0  0  0  0
  147.4722  141.6177  156.3896 C   0  0  0  0  0  0  0  0  0  0  0  0
  147.4464  140.3903  156.4822 O   0  0  0  0  0  0  0  0  0  0  0  0
  146.3216  142.4515  156.9586 C   0  0  0  0  0  0  0  0  0  0  0  0
  146.2188  142.2791  158.4087 N   0  0  0  0  0  0  0  0  0  0  0  0
  146.6518  143.2179  159.3114 C   0  0  0  0  0  0  0  0  0  0  0  0
  146.4787  142.8048  160.5156 N   0  0  0  0  0  0  0  0  0  0  0  0
  145.8926  141.5024  160.4175 N   0  5  0  0  0  0  0  0  0  0  0  0
  145.7603  141.2344  159.0998 C   0  0  0  0  0  0  0  0  0  0  0  0
  145.3046  140.2227  158.5686 O   0  0  0  0  0  0  0  0  0  0  0  0
  153.3705  144.9646  158.5291 H   0  0  0  0  0  0  0  0  0  0  0  0
  152.8124  145.0229  160.1984 H   0  0  0  0  0  0  0  0  0  0  0  0
  151.7630  145.5787  158.9137 H   0  0  0  0  0  0  0  0  0  0  0  0
  151.0382  143.3419  159.6608 H   0  0  0  0  0  0  0  0  0  0  0  0
  153.8554  142.3645  159.0077 H   0  0  0  0  0  0  0  0  0  0  0  0
  152.5145  141.3595  159.5532 H   0  0  0  0  0  0  0  0  0  0  0  0
  153.1874  142.5798  160.6240 H   0  0  0  0  0  0  0  0  0  0  0  0
  150.9593  143.8723  157.1555 H   0  0  0  0  0  0  0  0  0  0  0  0
  152.4354  142.9592  156.9921 H   0  0  0  0  0  0  0  0  0  0  0  0
  151.1359  141.0122  158.1694 H   0  0  0  0  0  0  0  0  0  0  0  0
  149.7023  141.9387  157.7930 H   0  0  0  0  0  0  0  0  0  0  0  0
  151.6538  141.3478  155.5820 H   0  0  0  0  0  0  0  0  0  0  0  0
  151.3963  139.0737  156.2913 H   0  0  0  0  0  0  0  0  0  0  0  0
  149.7073  139.3332  156.7260 H   0  0  0  0  0  0  0  0  0  0  0  0
  150.9066  139.3190  153.9363 H   0  0  0  0  0  0  0  0  0  0  0  0
  149.5402  138.3644  154.5064 H   0  0  0  0  0  0  0  0  0  0  0  0
  149.1606  140.7233  153.1712 H   0  0  0  0  0  0  0  0  0  0  0  0
  148.0978  140.2382  154.4794 H   0  0  0  0  0  0  0  0  0  0  0  0
  150.0585  142.4392  154.4332 H   0  0  0  0  0  0  0  0  0  0  0  0
  148.3955  143.3034  155.7684 H   0  0  0  0  0  0  0  0  0  0  0  0
  146.4873  143.5012  156.7106 H   0  0  0  0  0  0  0  0  0  0  0  0
  145.3786  142.1713  156.4861 H   0  0  0  0  0  0  0  0  0  0  0  0
  147.0775  144.1605  158.9632 H   0  0  0  0  0  0  0  0  0  0  0  0
  1  2  1  0  0  0  0
  1 21  1  0  0  0  0
  1 22  1  0  0  0  0
  1 23  1  0  0  0  0
  2  3  1  0  0  0  0
  2  4  1  0  0  0  0
  2 24  1  0  0  0  0
  3 25  1  0  0  0  0
  3 26  1  0  0  0  0
  3 27  1  0  0  0  0
  4  5  1  0  0  0  0
  4 28  1  0  0  0  0
  4 29  1  0  0  0  0
  5  6  1  0  0  0  0
  5 30  1  0  0  0  0
  5 31  1  0  0  0  0
  6 10  1  0  0  0  0
  6  7  1  0  0  0  0
  6 32  1  0  0  0  0
  7  8  1  0  0  0  0
  7 33  1  0  0  0  0
  7 34  1  0  0  0  0
  8  9  1  0  0  0  0
  8 35  1  0  0  0  0
  8 36  1  0  0  0  0
  9 10  1  0  0  0  0
  9 37  1  0  0  0  0
  9 38  1  0  0  0  0
 10 11  1  0  0  0  0
 10 39  1  0  0  0  0
 11 12  1  0  0  0  0
 11 40  1  0  0  0  0
 12 13  2  0  0  0  0
 12 14  1  0  0  0  0
 14 15  1  0  0  0  0
 14 41  1  0  0  0  0
 14 42  1  0  0  0  0
 15 19  1  0  0  0  0
 15 16  1  0  0  0  0
 16 17  2  0  0  0  0
 16 43  1  0  0  0  0
 17 18  1  0  0  0  0
 18 19  1  0  0  0  0
 19 20  2  0  0  0  0
M  CHG  1  18  -1
M  END
> <s_m_source_file>
AV-unprocessed.smi

> <i_m_source_file_index>
2229

> <i_lp_mmshare_version>
43012

> <i_f3d_flags>
0

> <s_epik_input>
W0NIM11bQ0hdKFtDSDNdKVtDSDJdW0NIMl1bQ0BASF0xW0NIMl1bQ0gyXVtDSDJdW0NASF0xW05IXUMoPU8pW0NIMl1uMltjSF1uW25IXWMyPU8=

> <s_epik_cmdline>
J2VwaWtfcHl0aG9uJywgJy1waCcsICc3LjAnLCAnLXRuJywgJzgnLCAnLW1hJywgJzIwMCcsICctbWV0YWxfYmluZGluZycsICctaW1hZScsICc8aW5maWxlLm1hZT4nLCAnLW9tYWUnLCAnPG91dGZpbGUubWFlPic=

> <r_lp_tautomer_probability>
1

> <r_epik_Ionization_Penalty>
13.6733

> <r_epik_Ionization_Penalty_Charging>
13.6725

> <r_epik_Ionization_Penalty_Neutral>
0.000837689

> <r_epik_State_Penalty>
5.67062

> <r_epik_Charging_Adjusted_Penalty>
19.3431

> <i_epik_Tot_Q>
-1

> <i_epik_Tot_abs_Q>
1

> <r_epik_Metal_State_Penalty>
1.61781

> <b_epik_Metal_Only>
1

> <s_lp_Force_Field>
OPLS_2005

> <r_lp_Energy>
25.9104

> <b_lp_Chiralities_Consistent>
1

> <s_lp_Variant>
AV-unprocessed.smi:2229-6

> <Gold.Version>
5.8.1

> <Gold.Id.Protein>
6NUR|6NUR_protein|mol2

> <Gold.PLP.Fitness>
45.3534

> <Gold.PLP.PLP>
-35.0004

> <Gold.PLP.part.hbond>
-1.8020

> <Gold.PLP.part.metal>
0.0000

> <Gold.PLP.part.buried>
-1.7642

> <Gold.PLP.part.nonpolar>
-31.5592

> <Gold.PLP.part.repulsive>
0.1647

> <Gold.PLP.ligand.clash>
0.0000

> <Gold.PLP.ligand.torsion>
0.8549

> <Gold.PLP.Chemscore.Hbond>
3.0000

> <Gold.PLP.Chemscore.CHOScore>
1.0000

> <Gold.PLP.Chemscore.Metal>
0.0000

> <Gold.Chemscore.Hbonds>
donor molecule, donor type, donor heavy atom, donor atom, acceptor molecule, acceptor atom, score
      L1  H    11    40       P1  8028  0.89
      P1  H  6933  6944       L1    17  0.37
      P1  H  6934  6946       L1    18  0.44
      L1  C    16    43       P1  8029  0.89

> <Gold.PLP.Chemscore.Internal.Correction>
0.0628

> <Gold.Rescore>
     Score         DG    S(hbond)    S(metal)    S(lipo)     H(rot)  DE(clash)    DE(int)     intcor
     10.55     -12.82       1.03        0.00      90.05       2.59       0.01       2.26       ----

> <Gold.Chemscore.Fitness>
10.5546

> <Gold.Chemscore.DG>
-12.8209

> <Gold.Chemscore.ZeroCoef>
-5.4800

> <Gold.Chemscore.Hbond>
1.0315

> <Gold.Chemscore.Metal>
0.0000

> <Gold.Chemscore.Lipo>
90.0539

> <Gold.Chemscore.Internal_Hbond>
0.0000

> <Gold.Chemscore.DEClash>
0.0073

> <Gold.Chemscore.DEInternal>
2.2589

> <Gold.Chemscore.Rot>
2.5939

> <Gold.Chemscore.Internal.Correction>
   9.000000E+99

> <Gold.Chemscore.Hbonds>
donor molecule, donor type, donor heavy atom, donor atom, acceptor molecule, acceptor atom, score
      L1  H    11    40       P1  8028  0.82
      P1  H  6933  6944       L1    17  0.08
      P1  H  6934  6946       L1    18  0.02

> <Gold.Chemscore.Hbond.Weighted>
-3.4451

> <Gold.Chemscore.Metal.Weighted>
-0.0000

> <Gold.Chemscore.Lipo.Weighted>
-10.5363

> <Gold.Chemscore.Internal_Hbond.Weighted>
0.0000

> <Gold.Chemscore.DEClash.Weighted>
0.0073

> <Gold.Chemscore.DEInternal.Weighted>
2.2589

> <Gold.Chemscore.Rot.Weighted>
6.6405

> <Gold.Chemscore.Internal.Correction.Weighted>
   9.000000E+99

> <Gold.Protein.RotatedTorsions>
[ 6907 6896 6895 6894 ] final  -98.95 input  -60.11 | X-H torsion
[ 7974 7965 7964 7962 ] final -121.41 input  175.53 | X-H torsion
[ 8008 7997 7996 7995 ] final -166.67 input   59.86 | X-H torsion
[ 10167 10162 10161 10158 ] final -139.59 input  -65.29 | X-H torsion
[ 10718 10713 10712 10709 ] final  -33.64 input   66.30 | X-H torsion
[ 10763 10752 10751 10750 ] final   39.01 input  -60.55 | X-H torsion
[ 11005 11000 10999 10996 ] final   41.22 input  -57.11 | X-H torsion

> <Gold.Protein.ActiveResidues>
 VAL166  LYS551  ARG553  GLY616  TRP617  ASP618  TYR619  PRO620  LYS621  CYS622 
 ASP623  PHE694  ASN695  SER759  ASP760  ASP761  ALA762  ILE779  LEU786  VAL792 
 PHE793  MET794  SER795  GLU796  ALA797  LYS798  CYS799  TRP800  GLU811  SER814 

> <Gold.Protein.RotatedAtoms>
  150.7064  134.1115  159.4001 H   0  0  0  0  0  0  0  0  0  0  0  0  # atno 6907 bound_to 6896
  151.9101  135.0340  160.0523 H   0  0  0  0  0  0  0  0  0  0  0  0  # atno 6908 bound_to 6896
  152.2342  133.5047  159.5270 H   0  0  0  0  0  0  0  0  0  0  0  0  # atno 6909 bound_to 6896
  145.0406  140.8141  143.4268 H   0  0  0  0  0  0  0  0  0  0  0  0  # atno 7974 bound_to 7965
  155.8671  140.0987  157.1575 H   0  0  0  0  0  0  0  0  0  0  0  0  # atno 8008 bound_to 7997
  154.3994  140.1354  156.4095 H   0  0  0  0  0  0  0  0  0  0  0  0  # atno 8009 bound_to 7997
  155.7792  140.3459  155.5290 H   0  0  0  0  0  0  0  0  0  0  0  0  # atno 8010 bound_to 7997
  139.8365  143.7378  152.2664 H   0  0  0  0  0  0  0  0  0  0  0  0  # atno 10167 bound_to 10162
  156.3602  130.4322  149.7630 H   0  0  0  0  0  0  0  0  0  0  0  0  # atno 10718 bound_to 10713
  152.9981  135.6233  154.2396 H   0  0  0  0  0  0  0  0  0  0  0  0  # atno 10763 bound_to 10752
  154.2137  135.2799  155.2951 H   0  0  0  0  0  0  0  0  0  0  0  0  # atno 10764 bound_to 10752
  154.5586  135.5712  153.7045 H   0  0  0  0  0  0  0  0  0  0  0  0  # atno 10765 bound_to 10752
  140.1855  134.4051  155.8176 H   0  0  0  0  0  0  0  0  0  0  0  0  # atno 11005 bound_to 11000
  145.1653  139.2435  143.5370 LP  0  0  0  0  0  0  0  0  0  0  0  0  # atno 17320 bound_to 7965
  146.3509  140.1390  142.8595 LP  0  0  0  0  0  0  0  0  0  0  0  0  # atno 17321 bound_to 7965
  139.7602  144.7509  151.0376 LP  0  0  0  0  0  0  0  0  0  0  0  0  # atno 17342 bound_to 10162
  140.7802  143.4760  151.0082 LP  0  0  0  0  0  0  0  0  0  0  0  0  # atno 17343 bound_to 10162
  156.4797  130.8035  151.3050 LP  0  0  0  0  0  0  0  0  0  0  0  0  # atno 17370 bound_to 10713
  157.7472  131.0009  150.2945 LP  0  0  0  0  0  0  0  0  0  0  0  0  # atno 17371 bound_to 10713
  141.2224  133.7021  156.8004 LP  0  0  0  0  0  0  0  0  0  0  0  0  # atno 17394 bound_to 11000
  140.2219  134.8751  157.3386 LP  0  0  0  0  0  0  0  0  0  0  0  0  # atno 17395 bound_to 11000

$$$$
