AV-unprocessed.smi:1899|AV-procd|sdf|7707|dock6
  -GOLD-   22720 9443D 1   1.00000     0.00000
 Structure written by MMmdl.
 33 34  0  0  0  0  0  0  0  0  1 V2000
  152.6645  139.8465  157.8783 O   0  0  0  0  0  0  0  0  0  0  0  0
  151.7893  140.7098  157.8070 C   0  0  0  0  0  0  0  0  0  0  0  0
  150.8298  140.7103  156.8680 N   0  0  0  0  0  0  0  0  0  0  0  0
  150.6446  139.6785  155.8516 C   0  0  0  0  0  0  0  0  0  0  0  0
  150.2784  140.2826  154.4829 C   0  0  0  0  0  0  0  0  0  0  0  0
  148.9510  140.8693  154.4674 N   0  0  0  0  0  0  0  0  0  0  0  0
  147.9102  140.5648  153.5994 C   0  0  0  0  0  0  0  0  0  0  0  0
  146.8550  141.3753  153.9511 C   0  0  0  0  0  0  0  0  0  0  0  0
  147.2189  142.1762  155.0311 N   0  0  0  0  0  0  0  0  0  0  0  0
  148.4724  141.8201  155.2814 C   0  0  0  0  0  0  0  0  0  0  0  0
  151.7378  141.8429  158.8393 C   0  0  2  0  0  0  0  0  0  0  0  0
  151.8001  143.2306  158.1600 C   0  0  0  0  0  0  0  0  0  0  0  0
  152.0217  144.3500  159.1625 C   0  0  0  0  0  0  0  0  0  0  0  0
  152.4456  144.1428  160.4211 C   0  0  0  0  0  0  0  0  0  0  0  0
  152.7560  142.7665  160.9826 C   0  0  0  0  0  0  0  0  0  0  0  0
  152.8686  141.6994  159.8778 C   0  0  0  0  0  0  0  0  0  0  0  0
  150.1538  141.4604  156.8836 H   0  0  0  0  0  0  0  0  0  0  0  0
  151.5841  139.1328  155.7629 H   0  0  0  0  0  0  0  0  0  0  0  0
  149.8981  138.9451  156.1613 H   0  0  0  0  0  0  0  0  0  0  0  0
  151.0040  141.0444  154.1947 H   0  0  0  0  0  0  0  0  0  0  0  0
  150.3154  139.5092  153.7148 H   0  0  0  0  0  0  0  0  0  0  0  0
  148.0071  139.8242  152.8193 H   0  0  0  0  0  0  0  0  0  0  0  0
  145.8701  141.4433  153.5132 H   0  0  0  0  0  0  0  0  0  0  0  0
  149.0586  142.2659  156.0715 H   0  0  0  0  0  0  0  0  0  0  0  0
  150.7889  141.7728  159.3749 H   0  0  0  0  0  0  0  0  0  0  0  0
  152.6024  143.2785  157.4223 H   0  0  0  0  0  0  0  0  0  0  0  0
  150.8678  143.4216  157.6273 H   0  0  0  0  0  0  0  0  0  0  0  0
  151.8339  145.3564  158.8183 H   0  0  0  0  0  0  0  0  0  0  0  0
  152.5711  144.9813  161.0904 H   0  0  0  0  0  0  0  0  0  0  0  0
  153.6842  142.8105  161.5529 H   0  0  0  0  0  0  0  0  0  0  0  0
  151.9641  142.5010  161.6834 H   0  0  0  0  0  0  0  0  0  0  0  0
  152.8602  140.7050  160.3264 H   0  0  0  0  0  0  0  0  0  0  0  0
  153.8343  141.8027  159.3799 H   0  0  0  0  0  0  0  0  0  0  0  0
  1  2  2  0  0  0  0
  2  3  1  0  0  0  0
  2 11  1  0  0  0  0
  3  4  1  0  0  0  0
  3 17  1  0  0  0  0
  4  5  1  0  0  0  0
  4 18  1  0  0  0  0
  4 19  1  0  0  0  0
  5  6  1  0  0  0  0
  5 20  1  0  0  0  0
  5 21  1  0  0  0  0
  6 10  1  0  0  0  0
  6  7  1  0  0  0  0
  7  8  2  0  0  0  0
  7 22  1  0  0  0  0
  8  9  1  0  0  0  0
  8 23  1  0  0  0  0
  9 10  2  0  0  0  0
 10 24  1  0  0  0  0
 11 16  1  0  0  0  0
 11 12  1  0  0  0  0
 11 25  1  0  0  0  0
 12 13  1  0  0  0  0
 12 26  1  0  0  0  0
 12 27  1  0  0  0  0
 13 14  2  0  0  0  0
 13 28  1  0  0  0  0
 14 15  1  0  0  0  0
 14 29  1  0  0  0  0
 15 16  1  0  0  0  0
 15 30  1  0  0  0  0
 15 31  1  0  0  0  0
 16 32  1  0  0  0  0
 16 33  1  0  0  0  0
M  END
> <s_m_source_file>
AV-unprocessed.smi

> <i_m_source_file_index>
1899

> <i_lp_mmshare_version>
43012

> <i_f3d_flags>
0

> <s_epik_input>
W0NIMl0xW0NIMl1bQ0hdPVtDSF1bQ0gyXVtDQEhdMUMoPU8pW05IXVtDSDJdW0NIMl1uMltjSF1bY0hdbltjSF0y

> <s_epik_cmdline>
J2VwaWtfcHl0aG9uJywgJy1waCcsICc3LjAnLCAnLXRuJywgJzgnLCAnLW1hJywgJzIwMCcsICctbWV0YWxfYmluZGluZycsICctaW1hZScsICc8aW5maWxlLm1hZT4nLCAnLW9tYWUnLCAnPG91dGZpbGUubWFlPic=

> <r_lp_tautomer_probability>
1

> <r_epik_Ionization_Penalty>
0.598506

> <r_epik_Ionization_Penalty_Charging>
0.598506

> <r_epik_Ionization_Penalty_Neutral>
1.57027e-08

> <r_epik_State_Penalty>
0.612686

> <r_epik_Charging_Adjusted_Penalty>
1.21119

> <i_epik_Tot_Q>
0

> <i_epik_Tot_abs_Q>
0

> <r_epik_Metal_State_Penalty>
0.300712

> <b_epik_Metal_Only>
0

> <s_lp_Force_Field>
OPLS_2005

> <r_lp_Energy>
9.97921

> <b_lp_Chiralities_Consistent>
1

> <s_lp_Variant>
AV-unprocessed.smi:1899-3

> <Gold.Version>
5.8.1

> <Gold.Id.Protein>
6NUR|6NUR_protein|mol2

> <Gold.PLP.Fitness>
43.7913

> <Gold.PLP.PLP>
-33.9804

> <Gold.PLP.part.hbond>
-1.0000

> <Gold.PLP.part.metal>
0.0000

> <Gold.PLP.part.buried>
2.2325

> <Gold.PLP.part.nonpolar>
-35.0967

> <Gold.PLP.part.repulsive>
0.2118

> <Gold.PLP.ligand.clash>
0.0000

> <Gold.PLP.ligand.torsion>
0.1860

> <Gold.PLP.Chemscore.Hbond>
1.0000

> <Gold.PLP.Chemscore.CHOScore>
2.3808

> <Gold.PLP.Chemscore.Metal>
0.0000

> <Gold.Chemscore.Hbonds>
donor molecule, donor type, donor heavy atom, donor atom, acceptor molecule, acceptor atom, score
      P1  H  7997  8009       L1     1  0.88
      L1  C     7    22       P1  7957  0.83
      L1  C     8    23       P1 10175  0.82
      L1  C    10    24       P1  8028  0.48

> <Gold.PLP.Chemscore.Internal.Correction>
0.0408

> <Gold.Rescore>
     Score         DG    S(hbond)    S(metal)    S(lipo)     H(rot)  DE(clash)    DE(int)     intcor
     14.41     -15.30       0.98        0.00      95.36       1.80       0.59       0.30       ----

> <Gold.Chemscore.Fitness>
14.4103

> <Gold.Chemscore.DG>
-15.2993

> <Gold.Chemscore.ZeroCoef>
-5.4800

> <Gold.Chemscore.Hbond>
0.9826

> <Gold.Chemscore.Metal>
0.0000

> <Gold.Chemscore.Lipo>
95.3645

> <Gold.Chemscore.Internal_Hbond>
0.0000

> <Gold.Chemscore.DEClash>
0.5911

> <Gold.Chemscore.DEInternal>
0.2979

> <Gold.Chemscore.Rot>
1.8048

> <Gold.Chemscore.Internal.Correction>
   9.000000E+99

> <Gold.Chemscore.Hbonds>
donor molecule, donor type, donor heavy atom, donor atom, acceptor molecule, acceptor atom, score
      P1  H  7997  8009       L1     1  0.84

> <Gold.Chemscore.Hbond.Weighted>
-3.2820

> <Gold.Chemscore.Metal.Weighted>
-0.0000

> <Gold.Chemscore.Lipo.Weighted>
-11.1576

> <Gold.Chemscore.Internal_Hbond.Weighted>
0.0000

> <Gold.Chemscore.DEClash.Weighted>
0.5911

> <Gold.Chemscore.DEInternal.Weighted>
0.2979

> <Gold.Chemscore.Rot.Weighted>
4.6203

> <Gold.Chemscore.Internal.Correction.Weighted>
   9.000000E+99

> <Gold.Protein.RotatedTorsions>
[ 6907 6896 6895 6894 ] final -167.80 input  -60.11 | X-H torsion
[ 7974 7965 7964 7962 ] final   88.69 input  175.53 | X-H torsion
[ 8008 7997 7996 7995 ] final  163.91 input   59.86 | X-H torsion
[ 10167 10162 10161 10158 ] final   20.06 input  -65.29 | X-H torsion
[ 10718 10713 10712 10709 ] final  -76.50 input   66.30 | X-H torsion
[ 10763 10752 10751 10750 ] final   80.52 input  -60.55 | X-H torsion
[ 11005 11000 10999 10996 ] final  -49.94 input  -57.11 | X-H torsion

> <Gold.Protein.ActiveResidues>
 VAL166  LYS551  ARG553  GLY616  TRP617  ASP618  TYR619  PRO620  LYS621  CYS622 
 ASP623  PHE694  ASN695  SER759  ASP760  ASP761  ALA762  ILE779  LEU786  VAL792 
 PHE793  MET794  SER795  GLU796  ALA797  LYS798  CYS799  TRP800  GLU811  SER814 

> <Gold.Protein.RotatedAtoms>
  151.4653  133.3582  159.2815 H   0  0  0  0  0  0  0  0  0  0  0  0  # atno 6907 bound_to 6896
  150.8997  134.8410  159.7362 H   0  0  0  0  0  0  0  0  0  0  0  0  # atno 6908 bound_to 6896
  152.4872  134.4572  159.9645 H   0  0  0  0  0  0  0  0  0  0  0  0  # atno 6909 bound_to 6896
  145.5423  139.2289  143.2559 H   0  0  0  0  0  0  0  0  0  0  0  0  # atno 7974 bound_to 7965
  156.1920  140.1711  156.8072 H   0  0  0  0  0  0  0  0  0  0  0  0  # atno 8008 bound_to 7997
  154.5483  140.0722  156.8658 H   0  0  0  0  0  0  0  0  0  0  0  0  # atno 8009 bound_to 7997
  155.3078  140.3365  155.4247 H   0  0  0  0  0  0  0  0  0  0  0  0  # atno 8010 bound_to 7997
  140.5532  143.9472  150.6592 H   0  0  0  0  0  0  0  0  0  0  0  0  # atno 10167 bound_to 10162
  156.0173  130.4467  150.3203 H   0  0  0  0  0  0  0  0  0  0  0  0  # atno 10718 bound_to 10713
  153.1041  135.4799  154.8919 H   0  0  0  0  0  0  0  0  0  0  0  0  # atno 10763 bound_to 10752
  154.7410  135.3082  154.8730 H   0  0  0  0  0  0  0  0  0  0  0  0  # atno 10764 bound_to 10752
  153.9338  135.6842  153.4798 H   0  0  0  0  0  0  0  0  0  0  0  0  # atno 10765 bound_to 10752
  141.0788  133.6659  156.3659 H   0  0  0  0  0  0  0  0  0  0  0  0  # atno 11005 bound_to 11000
  146.1973  140.6243  142.9118 LP  0  0  0  0  0  0  0  0  0  0  0  0  # atno 17320 bound_to 7965
  144.7571  140.5333  143.6761 LP  0  0  0  0  0  0  0  0  0  0  0  0  # atno 17321 bound_to 7965
  140.2903  143.3329  152.1069 LP  0  0  0  0  0  0  0  0  0  0  0  0  # atno 17342 bound_to 10162
  139.5036  144.6759  151.6129 LP  0  0  0  0  0  0  0  0  0  0  0  0  # atno 17343 bound_to 10162
  157.1303  131.0270  151.2972 LP  0  0  0  0  0  0  0  0  0  0  0  0  # atno 17370 bound_to 10713
  157.4556  130.7623  149.7190 LP  0  0  0  0  0  0  0  0  0  0  0  0  # atno 17371 bound_to 10713
  140.5514  134.6023  157.5409 LP  0  0  0  0  0  0  0  0  0  0  0  0  # atno 17394 bound_to 11000
  139.9601  134.7467  156.0256 LP  0  0  0  0  0  0  0  0  0  0  0  0  # atno 17395 bound_to 11000

$$$$
