#       Name:                AV-unprocessed.smi:2881
#       Creating user name   scv26
#       Creation time:       Fri Mar 27 15:53:29 2020


#       File generated by GOLD software.
#

@<TRIPOS>MOLECULE
AV-unprocessed.smi:2881
    45    47     1
SMALL
NO_CHARGES


@<TRIPOS>ATOM
      1 ****        -3.5892   4.4388  -2.2636 C.3            1 S1                 0.0000
      2 ****        -3.3417   3.0570  -1.7616 C.2            1 S1                 0.0000
      3 ****        -2.8198   1.9523  -2.3731 C.2            1 S1                 0.0000
      4 ****        -2.8397   0.9459  -1.3624 C.2            1 S1                 0.0000
      5 ****        -2.3722  -0.4807  -1.4685 C.3            1 S1                 0.0000
      6 ****        -0.8582  -0.5513  -1.2692 C.2            1 S1                 0.0000
      7 ****        -0.1117  -0.6400  -2.2438 O.2            1 S1                 0.0000
      8 ****        -0.4193  -0.5089  -0.0019 N.am           1 S1                 0.0000
      9 ****         0.9831  -0.5434   0.4037 C.3            1 S1                 0.0000
     10 ****         1.1316  -0.1043   1.8771 C.3            1 S1                 0.0000
     11 ****         2.6080   0.2399   2.1439 C.3            1 S1                 0.0000
     12 ****         3.2768  -1.1474   2.1507 C.3            1 S1                 0.0000
     13 ****         2.0967  -2.1031   1.8709 C.3            1 S1                 0.0000
     14 ****         0.9777  -1.4155   2.6429 C.3            1 S1                 0.0000
     15 ****         1.5747  -1.9766   0.4176 C.3            1 S1                 0.0000
     16 ****         2.6027  -2.2430  -0.6997 C.3            1 S1                 0.0000
     17 ****         3.1111  -3.5563  -0.6003 O.3            1 S1                 0.0000
     18 ****        -3.3419   1.3902  -0.2182 N.2            1 S1                 0.0000
     19 ****        -3.6416   2.6771  -0.4738 N.pl3          1 S1                 0.0000
     20 ****        -4.0453   3.2775   0.2312 H              1 S1                 0.0000
     21 ****        -3.1194   4.5899  -3.2358 H              1 S1                 0.0000
     22 ****        -3.1837   5.1812  -1.5760 H              1 S1                 0.0000
     23 ****        -4.6577   4.6251  -2.3729 H              1 S1                 0.0000
     24 ****        -2.4690   1.8728  -3.3914 H              1 S1                 0.0000
     25 ****        -2.8685  -1.1140  -0.7314 H              1 S1                 0.0000
     26 ****        -2.6259  -0.8892  -2.4473 H              1 S1                 0.0000
     27 ****        -1.1058  -0.4312   0.7347 H              1 S1                 0.0000
     28 ****         1.5544   0.1247  -0.2439 H              1 S1                 0.0000
     29 ****         0.4458   0.6894   2.1764 H              1 S1                 0.0000
     30 ****         3.0266   0.9019   1.3852 H              1 S1                 0.0000
     31 ****         2.7261   0.7259   3.1131 H              1 S1                 0.0000
     32 ****         4.0851  -1.2317   1.4259 H              1 S1                 0.0000
     33 ****         3.7050  -1.3522   3.1328 H              1 S1                 0.0000
     34 ****         2.2887  -3.1323   2.1754 H              1 S1                 0.0000
     35 ****         1.1816  -1.3197   3.7110 H              1 S1                 0.0000
     36 ****         0.0023  -1.8866   2.5080 H              1 S1                 0.0000
     37 ****         0.7655  -2.7001   0.2976 H              1 S1                 0.0000
     38 ****         2.1266  -2.1364  -1.6742 H              1 S1                 0.0000
     39 ****         3.4252  -1.5290  -0.6781 H              1 S1                 0.0000
     40 ****         3.7160  -3.6984  -1.3124 H              1 S1                 0.0000
     41 ****        -0.4955  -0.6659  -3.1668 LP             1 S1                 0.0000
     42 ****         0.8786  -0.6861  -2.1125 LP             1 S1                 0.0000
     43 ****         2.3602  -4.2140  -0.6592 LP             1 S1                 0.0000
     44 ****         3.5854  -3.6692   0.2728 LP             1 S1                 0.0000
     45 ****        -3.4685   0.8861   0.6361 LP             1 S1                 0.0000
@<TRIPOS>BOND
    1    1    2 1     
    2    1   21 1     
    3    1   22 1     
    4    1   23 1     
    5    2   19 1     
    6    2    3 2     
    7    3    4 1     
    8    3   24 1     
    9    4    5 1     
   10    4   18 2     
   11    5    6 1     
   12    5   25 1     
   13    5   26 1     
   14    6    7 2     
   15    6    8 am    
   16    8    9 1     
   17    8   27 1     
   18    9   15 1     
   19    9   10 1     
   20    9   28 1     
   21   10   14 1     
   22   10   11 1     
   23   10   29 1     
   24   11   12 1     
   25   11   30 1     
   26   11   31 1     
   27   12   13 1     
   28   12   32 1     
   29   12   33 1     
   30   13   14 1     
   31   13   15 1     
   32   13   34 1     
   33   14   35 1     
   34   14   36 1     
   35   15   16 1     
   36   15   37 1     
   37   16   17 1     
   38   16   38 1     
   39   16   39 1     
   40   17   40 1     
   41   18   19 1     
   42   19   20 1     
   43    7   41 1     
   44    7   42 1     
   45   17   43 1     
   46   17   44 1     
   47   18   45 1     
@<TRIPOS>SUBSTRUCTURE
      1 S1             1
@<TRIPOS>SET
LONE_PAIRS      STATIC     ATOMS    <user>   **** ""
5 41 42 43 44 45
DONOR_HYDROGENS      STATIC     ATOMS    <user>   **** ""
3 27 40 20
ATOM$BLUE        STATIC     ATOMS    COLORGROUP SYSTEM
5 41 42 43 44 45
ATOM$RED        STATIC     ATOMS    COLORGROUP SYSTEM
3 27 40 20
