#       Name:                AV-unprocessed.smi:3046
#       Creating user name   scv26
#       Creation time:       Fri Mar 27 16:59:36 2020


#       File generated by GOLD software.
#

@<TRIPOS>MOLECULE
AV-unprocessed.smi:3046
    41    41     1
SMALL
NO_CHARGES


@<TRIPOS>ATOM
      1 ****        -5.4166  -2.3285  -1.6344 C.2            1 S1                 0.0000
      2 ****        -4.0982  -2.3113  -1.3872 C.2            1 S1                 0.0000
      3 ****        -3.1765  -1.1573  -1.7290 C.3            1 S1                 0.0000
      4 ****        -2.4325  -0.7038  -0.5602 N.am           1 S1                 0.0000
      5 ****        -1.3175  -1.2785  -0.0824 C.2            1 S1                 0.0000
      6 ****        -0.7960  -2.2704  -0.5934 O.2            1 S1                 0.0000
      7 ****        -0.7057  -0.6425   1.1742 C.3            1 S1                 0.0000
      8 ****        -1.3334  -1.2644   2.4309 C.3            1 S1                 0.0000
      9 ****         0.7671  -0.8135   1.2170 N.4            1 S1                 1.0000
     10 ****         1.5555   0.0611   0.3168 C.3            1 S1                 0.0000
     11 ****         2.9123  -0.6016   0.0268 C.3            1 S1                 0.0000
     12 ****         1.7119   1.4761   0.9193 C.3            1 S1                 0.0000
     13 ****         2.4491   2.3782   0.0533 N.pl3          1 S1                 0.0000
     14 ****         3.6972   2.9320   0.2491 C.2            1 S1                 0.0000
     15 ****         3.9657   3.7193  -0.8336 C.2            1 S1                 0.0000
     16 ****         2.8041   3.5875  -1.6449 C.2            1 S1                 0.0000
     17 ****         1.8967   2.7867  -1.1093 N.2            1 S1                 0.0000
     18 ****        -5.9115  -1.4906  -2.1035 H              1 S1                 0.0000
     19 ****        -6.0195  -3.1849  -1.3697 H              1 S1                 0.0000
     20 ****        -3.6399  -3.1716  -0.9211 H              1 S1                 0.0000
     21 ****        -2.4924  -1.4661  -2.5210 H              1 S1                 0.0000
     22 ****        -3.7557  -0.3205  -2.1212 H              1 S1                 0.0000
     23 ****        -2.7982   0.1038  -0.0762 H              1 S1                 0.0000
     24 ****        -0.9397   0.4223   1.1764 H              1 S1                 0.0000
     25 ****        -2.4177  -1.1440   2.4357 H              1 S1                 0.0000
     26 ****        -0.9505  -0.7891   3.3346 H              1 S1                 0.0000
     27 ****        -1.1176  -2.3317   2.5012 H              1 S1                 0.0000
     28 ****         1.0873  -0.6575   2.1617 H              1 S1                 0.0000
     29 ****         1.0294   0.1394  -0.6354 H              1 S1                 0.0000
     30 ****         3.4923  -0.0294  -0.6977 H              1 S1                 0.0000
     31 ****         2.7780  -1.6014  -0.3876 H              1 S1                 0.0000
     32 ****         3.5108  -0.6947   0.9336 H              1 S1                 0.0000
     33 ****         0.7404   1.9291   1.1173 H              1 S1                 0.0000
     34 ****         2.2284   1.4211   1.8787 H              1 S1                 0.0000
     35 ****         4.2854   2.7205   1.1299 H              1 S1                 0.0000
     36 ****         4.8556   4.3028  -1.0178 H              1 S1                 0.0000
     37 ****         2.5943   4.0473  -2.5994 H              1 S1                 0.0000
     38 ****         0.9585  -1.7743   0.9699 H              1 S1                 0.0000
     39 ****        -1.2041  -2.6874  -1.4056 LP             1 S1                 0.0000
     40 ****         0.0355  -2.6587  -0.1962 LP             1 S1                 0.0000
     41 ****         1.0023   2.5395  -1.4821 LP             1 S1                 0.0000
@<TRIPOS>BOND
    1    1    2 2     
    2    1   18 1     
    3    1   19 1     
    4    2    3 1     
    5    2   20 1     
    6    3    4 1     
    7    3   21 1     
    8    3   22 1     
    9    4    5 am    
   10    4   23 1     
   11    5    6 2     
   12    5    7 1     
   13    7    8 1     
   14    7    9 1     
   15    7   24 1     
   16    8   25 1     
   17    8   26 1     
   18    8   27 1     
   19    9   10 1     
   20    9   28 1     
   21    9   38 1     
   22   10   11 1     
   23   10   12 1     
   24   10   29 1     
   25   11   30 1     
   26   11   31 1     
   27   11   32 1     
   28   12   13 1     
   29   12   33 1     
   30   12   34 1     
   31   13   17 1     
   32   13   14 1     
   33   14   15 2     
   34   14   35 1     
   35   15   16 1     
   36   15   36 1     
   37   16   17 2     
   38   16   37 1     
   39    6   39 1     
   40    6   40 1     
   41   17   41 1     
@<TRIPOS>SUBSTRUCTURE
      1 S1             1
@<TRIPOS>SET
LONE_PAIRS      STATIC     ATOMS    <user>   **** ""
3 39 40 41
DONOR_HYDROGENS      STATIC     ATOMS    <user>   **** ""
3 23 28 38
ATOM$BLUE        STATIC     ATOMS    COLORGROUP SYSTEM
3 39 40 41
ATOM$RED        STATIC     ATOMS    COLORGROUP SYSTEM
3 23 28 38
