AV-unprocessed.smi:3207|AV-procd|sdf|12258|dock2
  -GOLD-   2272018 93D 1   1.00000     0.00000
 Structure written by MMmdl.
 32 33  0  0  0  0  0  0  0  0  1 V2000
  152.5945  138.8681  154.7820 C   0  0  0  0  0  0  0  0  0  0  0  0
  151.4163  139.3796  155.6238 C   0  0  2  0  0  0  0  0  0  0  0  0
  150.6284  140.2251  154.7899 O   0  0  0  0  0  0  0  0  0  0  0  0
  149.2772  140.3973  155.1990 C   0  0  0  0  0  0  0  0  0  0  0  0
  148.6240  141.4235  154.2991 C   0  0  0  0  0  0  0  0  0  0  0  0
  147.2543  141.9734  154.6268 C   0  0  0  0  0  0  0  0  0  0  0  0
  147.4305  141.0462  153.4512 C   0  0  0  0  0  0  0  0  0  0  0  0
  151.9058  140.1529  156.8593 C   0  0  0  0  0  0  0  0  0  0  0  0
  152.6499  139.5984  157.6678 O   0  0  0  0  0  0  0  0  0  0  0  0
  151.4946  141.4320  156.9429 N   0  0  0  0  0  0  0  0  0  0  0  0
  151.7764  142.4052  157.9398 C   0  0  0  0  0  0  0  0  0  0  0  0
  152.2788  141.9442  159.1743 C   0  0  0  0  0  0  0  0  0  0  0  0
  152.5823  142.8843  160.1790 C   0  0  0  0  0  0  0  0  0  0  0  0
  152.4246  144.2150  160.0212 N   0  0  0  0  0  0  0  0  0  0  0  0
  151.9550  144.6563  158.8352 C   0  0  0  0  0  0  0  0  0  0  0  0
  151.6210  143.8019  157.7652 C   0  0  0  0  0  0  0  0  0  0  0  0
  153.2461  138.2182  155.3671 H   0  0  0  0  0  0  0  0  0  0  0  0
  153.1988  139.6894  154.3947 H   0  0  0  0  0  0  0  0  0  0  0  0
  152.2371  138.2925  153.9280 H   0  0  0  0  0  0  0  0  0  0  0  0
  150.8186  138.5200  155.9339 H   0  0  0  0  0  0  0  0  0  0  0  0
  148.7332  139.4559  155.1127 H   0  0  0  0  0  0  0  0  0  0  0  0
  149.2096  140.7297  156.2356 H   0  0  0  0  0  0  0  0  0  0  0  0
  149.3254  142.1200  153.8440 H   0  0  0  0  0  0  0  0  0  0  0  0
  146.7479  141.5805  155.5064 H   0  0  0  0  0  0  0  0  0  0  0  0
  147.0733  143.0256  154.4164 H   0  0  0  0  0  0  0  0  0  0  0  0
  147.3655  141.4792  152.4551 H   0  0  0  0  0  0  0  0  0  0  0  0
  147.0388  140.0353  153.5470 H   0  0  0  0  0  0  0  0  0  0  0  0
  150.9457  141.7640  156.1634 H   0  0  0  0  0  0  0  0  0  0  0  0
  152.4270  140.8894  159.3549 H   0  0  0  0  0  0  0  0  0  0  0  0
  152.9644  142.5571  161.1346 H   0  0  0  0  0  0  0  0  0  0  0  0
  151.8476  145.7259  158.7323 H   0  0  0  0  0  0  0  0  0  0  0  0
  151.2693  144.2354  156.8424 H   0  0  0  0  0  0  0  0  0  0  0  0
  1  2  1  0  0  0  0
  1 17  1  0  0  0  0
  1 18  1  0  0  0  0
  1 19  1  0  0  0  0
  2  3  1  0  0  0  0
  2  8  1  0  0  0  0
  2 20  1  0  0  0  0
  3  4  1  0  0  0  0
  4  5  1  0  0  0  0
  4 21  1  0  0  0  0
  4 22  1  0  0  0  0
  5  7  1  0  0  0  0
  5  6  1  0  0  0  0
  5 23  1  0  0  0  0
  6  7  1  0  0  0  0
  6 24  1  0  0  0  0
  6 25  1  0  0  0  0
  7 26  1  0  0  0  0
  7 27  1  0  0  0  0
  8  9  2  0  0  0  0
  8 10  1  0  0  0  0
 10 11  1  0  0  0  0
 10 28  1  0  0  0  0
 11 16  1  0  0  0  0
 11 12  2  0  0  0  0
 12 13  1  0  0  0  0
 12 29  1  0  0  0  0
 13 14  2  0  0  0  0
 13 30  1  0  0  0  0
 14 15  1  0  0  0  0
 15 16  2  0  0  0  0
 15 31  1  0  0  0  0
 16 32  1  0  0  0  0
M  END
> <s_m_source_file>
AV-unprocessed.smi

> <i_m_source_file_index>
3207

> <i_lp_mmshare_version>
43012

> <i_f3d_flags>
0

> <s_epik_input>
W0NIMl0xW0NIMl1bQ0hdMVtDSDJdT1tDQEBIXShbQ0gzXSlDKD1PKVtOSF1jMltjSF1bY0hdbltjSF1bY0hdMg==

> <s_epik_cmdline>
J2VwaWtfcHl0aG9uJywgJy1waCcsICc3LjAnLCAnLXRuJywgJzgnLCAnLW1hJywgJzIwMCcsICctbWV0YWxfYmluZGluZycsICctaW1hZScsICc8aW5maWxlLm1hZT4nLCAnLW9tYWUnLCAnPG91dGZpbGUubWFlPic=

> <r_epik_Ionization_Penalty>
0.00446435

> <r_epik_Ionization_Penalty_Charging>
0

> <r_epik_Ionization_Penalty_Neutral>
0.00446435

> <r_epik_State_Penalty>
0.00321941

> <r_epik_Charging_Adjusted_Penalty>
0.00321941

> <i_epik_Tot_Q>
0

> <i_epik_Tot_abs_Q>
0

> <r_epik_Metal_State_Penalty>
-0

> <b_epik_Metal_Only>
0

> <s_lp_Force_Field>
OPLS_2005

> <r_lp_Energy>
19.7696

> <b_lp_Chiralities_Consistent>
1

> <s_lp_Variant>
AV-unprocessed.smi:3207-1

> <Gold.Version>
5.8.1

> <Gold.Id.Protein>
6NUR|6NUR_protein|mol2

> <Gold.PLP.Fitness>
43.2718

> <Gold.PLP.PLP>
-38.0726

> <Gold.PLP.part.hbond>
-2.0000

> <Gold.PLP.part.metal>
0.0000

> <Gold.PLP.part.buried>
-3.8886

> <Gold.PLP.part.nonpolar>
-32.2643

> <Gold.PLP.part.repulsive>
0.2129

> <Gold.PLP.ligand.clash>
0.0000

> <Gold.PLP.ligand.torsion>
0.6982

> <Gold.PLP.Chemscore.Hbond>
2.0000

> <Gold.PLP.Chemscore.CHOScore>
0.0000

> <Gold.PLP.Chemscore.Metal>
0.0000

> <Gold.Chemscore.Hbonds>
donor molecule, donor type, donor heavy atom, donor atom, acceptor molecule, acceptor atom, score
      P1  H  7989  7998       L1     3  1.00
      P1  H  7997  8008       L1     9  0.88

> <Gold.PLP.Chemscore.Internal.Correction>
0.5957

> <Gold.Rescore>
     Score         DG    S(hbond)    S(metal)    S(lipo)     H(rot)  DE(clash)    DE(int)     intcor
     15.23     -17.56       1.41        0.00      95.38       1.48       0.15       2.19       ----

> <Gold.Chemscore.Fitness>
15.2290

> <Gold.Chemscore.DG>
-17.5639

> <Gold.Chemscore.ZeroCoef>
-5.4800

> <Gold.Chemscore.Hbond>
1.4118

> <Gold.Chemscore.Metal>
0.0000

> <Gold.Chemscore.Lipo>
95.3769

> <Gold.Chemscore.Internal_Hbond>
0.0000

> <Gold.Chemscore.DEClash>
0.1474

> <Gold.Chemscore.DEInternal>
2.1876

> <Gold.Chemscore.Rot>
1.4807

> <Gold.Chemscore.Internal.Correction>
   9.000000E+99

> <Gold.Chemscore.Hbonds>
donor molecule, donor type, donor heavy atom, donor atom, acceptor molecule, acceptor atom, score
      P1  H  7989  7998       L1     3  0.74
      P1  H  7997  8008       L1     9  0.16

> <Gold.Chemscore.Hbond.Weighted>
-4.7153

> <Gold.Chemscore.Metal.Weighted>
-0.0000

> <Gold.Chemscore.Lipo.Weighted>
-11.1591

> <Gold.Chemscore.Internal_Hbond.Weighted>
0.0000

> <Gold.Chemscore.DEClash.Weighted>
0.1474

> <Gold.Chemscore.DEInternal.Weighted>
2.1876

> <Gold.Chemscore.Rot.Weighted>
3.7905

> <Gold.Chemscore.Internal.Correction.Weighted>
   9.000000E+99

> <Gold.Protein.RotatedTorsions>
[ 6907 6896 6895 6894 ] final  125.67 input  -60.11 | X-H torsion
[ 7974 7965 7964 7962 ] final  111.39 input  175.53 | X-H torsion
[ 8008 7997 7996 7995 ] final  -68.21 input   59.86 | X-H torsion
[ 10167 10162 10161 10158 ] final  -64.93 input  -65.29 | X-H torsion
[ 10718 10713 10712 10709 ] final    3.53 input   66.30 | X-H torsion
[ 10763 10752 10751 10750 ] final  177.25 input  -60.55 | X-H torsion
[ 11005 11000 10999 10996 ] final -104.09 input  -57.11 | X-H torsion

> <Gold.Protein.ActiveResidues>
 VAL166  LYS551  ARG553  GLY616  TRP617  ASP618  TYR619  PRO620  LYS621  CYS622 
 ASP623  PHE694  ASN695  SER759  ASP760  ASP761  ALA762  ILE779  LEU786  VAL792 
 PHE793  MET794  SER795  GLU796  ALA797  LYS798  CYS799  TRP800  GLU811  SER814 

> <Gold.Protein.RotatedAtoms>
  152.3971  133.6763  159.6285 H   0  0  0  0  0  0  0  0  0  0  0  0  # atno 6907 bound_to 6896
  150.7868  133.8855  159.3307 H   0  0  0  0  0  0  0  0  0  0  0  0  # atno 6908 bound_to 6896
  151.6629  135.0988  160.0234 H   0  0  0  0  0  0  0  0  0  0  0  0  # atno 6909 bound_to 6896
  145.2429  139.2771  143.4108 H   0  0  0  0  0  0  0  0  0  0  0  0  # atno 7974 bound_to 7965
  154.4852  140.0877  156.7470 H   0  0  0  0  0  0  0  0  0  0  0  0  # atno 8008 bound_to 7997
  155.4368  140.3452  155.4267 H   0  0  0  0  0  0  0  0  0  0  0  0  # atno 8009 bound_to 7997
  156.1251  140.1485  156.9136 H   0  0  0  0  0  0  0  0  0  0  0  0  # atno 8010 bound_to 7997
  140.5766  143.2322  151.6430 H   0  0  0  0  0  0  0  0  0  0  0  0  # atno 10167 bound_to 10162
  156.8791  130.5647  149.5654 H   0  0  0  0  0  0  0  0  0  0  0  0  # atno 10718 bound_to 10713
  154.4920  135.2779  155.1489 H   0  0  0  0  0  0  0  0  0  0  0  0  # atno 10763 bound_to 10752
  154.3157  135.6220  153.5489 H   0  0  0  0  0  0  0  0  0  0  0  0  # atno 10764 bound_to 10752
  152.9889  135.5730  154.5343 H   0  0  0  0  0  0  0  0  0  0  0  0  # atno 10765 bound_to 10752
  141.1116  133.8694  157.1567 H   0  0  0  0  0  0  0  0  0  0  0  0  # atno 11005 bound_to 11000
  146.3324  140.2797  142.8609 LP  0  0  0  0  0  0  0  0  0  0  0  0  # atno 17320 bound_to 7965
  144.9573  140.8239  143.5535 LP  0  0  0  0  0  0  0  0  0  0  0  0  # atno 17321 bound_to 7965
  139.5146  144.3406  152.0744 LP  0  0  0  0  0  0  0  0  0  0  0  0  # atno 17342 bound_to 10162
  140.2550  144.4128  150.6207 LP  0  0  0  0  0  0  0  0  0  0  0  0  # atno 17343 bound_to 10162
  156.0686  130.5724  150.9339 LP  0  0  0  0  0  0  0  0  0  0  0  0  # atno 17370 bound_to 10713
  157.6150  131.0934  150.8726 LP  0  0  0  0  0  0  0  0  0  0  0  0  # atno 17371 bound_to 10713
  140.0014  135.0026  157.0197 LP  0  0  0  0  0  0  0  0  0  0  0  0  # atno 17394 bound_to 11000
  140.4759  134.1339  155.7209 LP  0  0  0  0  0  0  0  0  0  0  0  0  # atno 17395 bound_to 11000

$$$$
