AV-unprocessed.smi:1963|AV-procd|sdf|7927|dock4
  -GOLD-   2272010 93D 1   1.00000     0.00000
 Structure written by MMmdl.
 47 48  0  0  0  0  0  0  0  0  1 V2000
  152.6207  131.4520  156.3713 C   0  0  0  0  0  0  0  0  0  0  0  0
  151.5984  132.4978  156.8020 C   0  0  0  0  0  0  0  0  0  0  0  0
  151.1358  132.4785  157.9422 O   0  0  0  0  0  0  0  0  0  0  0  0
  151.2539  133.4064  155.8761 N   0  0  0  0  0  0  0  0  0  0  0  0
  150.3033  134.5033  156.0734 C   0  0  1  0  0  0  0  0  0  0  0  0
  151.0898  135.8013  156.3436 C   0  0  0  0  0  0  0  0  0  0  0  0
  152.2763  135.8796  156.0220 O   0  0  0  0  0  0  0  0  0  0  0  0
  150.3824  136.8042  156.8962 N   0  0  0  0  0  0  0  0  0  0  0  0
  150.8195  138.1117  157.2381 C   0  0  0  0  0  0  0  0  0  0  0  0
  149.8965  138.9794  157.8526 C   0  0  0  0  0  0  0  0  0  0  0  0
  150.3055  140.2770  158.2135 C   0  0  0  0  0  0  0  0  0  0  0  0
  151.6383  140.6766  157.9577 C   0  0  0  0  0  0  0  0  0  0  0  0
  152.0697  141.9757  158.3045 N   0  0  0  0  0  0  0  0  0  0  0  0
  152.3570  142.1912  159.7207 C   0  0  0  0  0  0  0  0  0  0  0  0
  153.1011  143.5228  159.9206 C   0  0  0  0  0  0  0  0  0  0  0  0
  152.3539  144.5865  159.3395 O   0  0  0  0  0  0  0  0  0  0  0  0
  152.1845  144.4093  157.9373 C   0  0  0  0  0  0  0  0  0  0  0  0
  151.4035  143.1118  157.6698 C   0  0  0  0  0  0  0  0  0  0  0  0
  152.5331  139.8316  157.3887 N   0  0  0  0  0  0  0  0  0  0  0  0
  152.1367  138.5888  157.0418 C   0  0  0  0  0  0  0  0  0  0  0  0
  149.4410  134.6593  154.7853 C   0  0  0  0  0  0  0  0  0  0  0  0
  148.2901  135.6749  154.9449 C   0  0  0  0  0  0  0  0  0  0  0  0
  148.8588  133.3105  154.3184 C   0  0  0  0  0  0  0  0  0  0  0  0
  153.5540  131.9320  156.0755 H   0  0  0  0  0  0  0  0  0  0  0  0
  152.2435  130.8767  155.5255 H   0  0  0  0  0  0  0  0  0  0  0  0
  152.8357  130.7601  157.1865 H   0  0  0  0  0  0  0  0  0  0  0  0
  151.6928  133.3466  154.9688 H   0  0  0  0  0  0  0  0  0  0  0  0
  149.6519  134.2770  156.9205 H   0  0  0  0  0  0  0  0  0  0  0  0
  149.3968  136.6280  157.0272 H   0  0  0  0  0  0  0  0  0  0  0  0
  148.8827  138.6590  158.0442 H   0  0  0  0  0  0  0  0  0  0  0  0
  149.6008  140.9401  158.6923 H   0  0  0  0  0  0  0  0  0  0  0  0
  151.4157  142.2045  160.2717 H   0  0  0  0  0  0  0  0  0  0  0  0
  152.9573  141.3848  160.1396 H   0  0  0  0  0  0  0  0  0  0  0  0
  153.2328  143.7223  160.9842 H   0  0  0  0  0  0  0  0  0  0  0  0
  154.0982  143.4805  159.4790 H   0  0  0  0  0  0  0  0  0  0  0  0
  151.6409  145.2639  157.5344 H   0  0  0  0  0  0  0  0  0  0  0  0
  153.1566  144.3877  157.4419 H   0  0  0  0  0  0  0  0  0  0  0  0
  151.3267  142.9525  156.5934 H   0  0  0  0  0  0  0  0  0  0  0  0
  150.3890  143.1997  158.0608 H   0  0  0  0  0  0  0  0  0  0  0  0
  152.9115  137.9703  156.6164 H   0  0  0  0  0  0  0  0  0  0  0  0
  150.0830  135.0241  153.9814 H   0  0  0  0  0  0  0  0  0  0  0  0
  147.6370  135.4041  155.7751 H   0  0  0  0  0  0  0  0  0  0  0  0
  147.6777  135.7180  154.0438 H   0  0  0  0  0  0  0  0  0  0  0  0
  148.6550  136.6865  155.1229 H   0  0  0  0  0  0  0  0  0  0  0  0
  148.2285  132.8651  155.0889 H   0  0  0  0  0  0  0  0  0  0  0  0
  149.6396  132.5912  154.0701 H   0  0  0  0  0  0  0  0  0  0  0  0
  148.2487  133.4354  153.4233 H   0  0  0  0  0  0  0  0  0  0  0  0
  1  2  1  0  0  0  0
  1 24  1  0  0  0  0
  1 25  1  0  0  0  0
  1 26  1  0  0  0  0
  2  3  2  0  0  0  0
  2  4  1  0  0  0  0
  4  5  1  0  0  0  0
  4 27  1  0  0  0  0
  5  6  1  0  0  0  0
  5 21  1  0  0  0  0
  5 28  1  0  0  0  0
  6  7  2  0  0  0  0
  6  8  1  0  0  0  0
  8  9  1  0  0  0  0
  8 29  1  0  0  0  0
  9 20  1  0  0  0  0
  9 10  2  0  0  0  0
 10 11  1  0  0  0  0
 10 30  1  0  0  0  0
 11 12  2  0  0  0  0
 11 31  1  0  0  0  0
 12 13  1  0  0  0  0
 12 19  1  0  0  0  0
 13 18  1  0  0  0  0
 13 14  1  0  0  0  0
 14 15  1  0  0  0  0
 14 32  1  0  0  0  0
 14 33  1  0  0  0  0
 15 16  1  0  0  0  0
 15 34  1  0  0  0  0
 15 35  1  0  0  0  0
 16 17  1  0  0  0  0
 17 18  1  0  0  0  0
 17 36  1  0  0  0  0
 17 37  1  0  0  0  0
 18 38  1  0  0  0  0
 18 39  1  0  0  0  0
 19 20  2  0  0  0  0
 20 40  1  0  0  0  0
 21 22  1  0  0  0  0
 21 23  1  0  0  0  0
 21 41  1  0  0  0  0
 22 42  1  0  0  0  0
 22 43  1  0  0  0  0
 22 44  1  0  0  0  0
 23 45  1  0  0  0  0
 23 46  1  0  0  0  0
 23 47  1  0  0  0  0
M  END
> <s_m_source_file>
AV-unprocessed.smi

> <i_m_source_file_index>
1963

> <i_lp_mmshare_version>
43012

> <i_f3d_flags>
0

> <s_epik_input>
W0NIM11DKD1PKVtOSF1bQ0BASF0oW0NIXShbQ0gzXSlbQ0gzXSlDKD1PKVtOSF1jMVtjSF1bY0hdYyhuW2NIXTEpTjJbQ0gyXVtDSDJdT1tDSDJdW0NIMl0y

> <s_epik_cmdline>
J2VwaWtfcHl0aG9uJywgJy1waCcsICc3LjAnLCAnLXRuJywgJzgnLCAnLW1hJywgJzIwMCcsICctbWV0YWxfYmluZGluZycsICctaW1hZScsICc8aW5maWxlLm1hZT4nLCAnLW9tYWUnLCAnPG91dGZpbGUubWFlPic=

> <r_lp_tautomer_probability>
1

> <r_epik_Ionization_Penalty>
0.00051446

> <r_epik_Ionization_Penalty_Charging>
0

> <r_epik_Ionization_Penalty_Neutral>
0.00051446

> <r_epik_State_Penalty>
0.00031949

> <r_epik_Charging_Adjusted_Penalty>
0.00031949

> <i_epik_Tot_Q>
0

> <i_epik_Tot_abs_Q>
0

> <r_epik_Metal_State_Penalty>
-0

> <b_epik_Metal_Only>
0

> <s_lp_Force_Field>
OPLS_2005

> <r_lp_Energy>
25.5716

> <b_lp_Chiralities_Consistent>
1

> <s_lp_Variant>
AV-unprocessed.smi:1963-2

> <Gold.Version>
5.8.1

> <Gold.Id.Protein>
6NUR|6NUR_protein|mol2

> <Gold.PLP.Fitness>
39.9535

> <Gold.PLP.PLP>
-33.4756

> <Gold.PLP.part.hbond>
-2.7726

> <Gold.PLP.part.metal>
0.0000

> <Gold.PLP.part.buried>
-4.7099

> <Gold.PLP.part.nonpolar>
-26.1535

> <Gold.PLP.part.repulsive>
0.1966

> <Gold.PLP.ligand.clash>
0.0000

> <Gold.PLP.ligand.torsion>
1.1351

> <Gold.PLP.Chemscore.Hbond>
2.7893

> <Gold.PLP.Chemscore.CHOScore>
0.0000

> <Gold.PLP.Chemscore.Metal>
0.0000

> <Gold.Chemscore.Hbonds>
donor molecule, donor type, donor heavy atom, donor atom, acceptor molecule, acceptor atom, score
      P1  H  6896  6907       L1     3  1.00
      P1  H  7997  8010       L1    19  1.00
      P1  H 10752 10763       L1     7  0.75

> <Gold.PLP.Chemscore.Internal.Correction>
0.3803

> <Gold.Rescore>
     Score         DG    S(hbond)    S(metal)    S(lipo)     H(rot)  DE(clash)    DE(int)     intcor
     17.57     -20.24       2.83        0.00      83.35       1.74       0.16       2.51       ----

> <Gold.Chemscore.Fitness>
17.5691

> <Gold.Chemscore.DG>
-20.2376

> <Gold.Chemscore.ZeroCoef>
-5.4800

> <Gold.Chemscore.Hbond>
2.8317

> <Gold.Chemscore.Metal>
0.0000

> <Gold.Chemscore.Lipo>
83.3548

> <Gold.Chemscore.Internal_Hbond>
0.0000

> <Gold.Chemscore.DEClash>
0.1585

> <Gold.Chemscore.DEInternal>
2.5100

> <Gold.Chemscore.Rot>
1.7394

> <Gold.Chemscore.Internal.Correction>
   9.000000E+99

> <Gold.Chemscore.Hbonds>
donor molecule, donor type, donor heavy atom, donor atom, acceptor molecule, acceptor atom, score
      P1  H  6896  6907       L1     3  0.97
      P1  H  7997  8010       L1    19  0.63
      P1  H 10752 10763       L1     7  0.72

> <Gold.Chemscore.Hbond.Weighted>
-9.4579

> <Gold.Chemscore.Metal.Weighted>
-0.0000

> <Gold.Chemscore.Lipo.Weighted>
-9.7525

> <Gold.Chemscore.Internal_Hbond.Weighted>
0.0000

> <Gold.Chemscore.DEClash.Weighted>
0.1585

> <Gold.Chemscore.DEInternal.Weighted>
2.5100

> <Gold.Chemscore.Rot.Weighted>
4.4528

> <Gold.Chemscore.Internal.Correction.Weighted>
   9.000000E+99

> <Gold.Protein.RotatedTorsions>
[ 6907 6896 6895 6894 ] final -173.11 input  -60.11 | X-H torsion
[ 7974 7965 7964 7962 ] final   88.92 input  175.53 | X-H torsion
[ 8008 7997 7996 7995 ] final   53.22 input   59.86 | X-H torsion
[ 10167 10162 10161 10158 ] final  145.47 input  -65.29 | X-H torsion
[ 10718 10713 10712 10709 ] final  -36.39 input   66.30 | X-H torsion
[ 10763 10752 10751 10750 ] final   65.83 input  -60.55 | X-H torsion
[ 11005 11000 10999 10996 ] final  -61.65 input  -57.11 | X-H torsion

> <Gold.Protein.ActiveResidues>
 VAL166  LYS551  ARG553  GLY616  TRP617  ASP618  TYR619  PRO620  LYS621  CYS622 
 ASP623  PHE694  ASN695  SER759  ASP760  ASP761  ALA762  ILE779  LEU786  VAL792 
 PHE793  MET794  SER795  GLU796  ALA797  LYS798  CYS799  TRP800  GLU811  SER814 

> <Gold.Protein.RotatedAtoms>
  151.5508  133.3418  159.2952 H   0  0  0  0  0  0  0  0  0  0  0  0  # atno 6907 bound_to 6896
  150.8480  134.7798  159.6997 H   0  0  0  0  0  0  0  0  0  0  0  0  # atno 6908 bound_to 6896
  152.4533  134.5355  159.9875 H   0  0  0  0  0  0  0  0  0  0  0  0  # atno 6909 bound_to 6896
  145.5393  139.2287  143.2575 H   0  0  0  0  0  0  0  0  0  0  0  0  # atno 7974 bound_to 7965
  155.4647  140.3463  155.4317 H   0  0  0  0  0  0  0  0  0  0  0  0  # atno 8008 bound_to 7997
  156.1138  140.1468  156.9330 H   0  0  0  0  0  0  0  0  0  0  0  0  # atno 8009 bound_to 7997
  154.4775  140.0880  156.7276 H   0  0  0  0  0  0  0  0  0  0  0  0  # atno 8010 bound_to 7997
  139.4925  144.5899  151.6701 H   0  0  0  0  0  0  0  0  0  0  0  0  # atno 10167 bound_to 10162
  156.3274  130.4274  149.7904 H   0  0  0  0  0  0  0  0  0  0  0  0  # atno 10718 bound_to 10713
  153.0113  135.5342  154.6728 H   0  0  0  0  0  0  0  0  0  0  0  0  # atno 10763 bound_to 10752
  154.5908  135.2858  155.0639 H   0  0  0  0  0  0  0  0  0  0  0  0  # atno 10764 bound_to 10752
  154.1733  135.6528  153.5067 H   0  0  0  0  0  0  0  0  0  0  0  0  # atno 10765 bound_to 10752
  141.1332  133.6632  156.5407 H   0  0  0  0  0  0  0  0  0  0  0  0  # atno 11005 bound_to 11000
  146.1992  140.6212  142.9110 LP  0  0  0  0  0  0  0  0  0  0  0  0  # atno 17320 bound_to 7965
  144.7585  140.5366  143.6752 LP  0  0  0  0  0  0  0  0  0  0  0  0  # atno 17321 bound_to 7965
  140.5524  144.0403  150.6133 LP  0  0  0  0  0  0  0  0  0  0  0  0  # atno 17342 bound_to 10162
  140.3462  143.2990  152.0536 LP  0  0  0  0  0  0  0  0  0  0  0  0  # atno 17343 bound_to 10162
  156.5189  130.8206  151.3196 LP  0  0  0  0  0  0  0  0  0  0  0  0  # atno 17370 bound_to 10713
  157.7424  130.9889  150.2512 LP  0  0  0  0  0  0  0  0  0  0  0  0  # atno 17371 bound_to 10713
  140.4142  134.7245  157.4853 LP  0  0  0  0  0  0  0  0  0  0  0  0  # atno 17394 bound_to 11000
  140.0406  134.6273  155.8986 LP  0  0  0  0  0  0  0  0  0  0  0  0  # atno 17395 bound_to 11000

$$$$
