AV-unprocessed.smi:2302|AV-procd|sdf|9241|dock5
  -GOLD-   2272012463D 1   1.00000     0.00000
 Structure written by MMmdl.
 39 40  0  0  0  0  0  0  0  0  1 V2000
  144.0933  132.5895  150.1565 C   0  0  0  0  0  0  0  0  0  0  0  0
  145.1612  132.1570  151.1392 C   0  0  0  0  0  0  0  0  0  0  0  0
  145.2539  130.8176  151.5656 C   0  0  0  0  0  0  0  0  0  0  0  0
  146.2654  130.4829  152.4835 C   0  0  0  0  0  0  0  0  0  0  0  0
  147.1362  131.4938  152.9341 C   0  0  0  0  0  0  0  0  0  0  0  0
  146.9747  132.8143  152.4571 C   0  0  0  0  0  0  0  0  0  0  0  0
  147.8993  133.7599  152.9753 N   0  0  0  0  0  0  0  0  0  0  0  0
  148.6346  133.6737  154.0979 C   0  0  0  0  0  0  0  0  0  0  0  0
  148.6036  132.7394  154.8994 O   0  0  0  0  0  0  0  0  0  0  0  0
  149.4219  134.7493  154.2450 N   0  0  0  0  0  0  0  0  0  0  0  0
  150.3365  134.9754  155.3611 C   0  0  0  0  0  0  0  0  0  0  0  0
  150.7132  136.4596  155.5303 C   0  0  1  0  0  0  0  0  0  0  0  0
  151.5207  136.7519  156.8136 C   0  0  0  0  0  0  0  0  0  0  0  0
  151.8828  138.1595  156.9135 N   0  0  0  0  0  0  0  0  0  0  0  0
  152.6426  138.4347  158.1234 C   0  0  0  0  0  0  0  0  0  0  0  0
  152.6112  138.5614  155.7175 C   0  0  0  0  0  0  0  0  0  0  0  0
  151.8076  138.2705  154.4386 C   0  0  0  0  0  0  0  0  0  0  0  0
  151.4594  136.8903  154.3933 O   0  0  0  0  0  0  0  0  0  0  0  0
  145.9952  133.1266  151.5722 N   0  0  0  0  0  0  0  0  0  0  0  0
  143.6238  131.7282  149.6805 H   0  0  0  0  0  0  0  0  0  0  0  0
  144.5228  133.2160  149.3741 H   0  0  0  0  0  0  0  0  0  0  0  0
  143.3197  133.1615  150.6695 H   0  0  0  0  0  0  0  0  0  0  0  0
  144.5691  130.0655  151.2018 H   0  0  0  0  0  0  0  0  0  0  0  0
  146.3719  129.4680  152.8372 H   0  0  0  0  0  0  0  0  0  0  0  0
  147.9183  131.2535  153.6396 H   0  0  0  0  0  0  0  0  0  0  0  0
  148.0235  134.5935  152.4206 H   0  0  0  0  0  0  0  0  0  0  0  0
  149.3824  135.4681  153.5376 H   0  0  0  0  0  0  0  0  0  0  0  0
  149.9171  134.5845  156.2897 H   0  0  0  0  0  0  0  0  0  0  0  0
  151.2385  134.3937  155.1701 H   0  0  0  0  0  0  0  0  0  0  0  0
  149.7863  137.0353  155.5605 H   0  0  0  0  0  0  0  0  0  0  0  0
  150.9338  136.4607  157.6856 H   0  0  0  0  0  0  0  0  0  0  0  0
  152.4255  136.1423  156.8290 H   0  0  0  0  0  0  0  0  0  0  0  0
  152.8736  139.4976  158.2002 H   0  0  0  0  0  0  0  0  0  0  0  0
  153.5822  137.8806  158.1341 H   0  0  0  0  0  0  0  0  0  0  0  0
  152.0721  138.1546  159.0094 H   0  0  0  0  0  0  0  0  0  0  0  0
  152.8446  139.6256  155.7656 H   0  0  0  0  0  0  0  0  0  0  0  0
  153.5652  138.0338  155.6707 H   0  0  0  0  0  0  0  0  0  0  0  0
  150.9041  138.8810  154.4032 H   0  0  0  0  0  0  0  0  0  0  0  0
  152.3969  138.5186  153.5558 H   0  0  0  0  0  0  0  0  0  0  0  0
  1  2  1  0  0  0  0
  1 20  1  0  0  0  0
  1 21  1  0  0  0  0
  1 22  1  0  0  0  0
  2 19  1  0  0  0  0
  2  3  2  0  0  0  0
  3  4  1  0  0  0  0
  3 23  1  0  0  0  0
  4  5  2  0  0  0  0
  4 24  1  0  0  0  0
  5  6  1  0  0  0  0
  5 25  1  0  0  0  0
  6  7  1  0  0  0  0
  6 19  2  0  0  0  0
  7  8  1  0  0  0  0
  7 26  1  0  0  0  0
  8  9  2  0  0  0  0
  8 10  1  0  0  0  0
 10 11  1  0  0  0  0
 10 27  1  0  0  0  0
 11 12  1  0  0  0  0
 11 28  1  0  0  0  0
 11 29  1  0  0  0  0
 12 18  1  0  0  0  0
 12 13  1  0  0  0  0
 12 30  1  0  0  0  0
 13 14  1  0  0  0  0
 13 31  1  0  0  0  0
 13 32  1  0  0  0  0
 14 15  1  0  0  0  0
 14 16  1  0  0  0  0
 15 33  1  0  0  0  0
 15 34  1  0  0  0  0
 15 35  1  0  0  0  0
 16 17  1  0  0  0  0
 16 36  1  0  0  0  0
 16 37  1  0  0  0  0
 17 18  1  0  0  0  0
 17 38  1  0  0  0  0
 17 39  1  0  0  0  0
M  END
> <s_m_source_file>
AV-unprocessed.smi

> <i_m_source_file_index>
2302

> <i_lp_mmshare_version>
43012

> <i_f3d_flags>
0

> <s_epik_input>
W0NIM11jMVtjSF1bY0hdW2NIXWMobjEpW05IXUMoPU8pW05IXVtDSDJdW0NAQEhdMltDSDJdTihbQ0gzXSlbQ0gyXVtDSDJdTzI=

> <s_epik_cmdline>
J2VwaWtfcHl0aG9uJywgJy1waCcsICc3LjAnLCAnLXRuJywgJzgnLCAnLW1hJywgJzIwMCcsICctbWV0YWxfYmluZGluZycsICctaW1hZScsICc8aW5maWxlLm1hZT4nLCAnLW9tYWUnLCAnPG91dGZpbGUubWFlPic=

> <r_epik_Ionization_Penalty>
0.729465

> <r_epik_Ionization_Penalty_Charging>
0

> <r_epik_Ionization_Penalty_Neutral>
0.729465

> <r_epik_State_Penalty>
0.754525

> <r_epik_Charging_Adjusted_Penalty>
0.754525

> <i_epik_Tot_Q>
0

> <i_epik_Tot_abs_Q>
0

> <r_epik_Metal_State_Penalty>
0.754521

> <b_epik_Metal_Only>
0

> <s_lp_Force_Field>
OPLS_2005

> <r_lp_Energy>
21.4946

> <b_lp_Chiralities_Consistent>
1

> <s_lp_Variant>
AV-unprocessed.smi:2302-6

> <Gold.Version>
5.8.1

> <Gold.Id.Protein>
6NUR|6NUR_protein|mol2

> <Gold.PLP.Fitness>
40.6242

> <Gold.PLP.PLP>
-32.1477

> <Gold.PLP.part.hbond>
-3.0000

> <Gold.PLP.part.metal>
0.0000

> <Gold.PLP.part.buried>
-5.8475

> <Gold.PLP.part.nonpolar>
-24.2232

> <Gold.PLP.part.repulsive>
0.8040

> <Gold.PLP.ligand.clash>
0.0000

> <Gold.PLP.ligand.torsion>
0.2631

> <Gold.PLP.Chemscore.Hbond>
3.0000

> <Gold.PLP.Chemscore.CHOScore>
0.0000

> <Gold.PLP.Chemscore.Metal>
0.0000

> <Gold.Chemscore.Hbonds>
donor molecule, donor type, donor heavy atom, donor atom, acceptor molecule, acceptor atom, score
      L1  H     7    26       P1  7948  1.00
      L1  H    10    27       P1  7948  1.00
      P1  H 10752 10765       L1    18  1.00

> <Gold.PLP.Chemscore.Internal.Correction>
0.0027

> <Gold.Rescore>
     Score         DG    S(hbond)    S(metal)    S(lipo)     H(rot)  DE(clash)    DE(int)     intcor
     16.05     -17.89       2.19        0.00      70.97       1.25       0.04       1.81       ----

> <Gold.Chemscore.Fitness>
16.0461

> <Gold.Chemscore.DG>
-17.8899

> <Gold.Chemscore.ZeroCoef>
-5.4800

> <Gold.Chemscore.Hbond>
2.1880

> <Gold.Chemscore.Metal>
0.0000

> <Gold.Chemscore.Lipo>
70.9707

> <Gold.Chemscore.Internal_Hbond>
0.0000

> <Gold.Chemscore.DEClash>
0.0376

> <Gold.Chemscore.DEInternal>
1.8062

> <Gold.Chemscore.Rot>
1.2506

> <Gold.Chemscore.Internal.Correction>
   9.000000E+99

> <Gold.Chemscore.Hbonds>
donor molecule, donor type, donor heavy atom, donor atom, acceptor molecule, acceptor atom, score
      L1  H     7    26       P1  7948  0.44
      L1  H    10    27       P1  7948  0.25
      P1  H 10752 10765       L1    18  0.64

> <Gold.Chemscore.Hbond.Weighted>
-7.3078

> <Gold.Chemscore.Metal.Weighted>
-0.0000

> <Gold.Chemscore.Lipo.Weighted>
-8.3036

> <Gold.Chemscore.Internal_Hbond.Weighted>
0.0000

> <Gold.Chemscore.DEClash.Weighted>
0.0376

> <Gold.Chemscore.DEInternal.Weighted>
1.8062

> <Gold.Chemscore.Rot.Weighted>
3.2015

> <Gold.Chemscore.Internal.Correction.Weighted>
   9.000000E+99

> <Gold.Protein.RotatedTorsions>
[ 6907 6896 6895 6894 ] final   25.47 input  -60.11 | X-H torsion
[ 7974 7965 7964 7962 ] final  -56.19 input  175.53 | X-H torsion
[ 8008 7997 7996 7995 ] final  141.80 input   59.86 | X-H torsion
[ 10167 10162 10161 10158 ] final  -13.19 input  -65.29 | X-H torsion
[ 10718 10713 10712 10709 ] final  -49.94 input   66.30 | X-H torsion
[ 10763 10752 10751 10750 ] final  149.39 input  -60.55 | X-H torsion
[ 11005 11000 10999 10996 ] final -122.86 input  -57.11 | X-H torsion

> <Gold.Protein.ActiveResidues>
 VAL166  LYS551  ARG553  GLY616  TRP617  ASP618  TYR619  PRO620  LYS621  CYS622 
 ASP623  PHE694  ASN695  SER759  ASP760  ASP761  ALA762  ILE779  LEU786  VAL792 
 PHE793  MET794  SER795  GLU796  ALA797  LYS798  CYS799  TRP800  GLU811  SER814 

> <Gold.Protein.RotatedAtoms>
  151.9730  135.0067  160.0553 H   0  0  0  0  0  0  0  0  0  0  0  0  # atno 6907 bound_to 6896
  152.1766  133.4674  159.4944 H   0  0  0  0  0  0  0  0  0  0  0  0  # atno 6908 bound_to 6896
  150.6910  134.1804  159.4289 H   0  0  0  0  0  0  0  0  0  0  0  0  # atno 6909 bound_to 6896
  145.8655  140.8254  142.9915 H   0  0  0  0  0  0  0  0  0  0  0  0  # atno 7974 bound_to 7965
  156.2960  140.2306  156.4623 H   0  0  0  0  0  0  0  0  0  0  0  0  # atno 8008 bound_to 7997
  154.8007  140.0448  157.1291 H   0  0  0  0  0  0  0  0  0  0  0  0  # atno 8009 bound_to 7997
  154.9536  140.3045  155.5067 H   0  0  0  0  0  0  0  0  0  0  0  0  # atno 8010 bound_to 7997
  140.7177  143.5452  150.9363 H   0  0  0  0  0  0  0  0  0  0  0  0  # atno 10167 bound_to 10162
  156.1846  130.4151  149.9457 H   0  0  0  0  0  0  0  0  0  0  0  0  # atno 10718 bound_to 10713
  154.0703  135.2867  155.3309 H   0  0  0  0  0  0  0  0  0  0  0  0  # atno 10763 bound_to 10752
  154.6751  135.5285  153.8192 H   0  0  0  0  0  0  0  0  0  0  0  0  # atno 10764 bound_to 10752
  153.0488  135.6567  154.0885 H   0  0  0  0  0  0  0  0  0  0  0  0  # atno 10765 bound_to 10752
  140.9963  134.0467  157.3593 H   0  0  0  0  0  0  0  0  0  0  0  0  # atno 11005 bound_to 11000
  144.6726  140.1159  143.7452 LP  0  0  0  0  0  0  0  0  0  0  0  0  # atno 17320 bound_to 7965
  145.9198  139.2539  143.1388 LP  0  0  0  0  0  0  0  0  0  0  0  0  # atno 17321 bound_to 7965
  139.9176  143.6645  152.3103 LP  0  0  0  0  0  0  0  0  0  0  0  0  # atno 17342 bound_to 10162
  139.7050  144.7629  151.1208 LP  0  0  0  0  0  0  0  0  0  0  0  0  # atno 17343 bound_to 10162
  156.7217  130.9009  151.3618 LP  0  0  0  0  0  0  0  0  0  0  0  0  # atno 17370 bound_to 10713
  157.6890  130.9215  150.0464 LP  0  0  0  0  0  0  0  0  0  0  0  0  # atno 17371 bound_to 10713
  139.9016  135.0166  156.7297 LP  0  0  0  0  0  0  0  0  0  0  0  0  # atno 17394 bound_to 11000
  140.6960  133.9348  155.7995 LP  0  0  0  0  0  0  0  0  0  0  0  0  # atno 17395 bound_to 11000

$$$$
