AV-unprocessed.smi:1492|AV-procd|sdf|6043|dock3
  -GOLD-   22720 6153D 1   1.00000     0.00000
 Structure written by MMmdl.
 53 54  0  0  0  0  0  0  0  0  2 V2000
  144.5605  137.6901  153.5279 C   0  0  0  0  0  0  0  0  0  0  0  0
  145.9125  137.0904  153.9502 C   0  0  0  0  0  0  0  0  0  0  0  0
  145.9751  135.5291  153.9776 C   0  0  2  0  0  0  0  0  0  0  0  0
  144.6358  135.0172  154.5669 C   0  0  0  0  0  0  0  0  0  0  0  0
  147.1333  135.0662  154.9194 C   0  0  0  0  0  0  0  0  0  0  0  0
  148.3308  135.8911  154.7930 N   0  0  0  0  0  0  0  0  0  0  0  0
  149.2227  136.1310  155.7651 C   0  0  0  0  0  0  0  0  0  0  0  0
  149.0524  135.8203  156.9432 O   0  0  0  0  0  0  0  0  0  0  0  0
  150.5332  136.7779  155.3201 C   0  0  0  0  0  0  0  0  0  0  0  0
  150.8450  138.1041  156.0132 C   0  0  0  0  0  0  0  0  0  0  0  0
  150.8080  139.2974  155.3672 C   0  0  0  0  0  0  0  0  0  0  0  0
  150.4718  139.4654  153.8957 C   0  0  0  0  0  0  0  0  0  0  0  0
  151.0704  140.4808  156.0340 N   0  0  0  0  0  0  0  0  0  0  0  0
  151.3646  140.4124  157.3854 C   0  0  0  0  0  0  0  0  0  0  0  0
  151.6277  141.7613  158.0184 C   0  0  0  0  0  0  0  0  0  0  0  0
  151.4185  139.3237  158.0908 N   0  0  0  0  0  0  0  0  0  0  0  0
  151.1627  138.0952  157.4612 C   0  0  0  0  0  0  0  0  0  0  0  0
  151.1884  137.0488  158.1078 O   0  0  0  0  0  0  0  0  0  0  0  0
  146.1887  134.9882  152.5826 N   0  3  0  0  0  0  0  0  0  0  0  0
  146.1203  133.5053  152.4350 C   0  0  0  0  0  0  0  0  0  0  0  0
  146.5230  133.0767  151.0133 C   0  0  0  0  0  0  0  0  0  0  0  0
  145.6923  133.7206  150.0590 O   0  0  0  0  0  0  0  0  0  0  0  0
  145.8277  135.1324  150.1203 C   0  0  0  0  0  0  0  0  0  0  0  0
  145.3823  135.6305  151.5041 C   0  0  0  0  0  0  0  0  0  0  0  0
  151.0347  141.3463  155.5145 H   0  0  0  0  0  0  0  0  0  0  0  0
  144.6102  138.7791  153.5332 H   0  0  0  0  0  0  0  0  0  0  0  0
  143.7589  137.3973  154.2058 H   0  0  0  0  0  0  0  0  0  0  0  0
  144.2784  137.3864  152.5204 H   0  0  0  0  0  0  0  0  0  0  0  0
  146.6787  137.4850  153.2831 H   0  0  0  0  0  0  0  0  0  0  0  0
  146.1938  137.5051  154.9170 H   0  0  0  0  0  0  0  0  0  0  0  0
  144.4686  135.4065  155.5718 H   0  0  0  0  0  0  0  0  0  0  0  0
  144.6098  133.9303  154.6413 H   0  0  0  0  0  0  0  0  0  0  0  0
  143.7764  135.3298  153.9750 H   0  0  0  0  0  0  0  0  0  0  0  0
  146.8414  135.1517  155.9656 H   0  0  0  0  0  0  0  0  0  0  0  0
  147.3587  134.0121  154.7507 H   0  0  0  0  0  0  0  0  0  0  0  0
  148.5605  136.2113  153.8631 H   0  0  0  0  0  0  0  0  0  0  0  0
  151.3455  136.0635  155.4592 H   0  0  0  0  0  0  0  0  0  0  0  0
  150.4911  136.9438  154.2434 H   0  0  0  0  0  0  0  0  0  0  0  0
  151.1821  138.9185  153.2752 H   0  0  0  0  0  0  0  0  0  0  0  0
  150.5020  140.5131  153.5935 H   0  0  0  0  0  0  0  0  0  0  0  0
  149.4697  139.0895  153.6890 H   0  0  0  0  0  0  0  0  0  0  0  0
  151.9733  141.6493  159.0469 H   0  0  0  0  0  0  0  0  0  0  0  0
  150.7159  142.3592  158.0277 H   0  0  0  0  0  0  0  0  0  0  0  0
  152.3924  142.3028  157.4605 H   0  0  0  0  0  0  0  0  0  0  0  0
  146.7971  132.9989  153.1197 H   0  0  0  0  0  0  0  0  0  0  0  0
  145.1123  133.1514  152.6525 H   0  0  0  0  0  0  0  0  0  0  0  0
  147.5710  133.3105  150.8190 H   0  0  0  0  0  0  0  0  0  0  0  0
  146.4137  131.9977  150.9026 H   0  0  0  0  0  0  0  0  0  0  0  0
  146.8580  135.4257  149.9118 H   0  0  0  0  0  0  0  0  0  0  0  0
  145.2067  135.5794  149.3436 H   0  0  0  0  0  0  0  0  0  0  0  0
  144.3235  135.4085  151.6384 H   0  0  0  0  0  0  0  0  0  0  0  0
  145.4879  136.7130  151.5091 H   0  0  0  0  0  0  0  0  0  0  0  0
  147.1471  135.2248  152.3685 H   0  0  0  0  0  0  0  0  0  0  0  0
  1  2  1  0  0  0  0
  1 26  1  0  0  0  0
  1 27  1  0  0  0  0
  1 28  1  0  0  0  0
  2  3  1  0  0  0  0
  2 29  1  0  0  0  0
  2 30  1  0  0  0  0
  3  4  1  0  0  0  0
  3  5  1  0  0  0  0
  3 19  1  0  0  0  0
  4 31  1  0  0  0  0
  4 32  1  0  0  0  0
  4 33  1  0  0  0  0
  5  6  1  0  0  0  0
  5 34  1  0  0  0  0
  5 35  1  0  0  0  0
  6  7  1  0  0  0  0
  6 36  1  0  0  0  0
  7  8  2  0  0  0  0
  7  9  1  0  0  0  0
  9 37  1  0  0  0  0
  9 38  1  0  0  0  0
  9 10  1  0  0  0  0
 10 17  1  0  0  0  0
 10 11  2  0  0  0  0
 11 12  1  0  0  0  0
 11 13  1  0  0  0  0
 12 39  1  0  0  0  0
 12 40  1  0  0  0  0
 12 41  1  0  0  0  0
 13 25  1  0  0  0  0
 13 14  1  0  0  0  0
 14 15  1  0  0  0  0
 14 16  2  0  0  0  0
 15 42  1  0  0  0  0
 15 43  1  0  0  0  0
 15 44  1  0  0  0  0
 16 17  1  0  0  0  0
 17 18  2  0  0  0  0
 19 24  1  0  0  0  0
 19 20  1  0  0  0  0
 19 53  1  0  0  0  0
 20 21  1  0  0  0  0
 20 45  1  0  0  0  0
 20 46  1  0  0  0  0
 21 22  1  0  0  0  0
 21 47  1  0  0  0  0
 21 48  1  0  0  0  0
 22 23  1  0  0  0  0
 23 24  1  0  0  0  0
 23 49  1  0  0  0  0
 23 50  1  0  0  0  0
 24 51  1  0  0  0  0
 24 52  1  0  0  0  0
M  CHG  1  19   1
M  END
> <s_m_source_file>
AV-unprocessed.smi

> <i_m_source_file_index>
1492

> <i_lp_mmshare_version>
43012

> <i_f3d_flags>
0

> <s_epik_input>
W0NIMl0xW0NIMl1PW0NIMl1bQ0gyXU4xW0NAQF0oW0NIM10pKFtDSDJdW0NIM10pW0NIMl1bTkhdQyg9TylbQ0gyXWMyYyhbQ0gzXSluYyhbQ0gzXSlbbkhdYzI9Tw==

> <s_epik_cmdline>
J2VwaWtfcHl0aG9uJywgJy1waCcsICc3LjAnLCAnLXRuJywgJzgnLCAnLW1hJywgJzIwMCcsICctbWV0YWxfYmluZGluZycsICctaW1hZScsICc8aW5maWxlLm1hZT4nLCAnLW9tYWUnLCAnPG91dGZpbGUubWFlPic=

> <r_lp_tautomer_probability>
0.156392

> <r_epik_Ionization_Penalty>
0.523233

> <r_epik_Ionization_Penalty_Charging>
0.523147

> <r_epik_Ionization_Penalty_Neutral>
8.52784e-05

> <r_epik_State_Penalty>
1.66677

> <r_epik_Charging_Adjusted_Penalty>
2.18991

> <i_epik_Tot_Q>
1

> <i_epik_Tot_abs_Q>
1

> <r_epik_Metal_State_Penalty>
1.84524

> <b_epik_Metal_Only>
0

> <s_lp_Force_Field>
OPLS_2005

> <r_lp_Energy>
32.5308

> <b_lp_Chiralities_Consistent>
1

> <s_lp_Variant>
AV-unprocessed.smi:1492-8

> <Gold.Version>
5.8.1

> <Gold.Id.Protein>
6NUR|6NUR_protein|mol2

> <Gold.PLP.Fitness>
44.5330

> <Gold.PLP.PLP>
-32.5652

> <Gold.PLP.part.hbond>
-5.0000

> <Gold.PLP.part.metal>
0.0000

> <Gold.PLP.part.buried>
-3.7988

> <Gold.PLP.part.nonpolar>
-23.5948

> <Gold.PLP.part.repulsive>
0.3477

> <Gold.PLP.ligand.clash>
0.0000

> <Gold.PLP.ligand.torsion>
1.1001

> <Gold.PLP.Chemscore.Hbond>
4.5760

> <Gold.PLP.Chemscore.CHOScore>
0.0000

> <Gold.PLP.Chemscore.Metal>
0.0000

> <Gold.Chemscore.Hbonds>
donor molecule, donor type, donor heavy atom, donor atom, acceptor molecule, acceptor atom, score
      L1  H     6    36       P1  7948  1.00
      L1  H    19    53       P1  7948  1.66

> <Gold.PLP.Chemscore.Internal.Correction>
0.4401

> <Gold.Rescore>
     Score         DG    S(hbond)    S(metal)    S(lipo)     H(rot)  DE(clash)    DE(int)     intcor
     13.65     -16.31       2.73        0.00      62.52       2.19       0.11       2.55       ----

> <Gold.Chemscore.Fitness>
13.6463

> <Gold.Chemscore.DG>
-16.3103

> <Gold.Chemscore.ZeroCoef>
-5.4800

> <Gold.Chemscore.Hbond>
2.7331

> <Gold.Chemscore.Metal>
0.0000

> <Gold.Chemscore.Lipo>
62.5204

> <Gold.Chemscore.Internal_Hbond>
0.0000

> <Gold.Chemscore.DEClash>
0.1113

> <Gold.Chemscore.DEInternal>
2.5527

> <Gold.Chemscore.Rot>
2.1926

> <Gold.Chemscore.Internal.Correction>
   9.000000E+99

> <Gold.Chemscore.Hbonds>
donor molecule, donor type, donor heavy atom, donor atom, acceptor molecule, acceptor atom, score
      L1  H     6    36       P1  7948  0.93
      L1  H    19    53       P1  7948  0.80

> <Gold.Chemscore.Hbond.Weighted>
-9.1284

> <Gold.Chemscore.Metal.Weighted>
-0.0000

> <Gold.Chemscore.Lipo.Weighted>
-7.3149

> <Gold.Chemscore.Internal_Hbond.Weighted>
0.0000

> <Gold.Chemscore.DEClash.Weighted>
0.1113

> <Gold.Chemscore.DEInternal.Weighted>
2.5527

> <Gold.Chemscore.Rot.Weighted>
5.6129

> <Gold.Chemscore.Internal.Correction.Weighted>
   9.000000E+99

> <Gold.Protein.RotatedTorsions>
[ 6907 6896 6895 6894 ] final -118.33 input  -60.11 | X-H torsion
[ 7974 7965 7964 7962 ] final  115.84 input  175.53 | X-H torsion
[ 8008 7997 7996 7995 ] final  -87.65 input   59.86 | X-H torsion
[ 10167 10162 10161 10158 ] final  130.51 input  -65.29 | X-H torsion
[ 10718 10713 10712 10709 ] final   -6.51 input   66.30 | X-H torsion
[ 10763 10752 10751 10750 ] final   82.80 input  -60.55 | X-H torsion
[ 11005 11000 10999 10996 ] final   33.40 input  -57.11 | X-H torsion

> <Gold.Protein.ActiveResidues>
 VAL166  LYS551  ARG553  GLY616  TRP617  ASP618  TYR619  PRO620  LYS621  CYS622 
 ASP623  PHE694  ASN695  SER759  ASP760  ASP761  ALA762  ILE779  LEU786  VAL792 
 PHE793  MET794  SER795  GLU796  ALA797  LYS798  CYS799  TRP800  GLU811  SER814 

> <Gold.Protein.RotatedAtoms>
  150.8211  133.8251  159.3138 H   0  0  0  0  0  0  0  0  0  0  0  0  # atno 6907 bound_to 6896
  151.6009  135.1045  160.0069 H   0  0  0  0  0  0  0  0  0  0  0  0  # atno 6908 bound_to 6896
  152.4300  133.7220  159.6595 H   0  0  0  0  0  0  0  0  0  0  0  0  # atno 6909 bound_to 6896
  145.1870  139.3020  143.4388 H   0  0  0  0  0  0  0  0  0  0  0  0  # atno 7974 bound_to 7965
  154.6657  140.0563  157.0111 H   0  0  0  0  0  0  0  0  0  0  0  0  # atno 8008 bound_to 7997
  155.1163  140.3243  155.4490 H   0  0  0  0  0  0  0  0  0  0  0  0  # atno 8009 bound_to 7997
  156.2637  140.2005  156.6286 H   0  0  0  0  0  0  0  0  0  0  0  0  # atno 8010 bound_to 7997
  139.5426  144.6745  151.4574 H   0  0  0  0  0  0  0  0  0  0  0  0  # atno 10167 bound_to 10162
  156.7308  130.5179  149.5846 H   0  0  0  0  0  0  0  0  0  0  0  0  # atno 10718 bound_to 10713
  153.1234  135.4715  154.9233 H   0  0  0  0  0  0  0  0  0  0  0  0  # atno 10763 bound_to 10752
  154.7598  135.3128  154.8403 H   0  0  0  0  0  0  0  0  0  0  0  0  # atno 10764 bound_to 10752
  153.8962  135.6879  153.4811 H   0  0  0  0  0  0  0  0  0  0  0  0  # atno 10765 bound_to 10752
  140.2635  134.3165  155.7850 H   0  0  0  0  0  0  0  0  0  0  0  0  # atno 11005 bound_to 11000
  146.3443  140.2070  142.8589 LP  0  0  0  0  0  0  0  0  0  0  0  0  # atno 17320 bound_to 7965
  145.0079  140.8688  143.5242 LP  0  0  0  0  0  0  0  0  0  0  0  0  # atno 17321 bound_to 7965
  140.6663  143.8391  150.6945 LP  0  0  0  0  0  0  0  0  0  0  0  0  # atno 17342 bound_to 10162
  140.1801  143.4121  152.1939 LP  0  0  0  0  0  0  0  0  0  0  0  0  # atno 17343 bound_to 10162
  156.1530  130.6323  151.0620 LP  0  0  0  0  0  0  0  0  0  0  0  0  # atno 17370 bound_to 10713
  157.6859  131.0825  150.7243 LP  0  0  0  0  0  0  0  0  0  0  0  0  # atno 17371 bound_to 10713
  141.2187  133.7423  156.9223 LP  0  0  0  0  0  0  0  0  0  0  0  0  # atno 17394 bound_to 11000
  140.1442  134.9273  157.2507 LP  0  0  0  0  0  0  0  0  0  0  0  0  # atno 17395 bound_to 11000

$$$$
