AV-unprocessed.smi:2710|AV-procd|sdf|10470|dock7
  -GOLD-   2272014513D 1   1.00000     0.00000
 Structure written by MMmdl.
 53 54  0  0  0  0  0  0  0  0  2 V2000
  143.9312  132.1760  150.6229 C   0  0  0  0  0  0  0  0  0  0  0  0
  144.0046  133.2390  151.7294 C   0  0  0  0  0  0  0  0  0  0  0  0
  143.4634  134.5627  151.3018 N   0  3  2  0  0  0  0  0  0  0  0  0
  144.2631  135.2298  150.2357 C   0  0  0  0  0  0  0  0  0  0  0  0
  145.5909  135.7970  150.7764 C   0  0  0  0  0  0  0  0  0  0  0  0
  145.3557  136.7453  151.9660 C   0  0  2  0  0  0  0  0  0  0  0  0
  146.6344  137.1376  152.5534 N   0  0  0  0  0  0  0  0  0  0  0  0
  146.8197  138.1286  153.4375 C   0  0  0  0  0  0  0  0  0  0  0  0
  145.9113  138.8386  153.8678 O   0  0  0  0  0  0  0  0  0  0  0  0
  148.1173  138.2496  153.7648 N   0  0  0  0  0  0  0  0  0  0  0  0
  148.7078  139.1683  154.6724 C   0  0  0  0  0  0  0  0  0  0  0  0
  149.9786  139.7036  154.3813 C   0  0  0  0  0  0  0  0  0  0  0  0
  150.5949  140.5729  155.2094 N   0  0  0  0  0  0  0  0  0  0  0  0
  149.9566  140.9137  156.3364 C   0  0  0  0  0  0  0  0  0  0  0  0
  150.6958  141.8854  157.2743 C   0  0  0  0  0  0  0  0  0  0  0  0
  151.9975  141.2699  157.8446 C   0  0  0  0  0  0  0  0  0  0  0  0
  149.7992  142.2351  158.4807 C   0  0  0  0  0  0  0  0  0  0  0  0
  151.0815  143.1624  156.5014 C   0  0  0  0  0  0  0  0  0  0  0  0
  148.7643  140.4411  156.7234 N   0  0  0  0  0  0  0  0  0  0  0  0
  148.1344  139.5759  155.9003 C   0  0  0  0  0  0  0  0  0  0  0  0
  144.4754  136.0690  153.0323 C   0  0  0  0  0  0  0  0  0  0  0  0
  143.1737  135.5219  152.4108 C   0  0  2  0  0  0  0  0  0  0  0  0
  142.1995  134.9702  153.4672 C   0  0  0  0  0  0  0  0  0  0  0  0
  144.2084  131.1980  151.0167 H   0  0  0  0  0  0  0  0  0  0  0  0
  144.6101  132.3891  149.7979 H   0  0  0  0  0  0  0  0  0  0  0  0
  142.9210  132.0932  150.2212 H   0  0  0  0  0  0  0  0  0  0  0  0
  143.4226  132.8515  152.5629 H   0  0  0  0  0  0  0  0  0  0  0  0
  145.0272  133.3332  152.0935 H   0  0  0  0  0  0  0  0  0  0  0  0
  144.4490  134.5577  149.3995 H   0  0  0  0  0  0  0  0  0  0  0  0
  143.6686  136.0458  149.8227 H   0  0  0  0  0  0  0  0  0  0  0  0
  146.2506  134.9806  151.0720 H   0  0  0  0  0  0  0  0  0  0  0  0
  146.1113  136.3293  149.9790 H   0  0  0  0  0  0  0  0  0  0  0  0
  144.8193  137.6221  151.5983 H   0  0  0  0  0  0  0  0  0  0  0  0
  147.4462  136.6145  152.2592 H   0  0  0  0  0  0  0  0  0  0  0  0
  148.7633  137.6550  153.2665 H   0  0  0  0  0  0  0  0  0  0  0  0
  150.5054  139.4383  153.4762 H   0  0  0  0  0  0  0  0  0  0  0  0
  152.5021  141.9636  158.5181 H   0  0  0  0  0  0  0  0  0  0  0  0
  152.7072  141.0211  157.0545 H   0  0  0  0  0  0  0  0  0  0  0  0
  151.7976  140.3594  158.4112 H   0  0  0  0  0  0  0  0  0  0  0  0
  149.5126  141.3391  159.0328 H   0  0  0  0  0  0  0  0  0  0  0  0
  148.8824  142.7383  158.1722 H   0  0  0  0  0  0  0  0  0  0  0  0
  150.3108  142.9008  159.1766 H   0  0  0  0  0  0  0  0  0  0  0  0
  151.6217  143.8643  157.1377 H   0  0  0  0  0  0  0  0  0  0  0  0
  150.2017  143.6829  156.1215 H   0  0  0  0  0  0  0  0  0  0  0  0
  151.7204  142.9309  155.6484 H   0  0  0  0  0  0  0  0  0  0  0  0
  147.1842  139.2042  156.2510 H   0  0  0  0  0  0  0  0  0  0  0  0
  145.0247  135.2630  153.5209 H   0  0  0  0  0  0  0  0  0  0  0  0
  144.2354  136.7912  153.8140 H   0  0  0  0  0  0  0  0  0  0  0  0
  142.6561  136.3642  151.9486 H   0  0  0  0  0  0  0  0  0  0  0  0
  141.8494  135.7718  154.1184 H   0  0  0  0  0  0  0  0  0  0  0  0
  142.6653  134.2238  154.1104 H   0  0  0  0  0  0  0  0  0  0  0  0
  141.3216  134.5218  153.0015 H   0  0  0  0  0  0  0  0  0  0  0  0
  142.5666  134.3563  150.8855 H   0  0  0  0  0  0  0  0  0  0  0  0
  1  2  1  0  0  0  0
  1 24  1  0  0  0  0
  1 25  1  0  0  0  0
  1 26  1  0  0  0  0
  2  3  1  0  0  0  0
  2 27  1  0  0  0  0
  2 28  1  0  0  0  0
  3 22  1  0  0  0  0
  3  4  1  0  0  0  0
  3 53  1  0  0  0  0
  4  5  1  0  0  0  0
  4 29  1  0  0  0  0
  4 30  1  0  0  0  0
  5  6  1  0  0  0  0
  5 31  1  0  0  0  0
  5 32  1  0  0  0  0
  6  7  1  0  0  0  0
  6 21  1  0  0  0  0
  6 33  1  0  0  0  0
  7  8  1  0  0  0  0
  7 34  1  0  0  0  0
  8  9  2  0  0  0  0
  8 10  1  0  0  0  0
 10 11  1  0  0  0  0
 10 35  1  0  0  0  0
 11 20  1  0  0  0  0
 11 12  2  0  0  0  0
 12 13  1  0  0  0  0
 12 36  1  0  0  0  0
 13 14  2  0  0  0  0
 14 15  1  0  0  0  0
 14 19  1  0  0  0  0
 15 16  1  0  0  0  0
 15 17  1  0  0  0  0
 15 18  1  0  0  0  0
 16 37  1  0  0  0  0
 16 38  1  0  0  0  0
 16 39  1  0  0  0  0
 17 40  1  0  0  0  0
 17 41  1  0  0  0  0
 17 42  1  0  0  0  0
 18 43  1  0  0  0  0
 18 44  1  0  0  0  0
 18 45  1  0  0  0  0
 19 20  2  0  0  0  0
 20 46  1  0  0  0  0
 21 22  1  0  0  0  0
 21 47  1  0  0  0  0
 21 48  1  0  0  0  0
 22 23  1  0  0  0  0
 22 49  1  0  0  0  0
 23 50  1  0  0  0  0
 23 51  1  0  0  0  0
 23 52  1  0  0  0  0
M  CHG  1   3   1
M  END
> <s_m_source_file>
AV-unprocessed.smi

> <i_m_source_file_index>
2710

> <i_lp_mmshare_version>
43012

> <i_f3d_flags>
0

> <s_epik_input>
W0NIM11bQ0gyXU4xW0NIMl1bQ0gyXVtDQEhdKFtDSDJdW0NASF0xW0NIM10pW05IXUMoPU8pW05IXWMyW2NIXW5jKEMoW0NIM10pKFtDSDNdKVtDSDNdKW5bY0hdMg==

> <s_epik_cmdline>
J2VwaWtfcHl0aG9uJywgJy1waCcsICc3LjAnLCAnLXRuJywgJzgnLCAnLW1hJywgJzIwMCcsICctbWV0YWxfYmluZGluZycsICctaW1hZScsICc8aW5maWxlLm1hZT4nLCAnLW9tYWUnLCAnPG91dGZpbGUubWFlPic=

> <r_lp_tautomer_probability>
1

> <r_epik_Ionization_Penalty>
0.00396003

> <r_epik_Ionization_Penalty_Charging>
0.0039379

> <r_epik_Ionization_Penalty_Neutral>
2.21316e-05

> <r_epik_State_Penalty>
0.00281651

> <r_epik_Charging_Adjusted_Penalty>
0.00675441

> <i_epik_Tot_Q>
1

> <i_epik_Tot_abs_Q>
1

> <r_epik_Metal_State_Penalty>
-0

> <b_epik_Metal_Only>
0

> <s_lp_Force_Field>
OPLS_2005

> <r_lp_Energy>
21.9784

> <b_lp_Chiralities_Consistent>
1

> <s_lp_Variant>
AV-unprocessed.smi:2710-7

> <Gold.Version>
5.8.1

> <Gold.Id.Protein>
6NUR|6NUR_protein|mol2

> <Gold.PLP.Fitness>
46.9269

> <Gold.PLP.PLP>
-33.6673

> <Gold.PLP.part.hbond>
-4.0000

> <Gold.PLP.part.metal>
0.0000

> <Gold.PLP.part.buried>
-1.8792

> <Gold.PLP.part.nonpolar>
-28.7032

> <Gold.PLP.part.repulsive>
0.6236

> <Gold.PLP.ligand.clash>
0.0000

> <Gold.PLP.ligand.torsion>
0.5557

> <Gold.PLP.Chemscore.Hbond>
3.9280

> <Gold.PLP.Chemscore.CHOScore>
0.8480

> <Gold.PLP.Chemscore.Metal>
0.0000

> <Gold.Chemscore.Hbonds>
donor molecule, donor type, donor heavy atom, donor atom, acceptor molecule, acceptor atom, score
      L1  H     3    53       P1 10186  1.85
      L1  H     7    34       P1  7948  1.00
      L1  H    10    35       P1  7948  0.93
      L1  C    12    36       P1  7957  0.83

> <Gold.PLP.Chemscore.Internal.Correction>
0.0429

> <Gold.Rescore>
     Score         DG    S(hbond)    S(metal)    S(lipo)     H(rot)  DE(clash)    DE(int)     intcor
     18.99     -20.71       2.29        0.00      93.32       1.31       1.06       0.66       ----

> <Gold.Chemscore.Fitness>
18.9872

> <Gold.Chemscore.DG>
-20.7076

> <Gold.Chemscore.ZeroCoef>
-5.4800

> <Gold.Chemscore.Hbond>
2.2930

> <Gold.Chemscore.Metal>
0.0000

> <Gold.Chemscore.Lipo>
93.3157

> <Gold.Chemscore.Internal_Hbond>
0.0000

> <Gold.Chemscore.DEClash>
1.0574

> <Gold.Chemscore.DEInternal>
0.6630

> <Gold.Chemscore.Rot>
1.3081

> <Gold.Chemscore.Internal.Correction>
   9.000000E+99

> <Gold.Chemscore.Hbonds>
donor molecule, donor type, donor heavy atom, donor atom, acceptor molecule, acceptor atom, score
      L1  H     3    53       P1 10186  0.20
      L1  H     7    34       P1  7948  0.98
      L1  H    10    35       P1  7948  0.87

> <Gold.Chemscore.Hbond.Weighted>
-7.6585

> <Gold.Chemscore.Metal.Weighted>
-0.0000

> <Gold.Chemscore.Lipo.Weighted>
-10.9179

> <Gold.Chemscore.Internal_Hbond.Weighted>
0.0000

> <Gold.Chemscore.DEClash.Weighted>
1.0574

> <Gold.Chemscore.DEInternal.Weighted>
0.6630

> <Gold.Chemscore.Rot.Weighted>
3.3488

> <Gold.Chemscore.Internal.Correction.Weighted>
   9.000000E+99

> <Gold.Protein.RotatedTorsions>
[ 6907 6896 6895 6894 ] final  -41.86 input  -60.11 | X-H torsion
[ 7974 7965 7964 7962 ] final  -35.00 input  175.53 | X-H torsion
[ 8008 7997 7996 7995 ] final -113.97 input   59.86 | X-H torsion
[ 10167 10162 10161 10158 ] final  -14.70 input  -65.29 | X-H torsion
[ 10718 10713 10712 10709 ] final  129.78 input   66.30 | X-H torsion
[ 10763 10752 10751 10750 ] final  -52.69 input  -60.55 | X-H torsion
[ 11005 11000 10999 10996 ] final  -42.41 input  -57.11 | X-H torsion

> <Gold.Protein.ActiveResidues>
 VAL166  LYS551  ARG553  GLY616  TRP617  ASP618  TYR619  PRO620  LYS621  CYS622 
 ASP623  PHE694  ASN695  SER759  ASP760  ASP761  ALA762  ILE779  LEU786  VAL792 
 PHE793  MET794  SER795  GLU796  ALA797  LYS798  CYS799  TRP800  GLU811  SER814 

> <Gold.Protein.RotatedAtoms>
  150.9619  134.9005  159.7735 H   0  0  0  0  0  0  0  0  0  0  0  0  # atno 6907 bound_to 6896
  152.5159  134.3661  159.9312 H   0  0  0  0  0  0  0  0  0  0  0  0  # atno 6908 bound_to 6896
  151.3673  133.3827  159.2730 H   0  0  0  0  0  0  0  0  0  0  0  0  # atno 6909 bound_to 6896
  146.0783  140.6106  142.8920 H   0  0  0  0  0  0  0  0  0  0  0  0  # atno 7974 bound_to 7965
  155.0290  140.0393  157.2467 H   0  0  0  0  0  0  0  0  0  0  0  0  # atno 8008 bound_to 7997
  154.7313  140.2731  155.6430 H   0  0  0  0  0  0  0  0  0  0  0  0  # atno 8009 bound_to 7997
  156.2842  140.2683  156.2013 H   0  0  0  0  0  0  0  0  0  0  0  0  # atno 8010 bound_to 7997
  140.7206  143.5295  150.9537 H   0  0  0  0  0  0  0  0  0  0  0  0  # atno 10167 bound_to 10162
  157.5122  131.1097  150.9276 H   0  0  0  0  0  0  0  0  0  0  0  0  # atno 10718 bound_to 10713
  154.1468  135.6496  153.4954 H   0  0  0  0  0  0  0  0  0  0  0  0  # atno 10763 bound_to 10752
  153.0149  135.5328  154.6848 H   0  0  0  0  0  0  0  0  0  0  0  0  # atno 10764 bound_to 10752
  154.6125  135.2955  155.0387 H   0  0  0  0  0  0  0  0  0  0  0  0  # atno 10765 bound_to 10752
  141.0313  133.6818  156.2591 H   0  0  0  0  0  0  0  0  0  0  0  0  # atno 11005 bound_to 11000
  144.7276  140.4573  143.6961 LP  0  0  0  0  0  0  0  0  0  0  0  0  # atno 17320 bound_to 7965
  145.6265  139.1531  143.2993 LP  0  0  0  0  0  0  0  0  0  0  0  0  # atno 17321 bound_to 7965
  139.9014  143.6831  152.3130 LP  0  0  0  0  0  0  0  0  0  0  0  0  # atno 17342 bound_to 10162
  139.7182  144.7608  151.0999 LP  0  0  0  0  0  0  0  0  0  0  0  0  # atno 17343 bound_to 10162
  156.9913  130.5564  149.5303 LP  0  0  0  0  0  0  0  0  0  0  0  0  # atno 17370 bound_to 10713
  156.0297  130.5389  150.8500 LP  0  0  0  0  0  0  0  0  0  0  0  0  # atno 17371 bound_to 10713
  140.6401  134.5175  157.5568 LP  0  0  0  0  0  0  0  0  0  0  0  0  # atno 17394 bound_to 11000
  139.9210  134.8149  156.1212 LP  0  0  0  0  0  0  0  0  0  0  0  0  # atno 17395 bound_to 11000

$$$$
