AV-unprocessed.smi:1898|AV-procd|sdf|7701|dock3
  -GOLD-   22720 9443D 1   1.00000     0.00000
 Structure written by MMmdl.
 47 48  0  0  0  0  0  0  0  0  2 V2000
  146.6124  133.5656  151.7333 C   0  0  0  0  0  0  0  0  0  0  0  0
  146.6827  135.0188  151.7069 N   0  0  0  0  0  0  0  0  0  0  0  0
  145.6119  135.8242  151.6783 C   0  0  0  0  0  0  0  0  0  0  0  0
  144.4536  135.4058  151.6640 O   0  0  0  0  0  0  0  0  0  0  0  0
  145.8973  137.3295  151.6437 C   0  0  0  0  0  0  0  0  0  0  0  0
  146.8023  137.7734  152.7348 N   0  3  2  0  0  0  0  0  0  0  0  0
  146.3962  137.2469  154.0626 C   0  0  0  0  0  0  0  0  0  0  0  0
  147.4423  137.5908  155.1359 C   0  0  0  0  0  0  0  0  0  0  0  0
  147.6850  139.1067  155.2098 C   0  0  1  0  0  0  0  0  0  0  0  0
  148.7470  139.3938  156.1693 N   0  0  0  0  0  0  0  0  0  0  0  0
  149.3139  140.5940  156.3574 C   0  0  0  0  0  0  0  0  0  0  0  0
  148.9849  141.6017  155.7328 O   0  0  0  0  0  0  0  0  0  0  0  0
  150.2615  140.5354  157.3086 N   0  0  0  0  0  0  0  0  0  0  0  0
  151.0824  141.5742  157.8316 C   0  0  0  0  0  0  0  0  0  0  0  0
  150.9521  142.9424  157.4877 C   0  0  0  0  0  0  0  0  0  0  0  0
  151.8309  143.8786  158.0636 C   0  0  0  0  0  0  0  0  0  0  0  0
  152.8134  143.4150  158.9568 C   0  0  0  0  0  0  0  0  0  0  0  0
  152.9580  142.1151  159.2852 N   0  0  0  0  0  0  0  0  0  0  0  0
  152.1117  141.2105  158.7318 C   0  0  0  0  0  0  0  0  0  0  0  0
  152.2651  139.8782  159.0658 O   0  0  0  0  0  0  0  0  0  0  0  0
  153.3467  139.5097  159.9147 C   0  0  0  0  0  0  0  0  0  0  0  0
  148.0551  139.6406  153.8143 C   0  0  0  0  0  0  0  0  0  0  0  0
  146.9976  139.2476  152.7699 C   0  0  0  0  0  0  0  0  0  0  0  0
  147.6178  133.1449  151.7470 H   0  0  0  0  0  0  0  0  0  0  0  0
  146.0956  133.1846  150.8514 H   0  0  0  0  0  0  0  0  0  0  0  0
  146.0854  133.2185  152.6231 H   0  0  0  0  0  0  0  0  0  0  0  0
  147.6028  135.4356  151.7092 H   0  0  0  0  0  0  0  0  0  0  0  0
  146.3065  137.6197  150.6745 H   0  0  0  0  0  0  0  0  0  0  0  0
  144.9329  137.8303  151.7394 H   0  0  0  0  0  0  0  0  0  0  0  0
  145.4232  137.6575  154.3371 H   0  0  0  0  0  0  0  0  0  0  0  0
  146.2815  136.1634  154.0122 H   0  0  0  0  0  0  0  0  0  0  0  0
  147.1114  137.2169  156.1056 H   0  0  0  0  0  0  0  0  0  0  0  0
  148.3762  137.0746  154.9074 H   0  0  0  0  0  0  0  0  0  0  0  0
  146.7595  139.5833  155.5393 H   0  0  0  0  0  0  0  0  0  0  0  0
  149.0766  138.6218  156.7305 H   0  0  0  0  0  0  0  0  0  0  0  0
  150.3771  139.6389  157.7588 H   0  0  0  0  0  0  0  0  0  0  0  0
  150.2105  143.2970  156.7903 H   0  0  0  0  0  0  0  0  0  0  0  0
  151.7548  144.9284  157.8222 H   0  0  0  0  0  0  0  0  0  0  0  0
  153.5048  144.1057  159.4164 H   0  0  0  0  0  0  0  0  0  0  0  0
  153.3277  138.4319  160.0740 H   0  0  0  0  0  0  0  0  0  0  0  0
  153.2692  139.9900  160.8911 H   0  0  0  0  0  0  0  0  0  0  0  0
  154.3094  139.7607  159.4670 H   0  0  0  0  0  0  0  0  0  0  0  0
  148.1571  140.7263  153.8414 H   0  0  0  0  0  0  0  0  0  0  0  0
  149.0264  139.2465  153.5110 H   0  0  0  0  0  0  0  0  0  0  0  0
  147.3112  139.6095  151.7904 H   0  0  0  0  0  0  0  0  0  0  0  0
  146.0488  139.7366  152.9965 H   0  0  0  0  0  0  0  0  0  0  0  0
  147.7027  137.3626  152.5311 H   0  0  0  0  0  0  0  0  0  0  0  0
  1  2  1  0  0  0  0
  1 24  1  0  0  0  0
  1 25  1  0  0  0  0
  1 26  1  0  0  0  0
  2  3  1  0  0  0  0
  2 27  1  0  0  0  0
  3  4  2  0  0  0  0
  3  5  1  0  0  0  0
  5  6  1  0  0  0  0
  5 28  1  0  0  0  0
  5 29  1  0  0  0  0
  6 23  1  0  0  0  0
  6  7  1  0  0  0  0
  6 47  1  0  0  0  0
  7  8  1  0  0  0  0
  7 30  1  0  0  0  0
  7 31  1  0  0  0  0
  8  9  1  0  0  0  0
  8 32  1  0  0  0  0
  8 33  1  0  0  0  0
  9 10  1  0  0  0  0
  9 22  1  0  0  0  0
  9 34  1  0  0  0  0
 10 11  1  0  0  0  0
 10 35  1  0  0  0  0
 11 12  2  0  0  0  0
 11 13  1  0  0  0  0
 13 14  1  0  0  0  0
 13 36  1  0  0  0  0
 14 19  1  0  0  0  0
 14 15  2  0  0  0  0
 15 16  1  0  0  0  0
 15 37  1  0  0  0  0
 16 17  2  0  0  0  0
 16 38  1  0  0  0  0
 17 18  1  0  0  0  0
 17 39  1  0  0  0  0
 18 19  2  0  0  0  0
 19 20  1  0  0  0  0
 20 21  1  0  0  0  0
 21 40  1  0  0  0  0
 21 41  1  0  0  0  0
 21 42  1  0  0  0  0
 22 23  1  0  0  0  0
 22 43  1  0  0  0  0
 22 44  1  0  0  0  0
 23 45  1  0  0  0  0
 23 46  1  0  0  0  0
M  CHG  1   6   1
M  END
> <s_m_source_file>
AV-unprocessed.smi

> <i_m_source_file_index>
1898

> <i_lp_mmshare_version>
43012

> <i_f3d_flags>
0

> <s_epik_input>
W0NIM11bTkhdQyg9TylbQ0gyXU4xW0NIMl1bQ0gyXVtDSF0oW0NIMl1bQ0gyXTEpW05IXUMoPU8pW05IXWMyW2NIXVtjSF1bY0hdbmMyT1tDSDNd

> <s_epik_cmdline>
J2VwaWtfcHl0aG9uJywgJy1waCcsICc3LjAnLCAnLXRuJywgJzgnLCAnLW1hJywgJzIwMCcsICctbWV0YWxfYmluZGluZycsICctaW1hZScsICc8aW5maWxlLm1hZT4nLCAnLW9tYWUnLCAnPG91dGZpbGUubWFlPic=

> <r_lp_tautomer_probability>
1

> <r_epik_Ionization_Penalty>
0.838943

> <r_epik_Ionization_Penalty_Charging>
0.838844

> <r_epik_Ionization_Penalty_Neutral>
9.87395e-05

> <r_epik_State_Penalty>
0.8734

> <r_epik_Charging_Adjusted_Penalty>
1.71224

> <i_epik_Tot_Q>
1

> <i_epik_Tot_abs_Q>
1

> <r_epik_Metal_State_Penalty>
0.877926

> <b_epik_Metal_Only>
0

> <s_lp_Force_Field>
OPLS_2005

> <r_lp_Energy>
17.1521

> <b_lp_Chiralities_Consistent>
1

> <s_lp_Variant>
AV-unprocessed.smi:1898-2

> <Gold.Version>
5.8.1

> <Gold.Id.Protein>
6NUR|6NUR_protein|mol2

> <Gold.PLP.Fitness>
40.7047

> <Gold.PLP.PLP>
-32.0612

> <Gold.PLP.part.hbond>
-2.0000

> <Gold.PLP.part.metal>
0.0000

> <Gold.PLP.part.buried>
-2.3512

> <Gold.PLP.part.nonpolar>
-28.1682

> <Gold.PLP.part.repulsive>
0.5264

> <Gold.PLP.ligand.clash>
0.0000

> <Gold.PLP.ligand.torsion>
0.1934

> <Gold.PLP.Chemscore.Hbond>
3.0000

> <Gold.PLP.Chemscore.CHOScore>
0.0000

> <Gold.PLP.Chemscore.Metal>
0.0000

> <Gold.Chemscore.Hbonds>
donor molecule, donor type, donor heavy atom, donor atom, acceptor molecule, acceptor atom, score
      L1  H     2    27       P1  7948  1.00
      L1  H     6    47       P1  7948  2.00

> <Gold.PLP.Chemscore.Internal.Correction>
0.0303

> <Gold.Rescore>
     Score         DG    S(hbond)    S(metal)    S(lipo)     H(rot)  DE(clash)    DE(int)     intcor
     13.20     -16.07       1.97        0.00      77.97       2.00       0.36       2.51       ----

> <Gold.Chemscore.Fitness>
13.1962

> <Gold.Chemscore.DG>
-16.0665

> <Gold.Chemscore.ZeroCoef>
-5.4800

> <Gold.Chemscore.Hbond>
1.9685

> <Gold.Chemscore.Metal>
0.0000

> <Gold.Chemscore.Lipo>
77.9680

> <Gold.Chemscore.Internal_Hbond>
0.0000

> <Gold.Chemscore.DEClash>
0.3621

> <Gold.Chemscore.DEInternal>
2.5082

> <Gold.Chemscore.Rot>
1.9963

> <Gold.Chemscore.Internal.Correction>
   9.000000E+99

> <Gold.Chemscore.Hbonds>
donor molecule, donor type, donor heavy atom, donor atom, acceptor molecule, acceptor atom, score
      L1  H     2    27       P1  7948  0.90
      L1  H     6    47       P1  7948  1.00

> <Gold.Chemscore.Hbond.Weighted>
-6.5747

> <Gold.Chemscore.Metal.Weighted>
-0.0000

> <Gold.Chemscore.Lipo.Weighted>
-9.1223

> <Gold.Chemscore.Internal_Hbond.Weighted>
0.0000

> <Gold.Chemscore.DEClash.Weighted>
0.3621

> <Gold.Chemscore.DEInternal.Weighted>
2.5082

> <Gold.Chemscore.Rot.Weighted>
5.1105

> <Gold.Chemscore.Internal.Correction.Weighted>
   9.000000E+99

> <Gold.Protein.RotatedTorsions>
[ 6907 6896 6895 6894 ] final  -38.65 input  -60.11 | X-H torsion
[ 7974 7965 7964 7962 ] final -155.30 input  175.53 | X-H torsion
[ 8008 7997 7996 7995 ] final  -69.43 input   59.86 | X-H torsion
[ 10167 10162 10161 10158 ] final  143.76 input  -65.29 | X-H torsion
[ 10718 10713 10712 10709 ] final  127.40 input   66.30 | X-H torsion
[ 10763 10752 10751 10750 ] final  -74.99 input  -60.55 | X-H torsion
[ 11005 11000 10999 10996 ] final  -26.77 input  -57.11 | X-H torsion

> <Gold.Protein.ActiveResidues>
 VAL166  LYS551  ARG553  GLY616  TRP617  ASP618  TYR619  PRO620  LYS621  CYS622 
 ASP623  PHE694  ASN695  SER759  ASP760  ASP761  ALA762  ILE779  LEU786  VAL792 
 PHE793  MET794  SER795  GLU796  ALA797  LYS798  CYS799  TRP800  GLU811  SER814 

> <Gold.Protein.RotatedAtoms>
  150.9999  134.9313  159.7947 H   0  0  0  0  0  0  0  0  0  0  0  0  # atno 6907 bound_to 6896
  152.5275  134.3169  159.9144 H   0  0  0  0  0  0  0  0  0  0  0  0  # atno 6908 bound_to 6896
  151.3174  133.4013  159.2686 H   0  0  0  0  0  0  0  0  0  0  0  0  # atno 6909 bound_to 6896
  144.7647  140.4269  143.5951 H   0  0  0  0  0  0  0  0  0  0  0  0  # atno 7974 bound_to 7965
  154.4938  140.0853  156.7653 H   0  0  0  0  0  0  0  0  0  0  0  0  # atno 8008 bound_to 7997
  155.4165  140.3444  155.4249 H   0  0  0  0  0  0  0  0  0  0  0  0  # atno 8009 bound_to 7997
  156.1366  140.1517  156.8972 H   0  0  0  0  0  0  0  0  0  0  0  0  # atno 8010 bound_to 7997
  139.4962  144.6018  151.6464 H   0  0  0  0  0  0  0  0  0  0  0  0  # atno 10167 bound_to 10162
  157.5336  131.1098  150.8971 H   0  0  0  0  0  0  0  0  0  0  0  0  # atno 10718 bound_to 10713
  154.4805  135.5846  153.6386 H   0  0  0  0  0  0  0  0  0  0  0  0  # atno 10763 bound_to 10752
  152.9847  135.6088  154.3252 H   0  0  0  0  0  0  0  0  0  0  0  0  # atno 10764 bound_to 10752
  154.3143  135.2844  155.2530 H   0  0  0  0  0  0  0  0  0  0  0  0  # atno 10765 bound_to 10752
  140.9059  133.7493  156.0605 H   0  0  0  0  0  0  0  0  0  0  0  0  # atno 11005 bound_to 11000
  145.6508  139.1565  143.2863 LP  0  0  0  0  0  0  0  0  0  0  0  0  # atno 17320 bound_to 7965
  146.1743  140.6597  142.9218 LP  0  0  0  0  0  0  0  0  0  0  0  0  # atno 17321 bound_to 7965
  140.5670  144.0173  150.6197 LP  0  0  0  0  0  0  0  0  0  0  0  0  # atno 17342 bound_to 10162
  140.3278  143.3096  152.0718 LP  0  0  0  0  0  0  0  0  0  0  0  0  # atno 17343 bound_to 10162
  156.9545  130.5432  149.5283 LP  0  0  0  0  0  0  0  0  0  0  0  0  # atno 17370 bound_to 10713
  156.0441  130.5520  150.8840 LP  0  0  0  0  0  0  0  0  0  0  0  0  # atno 17371 bound_to 10713
  140.8172  134.3331  157.5393 LP  0  0  0  0  0  0  0  0  0  0  0  0  # atno 17394 bound_to 11000
  139.8749  134.9288  156.3460 LP  0  0  0  0  0  0  0  0  0  0  0  0  # atno 17395 bound_to 11000

$$$$
