AV-unprocessed.smi:1817|AV-procd|sdf|7368|dock8
  -GOLD-   22720 9 33D 1   1.00000     0.00000
 Structure written by MMmdl.
 43 44  0  0  0  0  0  0  0  0  2 V2000
  150.5701  142.7176  158.0858 C   0  0  0  0  0  0  0  0  0  0  0  0
  150.5198  141.8528  156.8183 C   0  0  0  0  0  0  0  0  0  0  0  0
  149.2574  142.0235  156.0567 N   0  3  0  0  0  0  0  0  0  0  0  0
  148.1298  141.2796  156.6701 C   0  0  0  0  0  0  0  0  0  0  0  0
  146.8315  141.5079  155.8684 C   0  0  0  0  0  0  0  0  0  0  0  0
  146.9637  141.0503  154.4777 N   0  0  0  0  0  0  0  0  0  0  0  0
  147.1399  139.5923  154.2936 C   0  0  2  0  0  0  0  0  0  0  0  0
  147.0461  139.2252  152.7936 C   0  0  0  0  0  0  0  0  0  0  0  0
  146.1075  138.7674  155.1114 C   0  0  0  0  0  0  0  0  0  0  0  0
  144.7585  138.8644  154.5618 N   0  0  0  0  0  0  0  0  0  0  0  0
  143.7432  138.0523  154.8917 C   0  0  0  0  0  0  0  0  0  0  0  0
  143.8447  137.1465  155.7205 O   0  0  0  0  0  0  0  0  0  0  0  0
  142.6297  138.3552  154.2020 N   0  0  0  0  0  0  0  0  0  0  0  0
  141.3689  137.7027  154.2390 C   0  0  0  0  0  0  0  0  0  0  0  0
  141.1183  136.6098  154.9772 N   0  0  0  0  0  0  0  0  0  0  0  0
  139.8093  136.1708  154.8273 N   0  0  0  0  0  0  0  0  0  0  0  0
  139.1258  136.9478  153.9822 C   0  0  0  0  0  0  0  0  0  0  0  0
  140.0141  138.2927  153.2874 S   0  0  0  0  0  0  0  0  0  0  0  0
  148.0300  141.8740  153.8876 C   0  0  0  0  0  0  0  0  0  0  0  0
  149.3817  141.6889  154.6145 C   0  0  0  0  0  0  0  0  0  0  0  0
  151.4645  142.4917  158.6667 H   0  0  0  0  0  0  0  0  0  0  0  0
  149.7067  142.5316  158.7253 H   0  0  0  0  0  0  0  0  0  0  0  0
  150.5976  143.7819  157.8542 H   0  0  0  0  0  0  0  0  0  0  0  0
  151.3757  142.0638  156.1755 H   0  0  0  0  0  0  0  0  0  0  0  0
  150.6112  140.8090  157.1215 H   0  0  0  0  0  0  0  0  0  0  0  0
  148.3695  140.2178  156.7421 H   0  0  0  0  0  0  0  0  0  0  0  0
  147.9830  141.6325  157.6914 H   0  0  0  0  0  0  0  0  0  0  0  0
  145.9810  141.0437  156.3634 H   0  0  0  0  0  0  0  0  0  0  0  0
  146.5960  142.5733  155.8636 H   0  0  0  0  0  0  0  0  0  0  0  0
  148.1316  139.3085  154.6407 H   0  0  0  0  0  0  0  0  0  0  0  0
  147.0746  138.1472  152.6375 H   0  0  0  0  0  0  0  0  0  0  0  0
  147.8789  139.6237  152.2161 H   0  0  0  0  0  0  0  0  0  0  0  0
  146.1191  139.5933  152.3529 H   0  0  0  0  0  0  0  0  0  0  0  0
  146.3525  137.7064  155.1373 H   0  0  0  0  0  0  0  0  0  0  0  0
  146.0860  139.1081  156.1472 H   0  0  0  0  0  0  0  0  0  0  0  0
  144.5943  139.5865  153.8753 H   0  0  0  0  0  0  0  0  0  0  0  0
  142.6949  139.1337  153.5630 H   0  0  0  0  0  0  0  0  0  0  0  0
  138.0910  136.7271  153.7663 H   0  0  0  0  0  0  0  0  0  0  0  0
  148.1399  141.6766  152.8230 H   0  0  0  0  0  0  0  0  0  0  0  0
  147.7321  142.9220  153.9473 H   0  0  0  0  0  0  0  0  0  0  0  0
  150.1150  142.3469  154.1494 H   0  0  0  0  0  0  0  0  0  0  0  0
  149.7612  140.6741  154.4932 H   0  0  0  0  0  0  0  0  0  0  0  0
  149.0104  143.0013  156.1108 H   0  0  0  0  0  0  0  0  0  0  0  0
  1  2  1  0  0  0  0
  1 21  1  0  0  0  0
  1 22  1  0  0  0  0
  1 23  1  0  0  0  0
  2  3  1  0  0  0  0
  2 24  1  0  0  0  0
  2 25  1  0  0  0  0
  3 20  1  0  0  0  0
  3  4  1  0  0  0  0
  3 43  1  0  0  0  0
  4  5  1  0  0  0  0
  4 26  1  0  0  0  0
  4 27  1  0  0  0  0
  5  6  1  0  0  0  0
  5 28  1  0  0  0  0
  5 29  1  0  0  0  0
  6  7  1  0  0  0  0
  6 19  1  0  0  0  0
  7  8  1  0  0  0  0
  7  9  1  0  0  0  0
  7 30  1  0  0  0  0
  8 31  1  0  0  0  0
  8 32  1  0  0  0  0
  8 33  1  0  0  0  0
  9 10  1  0  0  0  0
  9 34  1  0  0  0  0
  9 35  1  0  0  0  0
 10 11  1  0  0  0  0
 10 36  1  0  0  0  0
 11 12  2  0  0  0  0
 11 13  1  0  0  0  0
 13 14  1  0  0  0  0
 13 37  1  0  0  0  0
 14 18  1  0  0  0  0
 14 15  2  0  0  0  0
 15 16  1  0  0  0  0
 16 17  2  0  0  0  0
 17 18  1  0  0  0  0
 17 38  1  0  0  0  0
 19 20  1  0  0  0  0
 19 39  1  0  0  0  0
 19 40  1  0  0  0  0
 20 41  1  0  0  0  0
 20 42  1  0  0  0  0
M  CHG  1   3   1
M  END
> <s_m_source_file>
AV-unprocessed.smi

> <i_m_source_file_index>
1817

> <i_lp_mmshare_version>
43012

> <i_f3d_flags>
0

> <s_epik_input>
W0NIM11bQ0gyXU4xW0NIMl1bQ0gyXU4oW0NIMl1bQ0gyXTEpW0NASF0oW0NIM10pW0NIMl1bTkhdQyg9TylbTkhdYzJubltjSF1zMg==

> <s_epik_cmdline>
J2VwaWtfcHl0aG9uJywgJy1waCcsICc3LjAnLCAnLXRuJywgJzgnLCAnLW1hJywgJzIwMCcsICctbWV0YWxfYmluZGluZycsICctaW1hZScsICc8aW5maWxlLm1hZT4nLCAnLW9tYWUnLCAnPG91dGZpbGUubWFlPic=

> <r_lp_tautomer_probability>
1

> <r_epik_Ionization_Penalty>
0.0474318

> <r_epik_Ionization_Penalty_Charging>
0.0451959

> <r_epik_Ionization_Penalty_Neutral>
0.00223598

> <r_epik_State_Penalty>
0.165541

> <r_epik_Charging_Adjusted_Penalty>
0.210737

> <i_epik_Tot_Q>
1

> <i_epik_Tot_abs_Q>
1

> <r_epik_Metal_State_Penalty>
0.500395

> <b_epik_Metal_Only>
0

> <s_lp_Force_Field>
OPLS_2005

> <r_lp_Energy>
19.2999

> <b_lp_Chiralities_Consistent>
1

> <s_lp_Variant>
AV-unprocessed.smi:1817-1

> <Gold.Version>
5.8.1

> <Gold.Id.Protein>
6NUR|6NUR_protein|mol2

> <Gold.PLP.Fitness>
42.5934

> <Gold.PLP.PLP>
-28.9878

> <Gold.PLP.part.hbond>
-4.9107

> <Gold.PLP.part.metal>
0.0000

> <Gold.PLP.part.buried>
-1.4402

> <Gold.PLP.part.nonpolar>
-20.7895

> <Gold.PLP.part.repulsive>
0.3172

> <Gold.PLP.ligand.clash>
0.0000

> <Gold.PLP.ligand.torsion>
0.4253

> <Gold.PLP.Chemscore.Hbond>
4.8000

> <Gold.PLP.Chemscore.CHOScore>
0.0000

> <Gold.PLP.Chemscore.Metal>
0.0000

> <Gold.Chemscore.Hbonds>
donor molecule, donor type, donor heavy atom, donor atom, acceptor molecule, acceptor atom, score
      L1  H     3    43       P1  8028  2.00
      L1  H    10    36       P1 10175  1.00
      L1  H    13    37       P1 10175  1.00
      P1  H 11000 11005       L1    16  0.80

> <Gold.PLP.Chemscore.Internal.Correction>
0.0562

> <Gold.Rescore>
     Score         DG    S(hbond)    S(metal)    S(lipo)     H(rot)  DE(clash)    DE(int)     intcor
     16.22     -18.00       2.95        0.00      64.84       1.92       0.12       1.66       ----

> <Gold.Chemscore.Fitness>
16.2230

> <Gold.Chemscore.DG>
-17.9966

> <Gold.Chemscore.ZeroCoef>
-5.4800

> <Gold.Chemscore.Hbond>
2.9474

> <Gold.Chemscore.Metal>
0.0000

> <Gold.Chemscore.Lipo>
64.8412

> <Gold.Chemscore.Internal_Hbond>
0.0000

> <Gold.Chemscore.DEClash>
0.1184

> <Gold.Chemscore.DEInternal>
1.6552

> <Gold.Chemscore.Rot>
1.9196

> <Gold.Chemscore.Internal.Correction>
   9.000000E+99

> <Gold.Chemscore.Hbonds>
donor molecule, donor type, donor heavy atom, donor atom, acceptor molecule, acceptor atom, score
      L1  H     3    43       P1  8028  1.00
      L1  H    10    36       P1 10175  0.98
      L1  H    13    37       P1 10175  0.98
      P1  H 11000 11005       L1    16  0.12

> <Gold.Chemscore.Hbond.Weighted>
-9.8443

> <Gold.Chemscore.Metal.Weighted>
-0.0000

> <Gold.Chemscore.Lipo.Weighted>
-7.5864

> <Gold.Chemscore.Internal_Hbond.Weighted>
0.0000

> <Gold.Chemscore.DEClash.Weighted>
0.1184

> <Gold.Chemscore.DEInternal.Weighted>
1.6552

> <Gold.Chemscore.Rot.Weighted>
4.9141

> <Gold.Chemscore.Internal.Correction.Weighted>
   9.000000E+99

> <Gold.Protein.RotatedTorsions>
[ 6907 6896 6895 6894 ] final  -81.59 input  -60.11 | X-H torsion
[ 7974 7965 7964 7962 ] final   16.84 input  175.53 | X-H torsion
[ 8008 7997 7996 7995 ] final -159.33 input   59.86 | X-H torsion
[ 10167 10162 10161 10158 ] final   71.06 input  -65.29 | X-H torsion
[ 10718 10713 10712 10709 ] final   34.91 input   66.30 | X-H torsion
[ 10763 10752 10751 10750 ] final   61.08 input  -60.55 | X-H torsion
[ 11005 11000 10999 10996 ] final   76.61 input  -57.11 | X-H torsion

> <Gold.Protein.ActiveResidues>
 VAL166  LYS551  ARG553  GLY616  TRP617  ASP618  TYR619  PRO620  LYS621  CYS622 
 ASP623  PHE694  ASN695  SER759  ASP760  ASP761  ALA762  ILE779  LEU786  VAL792 
 PHE793  MET794  SER795  GLU796  ALA797  LYS798  CYS799  TRP800  GLU811  SER814 

> <Gold.Protein.RotatedAtoms>
  150.6909  134.3794  159.5026 H   0  0  0  0  0  0  0  0  0  0  0  0  # atno 6907 bound_to 6896
  152.1598  134.8918  160.0551 H   0  0  0  0  0  0  0  0  0  0  0  0  # atno 6908 bound_to 6896
  151.9984  133.3782  159.4209 H   0  0  0  0  0  0  0  0  0  0  0  0  # atno 6909 bound_to 6896
  146.2237  139.8689  142.8591 H   0  0  0  0  0  0  0  0  0  0  0  0  # atno 7974 bound_to 7965
  155.7609  140.0839  157.2155 H   0  0  0  0  0  0  0  0  0  0  0  0  # atno 8008 bound_to 7997
  154.4003  140.1543  156.2888 H   0  0  0  0  0  0  0  0  0  0  0  0  # atno 8009 bound_to 7997
  155.8840  140.3419  155.5911 H   0  0  0  0  0  0  0  0  0  0  0  0  # atno 8010 bound_to 7997
  140.0502  144.5318  150.7369 H   0  0  0  0  0  0  0  0  0  0  0  0  # atno 10167 bound_to 10162
  157.3162  130.7424  149.6756 H   0  0  0  0  0  0  0  0  0  0  0  0  # atno 10718 bound_to 10713
  152.9940  135.5513  154.5977 H   0  0  0  0  0  0  0  0  0  0  0  0  # atno 10763 bound_to 10752
  154.5325  135.2814  155.1169 H   0  0  0  0  0  0  0  0  0  0  0  0  # atno 10764 bound_to 10752
  154.2479  135.6404  153.5282 H   0  0  0  0  0  0  0  0  0  0  0  0  # atno 10765 bound_to 10752
  139.9290  134.7615  156.1417 H   0  0  0  0  0  0  0  0  0  0  0  0  # atno 11005 bound_to 11000
  145.2628  141.0083  143.3816 LP  0  0  0  0  0  0  0  0  0  0  0  0  # atno 17320 bound_to 7965
  144.9285  139.4327  143.6507 LP  0  0  0  0  0  0  0  0  0  0  0  0  # atno 17321 bound_to 7965
  140.7220  143.2598  151.4247 LP  0  0  0  0  0  0  0  0  0  0  0  0  # atno 17342 bound_to 10162
  139.5958  144.1401  152.2142 LP  0  0  0  0  0  0  0  0  0  0  0  0  # atno 17343 bound_to 10162
  155.9682  130.4236  150.4572 LP  0  0  0  0  0  0  0  0  0  0  0  0  # atno 17370 bound_to 10713
  157.2580  131.0561  151.2338 LP  0  0  0  0  0  0  0  0  0  0  0  0  # atno 17371 bound_to 10713
  141.0867  133.6731  156.2452 LP  0  0  0  0  0  0  0  0  0  0  0  0  # atno 17394 bound_to 11000
  140.6254  134.5319  157.5553 LP  0  0  0  0  0  0  0  0  0  0  0  0  # atno 17395 bound_to 11000

$$$$
