AV-unprocessed.smi:249|AV-procd|sdf|1929|dock9
  -GOLD-   2262021 43D 1   1.00000     0.00000
 Structure written by MMmdl.
 64 67  0  0  0  0  0  0  0  0  2 V2000
  149.9781  145.2318  159.6908 C   0  0  0  0  0  0  0  0  0  0  0  0
  151.3772  145.6569  160.1665 C   0  0  0  0  0  0  0  0  0  0  0  0
  152.2958  144.5062  160.4073 N   0  3  1  0  0  0  0  0  0  0  0  0
  151.9210  143.7536  161.6400 C   0  0  0  0  0  0  0  0  0  0  0  0
  152.9248  142.6408  161.9695 C   0  0  0  0  0  0  0  0  0  0  0  0
  153.0490  141.6683  160.7899 C   0  0  2  0  0  0  0  0  0  0  0  0
  153.9581  140.5518  161.0738 N   0  0  0  0  0  0  0  0  0  0  0  0
  154.8143  140.5880  162.2588 C   0  0  0  0  0  0  0  0  0  0  0  0
  153.5150  139.3297  160.6818 C   0  0  0  0  0  0  0  0  0  0  0  0
  153.7770  138.2407  161.4525 N   0  0  0  0  0  0  0  0  0  0  0  0
  153.3261  137.0360  161.0921 C   0  0  0  0  0  0  0  0  0  0  0  0
  152.6114  136.7010  160.0169 N   0  0  0  0  0  0  0  0  0  0  0  0
  152.3596  137.7846  159.2278 C   0  0  0  0  0  0  0  0  0  0  0  0
  152.7642  139.1244  159.4897 C   0  0  0  0  0  0  0  0  0  0  0  0
  152.3157  139.9614  158.4754 N   0  0  0  0  0  0  0  0  0  0  0  0
  151.6711  139.1645  157.6682 C   0  0  0  0  0  0  0  0  0  0  0  0
  151.6726  137.8341  158.0251 N   0  0  0  0  0  0  0  0  0  0  0  0
  151.0168  136.7467  157.3113 C   0  0  0  0  0  0  0  0  0  0  0  0
  150.0759  137.1981  156.1569 C   0  0  1  0  0  0  0  0  0  0  0  0
  150.9315  137.5499  154.9165 C   0  0  0  0  0  0  0  0  0  0  0  0
  150.1142  137.9175  153.8239 O   0  0  0  0  0  0  0  0  0  0  0  0
  148.9835  136.1532  155.7708 C   0  0  1  0  0  0  0  0  0  0  0  0
  149.4741  134.8019  155.2706 C   0  0  0  0  0  0  0  0  0  0  0  0
  149.8303  134.0654  156.5571 C   0  0  0  0  0  0  0  0  0  0  0  0
  148.9376  134.5805  157.5390 O   0  0  0  0  0  0  0  0  0  0  0  0
  148.1869  135.6596  156.9891 C   0  0  0  0  0  0  0  0  0  0  0  0
  153.4532  142.4586  159.5379 C   0  0  0  0  0  0  0  0  0  0  0  0
  152.4501  143.5917  159.2271 C   0  0  2  0  0  0  0  0  0  0  0  0
  152.9146  144.3189  157.9474 C   0  0  0  0  0  0  0  0  0  0  0  0
  149.3048  146.0892  159.6800 H   0  0  0  0  0  0  0  0  0  0  0  0
  149.5450  144.4839  160.3556 H   0  0  0  0  0  0  0  0  0  0  0  0
  149.9855  144.8273  158.6794 H   0  0  0  0  0  0  0  0  0  0  0  0
  151.8279  146.3511  159.4556 H   0  0  0  0  0  0  0  0  0  0  0  0
  151.2165  146.2164  161.0849 H   0  0  0  0  0  0  0  0  0  0  0  0
  151.8753  144.4198  162.4996 H   0  0  0  0  0  0  0  0  0  0  0  0
  150.9225  143.3303  161.5174 H   0  0  0  0  0  0  0  0  0  0  0  0
  153.8931  143.0838  162.2053 H   0  0  0  0  0  0  0  0  0  0  0  0
  152.5990  142.1079  162.8638 H   0  0  0  0  0  0  0  0  0  0  0  0
  152.0532  141.2685  160.6005 H   0  0  0  0  0  0  0  0  0  0  0  0
  155.5451  139.7786  162.2312 H   0  0  0  0  0  0  0  0  0  0  0  0
  154.2256  140.4840  163.1708 H   0  0  0  0  0  0  0  0  0  0  0  0
  155.3721  141.5216  162.3164 H   0  0  0  0  0  0  0  0  0  0  0  0
  153.5722  136.2245  161.7609 H   0  0  0  0  0  0  0  0  0  0  0  0
  151.1852  139.5268  156.7739 H   0  0  0  0  0  0  0  0  0  0  0  0
  151.8191  136.1151  156.9293 H   0  0  0  0  0  0  0  0  0  0  0  0
  150.4690  136.1278  158.0232 H   0  0  0  0  0  0  0  0  0  0  0  0
  149.5615  138.1114  156.4539 H   0  0  0  0  0  0  0  0  0  0  0  0
  151.6205  138.3645  155.1423 H   0  0  0  0  0  0  0  0  0  0  0  0
  151.5408  136.7092  154.5897 H   0  0  0  0  0  0  0  0  0  0  0  0
  150.4711  137.5332  153.0378 H   0  0  0  0  0  0  0  0  0  0  0  0
  148.3194  136.5999  155.0298 H   0  0  0  0  0  0  0  0  0  0  0  0
  148.6478  134.2828  154.7826 H   0  0  0  0  0  0  0  0  0  0  0  0
  150.2798  134.8359  154.5447 H   0  0  0  0  0  0  0  0  0  0  0  0
  149.7334  132.9843  156.4563 H   0  0  0  0  0  0  0  0  0  0  0  0
  150.8540  134.2889  156.8596 H   0  0  0  0  0  0  0  0  0  0  0  0
  147.9950  136.4197  157.7448 H   0  0  0  0  0  0  0  0  0  0  0  0
  147.2189  135.2711  156.6686 H   0  0  0  0  0  0  0  0  0  0  0  0
  154.4467  142.8902  159.6631 H   0  0  0  0  0  0  0  0  0  0  0  0
  153.5159  141.7760  158.6891 H   0  0  0  0  0  0  0  0  0  0  0  0
  151.4779  143.1395  159.0237 H   0  0  0  0  0  0  0  0  0  0  0  0
  153.1760  143.6034  157.1669 H   0  0  0  0  0  0  0  0  0  0  0  0
  153.7952  144.9341  158.1347 H   0  0  0  0  0  0  0  0  0  0  0  0
  152.1369  144.9522  157.5222 H   0  0  0  0  0  0  0  0  0  0  0  0
  153.2098  144.9020  160.5760 H   0  0  0  0  0  0  0  0  0  0  0  0
  1  2  1  0  0  0  0
  1 30  1  0  0  0  0
  1 31  1  0  0  0  0
  1 32  1  0  0  0  0
  2  3  1  0  0  0  0
  2 33  1  0  0  0  0
  2 34  1  0  0  0  0
  3 28  1  0  0  0  0
  3  4  1  0  0  0  0
  3 64  1  0  0  0  0
  4  5  1  0  0  0  0
  4 35  1  0  0  0  0
  4 36  1  0  0  0  0
  5  6  1  0  0  0  0
  5 37  1  0  0  0  0
  5 38  1  0  0  0  0
  6  7  1  0  0  0  0
  6 27  1  0  0  0  0
  6 39  1  0  0  0  0
  7  8  1  0  0  0  0
  7  9  1  0  0  0  0
  8 40  1  0  0  0  0
  8 41  1  0  0  0  0
  8 42  1  0  0  0  0
  9 14  1  0  0  0  0
  9 10  2  0  0  0  0
 10 11  1  0  0  0  0
 11 12  2  0  0  0  0
 11 43  1  0  0  0  0
 12 13  1  0  0  0  0
 13 17  1  0  0  0  0
 13 14  2  0  0  0  0
 14 15  1  0  0  0  0
 15 16  2  0  0  0  0
 16 17  1  0  0  0  0
 16 44  1  0  0  0  0
 17 18  1  0  0  0  0
 18 19  1  0  0  0  0
 18 45  1  0  0  0  0
 18 46  1  0  0  0  0
 19 20  1  0  0  0  0
 19 22  1  0  0  0  0
 19 47  1  0  0  0  0
 20 21  1  0  0  0  0
 20 48  1  0  0  0  0
 20 49  1  0  0  0  0
 21 50  1  0  0  0  0
 22 26  1  0  0  0  0
 22 23  1  0  0  0  0
 22 51  1  0  0  0  0
 23 24  1  0  0  0  0
 23 52  1  0  0  0  0
 23 53  1  0  0  0  0
 24 25  1  0  0  0  0
 24 54  1  0  0  0  0
 24 55  1  0  0  0  0
 25 26  1  0  0  0  0
 26 56  1  0  0  0  0
 26 57  1  0  0  0  0
 27 28  1  0  0  0  0
 27 58  1  0  0  0  0
 27 59  1  0  0  0  0
 28 29  1  0  0  0  0
 28 60  1  0  0  0  0
 29 61  1  0  0  0  0
 29 62  1  0  0  0  0
 29 63  1  0  0  0  0
M  CHG  1   3   1
M  END
> <s_m_source_file>
AV-unprocessed.smi

> <i_m_source_file_index>
249

> <i_lp_mmshare_version>
43012

> <i_f3d_flags>
0

> <s_epik_input>
W0NIM11bQ0gyXU4xW0NIMl1bQ0gyXVtDQEhdKFtDSDJdW0NASF0xW0NIM10pTihbQ0gzXSljKG5bY0hdbjIpYyhjMjMpbltjSF1uM1tDSDJdW0NASF0oW0NIMl1bT0hdKVtDQEBIXTRbQ0gyXVtDSDJdT1tDSDJdNA==

> <s_epik_cmdline>
J2VwaWtfcHl0aG9uJywgJy1waCcsICc3LjAnLCAnLXRuJywgJzgnLCAnLW1hJywgJzIwMCcsICctbWV0YWxfYmluZGluZycsICctaW1hZScsICc8aW5maWxlLm1hZT4nLCAnLW9tYWUnLCAnPG91dGZpbGUubWFlPic=

> <r_lp_tautomer_probability>
1

> <r_epik_Ionization_Penalty>
0.00294688

> <r_epik_Ionization_Penalty_Charging>
0.00169971

> <r_epik_Ionization_Penalty_Neutral>
0.00124717

> <r_epik_State_Penalty>
-0

> <r_epik_Charging_Adjusted_Penalty>
0.00169971

> <i_epik_Tot_Q>
1

> <i_epik_Tot_abs_Q>
1

> <r_epik_Metal_State_Penalty>
-0

> <b_epik_Metal_Only>
0

> <s_lp_Force_Field>
OPLS_2005

> <r_lp_Energy>
57.6505

> <b_lp_Chiralities_Consistent>
1

> <s_lp_Variant>
AV-unprocessed.smi:249-32

> <Gold.Version>
5.8.1

> <Gold.Id.Protein>
6NUR|6NUR_protein|mol2

> <Gold.PLP.Fitness>
62.2571

> <Gold.PLP.PLP>
-54.4197

> <Gold.PLP.part.hbond>
-4.0000

> <Gold.PLP.part.metal>
0.0000

> <Gold.PLP.part.buried>
-4.6921

> <Gold.PLP.part.nonpolar>
-46.4764

> <Gold.PLP.part.repulsive>
0.0479

> <Gold.PLP.ligand.clash>
0.0000

> <Gold.PLP.ligand.torsion>
1.0146

> <Gold.PLP.Chemscore.Hbond>
2.9250

> <Gold.PLP.Chemscore.CHOScore>
0.0000

> <Gold.PLP.Chemscore.Metal>
0.0000

> <Gold.Chemscore.Hbonds>
donor molecule, donor type, donor heavy atom, donor atom, acceptor molecule, acceptor atom, score
      L1  H    21    50       P1  7949  0.14
      P1  H  6896  6908       L1    12  1.00

> <Gold.PLP.Chemscore.Internal.Correction>
1.0915

> <Gold.Rescore>
     Score         DG    S(hbond)    S(metal)    S(lipo)     H(rot)  DE(clash)    DE(int)     intcor
     16.88     -21.80       2.18        0.00     135.25       2.65       0.87       4.05       ----

> <Gold.Chemscore.Fitness>
16.8825

> <Gold.Chemscore.DG>
-21.8006

> <Gold.Chemscore.ZeroCoef>
-5.4800

> <Gold.Chemscore.Hbond>
2.1808

> <Gold.Chemscore.Metal>
0.0000

> <Gold.Chemscore.Lipo>
135.2538

> <Gold.Chemscore.Internal_Hbond>
0.0000

> <Gold.Chemscore.DEClash>
0.8702

> <Gold.Chemscore.DEInternal>
4.0479

> <Gold.Chemscore.Rot>
2.6515

> <Gold.Chemscore.Internal.Correction>
   9.000000E+99

> <Gold.Chemscore.Hbonds>
donor molecule, donor type, donor heavy atom, donor atom, acceptor molecule, acceptor atom, score
      P1  H  6896  6908       L1    12  0.91

> <Gold.Chemscore.Hbond.Weighted>
-7.2839

> <Gold.Chemscore.Metal.Weighted>
-0.0000

> <Gold.Chemscore.Lipo.Weighted>
-15.8247

> <Gold.Chemscore.Internal_Hbond.Weighted>
0.0000

> <Gold.Chemscore.DEClash.Weighted>
0.8702

> <Gold.Chemscore.DEInternal.Weighted>
4.0479

> <Gold.Chemscore.Rot.Weighted>
6.7880

> <Gold.Chemscore.Internal.Correction.Weighted>
   9.000000E+99

> <Gold.Protein.RotatedTorsions>
[ 6907 6896 6895 6894 ] final  -98.34 input  -60.11 | X-H torsion
[ 7974 7965 7964 7962 ] final  -68.98 input  175.53 | X-H torsion
[ 8008 7997 7996 7995 ] final   78.72 input   59.86 | X-H torsion
[ 10167 10162 10161 10158 ] final   32.28 input  -65.29 | X-H torsion
[ 10718 10713 10712 10709 ] final  119.88 input   66.30 | X-H torsion
[ 10763 10752 10751 10750 ] final  163.09 input  -60.55 | X-H torsion
[ 11005 11000 10999 10996 ] final   49.75 input  -57.11 | X-H torsion

> <Gold.Protein.ActiveResidues>
 VAL166  LYS551  ARG553  GLY616  TRP617  ASP618  TYR619  PRO620  LYS621  CYS622 
 ASP623  PHE694  ASN695  SER759  ASP760  ASP761  ALA762  ILE779  LEU786  VAL792 
 PHE793  MET794  SER795  GLU796  ALA797  LYS798  CYS799  TRP800  GLU811  SER814 

> <Gold.Protein.RotatedAtoms>
  150.7044  134.1209  159.4034 H   0  0  0  0  0  0  0  0  0  0  0  0  # atno 6907 bound_to 6896
  151.9195  135.0302  160.0530 H   0  0  0  0  0  0  0  0  0  0  0  0  # atno 6908 bound_to 6896
  152.2268  133.4991  159.5230 H   0  0  0  0  0  0  0  0  0  0  0  0  # atno 6909 bound_to 6896
  145.7095  140.9084  143.0688 H   0  0  0  0  0  0  0  0  0  0  0  0  # atno 7974 bound_to 7965
  155.8596  140.3454  155.5747 H   0  0  0  0  0  0  0  0  0  0  0  0  # atno 8008 bound_to 7997
  155.7948  140.0876  157.2009 H   0  0  0  0  0  0  0  0  0  0  0  0  # atno 8009 bound_to 7997
  154.4011  140.1476  156.3192 H   0  0  0  0  0  0  0  0  0  0  0  0  # atno 8010 bound_to 7997
  140.4513  144.1044  150.6192 H   0  0  0  0  0  0  0  0  0  0  0  0  # atno 10167 bound_to 10162
  157.5930  131.1061  150.7958 H   0  0  0  0  0  0  0  0  0  0  0  0  # atno 10718 bound_to 10713
  154.2883  135.2761  155.2666 H   0  0  0  0  0  0  0  0  0  0  0  0  # atno 10763 bound_to 10752
  154.5156  135.5770  153.6643 H   0  0  0  0  0  0  0  0  0  0  0  0  # atno 10764 bound_to 10752
  152.9918  135.6192  154.3046 H   0  0  0  0  0  0  0  0  0  0  0  0  # atno 10765 bound_to 10752
  140.1076  134.4998  155.8706 H   0  0  0  0  0  0  0  0  0  0  0  0  # atno 11005 bound_to 11000
  144.6946  139.9056  143.7461 LP  0  0  0  0  0  0  0  0  0  0  0  0  # atno 17320 bound_to 7965
  146.0725  139.3713  143.0514 LP  0  0  0  0  0  0  0  0  0  0  0  0  # atno 17321 bound_to 7965
  140.4204  143.2614  151.9722 LP  0  0  0  0  0  0  0  0  0  0  0  0  # atno 17342 bound_to 10162
  139.4797  144.5836  151.7891 LP  0  0  0  0  0  0  0  0  0  0  0  0  # atno 17343 bound_to 10162
  156.8375  130.5037  149.5324 LP  0  0  0  0  0  0  0  0  0  0  0  0  # atno 17370 bound_to 10713
  156.0988  130.5953  150.9859 LP  0  0  0  0  0  0  0  0  0  0  0  0  # atno 17371 bound_to 10713
  141.2122  133.6716  156.6641 LP  0  0  0  0  0  0  0  0  0  0  0  0  # atno 17394 bound_to 11000
  140.3135  134.8067  157.4195 LP  0  0  0  0  0  0  0  0  0  0  0  0  # atno 17395 bound_to 11000

$$$$
