AV-unprocessed.smi:2826|AV-procd|sdf|10893|dock10
  -GOLD-   2272015343D 1   1.00000     0.00000
 Structure written by MMmdl.
 50 51  0  0  0  0  0  0  0  0  1 V2000
  146.1447  138.1696  152.0884 C   0  0  0  0  0  0  0  0  0  0  0  0
  147.4354  138.0399  152.6741 O   0  0  0  0  0  0  0  0  0  0  0  0
  147.8994  139.0663  153.4710 C   0  0  0  0  0  0  0  0  0  0  0  0
  149.0754  138.8617  154.2174 C   0  0  0  0  0  0  0  0  0  0  0  0
  149.5530  139.9043  155.0328 C   0  0  0  0  0  0  0  0  0  0  0  0
  148.8336  141.1225  155.0866 C   0  0  0  0  0  0  0  0  0  0  0  0
  149.2517  142.2382  155.8647 N   0  0  0  0  0  0  0  0  0  0  0  0
  150.3317  142.3403  156.6580 C   0  0  0  0  0  0  0  0  0  0  0  0
  151.1526  141.4454  156.8594 O   0  0  0  0  0  0  0  0  0  0  0  0
  150.3980  143.5486  157.2352 N   0  0  0  0  0  0  0  0  0  0  0  0
  151.4364  143.9761  158.1685 C   0  0  1  0  0  0  0  0  0  0  0  0
  150.9527  145.1913  158.9724 C   0  0  0  0  0  0  0  0  0  0  0  0
  151.9766  145.5626  160.0563 C   0  0  0  0  0  0  0  0  0  0  0  0
  152.2206  144.4407  160.8977 O   0  0  0  0  0  0  0  0  0  0  0  0
  152.7967  143.3327  160.2095 C   0  0  1  0  0  0  0  0  0  0  0  0
  153.1198  142.2305  161.2356 C   0  0  0  0  0  0  0  0  0  0  0  0
  153.9343  141.0431  160.6774 C   0  0  0  0  0  0  0  0  0  0  0  0
  153.0969  140.1264  159.7694 C   0  0  0  0  0  0  0  0  0  0  0  0
  154.5586  140.2314  161.8226 C   0  0  0  0  0  0  0  0  0  0  0  0
  151.8056  142.8398  159.1375 C   0  0  0  0  0  0  0  0  0  0  0  0
  147.6708  141.2349  154.2865 C   0  0  0  0  0  0  0  0  0  0  0  0
  146.8453  142.5094  154.2631 C   0  0  0  0  0  0  0  0  0  0  0  0
  147.2120  140.2340  153.5030 N   0  0  0  0  0  0  0  0  0  0  0  0
  145.9258  137.2804  151.4975 H   0  0  0  0  0  0  0  0  0  0  0  0
  146.0942  139.0308  151.4209 H   0  0  0  0  0  0  0  0  0  0  0  0
  145.3683  138.2599  152.8491 H   0  0  0  0  0  0  0  0  0  0  0  0
  149.6061  137.9227  154.1617 H   0  0  0  0  0  0  0  0  0  0  0  0
  150.4670  139.7556  155.5868 H   0  0  0  0  0  0  0  0  0  0  0  0
  148.6166  143.0227  155.8741 H   0  0  0  0  0  0  0  0  0  0  0  0
  149.6776  144.2213  157.0174 H   0  0  0  0  0  0  0  0  0  0  0  0
  152.3262  144.2699  157.6077 H   0  0  0  0  0  0  0  0  0  0  0  0
  150.7836  146.0419  158.3110 H   0  0  0  0  0  0  0  0  0  0  0  0
  149.9959  144.9672  159.4466 H   0  0  0  0  0  0  0  0  0  0  0  0
  152.9109  145.9060  159.6091 H   0  0  0  0  0  0  0  0  0  0  0  0
  151.5963  146.3827  160.6654 H   0  0  0  0  0  0  0  0  0  0  0  0
  153.7151  143.6515  159.7156 H   0  0  0  0  0  0  0  0  0  0  0  0
  153.6695  142.6830  162.0621 H   0  0  0  0  0  0  0  0  0  0  0  0
  152.1912  141.8538  161.6666 H   0  0  0  0  0  0  0  0  0  0  0  0
  154.7574  141.4411  160.0827 H   0  0  0  0  0  0  0  0  0  0  0  0
  152.2259  139.7355  160.2959 H   0  0  0  0  0  0  0  0  0  0  0  0
  153.6846  139.2750  159.4247 H   0  0  0  0  0  0  0  0  0  0  0  0
  152.7444  140.6491  158.8808 H   0  0  0  0  0  0  0  0  0  0  0  0
  153.7913  139.7976  162.4649 H   0  0  0  0  0  0  0  0  0  0  0  0
  155.1998  140.8562  162.4451 H   0  0  0  0  0  0  0  0  0  0  0  0
  155.1719  139.4156  161.4386 H   0  0  0  0  0  0  0  0  0  0  0  0
  150.9041  142.4616  159.6223 H   0  0  0  0  0  0  0  0  0  0  0  0
  152.2381  142.0026  158.5883 H   0  0  0  0  0  0  0  0  0  0  0  0
  146.5116  142.7647  155.2693 H   0  0  0  0  0  0  0  0  0  0  0  0
  145.9610  142.4034  153.6328 H   0  0  0  0  0  0  0  0  0  0  0  0
  147.4387  143.3375  153.8750 H   0  0  0  0  0  0  0  0  0  0  0  0
  1  2  1  0  0  0  0
  1 24  1  0  0  0  0
  1 25  1  0  0  0  0
  1 26  1  0  0  0  0
  2  3  1  0  0  0  0
  3 23  1  0  0  0  0
  3  4  2  0  0  0  0
  4  5  1  0  0  0  0
  4 27  1  0  0  0  0
  5  6  2  0  0  0  0
  5 28  1  0  0  0  0
  6  7  1  0  0  0  0
  6 21  1  0  0  0  0
  7  8  1  0  0  0  0
  7 29  1  0  0  0  0
  8  9  2  0  0  0  0
  8 10  1  0  0  0  0
 10 11  1  0  0  0  0
 10 30  1  0  0  0  0
 11 20  1  0  0  0  0
 11 12  1  0  0  0  0
 11 31  1  0  0  0  0
 12 13  1  0  0  0  0
 12 32  1  0  0  0  0
 12 33  1  0  0  0  0
 13 14  1  0  0  0  0
 13 34  1  0  0  0  0
 13 35  1  0  0  0  0
 14 15  1  0  0  0  0
 15 16  1  0  0  0  0
 15 20  1  0  0  0  0
 15 36  1  0  0  0  0
 16 17  1  0  0  0  0
 16 37  1  0  0  0  0
 16 38  1  0  0  0  0
 17 18  1  0  0  0  0
 17 19  1  0  0  0  0
 17 39  1  0  0  0  0
 18 40  1  0  0  0  0
 18 41  1  0  0  0  0
 18 42  1  0  0  0  0
 19 43  1  0  0  0  0
 19 44  1  0  0  0  0
 19 45  1  0  0  0  0
 20 46  1  0  0  0  0
 20 47  1  0  0  0  0
 21 22  1  0  0  0  0
 21 23  2  0  0  0  0
 22 48  1  0  0  0  0
 22 49  1  0  0  0  0
 22 50  1  0  0  0  0
M  END
> <s_m_source_file>
AV-unprocessed.smi

> <i_m_source_file_index>
2826

> <i_lp_mmshare_version>
43012

> <i_f3d_flags>
0

> <s_epik_input>
W0NIM11PYzFbY0hdW2NIXWMoYyhuMSlbQ0gzXSlbTkhdQyg9TylbTkhdW0NAQEhdMltDSDJdW0NIMl1PW0NASF0oW0NIMl0yKVtDSDJdW0NIXShbQ0gzXSlbQ0gzXQ==

> <s_epik_cmdline>
J2VwaWtfcHl0aG9uJywgJy1waCcsICc3LjAnLCAnLXRuJywgJzgnLCAnLW1hJywgJzIwMCcsICctbWV0YWxfYmluZGluZycsICctaW1hZScsICc8aW5maWxlLm1hZT4nLCAnLW9tYWUnLCAnPG91dGZpbGUubWFlPic=

> <r_lp_tautomer_probability>
1

> <r_epik_Ionization_Penalty>
0.000249977

> <r_epik_Ionization_Penalty_Charging>
0

> <r_epik_Ionization_Penalty_Neutral>
0.000249977

> <r_epik_State_Penalty>
-0

> <r_epik_Charging_Adjusted_Penalty>
0

> <i_epik_Tot_Q>
0

> <i_epik_Tot_abs_Q>
0

> <r_epik_Metal_State_Penalty>
-0

> <b_epik_Metal_Only>
0

> <s_lp_Force_Field>
OPLS_2005

> <r_lp_Energy>
13.3691

> <b_lp_Chiralities_Consistent>
1

> <s_lp_Variant>
AV-unprocessed.smi:2826-2

> <Gold.Version>
5.8.1

> <Gold.Id.Protein>
6NUR|6NUR_protein|mol2

> <Gold.PLP.Fitness>
49.1747

> <Gold.PLP.PLP>
-46.0428

> <Gold.PLP.part.hbond>
-1.6380

> <Gold.PLP.part.metal>
0.0000

> <Gold.PLP.part.buried>
-3.2432

> <Gold.PLP.part.nonpolar>
-47.0234

> <Gold.PLP.part.repulsive>
4.9883

> <Gold.PLP.ligand.clash>
0.0127

> <Gold.PLP.ligand.torsion>
0.5149

> <Gold.PLP.Chemscore.Hbond>
1.3760

> <Gold.PLP.Chemscore.CHOScore>
0.0000

> <Gold.PLP.Chemscore.Metal>
0.0000

> <Gold.Chemscore.Hbonds>
donor molecule, donor type, donor heavy atom, donor atom, acceptor molecule, acceptor atom, score
      L1  H     7    29       P1  8028  0.66
      L1  H    10    30       P1  8028  0.75

> <Gold.PLP.Chemscore.Internal.Correction>
0.0463

> <Gold.Rescore>
     Score         DG    S(hbond)    S(metal)    S(lipo)     H(rot)  DE(clash)    DE(int)     intcor
     18.08     -23.43       1.92        0.00     131.52       1.51       1.77       3.58       ----

> <Gold.Chemscore.Fitness>
18.0850

> <Gold.Chemscore.DG>
-23.4323

> <Gold.Chemscore.ZeroCoef>
-5.4800

> <Gold.Chemscore.Hbond>
1.9220

> <Gold.Chemscore.Metal>
0.0000

> <Gold.Chemscore.Lipo>
131.5174

> <Gold.Chemscore.Internal_Hbond>
0.0000

> <Gold.Chemscore.DEClash>
1.7658

> <Gold.Chemscore.DEInternal>
3.5816

> <Gold.Chemscore.Rot>
1.5057

> <Gold.Chemscore.Internal.Correction>
   9.000000E+99

> <Gold.Chemscore.Hbonds>
donor molecule, donor type, donor heavy atom, donor atom, acceptor molecule, acceptor atom, score
      L1  H     7    29       P1  8028  0.66
      L1  H    10    30       P1  8028  0.45

> <Gold.Chemscore.Hbond.Weighted>
-6.4194

> <Gold.Chemscore.Metal.Weighted>
-0.0000

> <Gold.Chemscore.Lipo.Weighted>
-15.3875

> <Gold.Chemscore.Internal_Hbond.Weighted>
0.0000

> <Gold.Chemscore.DEClash.Weighted>
1.7658

> <Gold.Chemscore.DEInternal.Weighted>
3.5816

> <Gold.Chemscore.Rot.Weighted>
3.8547

> <Gold.Chemscore.Internal.Correction.Weighted>
   9.000000E+99

> <Gold.Protein.RotatedTorsions>
[ 6907 6896 6895 6894 ] final   53.44 input  -60.11 | X-H torsion
[ 7974 7965 7964 7962 ] final  -72.23 input  175.53 | X-H torsion
[ 8008 7997 7996 7995 ] final -116.94 input   59.86 | X-H torsion
[ 10167 10162 10161 10158 ] final  -32.54 input  -65.29 | X-H torsion
[ 10718 10713 10712 10709 ] final   40.35 input   66.30 | X-H torsion
[ 10763 10752 10751 10750 ] final   -9.80 input  -60.55 | X-H torsion
[ 11005 11000 10999 10996 ] final  143.93 input  -57.11 | X-H torsion

> <Gold.Protein.ActiveResidues>
 VAL166  LYS551  ARG553  GLY616  TRP617  ASP618  TYR619  PRO620  LYS621  CYS622 
 ASP623  PHE694  ASN695  SER759  ASP760  ASP761  ALA762  ILE779  LEU786  VAL792 
 PHE793  MET794  SER795  GLU796  ALA797  LYS798  CYS799  TRP800  GLU811  SER814 

> <Gold.Protein.RotatedAtoms>
  152.3337  134.7226  160.0282 H   0  0  0  0  0  0  0  0  0  0  0  0  # atno 6907 bound_to 6896
  151.7634  133.3330  159.3432 H   0  0  0  0  0  0  0  0  0  0  0  0  # atno 6908 bound_to 6896
  150.7438  134.6017  159.6084 H   0  0  0  0  0  0  0  0  0  0  0  0  # atno 6909 bound_to 6896
  145.6679  140.9231  143.0899 H   0  0  0  0  0  0  0  0  0  0  0  0  # atno 7974 bound_to 7965
  155.0759  140.0394  157.2623 H   0  0  0  0  0  0  0  0  0  0  0  0  # atno 8008 bound_to 7997
  154.6945  140.2660  155.6755 H   0  0  0  0  0  0  0  0  0  0  0  0  # atno 8009 bound_to 7997
  156.2740  140.2753  156.1535 H   0  0  0  0  0  0  0  0  0  0  0  0  # atno 8010 bound_to 7997
  140.7219  143.3687  151.1821 H   0  0  0  0  0  0  0  0  0  0  0  0  # atno 10167 bound_to 10162
  157.3812  130.7754  149.7194 H   0  0  0  0  0  0  0  0  0  0  0  0  # atno 10718 bound_to 10713
  153.4600  135.7016  153.6056 H   0  0  0  0  0  0  0  0  0  0  0  0  # atno 10763 bound_to 10752
  153.4354  135.3792  155.2196 H   0  0  0  0  0  0  0  0  0  0  0  0  # atno 10764 bound_to 10752
  154.8727  135.3961  154.4024 H   0  0  0  0  0  0  0  0  0  0  0  0  # atno 10765 bound_to 10752
  140.0592  134.9214  157.1154 H   0  0  0  0  0  0  0  0  0  0  0  0  # atno 11005 bound_to 11000
  144.7067  139.8534  143.7428 LP  0  0  0  0  0  0  0  0  0  0  0  0  # atno 17320 bound_to 7965
  146.1070  139.4071  143.0311 LP  0  0  0  0  0  0  0  0  0  0  0  0  # atno 17321 bound_to 7965
  139.7254  143.9157  152.3000 LP  0  0  0  0  0  0  0  0  0  0  0  0  # atno 17342 bound_to 10162
  139.8928  144.6956  150.8751 LP  0  0  0  0  0  0  0  0  0  0  0  0  # atno 17343 bound_to 10162
  155.9776  130.4061  150.3701 LP  0  0  0  0  0  0  0  0  0  0  0  0  # atno 17370 bound_to 10713
  157.1805  131.0391  151.2751 LP  0  0  0  0  0  0  0  0  0  0  0  0  # atno 17371 bound_to 10713
  140.3796  134.2301  155.7172 LP  0  0  0  0  0  0  0  0  0  0  0  0  # atno 17394 bound_to 11000
  141.1966  133.8079  157.0666 LP  0  0  0  0  0  0  0  0  0  0  0  0  # atno 17395 bound_to 11000

$$$$
