AV-unprocessed.smi:3282|AV-procd|sdf|12561|dock2
  -GOLD-   2272018483D 1   1.00000     0.00000
 Structure written by MMmdl.
 34 35  0  0  0  0  0  0  0  0  1 V2000
  154.6905  139.7250  160.3209 C   0  0  0  0  0  0  0  0  0  0  0  0
  153.2681  140.3058  160.2692 C   0  0  0  0  0  0  0  0  0  0  0  0
  153.2054  141.8173  160.5461 C   0  0  0  0  0  0  0  0  0  0  0  0
  153.6463  142.2661  161.6054 O   0  0  0  0  0  0  0  0  0  0  0  0
  152.6593  142.6154  159.6050 N   0  0  0  0  0  0  0  0  0  0  0  0
  152.5033  144.0652  159.7025 C   0  0  0  0  0  0  0  0  0  0  0  0
  151.6578  144.4792  158.4980 C   0  0  0  0  0  0  0  0  0  0  0  0
  151.8671  143.3630  157.4750 C   0  0  2  0  0  0  0  0  0  0  0  0
  150.7049  143.1639  156.6153 N   0  0  0  0  0  0  0  0  0  0  0  0
  150.4309  142.0328  155.9496 C   0  0  0  0  0  0  0  0  0  0  0  0
  151.1476  141.0320  155.9875 O   0  0  0  0  0  0  0  0  0  0  0  0
  149.2897  142.1420  155.2491 N   0  0  0  0  0  0  0  0  0  0  0  0
  148.6726  141.1508  154.4450 C   0  0  0  0  0  0  0  0  0  0  0  0
  149.1190  139.9128  154.2269 N   0  0  0  0  0  0  0  0  0  0  0  0
  148.1718  139.3419  153.3892 C   0  0  0  0  0  0  0  0  0  0  0  0
  147.1976  140.2759  153.1461 C   0  0  0  0  0  0  0  0  0  0  0  0
  147.5030  141.4325  153.8121 O   0  0  0  0  0  0  0  0  0  0  0  0
  152.1482  142.1219  158.3286 C   0  0  0  0  0  0  0  0  0  0  0  0
  154.6752  138.6527  160.1252 H   0  0  0  0  0  0  0  0  0  0  0  0
  155.1464  139.8738  161.3006 H   0  0  0  0  0  0  0  0  0  0  0  0
  155.3371  140.1855  159.5734 H   0  0  0  0  0  0  0  0  0  0  0  0
  152.8380  140.1112  159.2864 H   0  0  0  0  0  0  0  0  0  0  0  0
  152.6473  139.7842  160.9983 H   0  0  0  0  0  0  0  0  0  0  0  0
  152.0275  144.3686  160.6360 H   0  0  0  0  0  0  0  0  0  0  0  0
  153.4872  144.5338  159.6526 H   0  0  0  0  0  0  0  0  0  0  0  0
  150.6094  144.5229  158.7972 H   0  0  0  0  0  0  0  0  0  0  0  0
  151.9312  145.4610  158.1102 H   0  0  0  0  0  0  0  0  0  0  0  0
  152.7524  143.5838  156.8755 H   0  0  0  0  0  0  0  0  0  0  0  0
  150.0633  143.9386  156.5289 H   0  0  0  0  0  0  0  0  0  0  0  0
  148.8049  143.0255  155.3024 H   0  0  0  0  0  0  0  0  0  0  0  0
  148.2630  138.3254  153.0359 H   0  0  0  0  0  0  0  0  0  0  0  0
  146.2871  140.2760  152.5653 H   0  0  0  0  0  0  0  0  0  0  0  0
  152.8583  141.4570  157.8341 H   0  0  0  0  0  0  0  0  0  0  0  0
  151.2349  141.5555  158.5200 H   0  0  0  0  0  0  0  0  0  0  0  0
  1  2  1  0  0  0  0
  1 19  1  0  0  0  0
  1 20  1  0  0  0  0
  1 21  1  0  0  0  0
  2  3  1  0  0  0  0
  2 22  1  0  0  0  0
  2 23  1  0  0  0  0
  3  4  2  0  0  0  0
  3  5  1  0  0  0  0
  5 18  1  0  0  0  0
  5  6  1  0  0  0  0
  6  7  1  0  0  0  0
  6 24  1  0  0  0  0
  6 25  1  0  0  0  0
  7  8  1  0  0  0  0
  7 26  1  0  0  0  0
  7 27  1  0  0  0  0
  8  9  1  0  0  0  0
  8 18  1  0  0  0  0
  8 28  1  0  0  0  0
  9 10  1  0  0  0  0
  9 29  1  0  0  0  0
 10 11  2  0  0  0  0
 10 12  1  0  0  0  0
 12 13  1  0  0  0  0
 12 30  1  0  0  0  0
 13 17  1  0  0  0  0
 13 14  2  0  0  0  0
 14 15  1  0  0  0  0
 15 16  2  0  0  0  0
 15 31  1  0  0  0  0
 16 17  1  0  0  0  0
 16 32  1  0  0  0  0
 18 33  1  0  0  0  0
 18 34  1  0  0  0  0
M  END
> <s_m_source_file>
AV-unprocessed.smi

> <i_m_source_file_index>
3282

> <i_lp_mmshare_version>
43012

> <i_f3d_flags>
0

> <s_epik_input>
W0NIM11bQ0gyXUMoPU8pTjFbQ0gyXVtDSDJdW0NASF0oW0NIMl0xKVtOSF1DKD1PKVtOSF1jMm5bY0hdW2NIXW8y

> <s_epik_cmdline>
J2VwaWtfcHl0aG9uJywgJy1waCcsICc3LjAnLCAnLXRuJywgJzgnLCAnLW1hJywgJzIwMCcsICctbWV0YWxfYmluZGluZycsICctaW1hZScsICc8aW5maWxlLm1hZT4nLCAnLW9tYWUnLCAnPG91dGZpbGUubWFlPic=

> <r_lp_tautomer_probability>
0.785861

> <r_epik_Ionization_Penalty>
4.35681e-05

> <r_epik_Ionization_Penalty_Charging>
0

> <r_epik_Ionization_Penalty_Neutral>
4.35681e-05

> <r_epik_State_Penalty>
0.0212547

> <r_epik_Charging_Adjusted_Penalty>
0.0212547

> <i_epik_Tot_Q>
0

> <i_epik_Tot_abs_Q>
0

> <r_epik_Metal_State_Penalty>
0.00779955

> <b_epik_Metal_Only>
0

> <s_lp_Force_Field>
OPLS_2005

> <r_lp_Energy>
25.4049

> <b_lp_Chiralities_Consistent>
1

> <s_lp_Variant>
AV-unprocessed.smi:3282-2

> <Gold.Version>
5.8.1

> <Gold.Id.Protein>
6NUR|6NUR_protein|mol2

> <Gold.PLP.Fitness>
47.4447

> <Gold.PLP.PLP>
-36.0999

> <Gold.PLP.part.hbond>
-2.3012

> <Gold.PLP.part.metal>
0.0000

> <Gold.PLP.part.buried>
-2.8722

> <Gold.PLP.part.nonpolar>
-30.2268

> <Gold.PLP.part.repulsive>
0.5801

> <Gold.PLP.ligand.clash>
0.0000

> <Gold.PLP.ligand.torsion>
0.2959

> <Gold.PLP.Chemscore.Hbond>
1.9760

> <Gold.PLP.Chemscore.CHOScore>
2.0000

> <Gold.PLP.Chemscore.Metal>
0.0000

> <Gold.Chemscore.Hbonds>
donor molecule, donor type, donor heavy atom, donor atom, acceptor molecule, acceptor atom, score
      L1  H     9    29       P1  8028  1.00
      L1  H    12    30       P1  8028  0.98
      L1  C    15    31       P1  7948  1.00
      L1  C    16    32       P1 10175  0.81

> <Gold.PLP.Chemscore.Internal.Correction>
0.0086

> <Gold.Rescore>
     Score         DG    S(hbond)    S(metal)    S(lipo)     H(rot)  DE(clash)    DE(int)     intcor
     14.27     -17.33       1.90        0.00      75.92       1.32       0.06       3.00       ----

> <Gold.Chemscore.Fitness>
14.2720

> <Gold.Chemscore.DG>
-17.3346

> <Gold.Chemscore.ZeroCoef>
-5.4800

> <Gold.Chemscore.Hbond>
1.9015

> <Gold.Chemscore.Metal>
0.0000

> <Gold.Chemscore.Lipo>
75.9185

> <Gold.Chemscore.Internal_Hbond>
0.0000

> <Gold.Chemscore.DEClash>
0.0645

> <Gold.Chemscore.DEInternal>
2.9981

> <Gold.Chemscore.Rot>
1.3199

> <Gold.Chemscore.Internal.Correction>
   9.000000E+99

> <Gold.Chemscore.Hbonds>
donor molecule, donor type, donor heavy atom, donor atom, acceptor molecule, acceptor atom, score
      L1  H     9    29       P1  8028  0.94
      L1  H    12    30       P1  8028  0.93

> <Gold.Chemscore.Hbond.Weighted>
-6.3511

> <Gold.Chemscore.Metal.Weighted>
-0.0000

> <Gold.Chemscore.Lipo.Weighted>
-8.8825

> <Gold.Chemscore.Internal_Hbond.Weighted>
0.0000

> <Gold.Chemscore.DEClash.Weighted>
0.0645

> <Gold.Chemscore.DEInternal.Weighted>
2.9981

> <Gold.Chemscore.Rot.Weighted>
3.3789

> <Gold.Chemscore.Internal.Correction.Weighted>
   9.000000E+99

> <Gold.Protein.RotatedTorsions>
[ 6907 6896 6895 6894 ] final  110.66 input  -60.11 | X-H torsion
[ 7974 7965 7964 7962 ] final  -69.67 input  175.53 | X-H torsion
[ 8008 7997 7996 7995 ] final   59.11 input   59.86 | X-H torsion
[ 10167 10162 10161 10158 ] final  -47.61 input  -65.29 | X-H torsion
[ 10718 10713 10712 10709 ] final    7.52 input   66.30 | X-H torsion
[ 10763 10752 10751 10750 ] final  128.56 input  -60.55 | X-H torsion
[ 11005 11000 10999 10996 ] final  -21.14 input  -57.11 | X-H torsion

> <Gold.Protein.ActiveResidues>
 VAL166  LYS551  ARG553  GLY616  TRP617  ASP618  TYR619  PRO620  LYS621  CYS622 
 ASP623  PHE694  ASN695  SER759  ASP760  ASP761  ALA762  ILE779  LEU786  VAL792 
 PHE793  MET794  SER795  GLU796  ALA797  LYS798  CYS799  TRP800  GLU811  SER814 

> <Gold.Protein.RotatedAtoms>
  152.5009  133.8769  159.7326 H   0  0  0  0  0  0  0  0  0  0  0  0  # atno 6907 bound_to 6896
  150.9241  133.6836  159.2832 H   0  0  0  0  0  0  0  0  0  0  0  0  # atno 6908 bound_to 6896
  151.4203  135.1001  159.9664 H   0  0  0  0  0  0  0  0  0  0  0  0  # atno 6909 bound_to 6896
  145.7008  140.9117  143.0732 H   0  0  0  0  0  0  0  0  0  0  0  0  # atno 7974 bound_to 7965
  155.5609  140.3488  155.4491 H   0  0  0  0  0  0  0  0  0  0  0  0  # atno 8008 bound_to 7997
  156.0515  140.1319  157.0070 H   0  0  0  0  0  0  0  0  0  0  0  0  # atno 8009 bound_to 7997
  154.4436  140.1004  156.6368 H   0  0  0  0  0  0  0  0  0  0  0  0  # atno 8010 bound_to 7997
  140.6767  143.2777  151.3951 H   0  0  0  0  0  0  0  0  0  0  0  0  # atno 10167 bound_to 10162
  156.9381  130.5851  149.5651 H   0  0  0  0  0  0  0  0  0  0  0  0  # atno 10718 bound_to 10713
  153.7276  135.3243  155.3279 H   0  0  0  0  0  0  0  0  0  0  0  0  # atno 10763 bound_to 10752
  154.8336  135.4514  154.1155 H   0  0  0  0  0  0  0  0  0  0  0  0  # atno 10764 bound_to 10752
  153.2293  135.6958  153.7989 H   0  0  0  0  0  0  0  0  0  0  0  0  # atno 10765 bound_to 10752
  140.8532  133.7841  155.9990 H   0  0  0  0  0  0  0  0  0  0  0  0  # atno 11005 bound_to 11000
  144.6969  139.8944  143.7455 LP  0  0  0  0  0  0  0  0  0  0  0  0  # atno 17320 bound_to 7965
  146.0800  139.3787  143.0470 LP  0  0  0  0  0  0  0  0  0  0  0  0  # atno 17321 bound_to 7965
  139.6064  144.1188  152.2253 LP  0  0  0  0  0  0  0  0  0  0  0  0  # atno 17342 bound_to 10162
  140.0588  144.5873  150.7279 LP  0  0  0  0  0  0  0  0  0  0  0  0  # atno 17343 bound_to 10162
  156.0417  130.5498  150.8785 LP  0  0  0  0  0  0  0  0  0  0  0  0  # atno 17370 bound_to 10713
  157.5803  131.0946  150.9281 LP  0  0  0  0  0  0  0  0  0  0  0  0  # atno 17371 bound_to 10713
  140.8767  134.2661  157.5164 LP  0  0  0  0  0  0  0  0  0  0  0  0  # atno 17394 bound_to 11000
  139.8704  134.9594  156.4332 LP  0  0  0  0  0  0  0  0  0  0  0  0  # atno 17395 bound_to 11000

$$$$
