AV-unprocessed.smi:3238|AV-procd|sdf|12375|dock2
  -GOLD-   2272018233D 1   1.00000     0.00000
 Structure written by MMmdl.
 37 39  0  0  0  0  0  0  0  0  1 V2000
  150.1424  134.6965  155.1649 C   0  0  0  0  0  0  0  0  0  0  0  0
  150.4287  136.0174  154.6275 N   0  0  0  0  0  0  0  0  0  0  0  0
  151.3431  136.8580  155.1344 C   0  0  0  0  0  0  0  0  0  0  0  0
  152.0479  136.5840  156.1057 O   0  0  0  0  0  0  0  0  0  0  0  0
  151.4920  138.2124  154.4380 C   0  0  0  0  0  0  0  0  0  0  0  0
  151.2929  139.3319  155.4092 C   0  0  0  0  0  0  0  0  0  0  0  0
  150.7678  140.4916  155.0303 N   0  0  0  0  0  0  0  0  0  0  0  0
  150.7714  141.2500  156.2096 O   0  0  0  0  0  0  0  0  0  0  0  0
  151.2827  140.4408  157.1679 C   0  0  0  0  0  0  0  0  0  0  0  0
  151.4815  140.9857  158.5430 C   0  0  0  0  0  0  0  0  0  0  0  0
  152.3214  142.2778  158.5508 C   0  0  2  0  0  0  0  0  0  0  0  0
  152.7372  142.7845  159.9494 C   0  0  0  0  0  0  0  0  0  0  0  0
  152.3224  144.2675  159.9129 C   0  0  2  0  0  0  0  0  0  0  0  0
  150.7898  144.3633  160.0225 C   0  0  0  0  0  0  0  0  0  0  0  0
  150.3216  143.8707  158.6407 C   0  0  0  0  0  0  0  0  0  0  0  0
  151.6473  143.5240  157.9315 C   0  0  1  0  0  0  0  0  0  0  0  0
  152.5561  144.6340  158.4508 C   0  0  0  0  0  0  0  0  0  0  0  0
  151.6328  139.2361  156.7250 N   0  0  0  0  0  0  0  0  0  0  0  0
  149.3852  134.2035  154.5552 H   0  0  0  0  0  0  0  0  0  0  0  0
  149.7651  134.7676  156.1858 H   0  0  0  0  0  0  0  0  0  0  0  0
  151.0376  134.0732  155.1666 H   0  0  0  0  0  0  0  0  0  0  0  0
  149.8897  136.3188  153.8282 H   0  0  0  0  0  0  0  0  0  0  0  0
  152.4815  138.2884  153.9844 H   0  0  0  0  0  0  0  0  0  0  0  0
  150.7656  138.2943  153.6283 H   0  0  0  0  0  0  0  0  0  0  0  0
  150.5007  141.1798  158.9781 H   0  0  0  0  0  0  0  0  0  0  0  0
  151.9473  140.2116  159.1527 H   0  0  0  0  0  0  0  0  0  0  0  0
  153.2271  142.0849  157.9726 H   0  0  0  0  0  0  0  0  0  0  0  0
  152.2477  142.2465  160.7622 H   0  0  0  0  0  0  0  0  0  0  0  0
  153.8142  142.6809  160.0872 H   0  0  0  0  0  0  0  0  0  0  0  0
  152.8517  144.8883  160.6363 H   0  0  0  0  0  0  0  0  0  0  0  0
  150.3939  143.7557  160.8370 H   0  0  0  0  0  0  0  0  0  0  0  0
  150.4738  145.3939  160.1890 H   0  0  0  0  0  0  0  0  0  0  0  0
  149.6292  143.0321  158.7023 H   0  0  0  0  0  0  0  0  0  0  0  0
  149.8076  144.6734  158.1106 H   0  0  0  0  0  0  0  0  0  0  0  0
  151.5618  143.4776  156.8455 H   0  0  0  0  0  0  0  0  0  0  0  0
  152.2070  145.6359  158.1942 H   0  0  0  0  0  0  0  0  0  0  0  0
  153.5966  144.5278  158.1384 H   0  0  0  0  0  0  0  0  0  0  0  0
  1  2  1  0  0  0  0
  1 19  1  0  0  0  0
  1 20  1  0  0  0  0
  1 21  1  0  0  0  0
  2  3  1  0  0  0  0
  2 22  1  0  0  0  0
  3  4  2  0  0  0  0
  3  5  1  0  0  0  0
  5  6  1  0  0  0  0
  5 23  1  0  0  0  0
  5 24  1  0  0  0  0
  6 18  1  0  0  0  0
  6  7  2  0  0  0  0
  7  8  1  0  0  0  0
  8  9  1  0  0  0  0
  9 10  1  0  0  0  0
  9 18  2  0  0  0  0
 10 11  1  0  0  0  0
 10 25  1  0  0  0  0
 10 26  1  0  0  0  0
 11 16  1  0  0  0  0
 11 12  1  0  0  0  0
 11 27  1  0  0  0  0
 12 13  1  0  0  0  0
 12 28  1  0  0  0  0
 12 29  1  0  0  0  0
 13 17  1  0  0  0  0
 13 14  1  0  0  0  0
 13 30  1  0  0  0  0
 14 15  1  0  0  0  0
 14 31  1  0  0  0  0
 14 32  1  0  0  0  0
 15 16  1  0  0  0  0
 15 33  1  0  0  0  0
 15 34  1  0  0  0  0
 16 17  1  0  0  0  0
 16 35  1  0  0  0  0
 17 36  1  0  0  0  0
 17 37  1  0  0  0  0
M  END
> <s_m_source_file>
AV-unprocessed.smi

> <i_m_source_file_index>
3238

> <i_lp_mmshare_version>
43012

> <i_f3d_flags>
0

> <s_epik_input>
W0NIM11bTkhdQyg9TylbQ0gyXWMxbm9jKG4xKVtDSDJdW0NASF0oW0NIMl1bQ0BIXTIzKVtDQEhdKFtDSDJdMylbQ0gyXVtDSDJdMg==

> <s_epik_cmdline>
J2VwaWtfcHl0aG9uJywgJy1waCcsICc3LjAnLCAnLXRuJywgJzgnLCAnLW1hJywgJzIwMCcsICctbWV0YWxfYmluZGluZycsICctaW1hZScsICc8aW5maWxlLm1hZT4nLCAnLW9tYWUnLCAnPG91dGZpbGUubWFlPic=

> <r_lp_tautomer_probability>
1

> <r_epik_Ionization_Penalty>
1.02915e-07

> <r_epik_Ionization_Penalty_Charging>
0

> <r_epik_Ionization_Penalty_Neutral>
1.02915e-07

> <r_epik_State_Penalty>
-0

> <r_epik_Charging_Adjusted_Penalty>
0

> <i_epik_Tot_Q>
0

> <i_epik_Tot_abs_Q>
0

> <r_epik_Metal_State_Penalty>
-0

> <b_epik_Metal_Only>
0

> <s_lp_Force_Field>
OPLS_2005

> <r_lp_Energy>
47.7222

> <b_lp_Chiralities_Consistent>
1

> <s_lp_Variant>
AV-unprocessed.smi:3238-1

> <Gold.Version>
5.8.1

> <Gold.Id.Protein>
6NUR|6NUR_protein|mol2

> <Gold.PLP.Fitness>
48.8684

> <Gold.PLP.PLP>
-40.8576

> <Gold.PLP.part.hbond>
-3.8872

> <Gold.PLP.part.metal>
0.0000

> <Gold.PLP.part.buried>
-4.6060

> <Gold.PLP.part.nonpolar>
-33.4114

> <Gold.PLP.part.repulsive>
0.2322

> <Gold.PLP.ligand.clash>
0.0000

> <Gold.PLP.ligand.torsion>
0.4422

> <Gold.PLP.Chemscore.Hbond>
2.9600

> <Gold.PLP.Chemscore.CHOScore>
0.0000

> <Gold.PLP.Chemscore.Metal>
0.0000

> <Gold.Chemscore.Hbonds>
donor molecule, donor type, donor heavy atom, donor atom, acceptor molecule, acceptor atom, score
      L1  H     2    22       P1  7948  0.73
      P1  H  7989  7998       L1     7  1.00
      P1  H 10752 10764       L1     4  0.70

> <Gold.PLP.Chemscore.Internal.Correction>
0.0151

> <Gold.Rescore>
     Score         DG    S(hbond)    S(metal)    S(lipo)     H(rot)  DE(clash)    DE(int)     intcor
     16.49     -18.50       1.85        0.00      99.08       1.85       0.04       1.97       ----

> <Gold.Chemscore.Fitness>
16.4904

> <Gold.Chemscore.DG>
-18.5030

> <Gold.Chemscore.ZeroCoef>
-5.4800

> <Gold.Chemscore.Hbond>
1.8456

> <Gold.Chemscore.Metal>
0.0000

> <Gold.Chemscore.Lipo>
99.0814

> <Gold.Chemscore.Internal_Hbond>
0.0000

> <Gold.Chemscore.DEClash>
0.0383

> <Gold.Chemscore.DEInternal>
1.9743

> <Gold.Chemscore.Rot>
1.8492

> <Gold.Chemscore.Internal.Correction>
   9.000000E+99

> <Gold.Chemscore.Hbonds>
donor molecule, donor type, donor heavy atom, donor atom, acceptor molecule, acceptor atom, score
      L1  H     2    22       P1  7948  0.18
      P1  H  7989  7998       L1     7  0.43
      P1  H 10752 10764       L1     4  0.07

> <Gold.Chemscore.Hbond.Weighted>
-6.1644

> <Gold.Chemscore.Metal.Weighted>
-0.0000

> <Gold.Chemscore.Lipo.Weighted>
-11.5925

> <Gold.Chemscore.Internal_Hbond.Weighted>
0.0000

> <Gold.Chemscore.DEClash.Weighted>
0.0383

> <Gold.Chemscore.DEInternal.Weighted>
1.9743

> <Gold.Chemscore.Rot.Weighted>
4.7340

> <Gold.Chemscore.Internal.Correction.Weighted>
   9.000000E+99

> <Gold.Protein.RotatedTorsions>
[ 6907 6896 6895 6894 ] final  -55.03 input  -60.11 | X-H torsion
[ 7974 7965 7964 7962 ] final   68.64 input  175.53 | X-H torsion
[ 8008 7997 7996 7995 ] final  -56.81 input   59.86 | X-H torsion
[ 10167 10162 10161 10158 ] final   82.15 input  -65.29 | X-H torsion
[ 10718 10713 10712 10709 ] final  -17.41 input   66.30 | X-H torsion
[ 10763 10752 10751 10750 ] final  -24.79 input  -60.55 | X-H torsion
[ 11005 11000 10999 10996 ] final -179.60 input  -57.11 | X-H torsion

> <Gold.Protein.ActiveResidues>
 VAL166  LYS551  ARG553  GLY616  TRP617  ASP618  TYR619  PRO620  LYS621  CYS622 
 ASP623  PHE694  ASN695  SER759  ASP760  ASP761  ALA762  ILE779  LEU786  VAL792 
 PHE793  MET794  SER795  GLU796  ALA797  LYS798  CYS799  TRP800  GLU811  SER814 

> <Gold.Protein.RotatedAtoms>
  150.8287  134.7529  159.6834 H   0  0  0  0  0  0  0  0  0  0  0  0  # atno 6907 bound_to 6896
  152.4394  134.5618  159.9906 H   0  0  0  0  0  0  0  0  0  0  0  0  # atno 6908 bound_to 6896
  151.5784  133.3343  159.3039 H   0  0  0  0  0  0  0  0  0  0  0  0  # atno 6909 bound_to 6896
  145.8002  139.2978  143.1159 H   0  0  0  0  0  0  0  0  0  0  0  0  # atno 7974 bound_to 7965
  154.4244  140.1121  156.5697 H   0  0  0  0  0  0  0  0  0  0  0  0  # atno 8008 bound_to 7997
  155.6225  140.3495  155.4638 H   0  0  0  0  0  0  0  0  0  0  0  0  # atno 8009 bound_to 7997
  156.0012  140.1199  157.0535 H   0  0  0  0  0  0  0  0  0  0  0  0  # atno 8010 bound_to 7997
  139.9318  144.6147  150.8338 H   0  0  0  0  0  0  0  0  0  0  0  0  # atno 10167 bound_to 10162
  156.5740  130.4757  149.6350 H   0  0  0  0  0  0  0  0  0  0  0  0  # atno 10718 bound_to 10713
  153.6894  135.6962  153.5094 H   0  0  0  0  0  0  0  0  0  0  0  0  # atno 10763 bound_to 10752
  153.2424  135.4301  155.0711 H   0  0  0  0  0  0  0  0  0  0  0  0  # atno 10764 bound_to 10752
  154.8377  135.3511  154.6436 H   0  0  0  0  0  0  0  0  0  0  0  0  # atno 10765 bound_to 10752
  140.4168  134.6642  157.4643 H   0  0  0  0  0  0  0  0  0  0  0  0  # atno 11005 bound_to 11000
  145.9886  140.8622  143.0078 LP  0  0  0  0  0  0  0  0  0  0  0  0  # atno 17320 bound_to 7965
  144.6770  140.2183  143.7369 LP  0  0  0  0  0  0  0  0  0  0  0  0  # atno 17321 bound_to 7965
  140.7635  143.3225  151.2589 LP  0  0  0  0  0  0  0  0  0  0  0  0  # atno 17342 bound_to 10162
  139.6776  143.9910  152.2790 LP  0  0  0  0  0  0  0  0  0  0  0  0  # atno 17343 bound_to 10162
  156.2690  130.7006  151.1797 LP  0  0  0  0  0  0  0  0  0  0  0  0  # atno 17370 bound_to 10713
  157.7342  131.0584  150.5538 LP  0  0  0  0  0  0  0  0  0  0  0  0  # atno 17371 bound_to 10713
  140.0228  134.6521  155.9215 LP  0  0  0  0  0  0  0  0  0  0  0  0  # atno 17394 bound_to 11000
  141.1800  133.6545  156.4980 LP  0  0  0  0  0  0  0  0  0  0  0  0  # atno 17395 bound_to 11000

$$$$
