AV-unprocessed.smi:919|AV-procd|sdf|4164|dock9
  -GOLD-   22720 2 73D 1   1.00000     0.00000
 Structure written by MMmdl.
 43 45  0  0  0  0  0  0  0  0  1 V2000
  147.0757  141.8398  154.1934 C   0  0  0  0  0  0  0  0  0  0  0  0
  148.2712  140.9374  154.2983 C   0  0  0  0  0  0  0  0  0  0  0  0
  149.4794  141.4448  154.1207 N   0  0  0  0  0  0  0  0  0  0  0  0
  150.3713  140.3809  154.2876 O   0  0  0  0  0  0  0  0  0  0  0  0
  149.6558  139.2610  154.5632 C   0  0  0  0  0  0  0  0  0  0  0  0
  150.4290  138.0048  154.7827 C   0  0  0  0  0  0  0  0  0  0  0  0
  148.3177  139.5417  154.5819 C   0  0  0  0  0  0  0  0  0  0  0  0
  147.1735  138.6018  154.8491 C   0  0  0  0  0  0  0  0  0  0  0  0
  146.2194  138.5272  153.6470 C   0  0  0  0  0  0  0  0  0  0  0  0
  146.4912  137.3595  152.8180 N   0  0  0  0  0  0  0  0  0  0  0  0
  145.5521  136.5869  152.2458 C   0  0  0  0  0  0  0  0  0  0  0  0
  144.3445  136.7815  152.3729 O   0  0  0  0  0  0  0  0  0  0  0  0
  146.0331  135.5732  151.5048 N   0  0  0  0  0  0  0  0  0  0  0  0
  145.2764  134.5642  150.7602 C   0  0  2  0  0  0  0  0  0  0  0  0
  143.9853  134.1126  151.4837 C   0  0  0  0  0  0  0  0  0  0  0  0
  144.1871  132.5931  151.6296 C   0  0  1  0  0  0  0  0  0  0  0  0
  144.1075  131.9256  150.2427 C   0  0  0  0  0  0  0  0  0  0  0  0
  145.4295  132.3581  149.5778 C   0  0  0  0  0  0  0  0  0  0  0  0
  146.0736  133.2451  150.6593 C   0  0  2  0  0  0  0  0  0  0  0  0
  145.6759  132.5080  151.9352 C   0  0  0  0  0  0  0  0  0  0  0  0
  146.1439  141.2836  154.2950 H   0  0  0  0  0  0  0  0  0  0  0  0
  147.0521  142.3504  153.2302 H   0  0  0  0  0  0  0  0  0  0  0  0
  147.0915  142.6008  154.9739 H   0  0  0  0  0  0  0  0  0  0  0  0
  150.0608  137.4736  155.6607 H   0  0  0  0  0  0  0  0  0  0  0  0
  151.4877  138.2152  154.9356 H   0  0  0  0  0  0  0  0  0  0  0  0
  150.3361  137.3409  153.9232 H   0  0  0  0  0  0  0  0  0  0  0  0
  147.5417  137.6023  155.0824 H   0  0  0  0  0  0  0  0  0  0  0  0
  146.6205  138.9217  155.7329 H   0  0  0  0  0  0  0  0  0  0  0  0
  145.1813  138.5105  153.9841 H   0  0  0  0  0  0  0  0  0  0  0  0
  146.3295  139.4175  153.0272 H   0  0  0  0  0  0  0  0  0  0  0  0
  147.4604  137.1273  152.6573 H   0  0  0  0  0  0  0  0  0  0  0  0
  147.0384  135.5045  151.4364 H   0  0  0  0  0  0  0  0  0  0  0  0
  145.0592  134.9481  149.7617 H   0  0  0  0  0  0  0  0  0  0  0  0
  143.8910  134.5774  152.4665 H   0  0  0  0  0  0  0  0  0  0  0  0
  143.0867  134.3569  150.9160 H   0  0  0  0  0  0  0  0  0  0  0  0
  143.5364  132.1354  152.3750 H   0  0  0  0  0  0  0  0  0  0  0  0
  144.0628  130.8396  150.3351 H   0  0  0  0  0  0  0  0  0  0  0  0
  143.2322  132.2500  149.6788 H   0  0  0  0  0  0  0  0  0  0  0  0
  146.0540  131.4886  149.3681 H   0  0  0  0  0  0  0  0  0  0  0  0
  145.2717  132.8894  148.6385 H   0  0  0  0  0  0  0  0  0  0  0  0
  147.1468  133.3822  150.5200 H   0  0  0  0  0  0  0  0  0  0  0  0
  145.9613  133.0332  152.8483 H   0  0  0  0  0  0  0  0  0  0  0  0
  146.0516  131.4841  151.9795 H   0  0  0  0  0  0  0  0  0  0  0  0
  1  2  1  0  0  0  0
  1 21  1  0  0  0  0
  1 22  1  0  0  0  0
  1 23  1  0  0  0  0
  2  7  1  0  0  0  0
  2  3  2  0  0  0  0
  3  4  1  0  0  0  0
  4  5  1  0  0  0  0
  5  6  1  0  0  0  0
  5  7  2  0  0  0  0
  6 24  1  0  0  0  0
  6 25  1  0  0  0  0
  6 26  1  0  0  0  0
  7  8  1  0  0  0  0
  8  9  1  0  0  0  0
  8 27  1  0  0  0  0
  8 28  1  0  0  0  0
  9 10  1  0  0  0  0
  9 29  1  0  0  0  0
  9 30  1  0  0  0  0
 10 11  1  0  0  0  0
 10 31  1  0  0  0  0
 11 12  2  0  0  0  0
 11 13  1  0  0  0  0
 13 14  1  0  0  0  0
 13 32  1  0  0  0  0
 14 19  1  0  0  0  0
 14 15  1  0  0  0  0
 14 33  1  0  0  0  0
 15 16  1  0  0  0  0
 15 34  1  0  0  0  0
 15 35  1  0  0  0  0
 16 20  1  0  0  0  0
 16 17  1  0  0  0  0
 16 36  1  0  0  0  0
 17 18  1  0  0  0  0
 17 37  1  0  0  0  0
 17 38  1  0  0  0  0
 18 19  1  0  0  0  0
 18 39  1  0  0  0  0
 18 40  1  0  0  0  0
 19 20  1  0  0  0  0
 19 41  1  0  0  0  0
 20 42  1  0  0  0  0
 20 43  1  0  0  0  0
M  END
> <s_m_source_file>
AV-unprocessed.smi

> <i_m_source_file_index>
919

> <i_lp_mmshare_version>
43012

> <i_f3d_flags>
0

> <s_epik_input>
W0NIM11jMW5vYyhbQ0gzXSljMVtDSDJdW0NIMl1bTkhdQyg9TylbTkhdW0NASF0oW0NIMl1bQ0BASF0yMylbQ0BASF0oW0NIMl0zKVtDSDJdW0NIMl0y

> <s_epik_cmdline>
J2VwaWtfcHl0aG9uJywgJy1waCcsICc3LjAnLCAnLXRuJywgJzgnLCAnLW1hJywgJzIwMCcsICctbWV0YWxfYmluZGluZycsICctaW1hZScsICc8aW5maWxlLm1hZT4nLCAnLW9tYWUnLCAnPG91dGZpbGUubWFlPic=

> <r_lp_tautomer_probability>
1

> <r_epik_Ionization_Penalty>
6.40771e-05

> <r_epik_Ionization_Penalty_Charging>
0

> <r_epik_Ionization_Penalty_Neutral>
6.40771e-05

> <r_epik_State_Penalty>
-0

> <r_epik_Charging_Adjusted_Penalty>
0

> <i_epik_Tot_Q>
0

> <i_epik_Tot_abs_Q>
0

> <r_epik_Metal_State_Penalty>
-0

> <b_epik_Metal_Only>
0

> <s_lp_Force_Field>
OPLS_2005

> <r_lp_Energy>
47.5349

> <b_lp_Chiralities_Consistent>
1

> <s_lp_Variant>
AV-unprocessed.smi:919-1

> <Gold.Version>
5.8.1

> <Gold.Id.Protein>
6NUR|6NUR_protein|mol2

> <Gold.PLP.Fitness>
47.8022

> <Gold.PLP.PLP>
-38.2494

> <Gold.PLP.part.hbond>
-4.7435

> <Gold.PLP.part.metal>
0.0000

> <Gold.PLP.part.buried>
-5.9144

> <Gold.PLP.part.nonpolar>
-28.8736

> <Gold.PLP.part.repulsive>
0.6019

> <Gold.PLP.ligand.clash>
0.0000

> <Gold.PLP.ligand.torsion>
0.7571

> <Gold.PLP.Chemscore.Hbond>
3.6793

> <Gold.PLP.Chemscore.CHOScore>
0.0000

> <Gold.PLP.Chemscore.Metal>
0.0000

> <Gold.Chemscore.Hbonds>
donor molecule, donor type, donor heavy atom, donor atom, acceptor molecule, acceptor atom, score
      L1  H    10    31       P1  7948  1.00
      L1  H    13    32       P1  7948  0.96
      P1  H  7989  7998       L1     4  0.99
      P1  H  8011  8017       L1     3  0.63

> <Gold.PLP.Chemscore.Internal.Correction>
0.0293

> <Gold.Rescore>
     Score         DG    S(hbond)    S(metal)    S(lipo)     H(rot)  DE(clash)    DE(int)     intcor
     19.72     -22.02       2.94        0.00      90.58       1.52       0.15       2.15       ----

> <Gold.Chemscore.Fitness>
19.7216

> <Gold.Chemscore.DG>
-22.0248

> <Gold.Chemscore.ZeroCoef>
-5.4800

> <Gold.Chemscore.Hbond>
2.9425

> <Gold.Chemscore.Metal>
0.0000

> <Gold.Chemscore.Lipo>
90.5812

> <Gold.Chemscore.Internal_Hbond>
0.0000

> <Gold.Chemscore.DEClash>
0.1522

> <Gold.Chemscore.DEInternal>
2.1509

> <Gold.Chemscore.Rot>
1.5161

> <Gold.Chemscore.Internal.Correction>
   9.000000E+99

> <Gold.Chemscore.Hbonds>
donor molecule, donor type, donor heavy atom, donor atom, acceptor molecule, acceptor atom, score
      L1  H    10    31       P1  7948  0.99
      L1  H    13    32       P1  7948  0.86
      P1  H  7989  7998       L1     4  0.31
      P1  H  8011  8017       L1     3  0.43

> <Gold.Chemscore.Hbond.Weighted>
-9.8280

> <Gold.Chemscore.Metal.Weighted>
-0.0000

> <Gold.Chemscore.Lipo.Weighted>
-10.5980

> <Gold.Chemscore.Internal_Hbond.Weighted>
0.0000

> <Gold.Chemscore.DEClash.Weighted>
0.1522

> <Gold.Chemscore.DEInternal.Weighted>
2.1509

> <Gold.Chemscore.Rot.Weighted>
3.8813

> <Gold.Chemscore.Internal.Correction.Weighted>
   9.000000E+99

> <Gold.Protein.RotatedTorsions>
[ 6907 6896 6895 6894 ] final -169.46 input  -60.11 | X-H torsion
[ 7974 7965 7964 7962 ] final -144.14 input  175.53 | X-H torsion
[ 8008 7997 7996 7995 ] final -117.60 input   59.86 | X-H torsion
[ 10167 10162 10161 10158 ] final  -75.71 input  -65.29 | X-H torsion
[ 10718 10713 10712 10709 ] final -168.98 input   66.30 | X-H torsion
[ 10763 10752 10751 10750 ] final   96.51 input  -60.55 | X-H torsion
[ 11005 11000 10999 10996 ] final  -78.27 input  -57.11 | X-H torsion

> <Gold.Protein.ActiveResidues>
 VAL166  LYS551  ARG553  GLY616  TRP617  ASP618  TYR619  PRO620  LYS621  CYS622 
 ASP623  PHE694  ASN695  SER759  ASP760  ASP761  ALA762  ILE779  LEU786  VAL792 
 PHE793  MET794  SER795  GLU796  ALA797  LYS798  CYS799  TRP800  GLU811  SER814 

> <Gold.Protein.RotatedAtoms>
  151.4919  133.3523  159.2854 H   0  0  0  0  0  0  0  0  0  0  0  0  # atno 6907 bound_to 6896
  150.8829  134.8224  159.7249 H   0  0  0  0  0  0  0  0  0  0  0  0  # atno 6908 bound_to 6896
  152.4774  134.4819  159.9720 H   0  0  0  0  0  0  0  0  0  0  0  0  # atno 6909 bound_to 6896
  144.8319  140.5747  143.5510 H   0  0  0  0  0  0  0  0  0  0  0  0  # atno 7974 bound_to 7965
  155.0863  140.0394  157.2655 H   0  0  0  0  0  0  0  0  0  0  0  0  # atno 8008 bound_to 7997
  154.6867  140.2644  155.6829 H   0  0  0  0  0  0  0  0  0  0  0  0  # atno 8009 bound_to 7997
  156.2714  140.2768  156.1430 H   0  0  0  0  0  0  0  0  0  0  0  0  # atno 8010 bound_to 7997
  140.4919  143.2378  151.7893 H   0  0  0  0  0  0  0  0  0  0  0  0  # atno 10167 bound_to 10162
  156.7049  130.9211  151.3083 H   0  0  0  0  0  0  0  0  0  0  0  0  # atno 10718 bound_to 10713
  153.2658  135.4216  155.0939 H   0  0  0  0  0  0  0  0  0  0  0  0  # atno 10763 bound_to 10752
  154.8437  135.3460  154.6314 H   0  0  0  0  0  0  0  0  0  0  0  0  # atno 10764 bound_to 10752
  153.6734  135.7042  153.5197 H   0  0  0  0  0  0  0  0  0  0  0  0  # atno 10765 bound_to 10752
  141.1664  133.7056  156.7946 H   0  0  0  0  0  0  0  0  0  0  0  0  # atno 11005 bound_to 11000
  145.4878  139.1491  143.3726 LP  0  0  0  0  0  0  0  0  0  0  0  0  # atno 17320 bound_to 7965
  146.2621  140.5015  142.8849 LP  0  0  0  0  0  0  0  0  0  0  0  0  # atno 17321 bound_to 7965
  139.4853  144.4638  151.9509 LP  0  0  0  0  0  0  0  0  0  0  0  0  # atno 17342 bound_to 10162
  140.3724  144.2838  150.5918 LP  0  0  0  0  0  0  0  0  0  0  0  0  # atno 17343 bound_to 10162
  157.6959  130.9281  150.0643 LP  0  0  0  0  0  0  0  0  0  0  0  0  # atno 17370 bound_to 10713
  156.1702  130.3646  149.9175 LP  0  0  0  0  0  0  0  0  0  0  0  0  # atno 17371 bound_to 10713
  140.2300  134.8693  157.3467 LP  0  0  0  0  0  0  0  0  0  0  0  0  # atno 17394 bound_to 11000
  140.1901  134.4383  155.7721 LP  0  0  0  0  0  0  0  0  0  0  0  0  # atno 17395 bound_to 11000

$$$$
