AV-unprocessed.smi:2886|AV-procd|sdf|11088|dock5
  -GOLD-   2272015563D 1   1.00000     0.00000
 Structure written by MMmdl.
 28 30  0  0  0  0  0  0  0  0  1 V2000
  152.2731  137.3356  155.8957 O   0  0  0  0  0  0  0  0  0  0  0  0
  151.8400  138.4846  155.8345 C   0  0  0  0  0  0  0  0  0  0  0  0
  151.1878  138.9366  154.7377 N   0  0  0  0  0  0  0  0  0  0  0  0
  150.6716  140.1961  154.5534 N   0  0  0  0  0  0  0  0  0  0  0  0
  150.7967  141.0558  155.5059 C   0  0  0  0  0  0  0  0  0  0  0  0
  151.4566  140.7459  156.7701 C   0  0  0  0  0  0  0  0  0  0  0  0
  151.5912  141.6731  157.7953 N   0  0  0  0  0  0  0  0  0  0  0  0
  151.1388  143.0572  157.8361 C   0  0  1  0  0  0  0  0  0  0  0  0
  150.0648  143.3062  158.8959 C   0  0  0  0  0  0  0  0  0  0  0  0
  150.6747  144.4740  159.6850 C   0  0  1  0  0  0  0  0  0  0  0  0
  151.8187  144.0029  160.5921 C   0  0  0  0  0  0  0  0  0  0  0  0
  152.9222  143.7138  159.5759 C   0  0  0  0  0  0  0  0  0  0  0  0
  152.2301  144.0606  158.2468 C   0  0  2  0  0  0  0  0  0  0  0  0
  151.4095  145.1372  158.6686 O   0  0  0  0  0  0  0  0  0  0  0  0
  151.9638  139.4885  156.9004 C   0  0  0  0  0  0  0  0  0  0  0  0
  152.7810  139.0167  158.3528 Cl  0  0  0  0  0  0  0  0  0  0  0  0
  151.0532  138.3151  153.9531 H   0  0  0  0  0  0  0  0  0  0  0  0
  150.4115  142.0693  155.4004 H   0  0  0  0  0  0  0  0  0  0  0  0
  151.9251  141.3168  158.6798 H   0  0  0  0  0  0  0  0  0  0  0  0
  150.7276  143.3458  156.8688 H   0  0  0  0  0  0  0  0  0  0  0  0
  149.1272  143.6004  158.4236 H   0  0  0  0  0  0  0  0  0  0  0  0
  149.8668  142.4423  159.5323 H   0  0  0  0  0  0  0  0  0  0  0  0
  149.9385  145.0995  160.1906 H   0  0  0  0  0  0  0  0  0  0  0  0
  152.1262  144.7966  161.2741 H   0  0  0  0  0  0  0  0  0  0  0  0
  151.5473  143.1286  161.1846 H   0  0  0  0  0  0  0  0  0  0  0  0
  153.7744  144.3724  159.7464 H   0  0  0  0  0  0  0  0  0  0  0  0
  153.2804  142.6850  159.6169 H   0  0  0  0  0  0  0  0  0  0  0  0
  152.9212  144.3119  157.4418 H   0  0  0  0  0  0  0  0  0  0  0  0
  1  2  2  0  0  0  0
  2 15  1  0  0  0  0
  2  3  1  0  0  0  0
  3 17  1  0  0  0  0
  3  4  1  0  0  0  0
  4  5  2  0  0  0  0
  5  6  1  0  0  0  0
  5 18  1  0  0  0  0
  6  7  1  0  0  0  0
  6 15  2  0  0  0  0
  7  8  1  0  0  0  0
  7 19  1  0  0  0  0
  8 13  1  0  0  0  0
  8  9  1  0  0  0  0
  8 20  1  0  0  0  0
  9 10  1  0  0  0  0
  9 21  1  0  0  0  0
  9 22  1  0  0  0  0
 10 14  1  0  0  0  0
 10 11  1  0  0  0  0
 10 23  1  0  0  0  0
 11 12  1  0  0  0  0
 11 24  1  0  0  0  0
 11 25  1  0  0  0  0
 12 13  1  0  0  0  0
 12 26  1  0  0  0  0
 12 27  1  0  0  0  0
 13 14  1  0  0  0  0
 13 28  1  0  0  0  0
 15 16  1  0  0  0  0
M  END
> <s_m_source_file>
AV-unprocessed.smi

> <i_m_source_file_index>
2886

> <i_lp_mmshare_version>
43012

> <i_f3d_flags>
0

> <s_epik_input>
Tz1jMVtuSF1uW2NIXWMoYzFDbClbTkhdW0NASF0oW0NIMl1bQ0BASF0yMylbQ0BASF0oTzMpW0NIMl1bQ0gyXTI=

> <s_epik_cmdline>
J2VwaWtfcHl0aG9uJywgJy1waCcsICc3LjAnLCAnLXRuJywgJzgnLCAnLW1hJywgJzIwMCcsICctbWV0YWxfYmluZGluZycsICctaW1hZScsICc8aW5maWxlLm1hZT4nLCAnLW9tYWUnLCAnPG91dGZpbGUubWFlPic=

> <r_lp_tautomer_probability>
0.986175

> <r_epik_Ionization_Penalty>
0.000975594

> <r_epik_Ionization_Penalty_Charging>
0.000940184

> <r_epik_Ionization_Penalty_Neutral>
3.54099e-05

> <r_epik_State_Penalty>
0.00620319

> <r_epik_Charging_Adjusted_Penalty>
0.00714337

> <i_epik_Tot_Q>
0

> <i_epik_Tot_abs_Q>
0

> <r_epik_Metal_State_Penalty>
0.287699

> <b_epik_Metal_Only>
0

> <s_lp_Force_Field>
OPLS_2005

> <r_lp_Energy>
55.2825

> <b_lp_Chiralities_Consistent>
1

> <s_lp_Variant>
AV-unprocessed.smi:2886-2

> <Gold.Version>
5.8.1

> <Gold.Id.Protein>
6NUR|6NUR_protein|mol2

> <Gold.PLP.Fitness>
33.9202

> <Gold.PLP.PLP>
-29.6975

> <Gold.PLP.part.hbond>
-1.9173

> <Gold.PLP.part.metal>
0.0000

> <Gold.PLP.part.buried>
-4.3493

> <Gold.PLP.part.nonpolar>
-23.9332

> <Gold.PLP.part.repulsive>
0.4071

> <Gold.PLP.ligand.clash>
0.0000

> <Gold.PLP.ligand.torsion>
0.0482

> <Gold.PLP.Chemscore.Hbond>
1.4367

> <Gold.PLP.Chemscore.CHOScore>
0.0000

> <Gold.PLP.Chemscore.Metal>
0.0000

> <Gold.Chemscore.Hbonds>
donor molecule, donor type, donor heavy atom, donor atom, acceptor molecule, acceptor atom, score
      P1  H  7989  7998       L1     4  0.95
      P1  H 10752 10763       L1     1  0.49

> <Gold.PLP.Chemscore.Internal.Correction>
0.0090

> <Gold.Rescore>
     Score         DG    S(hbond)    S(metal)    S(lipo)     H(rot)  DE(clash)    DE(int)     intcor
     16.17     -16.27       0.93        0.00      87.53       1.00       0.03       0.07       ----

> <Gold.Chemscore.Fitness>
16.1722

> <Gold.Chemscore.DG>
-16.2703

> <Gold.Chemscore.ZeroCoef>
-5.4800

> <Gold.Chemscore.Hbond>
0.9308

> <Gold.Chemscore.Metal>
0.0000

> <Gold.Chemscore.Lipo>
87.5330

> <Gold.Chemscore.Internal_Hbond>
0.0000

> <Gold.Chemscore.DEClash>
0.0252

> <Gold.Chemscore.DEInternal>
0.0729

> <Gold.Chemscore.Rot>
1.0000

> <Gold.Chemscore.Internal.Correction>
   9.000000E+99

> <Gold.Chemscore.Hbonds>
donor molecule, donor type, donor heavy atom, donor atom, acceptor molecule, acceptor atom, score
      P1  H  7989  7998       L1     4  0.10
      P1  H 10752 10763       L1     1  0.47

> <Gold.Chemscore.Hbond.Weighted>
-3.1090

> <Gold.Chemscore.Metal.Weighted>
-0.0000

> <Gold.Chemscore.Lipo.Weighted>
-10.2414

> <Gold.Chemscore.Internal_Hbond.Weighted>
0.0000

> <Gold.Chemscore.DEClash.Weighted>
0.0252

> <Gold.Chemscore.DEInternal.Weighted>
0.0729

> <Gold.Chemscore.Rot.Weighted>
2.5600

> <Gold.Chemscore.Internal.Correction.Weighted>
   9.000000E+99

> <Gold.Protein.RotatedTorsions>
[ 6907 6896 6895 6894 ] final -179.30 input  -60.11 | X-H torsion
[ 7974 7965 7964 7962 ] final  151.95 input  175.53 | X-H torsion
[ 8008 7997 7996 7995 ] final   46.13 input   59.86 | X-H torsion
[ 10167 10162 10161 10158 ] final -111.96 input  -65.29 | X-H torsion
[ 10718 10713 10712 10709 ] final   31.43 input   66.30 | X-H torsion
[ 10763 10752 10751 10750 ] final   81.85 input  -60.55 | X-H torsion
[ 11005 11000 10999 10996 ] final -166.87 input  -57.11 | X-H torsion

> <Gold.Protein.ActiveResidues>
 VAL166  LYS551  ARG553  GLY616  TRP617  ASP618  TYR619  PRO620  LYS621  CYS622 
 ASP623  PHE694  ASN695  SER759  ASP760  ASP761  ALA762  ILE779  LEU786  VAL792 
 PHE793  MET794  SER795  GLU796  ALA797  LYS798  CYS799  TRP800  GLU811  SER814 

> <Gold.Protein.RotatedAtoms>
  151.6511  133.3321  159.3151 H   0  0  0  0  0  0  0  0  0  0  0  0  # atno 6907 bound_to 6896
  150.7959  134.7023  159.6566 H   0  0  0  0  0  0  0  0  0  0  0  0  # atno 6908 bound_to 6896
  152.4046  134.6232  160.0107 H   0  0  0  0  0  0  0  0  0  0  0  0  # atno 6909 bound_to 6896
  144.8256  139.6605  143.6081 H   0  0  0  0  0  0  0  0  0  0  0  0  # atno 7974 bound_to 7965
  155.3473  140.3411  155.4239 H   0  0  0  0  0  0  0  0  0  0  0  0  # atno 8008 bound_to 7997
  156.1782  140.1655  156.8359 H   0  0  0  0  0  0  0  0  0  0  0  0  # atno 8009 bound_to 7997
  154.5305  140.0746  156.8319 H   0  0  0  0  0  0  0  0  0  0  0  0  # atno 8010 bound_to 7997
  140.1279  143.4386  152.1647 H   0  0  0  0  0  0  0  0  0  0  0  0  # atno 10167 bound_to 10162
  157.2724  130.7214  149.6511 H   0  0  0  0  0  0  0  0  0  0  0  0  # atno 10718 bound_to 10713
  153.1152  135.4750  154.9103 H   0  0  0  0  0  0  0  0  0  0  0  0  # atno 10763 bound_to 10752
  154.7521  135.3109  154.8540 H   0  0  0  0  0  0  0  0  0  0  0  0  # atno 10764 bound_to 10752
  153.9118  135.6864  153.4804 H   0  0  0  0  0  0  0  0  0  0  0  0  # atno 10765 bound_to 10752
  140.5596  134.5346  157.5140 H   0  0  0  0  0  0  0  0  0  0  0  0  # atno 11005 bound_to 11000
  146.2561  139.6306  142.9394 LP  0  0  0  0  0  0  0  0  0  0  0  0  # atno 17320 bound_to 7965
  145.5008  141.0437  143.2541 LP  0  0  0  0  0  0  0  0  0  0  0  0  # atno 17321 bound_to 7965
  139.5535  144.7355  151.4364 LP  0  0  0  0  0  0  0  0  0  0  0  0  # atno 17342 bound_to 10162
  140.6834  143.8029  150.7153 LP  0  0  0  0  0  0  0  0  0  0  0  0  # atno 17343 bound_to 10162
  155.9663  130.4363  150.5129 LP  0  0  0  0  0  0  0  0  0  0  0  0  # atno 17370 bound_to 10713
  157.3057  131.0654  151.2037 LP  0  0  0  0  0  0  0  0  0  0  0  0  # atno 17371 bound_to 10713
  139.9414  134.7780  156.0669 LP  0  0  0  0  0  0  0  0  0  0  0  0  # atno 17394 bound_to 11000
  141.1122  133.6639  156.3007 LP  0  0  0  0  0  0  0  0  0  0  0  0  # atno 17395 bound_to 11000

$$$$
