AV-unprocessed.smi:1995|AV-procd|sdf|8083|dock6
  -GOLD-   2272010293D 1   1.00000     0.00000
 Structure written by MMmdl.
 42 43  0  0  0  0  0  0  0  0  3 V2000
  151.4113  136.3647  156.2035 C   0  0  0  0  0  0  0  0  0  0  0  0
  150.1718  136.2168  155.3037 C   0  0  0  0  0  0  0  0  0  0  0  0
  149.2796  137.4850  155.1418 C   0  0  2  0  0  0  0  0  0  0  0  0
  150.1045  138.6099  154.4603 C   0  0  0  0  0  0  0  0  0  0  0  0
  148.8446  138.0238  156.5384 C   0  0  0  0  0  0  0  0  0  0  0  0
  148.7506  136.9582  157.5384 N   0  0  0  0  0  0  0  0  0  0  0  0
  149.2043  136.9984  158.7991 C   0  0  0  0  0  0  0  0  0  0  0  0
  149.6642  138.0451  159.2592 O   0  0  0  0  0  0  0  0  0  0  0  0
  149.1249  135.8116  159.4391 N   0  5  0  0  0  0  0  0  0  0  0  0
  148.4576  135.7228  160.6010 C   0  0  0  0  0  0  0  0  0  0  0  0
  148.1962  136.7839  161.3733 N   0  0  0  0  0  0  0  0  0  0  0  0
  147.4924  136.4638  162.5358 C   0  0  0  0  0  0  0  0  0  0  0  0
  147.2177  135.1272  162.6539 C   0  0  0  0  0  0  0  0  0  0  0  0
  147.8380  134.2251  161.3007 S   0  0  0  0  0  0  0  0  0  0  0  0
  148.0428  137.1709  154.3347 N   0  3  0  0  0  0  0  0  0  0  0  0
  147.1735  136.0627  154.8185 C   0  0  0  0  0  0  0  0  0  0  0  0
  146.0981  135.7360  153.7654 C   0  0  0  0  0  0  0  0  0  0  0  0
  145.3392  136.8975  153.4556 O   0  0  0  0  0  0  0  0  0  0  0  0
  146.1539  137.9343  152.9248 C   0  0  0  0  0  0  0  0  0  0  0  0
  147.1912  138.3402  153.9814 C   0  0  0  0  0  0  0  0  0  0  0  0
  151.9418  135.4150  156.2752 H   0  0  0  0  0  0  0  0  0  0  0  0
  151.1455  136.6611  157.2176 H   0  0  0  0  0  0  0  0  0  0  0  0
  152.1178  137.0947  155.8092 H   0  0  0  0  0  0  0  0  0  0  0  0
  150.5085  135.8818  154.3221 H   0  0  0  0  0  0  0  0  0  0  0  0
  149.5820  135.3967  155.7131 H   0  0  0  0  0  0  0  0  0  0  0  0
  150.8780  139.0004  155.1220 H   0  0  0  0  0  0  0  0  0  0  0  0
  149.4790  139.4587  154.1809 H   0  0  0  0  0  0  0  0  0  0  0  0
  150.6123  138.2577  153.5619 H   0  0  0  0  0  0  0  0  0  0  0  0
  149.5056  138.8204  156.8805 H   0  0  0  0  0  0  0  0  0  0  0  0
  147.8587  138.4844  156.4781 H   0  0  0  0  0  0  0  0  0  0  0  0
  148.3621  136.0809  157.2238 H   0  0  0  0  0  0  0  0  0  0  0  0
  147.2296  137.2517  163.2256 H   0  0  0  0  0  0  0  0  0  0  0  0
  146.6929  134.6203  163.4496 H   0  0  0  0  0  0  0  0  0  0  0  0
  147.7359  135.1474  154.9917 H   0  0  0  0  0  0  0  0  0  0  0  0
  146.7069  136.3407  155.7643 H   0  0  0  0  0  0  0  0  0  0  0  0
  146.5554  135.3383  152.8576 H   0  0  0  0  0  0  0  0  0  0  0  0
  145.4246  134.9667  154.1436 H   0  0  0  0  0  0  0  0  0  0  0  0
  146.6373  137.6081  152.0021 H   0  0  0  0  0  0  0  0  0  0  0  0
  145.5214  138.7851  152.6716 H   0  0  0  0  0  0  0  0  0  0  0  0
  146.6702  138.7090  154.8657 H   0  0  0  0  0  0  0  0  0  0  0  0
  147.7864  139.1671  153.5996 H   0  0  0  0  0  0  0  0  0  0  0  0
  148.4116  136.8373  153.4543 H   0  0  0  0  0  0  0  0  0  0  0  0
  1  2  1  0  0  0  0
  1 21  1  0  0  0  0
  1 22  1  0  0  0  0
  1 23  1  0  0  0  0
  2  3  1  0  0  0  0
  2 24  1  0  0  0  0
  2 25  1  0  0  0  0
  3  4  1  0  0  0  0
  3  5  1  0  0  0  0
  3 15  1  0  0  0  0
  4 26  1  0  0  0  0
  4 27  1  0  0  0  0
  4 28  1  0  0  0  0
  5  6  1  0  0  0  0
  5 29  1  0  0  0  0
  5 30  1  0  0  0  0
  6  7  1  0  0  0  0
  6 31  1  0  0  0  0
  7  8  2  0  0  0  0
  7  9  1  0  0  0  0
  9 10  1  0  0  0  0
 10 14  1  0  0  0  0
 10 11  2  0  0  0  0
 11 12  1  0  0  0  0
 12 13  2  0  0  0  0
 12 32  1  0  0  0  0
 13 14  1  0  0  0  0
 13 33  1  0  0  0  0
 15 20  1  0  0  0  0
 15 16  1  0  0  0  0
 15 42  1  0  0  0  0
 16 17  1  0  0  0  0
 16 34  1  0  0  0  0
 16 35  1  0  0  0  0
 17 18  1  0  0  0  0
 17 36  1  0  0  0  0
 17 37  1  0  0  0  0
 18 19  1  0  0  0  0
 19 20  1  0  0  0  0
 19 38  1  0  0  0  0
 19 39  1  0  0  0  0
 20 40  1  0  0  0  0
 20 41  1  0  0  0  0
M  CHG  1   9  -1
M  CHG  1  15   1
M  END
> <s_m_source_file>
AV-unprocessed.smi

> <i_m_source_file_index>
1995

> <i_lp_mmshare_version>
43012

> <i_f3d_flags>
0

> <s_epik_input>
W0NIMl0xW0NIMl1PW0NIMl1bQ0gyXU4xW0NAQF0oW0NIM10pKFtDSDJdW0NIM10pW0NIMl1bTkhdQyg9TylbTkhdYzJuW2NIXVtjSF1zMg==

> <s_epik_cmdline>
J2VwaWtfcHl0aG9uJywgJy1waCcsICc3LjAnLCAnLXRuJywgJzgnLCAnLW1hJywgJzIwMCcsICctbWV0YWxfYmluZGluZycsICctaW1hZScsICc8aW5maWxlLm1hZT4nLCAnLW9tYWUnLCAnPG91dGZpbGUubWFlPic=

> <r_lp_tautomer_probability>
0.999

> <r_epik_Ionization_Penalty>
8.09417

> <r_epik_Ionization_Penalty_Charging>
6.70334

> <r_epik_Ionization_Penalty_Neutral>
1.39083

> <r_epik_State_Penalty>
6.86521

> <r_epik_Charging_Adjusted_Penalty>
13.5685

> <i_epik_Tot_Q>
0

> <i_epik_Tot_abs_Q>
2

> <r_epik_Metal_State_Penalty>
2.79608

> <b_epik_Metal_Only>
1

> <s_lp_Force_Field>
OPLS_2005

> <r_lp_Energy>
20.9753

> <b_lp_Chiralities_Consistent>
1

> <s_lp_Variant>
AV-unprocessed.smi:1995-8

> <Gold.Version>
5.8.1

> <Gold.Id.Protein>
6NUR|6NUR_protein|mol2

> <Gold.PLP.Fitness>
41.0156

> <Gold.PLP.PLP>
-28.4465

> <Gold.PLP.part.hbond>
-4.5291

> <Gold.PLP.part.metal>
0.0000

> <Gold.PLP.part.buried>
-4.8854

> <Gold.PLP.part.nonpolar>
-20.2653

> <Gold.PLP.part.repulsive>
0.1678

> <Gold.PLP.ligand.clash>
0.0000

> <Gold.PLP.ligand.torsion>
1.3925

> <Gold.PLP.Chemscore.Hbond>
5.0603

> <Gold.PLP.Chemscore.CHOScore>
0.0000

> <Gold.PLP.Chemscore.Metal>
0.0000

> <Gold.Chemscore.Hbonds>
donor molecule, donor type, donor heavy atom, donor atom, acceptor molecule, acceptor atom, score
      L1  H    15    42       P1  7948  2.00
      P1  H  6896  6907       L1     9  2.00
      P1  H  6931  6943       L1    11  1.00

> <Gold.PLP.Chemscore.Internal.Correction>
0.1732

> <Gold.Rescore>
     Score         DG    S(hbond)    S(metal)    S(lipo)     H(rot)  DE(clash)    DE(int)     intcor
     13.87     -16.95       2.84        0.00      55.21       1.75       0.23       2.85       ----

> <Gold.Chemscore.Fitness>
13.8725

> <Gold.Chemscore.DG>
-16.9496

> <Gold.Chemscore.ZeroCoef>
-5.4800

> <Gold.Chemscore.Hbond>
2.8431

> <Gold.Chemscore.Metal>
0.0000

> <Gold.Chemscore.Lipo>
55.2082

> <Gold.Chemscore.Internal_Hbond>
0.0000

> <Gold.Chemscore.DEClash>
0.2271

> <Gold.Chemscore.DEInternal>
2.8499

> <Gold.Chemscore.Rot>
1.7523

> <Gold.Chemscore.Internal.Correction>
   9.000000E+99

> <Gold.Chemscore.Hbonds>
donor molecule, donor type, donor heavy atom, donor atom, acceptor molecule, acceptor atom, score
      L1  H    15    42       P1  7948  1.00
      P1  H  6896  6907       L1     9  0.58
      P1  H  6931  6943       L1    11  0.26

> <Gold.Chemscore.Hbond.Weighted>
-9.4961

> <Gold.Chemscore.Metal.Weighted>
-0.0000

> <Gold.Chemscore.Lipo.Weighted>
-6.4594

> <Gold.Chemscore.Internal_Hbond.Weighted>
0.0000

> <Gold.Chemscore.DEClash.Weighted>
0.2271

> <Gold.Chemscore.DEInternal.Weighted>
2.8499

> <Gold.Chemscore.Rot.Weighted>
4.4858

> <Gold.Chemscore.Internal.Correction.Weighted>
   9.000000E+99

> <Gold.Protein.RotatedTorsions>
[ 6907 6896 6895 6894 ] final  -61.72 input  -60.11 | X-H torsion
[ 7974 7965 7964 7962 ] final  -86.13 input  175.53 | X-H torsion
[ 8008 7997 7996 7995 ] final    6.91 input   59.86 | X-H torsion
[ 10167 10162 10161 10158 ] final  -56.66 input  -65.29 | X-H torsion
[ 10718 10713 10712 10709 ] final   98.97 input   66.30 | X-H torsion
[ 10763 10752 10751 10750 ] final   69.30 input  -60.55 | X-H torsion
[ 11005 11000 10999 10996 ] final  -37.21 input  -57.11 | X-H torsion

> <Gold.Protein.ActiveResidues>
 VAL166  LYS551  ARG553  GLY616  TRP617  ASP618  TYR619  PRO620  LYS621  CYS622 
 ASP623  PHE694  ASN695  SER759  ASP760  ASP761  ALA762  ILE779  LEU786  VAL792 
 PHE793  MET794  SER795  GLU796  ALA797  LYS798  CYS799  TRP800  GLU811  SER814 

> <Gold.Protein.RotatedAtoms>
  150.7765  134.6667  159.6368 H   0  0  0  0  0  0  0  0  0  0  0  0  # atno 6907 bound_to 6896
  152.3836  134.6548  160.0142 H   0  0  0  0  0  0  0  0  0  0  0  0  # atno 6908 bound_to 6896
  151.6870  133.3275  159.3270 H   0  0  0  0  0  0  0  0  0  0  0  0  # atno 6909 bound_to 6896
  145.4840  140.9556  143.1849 H   0  0  0  0  0  0  0  0  0  0  0  0  # atno 7974 bound_to 7965
  154.7470  140.2760  155.6324 H   0  0  0  0  0  0  0  0  0  0  0  0  # atno 8008 bound_to 7997
  156.2887  140.2686  156.2140 H   0  0  0  0  0  0  0  0  0  0  0  0  # atno 8009 bound_to 7997
  155.0185  140.0371  157.2417 H   0  0  0  0  0  0  0  0  0  0  0  0  # atno 8010 bound_to 7997
  140.6304  143.2457  151.5255 H   0  0  0  0  0  0  0  0  0  0  0  0  # atno 10167 bound_to 10162
  157.6885  131.0656  150.4878 H   0  0  0  0  0  0  0  0  0  0  0  0  # atno 10718 bound_to 10713
  153.0280  135.5215  154.7268 H   0  0  0  0  0  0  0  0  0  0  0  0  # atno 10763 bound_to 10752
  154.6307  135.2900  155.0222 H   0  0  0  0  0  0  0  0  0  0  0  0  # atno 10764 bound_to 10752
  154.1175  135.6612  153.4949 H   0  0  0  0  0  0  0  0  0  0  0  0  # atno 10765 bound_to 10752
  140.9934  133.6993  156.1891 H   0  0  0  0  0  0  0  0  0  0  0  0  # atno 11005 bound_to 11000
  144.7872  139.6402  143.7129 LP  0  0  0  0  0  0  0  0  0  0  0  0  # atno 17320 bound_to 7965
  146.2324  139.5839  142.9546 LP  0  0  0  0  0  0  0  0  0  0  0  0  # atno 17321 bound_to 7965
  139.5519  144.2374  152.1545 LP  0  0  0  0  0  0  0  0  0  0  0  0  # atno 17342 bound_to 10162
  140.1616  144.5020  150.6629 LP  0  0  0  0  0  0  0  0  0  0  0  0  # atno 17343 bound_to 10162
  156.5206  130.4161  149.6253 LP  0  0  0  0  0  0  0  0  0  0  0  0  # atno 17370 bound_to 10713
  156.3158  130.7253  151.2155 LP  0  0  0  0  0  0  0  0  0  0  0  0  # atno 17371 bound_to 10713
  140.7004  134.4570  157.5586 LP  0  0  0  0  0  0  0  0  0  0  0  0  # atno 17394 bound_to 11000
  139.9003  134.8572  156.1925 LP  0  0  0  0  0  0  0  0  0  0  0  0  # atno 17395 bound_to 11000

$$$$
