#       Name:                AV-unprocessed.smi:2706
#       Creating user name   scv26
#       Creation time:       Fri Mar 27 14:49:19 2020


#       File generated by GOLD software.
#

@<TRIPOS>MOLECULE
AV-unprocessed.smi:2706
    46    49     1
SMALL
NO_CHARGES


@<TRIPOS>ATOM
      1 ****        -2.0813  -0.6070  -2.0477 C.3            1 S1                 0.0000
      2 ****        -1.2262  -0.7799  -3.2177 N.pl3          1 S1                 0.0000
      3 ****        -1.7870  -1.6360  -4.2567 C.3            1 S1                 0.0000
      4 ****         0.0471  -0.2204  -3.3385 C.2            1 S1                 0.0000
      5 ****         0.7911  -0.4155  -4.4504 C.2            1 S1                 0.0000
      6 ****         2.1070   0.1800  -4.5590 C.2            1 S1                 0.0000
      7 ****         2.6199   0.9267  -3.5616 C.2            1 S1                 0.0000
      8 ****         1.8694   1.1513  -2.3404 C.2            1 S1                 0.0000
      9 ****         2.3726   1.8845  -1.3873 N.2            1 S1                 0.0000
     10 ****         1.7601   2.0520  -0.1454 C.2            1 S1                 0.0000
     11 ****         1.7430   3.1322   0.4437 O.2            1 S1                 0.0000
     12 ****         1.2802   0.9324   0.4350 N.am           1 S1                 0.0000
     13 ****         0.6412   0.8563   1.7086 C.3            1 S1                 0.0000
     14 ****         1.0021  -0.3164   2.5961 C.3            1 S1                 0.0000
     15 ****         0.6356  -0.5021   4.0667 C.3            1 S1                 0.0000
     16 ****         0.0045   0.7783   4.6529 C.3            1 S1                 0.0000
     17 ****        -1.3721   0.8222   3.9526 C.3            1 S1                 0.0000
     18 ****        -1.3335  -0.4380   3.0638 C.3            1 S1                 0.0000
     19 ****        -0.5877  -1.4087   3.9744 C.3            1 S1                 0.0000
     20 ****        -0.3511  -0.2711   1.9069 C.3            1 S1                 0.0000
     21 ****         0.5913   0.5606  -2.3148 N.pl3          1 S1                 0.0000
     22 ****        -2.4345   0.4228  -1.9869 H              1 S1                 0.0000
     23 ****        -1.5309  -0.8374  -1.1352 H              1 S1                 0.0000
     24 ****        -2.9533  -1.2609  -2.0746 H              1 S1                 0.0000
     25 ****        -1.3835  -2.6452  -4.1710 H              1 S1                 0.0000
     26 ****        -1.5449  -1.2535  -5.2479 H              1 S1                 0.0000
     27 ****        -2.8739  -1.6954  -4.1919 H              1 S1                 0.0000
     28 ****         0.4316  -1.0120  -5.2754 H              1 S1                 0.0000
     29 ****         2.6851   0.0256  -5.4580 H              1 S1                 0.0000
     30 ****         3.6057   1.3464  -3.7019 H              1 S1                 0.0000
     31 ****         1.3755   0.0653  -0.0738 H              1 S1                 0.0000
     32 ****         0.4190   1.8062   2.1885 H              1 S1                 0.0000
     33 ****         1.7050  -1.0503   2.2050 H              1 S1                 0.0000
     34 ****         1.4632  -0.9038   4.6519 H              1 S1                 0.0000
     35 ****        -0.1208   0.6871   5.7326 H              1 S1                 0.0000
     36 ****         0.6082   1.6671   4.4674 H              1 S1                 0.0000
     37 ****        -2.1748   0.7510   4.6876 H              1 S1                 0.0000
     38 ****        -1.5332   1.7355   3.3792 H              1 S1                 0.0000
     39 ****        -2.3127  -0.7807   2.7282 H              1 S1                 0.0000
     40 ****        -0.3782  -2.3690   3.4998 H              1 S1                 0.0000
     41 ****        -1.0812  -1.5817   4.9327 H              1 S1                 0.0000
     42 ****        -0.4829  -0.9819   1.0931 H              1 S1                 0.0000
     43 ****        -0.0064   0.6913  -1.5116 H              1 S1                 0.0000
     44 ****         3.2415   2.3503  -1.5549 LP             1 S1                 0.0000
     45 ****         2.1795   3.9327   0.0330 LP             1 S1                 0.0000
     46 ****         1.2927   3.2096   1.3332 LP             1 S1                 0.0000
@<TRIPOS>BOND
    1    1    2 1     
    2    1   22 1     
    3    1   23 1     
    4    1   24 1     
    5    2    3 1     
    6    2    4 1     
    7    3   25 1     
    8    3   26 1     
    9    3   27 1     
   10    4   21 1     
   11    4    5 2     
   12    5    6 1     
   13    5   28 1     
   14    6    7 2     
   15    6   29 1     
   16    7    8 1     
   17    7   30 1     
   18    8    9 2     
   19    8   21 1     
   20    9   10 1     
   21   10   11 2     
   22   10   12 am    
   23   12   13 1     
   24   12   31 1     
   25   13   20 1     
   26   13   14 1     
   27   13   32 1     
   28   14   20 1     
   29   14   15 1     
   30   14   33 1     
   31   15   19 1     
   32   15   16 1     
   33   15   34 1     
   34   16   17 1     
   35   16   35 1     
   36   16   36 1     
   37   17   18 1     
   38   17   37 1     
   39   17   38 1     
   40   18   19 1     
   41   18   20 1     
   42   18   39 1     
   43   19   40 1     
   44   19   41 1     
   45   20   42 1     
   46   21   43 1     
   47    9   44 1     
   48   11   45 1     
   49   11   46 1     
@<TRIPOS>SUBSTRUCTURE
      1 S1             1
@<TRIPOS>SET
LONE_PAIRS      STATIC     ATOMS    <user>   **** ""
3 44 45 46
DONOR_HYDROGENS      STATIC     ATOMS    <user>   **** ""
2 31 43
ATOM$BLUE        STATIC     ATOMS    COLORGROUP SYSTEM
3 44 45 46
ATOM$RED        STATIC     ATOMS    COLORGROUP SYSTEM
2 31 43
