AV-unprocessed.smi:1703|AV-procd|sdf|6854|dock3
  -GOLD-   22720 8 33D 1   1.00000     0.00000
 Structure written by MMmdl.
 48 50  0  0  0  0  0  0  0  0  1 V2000
  151.2098  144.8621  158.5168 C   0  0  0  0  0  0  0  0  0  0  0  0
  151.9267  143.5325  158.2596 C   0  0  2  0  0  0  0  0  0  0  0  0
  150.9484  142.4078  157.8713 C   0  0  0  0  0  0  0  0  0  0  0  0
  151.6245  141.1267  157.7002 N   0  0  0  0  0  0  0  0  0  0  0  0
  150.6720  140.0825  157.3172 C   0  0  0  0  0  0  0  0  0  0  0  0
  150.4923  139.8711  155.8009 C   0  0  2  0  0  0  0  0  0  0  0  0
  151.7424  140.0631  155.1688 O   0  0  0  0  0  0  0  0  0  0  0  0
  149.4643  140.8548  155.2088 C   0  0  0  0  0  0  0  0  0  0  0  0
  148.0910  140.4072  155.4020 N   0  0  0  0  0  0  0  0  0  0  0  0
  147.3615  139.5594  154.6331 C   0  0  0  0  0  0  0  0  0  0  0  0
  147.9323  138.9387  153.3897 C   0  0  0  0  0  0  0  0  0  0  0  0
  147.2024  139.2335  152.2162 O   0  0  0  0  0  0  0  0  0  0  0  0
  146.1170  139.3241  155.0569 N   0  0  0  0  0  0  0  0  0  0  0  0
  146.0319  140.0922  156.2013 C   0  0  0  0  0  0  0  0  0  0  0  0
  144.9640  140.2745  157.1090 C   0  0  0  0  0  0  0  0  0  0  0  0
  145.1133  141.1240  158.2250 C   0  0  0  0  0  0  0  0  0  0  0  0
  146.3297  141.8009  158.4495 C   0  0  0  0  0  0  0  0  0  0  0  0
  147.4061  141.6329  157.5572 C   0  0  0  0  0  0  0  0  0  0  0  0
  147.2513  140.7843  156.4448 C   0  0  0  0  0  0  0  0  0  0  0  0
  152.3525  140.8107  158.9276 C   0  0  0  0  0  0  0  0  0  0  0  0
  153.3327  141.9327  159.3212 C   0  0  2  0  0  0  0  0  0  0  0  0
  154.0386  141.6448  160.6503 C   0  0  0  0  0  0  0  0  0  0  0  0
  152.6156  143.1572  159.4491 O   0  0  0  0  0  0  0  0  0  0  0  0
  150.6726  145.1964  157.6288 H   0  0  0  0  0  0  0  0  0  0  0  0
  151.9214  145.6421  158.7881 H   0  0  0  0  0  0  0  0  0  0  0  0
  150.4893  144.7712  159.3302 H   0  0  0  0  0  0  0  0  0  0  0  0
  152.6545  143.6759  157.4590 H   0  0  0  0  0  0  0  0  0  0  0  0
  150.1764  142.3170  158.6374 H   0  0  0  0  0  0  0  0  0  0  0  0
  150.4379  142.6800  156.9466 H   0  0  0  0  0  0  0  0  0  0  0  0
  150.9749  139.1400  157.7762 H   0  0  0  0  0  0  0  0  0  0  0  0
  149.6941  140.3158  157.7416 H   0  0  0  0  0  0  0  0  0  0  0  0
  150.1545  138.8570  155.5925 H   0  0  0  0  0  0  0  0  0  0  0  0
  152.3014  140.5459  155.7588 H   0  0  0  0  0  0  0  0  0  0  0  0
  149.5676  141.8294  155.6873 H   0  0  0  0  0  0  0  0  0  0  0  0
  149.6549  141.0193  154.1483 H   0  0  0  0  0  0  0  0  0  0  0  0
  148.9564  139.2882  153.2571 H   0  0  0  0  0  0  0  0  0  0  0  0
  147.9677  137.8559  153.5081 H   0  0  0  0  0  0  0  0  0  0  0  0
  147.8168  139.4570  151.5337 H   0  0  0  0  0  0  0  0  0  0  0  0
  144.0285  139.7603  156.9456 H   0  0  0  0  0  0  0  0  0  0  0  0
  144.2905  141.2566  158.9120 H   0  0  0  0  0  0  0  0  0  0  0  0
  146.4360  142.4495  159.3069 H   0  0  0  0  0  0  0  0  0  0  0  0
  148.3393  142.1492  157.7258 H   0  0  0  0  0  0  0  0  0  0  0  0
  151.6464  140.6407  159.7421 H   0  0  0  0  0  0  0  0  0  0  0  0
  152.9186  139.8882  158.8069 H   0  0  0  0  0  0  0  0  0  0  0  0
  154.0884  142.0461  158.5419 H   0  0  0  0  0  0  0  0  0  0  0  0
  154.6107  140.7181  160.5981 H   0  0  0  0  0  0  0  0  0  0  0  0
  153.3215  141.5508  161.4662 H   0  0  0  0  0  0  0  0  0  0  0  0
  154.7303  142.4481  160.9054 H   0  0  0  0  0  0  0  0  0  0  0  0
  1  2  1  0  0  0  0
  1 24  1  0  0  0  0
  1 25  1  0  0  0  0
  1 26  1  0  0  0  0
  2 23  1  0  0  0  0
  2  3  1  0  0  0  0
  2 27  1  0  0  0  0
  3  4  1  0  0  0  0
  3 28  1  0  0  0  0
  3 29  1  0  0  0  0
  4  5  1  0  0  0  0
  4 20  1  0  0  0  0
  5  6  1  0  0  0  0
  5 30  1  0  0  0  0
  5 31  1  0  0  0  0
  6  7  1  0  0  0  0
  6  8  1  0  0  0  0
  6 32  1  0  0  0  0
  7 33  1  0  0  0  0
  8  9  1  0  0  0  0
  8 34  1  0  0  0  0
  8 35  1  0  0  0  0
  9 19  1  0  0  0  0
  9 10  1  0  0  0  0
 10 11  1  0  0  0  0
 10 13  2  0  0  0  0
 11 12  1  0  0  0  0
 11 36  1  0  0  0  0
 11 37  1  0  0  0  0
 12 38  1  0  0  0  0
 13 14  1  0  0  0  0
 14 19  2  0  0  0  0
 14 15  1  0  0  0  0
 15 16  2  0  0  0  0
 15 39  1  0  0  0  0
 16 17  1  0  0  0  0
 16 40  1  0  0  0  0
 17 18  2  0  0  0  0
 17 41  1  0  0  0  0
 18 19  1  0  0  0  0
 18 42  1  0  0  0  0
 20 21  1  0  0  0  0
 20 43  1  0  0  0  0
 20 44  1  0  0  0  0
 21 22  1  0  0  0  0
 21 23  1  0  0  0  0
 21 45  1  0  0  0  0
 22 46  1  0  0  0  0
 22 47  1  0  0  0  0
 22 48  1  0  0  0  0
M  END
> <s_m_source_file>
AV-unprocessed.smi

> <i_m_source_file_index>
1703

> <i_lp_mmshare_version>
43012

> <i_f3d_flags>
0

> <s_epik_input>
W0NIM11bQ0BASF0xW0NIMl1OKFtDSDJdW0NASF0oTzEpW0NIM10pW0NIMl1bQ0BIXShbT0hdKVtDSDJdbihjKG4yKVtDSDJdW09IXSljKGMyMylbY0hdW2NIXVtjSF1bY0hdMw==

> <s_epik_cmdline>
J2VwaWtfcHl0aG9uJywgJy1waCcsICc3LjAnLCAnLXRuJywgJzgnLCAnLW1hJywgJzIwMCcsICctbWV0YWxfYmluZGluZycsICctaW1hZScsICc8aW5maWxlLm1hZT4nLCAnLW9tYWUnLCAnPG91dGZpbGUubWFlPic=

> <r_epik_Ionization_Penalty>
0.307685

> <r_epik_Ionization_Penalty_Charging>
0

> <r_epik_Ionization_Penalty_Neutral>
0.307685

> <r_epik_State_Penalty>
0.277856

> <r_epik_Charging_Adjusted_Penalty>
0.277856

> <i_epik_Tot_Q>
0

> <i_epik_Tot_abs_Q>
0

> <r_epik_Metal_State_Penalty>
0.238959

> <b_epik_Metal_Only>
0

> <s_lp_Force_Field>
OPLS_2005

> <r_lp_Energy>
28.9256

> <b_lp_Chiralities_Consistent>
1

> <s_lp_Variant>
AV-unprocessed.smi:1703-2

> <Gold.Version>
5.8.1

> <Gold.Id.Protein>
6NUR|6NUR_protein|mol2

> <Gold.PLP.Fitness>
41.2323

> <Gold.PLP.PLP>
-38.0816

> <Gold.PLP.part.hbond>
-2.2210

> <Gold.PLP.part.metal>
0.0000

> <Gold.PLP.part.buried>
-6.4164

> <Gold.PLP.part.nonpolar>
-29.7807

> <Gold.PLP.part.repulsive>
0.1071

> <Gold.PLP.ligand.clash>
0.0000

> <Gold.PLP.ligand.torsion>
1.2778

> <Gold.PLP.Chemscore.Hbond>
1.8880

> <Gold.PLP.Chemscore.CHOScore>
0.0000

> <Gold.PLP.Chemscore.Metal>
0.0000

> <Gold.Chemscore.Hbonds>
donor molecule, donor type, donor heavy atom, donor atom, acceptor molecule, acceptor atom, score
      L1  H    12    38       P1  7957  0.94
      P1  H  7989  7998       L1     7  0.94

> <Gold.PLP.Chemscore.Internal.Correction>
0.0422

> <Gold.Rescore>
     Score         DG    S(hbond)    S(metal)    S(lipo)     H(rot)  DE(clash)    DE(int)     intcor
     13.88     -15.31       1.77        0.00      96.56       2.88       0.08       1.36       ----

> <Gold.Chemscore.Fitness>
13.8776

> <Gold.Chemscore.DG>
-15.3096

> <Gold.Chemscore.ZeroCoef>
-5.4800

> <Gold.Chemscore.Hbond>
1.7663

> <Gold.Chemscore.Metal>
0.0000

> <Gold.Chemscore.Lipo>
96.5576

> <Gold.Chemscore.Internal_Hbond>
0.0000

> <Gold.Chemscore.DEClash>
0.0764

> <Gold.Chemscore.DEInternal>
1.3556

> <Gold.Chemscore.Rot>
2.8778

> <Gold.Chemscore.Internal.Correction>
   9.000000E+99

> <Gold.Chemscore.Hbonds>
donor molecule, donor type, donor heavy atom, donor atom, acceptor molecule, acceptor atom, score
      L1  H    12    38       P1  7957  0.89
      P1  H  7989  7998       L1     7  0.65

> <Gold.Chemscore.Hbond.Weighted>
-5.8994

> <Gold.Chemscore.Metal.Weighted>
-0.0000

> <Gold.Chemscore.Lipo.Weighted>
-11.2972

> <Gold.Chemscore.Internal_Hbond.Weighted>
0.0000

> <Gold.Chemscore.DEClash.Weighted>
0.0764

> <Gold.Chemscore.DEInternal.Weighted>
1.3556

> <Gold.Chemscore.Rot.Weighted>
7.3671

> <Gold.Chemscore.Internal.Correction.Weighted>
   9.000000E+99

> <Gold.Protein.RotatedTorsions>
[ 6907 6896 6895 6894 ] final   46.16 input  -60.11 | X-H torsion
[ 7974 7965 7964 7962 ] final  128.06 input  175.53 | X-H torsion
[ 8008 7997 7996 7995 ] final -112.85 input   59.86 | X-H torsion
[ 10167 10162 10161 10158 ] final   84.98 input  -65.29 | X-H torsion
[ 10718 10713 10712 10709 ] final   41.01 input   66.30 | X-H torsion
[ 10763 10752 10751 10750 ] final  131.69 input  -60.55 | X-H torsion
[ 11005 11000 10999 10996 ] final   86.78 input  -57.11 | X-H torsion

> <Gold.Protein.ActiveResidues>
 VAL166  LYS551  ARG553  GLY616  TRP617  ASP618  TYR619  PRO620  LYS621  CYS622 
 ASP623  PHE694  ASN695  SER759  ASP760  ASP761  ALA762  ILE779  LEU786  VAL792 
 PHE793  MET794  SER795  GLU796  ALA797  LYS798  CYS799  TRP800  GLU811  SER814 

> <Gold.Protein.RotatedAtoms>
  152.2531  134.8112  160.0442 H   0  0  0  0  0  0  0  0  0  0  0  0  # atno 6907 bound_to 6896
  151.8785  133.3485  159.3766 H   0  0  0  0  0  0  0  0  0  0  0  0  # atno 6908 bound_to 6896
  150.7090  134.4969  159.5586 H   0  0  0  0  0  0  0  0  0  0  0  0  # atno 6909 bound_to 6896
  145.0437  139.3941  143.5089 H   0  0  0  0  0  0  0  0  0  0  0  0  # atno 7974 bound_to 7965
  155.0116  140.0393  157.2401 H   0  0  0  0  0  0  0  0  0  0  0  0  # atno 8008 bound_to 7997
  154.7455  140.2757  155.6313 H   0  0  0  0  0  0  0  0  0  0  0  0  # atno 8009 bound_to 7997
  156.2874  140.2657  156.2195 H   0  0  0  0  0  0  0  0  0  0  0  0  # atno 8010 bound_to 7997
  139.9025  144.6321  150.8622 H   0  0  0  0  0  0  0  0  0  0  0  0  # atno 10167 bound_to 10162
  157.3887  130.7794  149.7252 H   0  0  0  0  0  0  0  0  0  0  0  0  # atno 10718 bound_to 10713
  153.7786  135.3172  155.3362 H   0  0  0  0  0  0  0  0  0  0  0  0  # atno 10763 bound_to 10752
  154.8170  135.4629  154.0674 H   0  0  0  0  0  0  0  0  0  0  0  0  # atno 10764 bound_to 10752
  153.1955  135.6915  153.8382 H   0  0  0  0  0  0  0  0  0  0  0  0  # atno 10765 bound_to 10752
  139.8936  134.8378  156.2768 H   0  0  0  0  0  0  0  0  0  0  0  0  # atno 11005 bound_to 11000
  146.3512  140.0051  142.8672 LP  0  0  0  0  0  0  0  0  0  0  0  0  # atno 17320 bound_to 7965
  145.1615  140.9675  143.4374 LP  0  0  0  0  0  0  0  0  0  0  0  0  # atno 17321 bound_to 7965
  140.7703  143.3426  151.2177 LP  0  0  0  0  0  0  0  0  0  0  0  0  # atno 17342 bound_to 10162
  139.7013  143.9529  152.2906 LP  0  0  0  0  0  0  0  0  0  0  0  0  # atno 17343 bound_to 10162
  155.9793  130.4042  150.3596 LP  0  0  0  0  0  0  0  0  0  0  0  0  # atno 17370 bound_to 10713
  157.1709  131.0368  151.2796 LP  0  0  0  0  0  0  0  0  0  0  0  0  # atno 17371 bound_to 10713
  141.0065  133.7120  156.1043 LP  0  0  0  0  0  0  0  0  0  0  0  0  # atno 17394 bound_to 11000
  140.7426  134.4133  157.5552 LP  0  0  0  0  0  0  0  0  0  0  0  0  # atno 17395 bound_to 11000

$$$$
