#       Name:                AV-unprocessed.smi:175
#       Creating user name   scv26
#       Creation time:       Thu Mar 26 19:20:41 2020


#       File generated by GOLD software.
#

@<TRIPOS>MOLECULE
AV-unprocessed.smi:175
    56    59     1
SMALL
NO_CHARGES


@<TRIPOS>ATOM
      1 ****        -6.0881  -0.4191   0.2910 C.3            1 S1                 0.0000
      2 ****        -5.3676   0.6895   1.0741 C.3            1 S1                 0.0000
      3 ****        -5.6547   1.9269   0.4264 O.3            1 S1                 0.0000
      4 ****        -4.5467   2.7968   0.5768 C.3            1 S1                 0.0000
      5 ****        -3.3642   1.8557   0.4077 C.3            1 S1                 0.0000
      6 ****        -3.8169   0.6000   1.1473 C.3            1 S1                 0.0000
      7 ****        -3.4430   0.7396   2.5083 O.3            1 S1                 0.0000
      8 ****        -3.1740  -0.7054   0.6098 C.3            1 S1                 0.0000
      9 ****        -1.7192  -0.6904   0.6453 N.pl3          1 S1                 0.0000
     10 ****        -0.9187  -1.0170   1.7152 C.2            1 S1                 0.0000
     11 ****         0.3641  -0.9238   1.4971 N.2            1 S1                 0.0000
     12 ****         0.4622  -0.5081   0.1732 C.ar           1 S1                 0.0000
     13 ****         1.5452  -0.2129  -0.7081 C.ar           1 S1                 0.0000
     14 ****         2.8594  -0.2962  -0.3750 N.pl3          1 S1                 0.0000
     15 ****         3.3473  -0.7879   0.9053 C.3            1 S1                 0.0000
     16 ****         4.8479  -0.7841   0.6769 C.2            1 S1                 0.0000
     17 ****         5.6592  -1.1116   1.5413 O.2            1 S1                 0.0000
     18 ****         5.1315  -0.3778  -0.5657 N.am           1 S1                 0.0000
     19 ****         6.4597  -0.2348  -1.1580 C.3            1 S1                 0.0000
     20 ****         7.0272  -1.5754  -1.6585 C.3            1 S1                 0.0000
     21 ****         8.2085  -1.3576  -2.2348 F              1 S1                 0.0000
     22 ****         7.2002  -2.4320  -0.6525 F              1 S1                 0.0000
     23 ****         6.2089  -2.1180  -2.5601 F              1 S1                 0.0000
     24 ****         3.9380  -0.0369  -1.3219 C.3            1 S1                 0.0000
     25 ****         1.2287   0.1821  -1.9697 N.ar           1 S1                 0.0000
     26 ****        -0.0470   0.2771  -2.3533 C.ar           1 S1                 0.0000
     27 ****        -1.1497   0.0307  -1.6458 N.ar           1 S1                 0.0000
     28 ****        -0.8450  -0.3597  -0.3755 C.ar           1 S1                 0.0000
     29 ****        -5.9198  -1.3986   0.7391 H              1 S1                 0.0000
     30 ****        -5.7575  -0.4558  -0.7473 H              1 S1                 0.0000
     31 ****        -7.1643  -0.2459   0.2839 H              1 S1                 0.0000
     32 ****        -5.7946   0.7336   2.0780 H              1 S1                 0.0000
     33 ****        -4.5589   3.5972  -0.1631 H              1 S1                 0.0000
     34 ****        -4.5579   3.2428   1.5726 H              1 S1                 0.0000
     35 ****        -3.2403   1.6420  -0.6545 H              1 S1                 0.0000
     36 ****        -2.4250   2.2719   0.7753 H              1 S1                 0.0000
     37 ****        -3.8293   1.5341   2.8442 H              1 S1                 0.0000
     38 ****        -3.5182  -1.5648   1.1868 H              1 S1                 0.0000
     39 ****        -3.4772  -0.8853  -0.4217 H              1 S1                 0.0000
     40 ****        -1.3197  -1.3233   2.6706 H              1 S1                 0.0000
     41 ****         3.0775  -0.1191   1.7234 H              1 S1                 0.0000
     42 ****         2.9939  -1.7986   1.1132 H              1 S1                 0.0000
     43 ****         6.4026   0.4704  -1.9880 H              1 S1                 0.0000
     44 ****         7.1384   0.2100  -0.4285 H              1 S1                 0.0000
     45 ****         3.8518  -0.6677  -2.2078 H              1 S1                 0.0000
     46 ****         3.9531   1.0118  -1.6224 H              1 S1                 0.0000
     47 ****        -0.2065   0.5962  -3.3726 H              1 S1                 0.0000
     48 ****        -6.4648   2.3417   0.8408 LP             1 S1                 0.0000
     49 ****        -5.8236   1.7647  -0.5458 LP             1 S1                 0.0000
     50 ****        -2.4470   0.7914   2.5813 LP             1 S1                 0.0000
     51 ****        -3.7752  -0.0450   3.0319 LP             1 S1                 0.0000
     52 ****         1.1093  -1.1094   2.1376 LP             1 S1                 0.0000
     53 ****         5.3393  -1.3975   2.4446 LP             1 S1                 0.0000
     54 ****         6.6387  -1.0920   1.3409 LP             1 S1                 0.0000
     55 ****         1.9581   0.4037  -2.6168 LP             1 S1                 0.0000
     56 ****        -2.0802   0.1206  -2.0009 LP             1 S1                 0.0000
@<TRIPOS>BOND
    1    1    2 1     
    2    1   29 1     
    3    1   30 1     
    4    1   31 1     
    5    2    6 1     
    6    2    3 1     
    7    2   32 1     
    8    3    4 1     
    9    4    5 1     
   10    4   33 1     
   11    4   34 1     
   12    5    6 1     
   13    5   35 1     
   14    5   36 1     
   15    6    7 1     
   16    6    8 1     
   17    7   37 1     
   18    8    9 1     
   19    8   38 1     
   20    8   39 1     
   21    9   28 1     
   22    9   10 1     
   23   10   11 2     
   24   10   40 1     
   25   11   12 1     
   26   12   28 ar    
   27   12   13 ar    
   28   13   14 1     
   29   13   25 ar    
   30   14   24 1     
   31   14   15 1     
   32   15   16 1     
   33   15   41 1     
   34   15   42 1     
   35   16   17 2     
   36   16   18 am    
   37   18   19 1     
   38   18   24 1     
   39   19   20 1     
   40   19   43 1     
   41   19   44 1     
   42   20   21 1     
   43   20   22 1     
   44   20   23 1     
   45   24   45 1     
   46   24   46 1     
   47   25   26 ar    
   48   26   27 ar    
   49   26   47 1     
   50   27   28 ar    
   51    3   48 1     
   52    3   49 1     
   53    7   50 1     
   54    7   51 1     
   55   11   52 1     
   56   17   53 1     
   57   17   54 1     
   58   25   55 1     
   59   27   56 1     
@<TRIPOS>SUBSTRUCTURE
      1 S1             1
@<TRIPOS>SET
LONE_PAIRS      STATIC     ATOMS    <user>   **** ""
9 48 49 50 51 52 53 54 55 56
DONOR_HYDROGENS      STATIC     ATOMS    <user>   **** ""
1 37
ATOM$BLUE        STATIC     ATOMS    COLORGROUP SYSTEM
9 48 49 50 51 52 53 54 55 56
ATOM$RED        STATIC     ATOMS    COLORGROUP SYSTEM
1 37
