AV-unprocessed.smi:458|AV-procd|sdf|2622|dock7
  -GOLD-   2262023 23D 1   1.00000     0.00000
 Structure written by MMmdl.
 37 39  0  0  0  0  0  0  0  0  2 V2000
  151.9453  137.1449  153.8741 O   0  0  0  0  0  0  0  0  0  0  0  0
  151.1457  137.3438  155.0188 C   0  0  0  0  0  0  0  0  0  0  0  0
  150.1378  138.4279  154.8227 C   0  0  0  0  0  0  0  0  0  0  0  0
  149.3453  138.5836  153.7253 N   0  3  0  0  0  0  0  0  0  0  0  0
  148.5446  139.7156  153.8765 C   0  0  0  0  0  0  0  0  0  0  0  0
  147.5940  140.2758  153.0288 C   0  0  0  0  0  0  0  0  0  0  0  0
  146.9552  141.4485  153.4816 C   0  0  0  0  0  0  0  0  0  0  0  0
  147.2689  142.0185  154.7321 C   0  0  0  0  0  0  0  0  0  0  0  0
  148.2320  141.4393  155.5838 C   0  0  0  0  0  0  0  0  0  0  0  0
  148.8609  140.2793  155.1298 C   0  0  0  0  0  0  0  0  0  0  0  0
  149.8502  139.4518  155.6786 N   0  0  0  0  0  0  0  0  0  0  0  0
  150.4247  139.7747  156.9959 C   0  0  0  0  0  0  0  0  0  0  0  0
  151.7979  140.4675  156.8867 C   0  0  2  0  0  0  0  0  0  0  0  0
  152.7951  139.5246  157.2214 O   0  0  0  0  0  0  0  0  0  0  0  0
  151.8813  141.7263  157.7389 C   0  0  0  0  0  0  0  0  0  0  0  0
  151.0851  142.8464  157.4159 C   0  0  0  0  0  0  0  0  0  0  0  0
  151.1295  144.0041  158.2165 C   0  0  0  0  0  0  0  0  0  0  0  0
  151.9715  144.0493  159.3440 C   0  0  0  0  0  0  0  0  0  0  0  0
  152.0115  145.1610  160.1157 F   0  0  0  0  0  0  0  0  0  0  0  0
  152.7699  142.9364  159.6701 C   0  0  0  0  0  0  0  0  0  0  0  0
  152.7252  141.7779  158.8705 C   0  0  0  0  0  0  0  0  0  0  0  0
  151.3888  136.8638  153.1635 H   0  0  0  0  0  0  0  0  0  0  0  0
  150.6317  136.4129  155.2590 H   0  0  0  0  0  0  0  0  0  0  0  0
  151.7872  137.5812  155.8670 H   0  0  0  0  0  0  0  0  0  0  0  0
  147.3537  139.8419  152.0693 H   0  0  0  0  0  0  0  0  0  0  0  0
  146.2109  141.9207  152.8568 H   0  0  0  0  0  0  0  0  0  0  0  0
  146.7611  142.9195  155.0450 H   0  0  0  0  0  0  0  0  0  0  0  0
  148.4635  141.8914  156.5366 H   0  0  0  0  0  0  0  0  0  0  0  0
  149.7202  140.3757  157.5705 H   0  0  0  0  0  0  0  0  0  0  0  0
  150.5234  138.8342  157.5388 H   0  0  0  0  0  0  0  0  0  0  0  0
  151.9752  140.7417  155.8463 H   0  0  0  0  0  0  0  0  0  0  0  0
  152.3892  138.8129  157.6928 H   0  0  0  0  0  0  0  0  0  0  0  0
  150.4292  142.8169  156.5578 H   0  0  0  0  0  0  0  0  0  0  0  0
  150.5154  144.8568  157.9665 H   0  0  0  0  0  0  0  0  0  0  0  0
  153.4149  142.9699  160.5358 H   0  0  0  0  0  0  0  0  0  0  0  0
  153.3335  140.9253  159.1351 H   0  0  0  0  0  0  0  0  0  0  0  0
  149.3601  137.9615  152.9274 H   0  0  0  0  0  0  0  0  0  0  0  0
  1  2  1  0  0  0  0
  1 22  1  0  0  0  0
  2  3  1  0  0  0  0
  2 23  1  0  0  0  0
  2 24  1  0  0  0  0
  3 11  1  0  0  0  0
  3  4  2  0  0  0  0
  4  5  1  0  0  0  0
  4 37  1  0  0  0  0
  5 10  2  0  0  0  0
  5  6  1  0  0  0  0
  6  7  2  0  0  0  0
  6 25  1  0  0  0  0
  7  8  1  0  0  0  0
  7 26  1  0  0  0  0
  8  9  2  0  0  0  0
  8 27  1  0  0  0  0
  9 10  1  0  0  0  0
  9 28  1  0  0  0  0
 10 11  1  0  0  0  0
 11 12  1  0  0  0  0
 12 13  1  0  0  0  0
 12 29  1  0  0  0  0
 12 30  1  0  0  0  0
 13 14  1  0  0  0  0
 13 15  1  0  0  0  0
 13 31  1  0  0  0  0
 14 32  1  0  0  0  0
 15 21  1  0  0  0  0
 15 16  2  0  0  0  0
 16 17  1  0  0  0  0
 16 33  1  0  0  0  0
 17 18  2  0  0  0  0
 17 34  1  0  0  0  0
 18 19  1  0  0  0  0
 18 20  1  0  0  0  0
 20 21  2  0  0  0  0
 20 35  1  0  0  0  0
 21 36  1  0  0  0  0
M  CHG  1   4   1
M  END
> <s_m_source_file>
AV-unprocessed.smi

> <i_m_source_file_index>
458

> <i_lp_mmshare_version>
43012

> <i_f3d_flags>
0

> <s_epik_input>
W2NIXTFbY0hdW2NIXVtjSF1jKGMxMiluKGMobjIpW0NIMl1bT0hdKVtDSDJdW0NASF0oW09IXSljM1tjSF1bY0hdYyhGKVtjSF1bY0hdMw==

> <s_epik_cmdline>
J2VwaWtfcHl0aG9uJywgJy1waCcsICc3LjAnLCAnLXRuJywgJzgnLCAnLW1hJywgJzIwMCcsICctbWV0YWxfYmluZGluZycsICctaW1hZScsICc8aW5maWxlLm1hZT4nLCAnLW9tYWUnLCAnPG91dGZpbGUubWFlPic=

> <r_epik_Ionization_Penalty>
1.35643

> <r_epik_Ionization_Penalty_Charging>
1.35557

> <r_epik_Ionization_Penalty_Neutral>
0.00085758

> <r_epik_State_Penalty>
1.43401

> <r_epik_Charging_Adjusted_Penalty>
2.78958

> <i_epik_Tot_Q>
1

> <i_epik_Tot_abs_Q>
1

> <r_epik_Metal_State_Penalty>
5.47166

> <b_epik_Metal_Only>
0

> <s_lp_Force_Field>
OPLS_2005

> <r_lp_Energy>
15.2314

> <b_lp_Chiralities_Consistent>
1

> <s_lp_Variant>
AV-unprocessed.smi:458-3

> <Gold.Version>
5.8.1

> <Gold.Id.Protein>
6NUR|6NUR_protein|mol2

> <Gold.PLP.Fitness>
57.6435

> <Gold.PLP.PLP>
-45.0771

> <Gold.PLP.part.hbond>
-5.0000

> <Gold.PLP.part.metal>
0.0000

> <Gold.PLP.part.buried>
-2.3781

> <Gold.PLP.part.nonpolar>
-38.6537

> <Gold.PLP.part.repulsive>
0.0640

> <Gold.PLP.ligand.clash>
0.0000

> <Gold.PLP.ligand.torsion>
1.2326

> <Gold.PLP.Chemscore.Hbond>
5.0000

> <Gold.PLP.Chemscore.CHOScore>
0.0000

> <Gold.PLP.Chemscore.Metal>
0.0000

> <Gold.Chemscore.Hbonds>
donor molecule, donor type, donor heavy atom, donor atom, acceptor molecule, acceptor atom, score
      L1  H     1    22       P1  7949  0.99
      L1  H     4    37       P1  7948  1.98
      P1  H  7997  8009       L1    14  1.00
      P1  H 10752 10764       L1     1  1.00

> <Gold.PLP.Chemscore.Internal.Correction>
0.0317

> <Gold.Rescore>
     Score         DG    S(hbond)    S(metal)    S(lipo)     H(rot)  DE(clash)    DE(int)     intcor
     20.00     -21.89       3.08        0.00     114.19       2.82       0.83       1.06       ----

> <Gold.Chemscore.Fitness>
19.9982

> <Gold.Chemscore.DG>
-21.8919

> <Gold.Chemscore.ZeroCoef>
-5.4800

> <Gold.Chemscore.Hbond>
3.0766

> <Gold.Chemscore.Metal>
0.0000

> <Gold.Chemscore.Lipo>
114.1900

> <Gold.Chemscore.Internal_Hbond>
0.0000

> <Gold.Chemscore.DEClash>
0.8306

> <Gold.Chemscore.DEInternal>
1.0631

> <Gold.Chemscore.Rot>
2.8219

> <Gold.Chemscore.Internal.Correction>
   9.000000E+99

> <Gold.Chemscore.Hbonds>
donor molecule, donor type, donor heavy atom, donor atom, acceptor molecule, acceptor atom, score
      L1  H     1    22       P1  7949  0.77
      L1  H     4    37       P1  7948  0.85
      P1  H  7997  8009       L1    14  0.65
      P1  H 10752 10764       L1     1  0.24

> <Gold.Chemscore.Hbond.Weighted>
-10.2757

> <Gold.Chemscore.Metal.Weighted>
-0.0000

> <Gold.Chemscore.Lipo.Weighted>
-13.3602

> <Gold.Chemscore.Internal_Hbond.Weighted>
0.0000

> <Gold.Chemscore.DEClash.Weighted>
0.8306

> <Gold.Chemscore.DEInternal.Weighted>
1.0631

> <Gold.Chemscore.Rot.Weighted>
7.2240

> <Gold.Chemscore.Internal.Correction.Weighted>
   9.000000E+99

> <Gold.Protein.RotatedTorsions>
[ 6907 6896 6895 6894 ] final   14.32 input  -60.11 | X-H torsion
[ 7974 7965 7964 7962 ] final  -75.78 input  175.53 | X-H torsion
[ 8008 7997 7996 7995 ] final -172.52 input   59.86 | X-H torsion
[ 10167 10162 10161 10158 ] final  100.98 input  -65.29 | X-H torsion
[ 10718 10713 10712 10709 ] final   24.93 input   66.30 | X-H torsion
[ 10763 10752 10751 10750 ] final  -87.11 input  -60.55 | X-H torsion
[ 11005 11000 10999 10996 ] final  130.32 input  -57.11 | X-H torsion

> <Gold.Protein.ActiveResidues>
 VAL166  LYS551  ARG553  GLY616  TRP617  ASP618  TYR619  PRO620  LYS621  CYS622 
 ASP623  PHE694  ASN695  SER759  ASP760  ASP761  ALA762  ILE779  LEU786  VAL792 
 PHE793  MET794  SER795  GLU796  ALA797  LYS798  CYS799  TRP800  GLU811  SER814 

> <Gold.Protein.RotatedAtoms>
  151.8004  135.0710  160.0399 H   0  0  0  0  0  0  0  0  0  0  0  0  # atno 6907 bound_to 6896
  152.3093  133.5732  159.5678 H   0  0  0  0  0  0  0  0  0  0  0  0  # atno 6908 bound_to 6896
  150.7312  134.0092  159.3706 H   0  0  0  0  0  0  0  0  0  0  0  0  # atno 6909 bound_to 6896
  145.6216  140.9361  143.1135 H   0  0  0  0  0  0  0  0  0  0  0  0  # atno 7974 bound_to 7965
  155.9457  140.1117  157.1019 H   0  0  0  0  0  0  0  0  0  0  0  0  # atno 8008 bound_to 7997
  154.4098  140.1210  156.5051 H   0  0  0  0  0  0  0  0  0  0  0  0  # atno 8009 bound_to 7997
  155.6906  140.3472  155.4894 H   0  0  0  0  0  0  0  0  0  0  0  0  # atno 8010 bound_to 7997
  139.7478  144.6993  151.0477 H   0  0  0  0  0  0  0  0  0  0  0  0  # atno 10167 bound_to 10162
  157.1865  130.6826  149.6133 H   0  0  0  0  0  0  0  0  0  0  0  0  # atno 10718 bound_to 10713
  154.6300  135.5425  153.7669 H   0  0  0  0  0  0  0  0  0  0  0  0  # atno 10763 bound_to 10752
  153.0279  135.6433  154.1316 H   0  0  0  0  0  0  0  0  0  0  0  0  # atno 10764 bound_to 10752
  154.1246  135.2918  155.3180 H   0  0  0  0  0  0  0  0  0  0  0  0  # atno 10765 bound_to 10752
  139.9665  134.9589  156.9276 H   0  0  0  0  0  0  0  0  0  0  0  0  # atno 11005 bound_to 11000
  144.7229  139.7971  143.7375 LP  0  0  0  0  0  0  0  0  0  0  0  0  # atno 17320 bound_to 7965
  146.1427  139.4488  143.0099 LP  0  0  0  0  0  0  0  0  0  0  0  0  # atno 17321 bound_to 7965
  140.7794  143.4845  150.9974 LP  0  0  0  0  0  0  0  0  0  0  0  0  # atno 17342 bound_to 10162
  139.8533  143.7409  152.3177 LP  0  0  0  0  0  0  0  0  0  0  0  0  # atno 17343 bound_to 10162
  155.9717  130.4629  150.6162 LP  0  0  0  0  0  0  0  0  0  0  0  0  # atno 17370 bound_to 10713
  157.3902  131.0794  151.1400 LP  0  0  0  0  0  0  0  0  0  0  0  0  # atno 17371 bound_to 10713
  140.5385  134.0743  155.7335 LP  0  0  0  0  0  0  0  0  0  0  0  0  # atno 17394 bound_to 11000
  141.1345  133.9246  157.2464 LP  0  0  0  0  0  0  0  0  0  0  0  0  # atno 17395 bound_to 11000

$$$$
