AV-unprocessed.smi:1983|AV-procd|sdf|8028|dock1
  -GOLD-   2272010223D 1   1.00000     0.00000
 Structure written by MMmdl.
 49 50  0  0  0  0  0  0  0  0  1 V2000
  146.2473  134.0481  153.3161 C   0  0  0  0  0  0  0  0  0  0  0  0
  145.6655  135.1896  152.4639 C   0  0  2  0  0  0  0  0  0  0  0  0
  145.4749  134.7807  150.9929 C   0  0  0  0  0  0  0  0  0  0  0  0
  145.1856  135.9105  150.1971 O   0  0  0  0  0  0  0  0  0  0  0  0
  146.5369  136.3600  152.5252 N   0  0  0  0  0  0  0  0  0  0  0  0
  146.1432  137.6074  152.8187 C   0  0  0  0  0  0  0  0  0  0  0  0
  144.9817  137.9247  153.0744 O   0  0  0  0  0  0  0  0  0  0  0  0
  147.1723  138.4663  152.8112 N   0  0  0  0  0  0  0  0  0  0  0  0
  147.0769  139.8922  153.1121 C   0  0  0  0  0  0  0  0  0  0  0  0
  147.9338  140.3709  154.2785 C   0  0  0  0  0  0  0  0  0  0  0  0
  147.3897  140.9597  155.4411 C   0  0  0  0  0  0  0  0  0  0  0  0
  148.2572  141.3681  156.4720 C   0  0  0  0  0  0  0  0  0  0  0  0
  149.6502  141.1760  156.3198 C   0  0  0  0  0  0  0  0  0  0  0  0
  150.5351  141.5812  157.3418 N   0  0  0  0  0  0  0  0  0  0  0  0
  151.4505  140.5832  157.8903 C   0  0  0  0  0  0  0  0  0  0  0  0
  152.1175  141.1148  159.1722 C   0  0  1  0  0  0  0  0  0  0  0  0
  153.1679  140.1434  159.7201 C   0  0  0  0  0  0  0  0  0  0  0  0
  152.7601  142.3533  158.8826 O   0  0  0  0  0  0  0  0  0  0  0  0
  151.8430  143.3544  158.4490 C   0  0  1  0  0  0  0  0  0  0  0  0
  152.6183  144.6612  158.2517 C   0  0  0  0  0  0  0  0  0  0  0  0
  151.1561  142.8888  157.1507 C   0  0  0  0  0  0  0  0  0  0  0  0
  150.1693  140.5996  155.2077 N   0  0  0  0  0  0  0  0  0  0  0  0
  149.3333  140.2138  154.2209 C   0  0  0  0  0  0  0  0  0  0  0  0
  145.5999  133.1712  153.2947 H   0  0  0  0  0  0  0  0  0  0  0  0
  146.3536  134.3471  154.3593 H   0  0  0  0  0  0  0  0  0  0  0  0
  147.2304  133.7436  152.9554 H   0  0  0  0  0  0  0  0  0  0  0  0
  144.6896  135.4682  152.8668 H   0  0  0  0  0  0  0  0  0  0  0  0
  146.3866  134.3264  150.6028 H   0  0  0  0  0  0  0  0  0  0  0  0
  144.6779  134.0437  150.8887 H   0  0  0  0  0  0  0  0  0  0  0  0
  145.4846  135.7429  149.3165 H   0  0  0  0  0  0  0  0  0  0  0  0
  147.5161  136.2051  152.3348 H   0  0  0  0  0  0  0  0  0  0  0  0
  148.0900  138.1089  152.5897 H   0  0  0  0  0  0  0  0  0  0  0  0
  147.3814  140.4412  152.2210 H   0  0  0  0  0  0  0  0  0  0  0  0
  146.0361  140.1643  153.2970 H   0  0  0  0  0  0  0  0  0  0  0  0
  146.3257  141.0998  155.5575 H   0  0  0  0  0  0  0  0  0  0  0  0
  147.8461  141.8075  157.3686 H   0  0  0  0  0  0  0  0  0  0  0  0
  150.9096  139.6634  158.1168 H   0  0  0  0  0  0  0  0  0  0  0  0
  152.2087  140.3419  157.1437 H   0  0  0  0  0  0  0  0  0  0  0  0
  151.3601  141.2760  159.9417 H   0  0  0  0  0  0  0  0  0  0  0  0
  152.7192  139.1825  159.9731 H   0  0  0  0  0  0  0  0  0  0  0  0
  153.6325  140.5411  160.6227 H   0  0  0  0  0  0  0  0  0  0  0  0
  153.9580  139.9636  158.9904 H   0  0  0  0  0  0  0  0  0  0  0  0
  151.0920  143.5104  159.2255 H   0  0  0  0  0  0  0  0  0  0  0  0
  151.9565  145.4654  157.9295 H   0  0  0  0  0  0  0  0  0  0  0  0
  153.3980  144.5468  157.4982 H   0  0  0  0  0  0  0  0  0  0  0  0
  153.0966  144.9752  159.1800 H   0  0  0  0  0  0  0  0  0  0  0  0
  151.8874  142.8129  156.3447 H   0  0  0  0  0  0  0  0  0  0  0  0
  150.4261  143.6374  156.8454 H   0  0  0  0  0  0  0  0  0  0  0  0
  149.7982  139.7632  153.3563 H   0  0  0  0  0  0  0  0  0  0  0  0
  1  2  1  0  0  0  0
  1 24  1  0  0  0  0
  1 25  1  0  0  0  0
  1 26  1  0  0  0  0
  2  3  1  0  0  0  0
  2  5  1  0  0  0  0
  2 27  1  0  0  0  0
  3  4  1  0  0  0  0
  3 28  1  0  0  0  0
  3 29  1  0  0  0  0
  4 30  1  0  0  0  0
  5  6  1  0  0  0  0
  5 31  1  0  0  0  0
  6  7  2  0  0  0  0
  6  8  1  0  0  0  0
  8  9  1  0  0  0  0
  8 32  1  0  0  0  0
  9 10  1  0  0  0  0
  9 33  1  0  0  0  0
  9 34  1  0  0  0  0
 10 23  1  0  0  0  0
 10 11  2  0  0  0  0
 11 12  1  0  0  0  0
 11 35  1  0  0  0  0
 12 13  2  0  0  0  0
 12 36  1  0  0  0  0
 13 14  1  0  0  0  0
 13 22  1  0  0  0  0
 14 21  1  0  0  0  0
 14 15  1  0  0  0  0
 15 16  1  0  0  0  0
 15 37  1  0  0  0  0
 15 38  1  0  0  0  0
 16 17  1  0  0  0  0
 16 18  1  0  0  0  0
 16 39  1  0  0  0  0
 17 40  1  0  0  0  0
 17 41  1  0  0  0  0
 17 42  1  0  0  0  0
 18 19  1  0  0  0  0
 19 20  1  0  0  0  0
 19 21  1  0  0  0  0
 19 43  1  0  0  0  0
 20 44  1  0  0  0  0
 20 45  1  0  0  0  0
 20 46  1  0  0  0  0
 21 47  1  0  0  0  0
 21 48  1  0  0  0  0
 22 23  2  0  0  0  0
 23 49  1  0  0  0  0
M  END
> <s_m_source_file>
AV-unprocessed.smi

> <i_m_source_file_index>
1983

> <i_lp_mmshare_version>
43012

> <i_f3d_flags>
0

> <s_epik_input>
W09IXVtDSDJdW0NAQEhdKFtDSDNdKVtOSF1DKD1PKVtOSF1bQ0gyXWMxW2NIXVtjSF1jKG5bY0hdMSlOMltDSDJdW0NAQEhdKFtDSDNdKU9bQ0BASF0oW0NIM10pW0NIMl0y

> <s_epik_cmdline>
J2VwaWtfcHl0aG9uJywgJy1waCcsICc3LjAnLCAnLXRuJywgJzgnLCAnLW1hJywgJzIwMCcsICctbWV0YWxfYmluZGluZycsICctaW1hZScsICc8aW5maWxlLm1hZT4nLCAnLW9tYWUnLCAnPG91dGZpbGUubWFlPic=

> <r_lp_tautomer_probability>
1

> <r_epik_Ionization_Penalty>
0.00801967

> <r_epik_Ionization_Penalty_Charging>
0

> <r_epik_Ionization_Penalty_Neutral>
0.00801967

> <r_epik_State_Penalty>
0.00598289

> <r_epik_Charging_Adjusted_Penalty>
0.00598289

> <i_epik_Tot_Q>
0

> <i_epik_Tot_abs_Q>
0

> <r_epik_Metal_State_Penalty>
0.00590297

> <b_epik_Metal_Only>
0

> <s_lp_Force_Field>
OPLS_2005

> <r_lp_Energy>
13.3716

> <b_lp_Chiralities_Consistent>
1

> <s_lp_Variant>
AV-unprocessed.smi:1983-1

> <Gold.Version>
5.8.1

> <Gold.Id.Protein>
6NUR|6NUR_protein|mol2

> <Gold.PLP.Fitness>
47.2932

> <Gold.PLP.PLP>
-37.1931

> <Gold.PLP.part.hbond>
-4.6829

> <Gold.PLP.part.metal>
0.0000

> <Gold.PLP.part.buried>
-5.8570

> <Gold.PLP.part.nonpolar>
-30.0248

> <Gold.PLP.part.repulsive>
2.0779

> <Gold.PLP.ligand.clash>
0.0000

> <Gold.PLP.ligand.torsion>
0.5340

> <Gold.PLP.Chemscore.Hbond>
2.5890

> <Gold.PLP.Chemscore.CHOScore>
1.0000

> <Gold.PLP.Chemscore.Metal>
0.0000

> <Gold.Chemscore.Hbonds>
donor molecule, donor type, donor heavy atom, donor atom, acceptor molecule, acceptor atom, score
      L1  H     4    30       P1  7921  1.00
      L1  H     5    31       P1  7948  0.93
      L1  H     8    32       P1  7948  0.50
      P1  H  7989  7998       L1    22  0.06
      L1  C    23    49       P1  7957  1.00

> <Gold.PLP.Chemscore.Internal.Correction>
0.4012

> <Gold.Rescore>
     Score         DG    S(hbond)    S(metal)    S(lipo)     H(rot)  DE(clash)    DE(int)     intcor
     18.42     -19.27       2.87        0.00      93.12       2.61       0.33       0.53       ----

> <Gold.Chemscore.Fitness>
18.4166

> <Gold.Chemscore.DG>
-19.2703

> <Gold.Chemscore.ZeroCoef>
-5.4800

> <Gold.Chemscore.Hbond>
2.8670

> <Gold.Chemscore.Metal>
0.0000

> <Gold.Chemscore.Lipo>
93.1221

> <Gold.Chemscore.Internal_Hbond>
0.0000

> <Gold.Chemscore.DEClash>
0.3279

> <Gold.Chemscore.DEInternal>
0.5258

> <Gold.Chemscore.Rot>
2.6097

> <Gold.Chemscore.Internal.Correction>
   9.000000E+99

> <Gold.Chemscore.Hbonds>
donor molecule, donor type, donor heavy atom, donor atom, acceptor molecule, acceptor atom, score
      L1  H     4    30       P1  7921  0.94
      L1  H     5    31       P1  7948  0.89
      L1  H     8    32       P1  7948  0.49

> <Gold.Chemscore.Hbond.Weighted>
-9.5759

> <Gold.Chemscore.Metal.Weighted>
-0.0000

> <Gold.Chemscore.Lipo.Weighted>
-10.8953

> <Gold.Chemscore.Internal_Hbond.Weighted>
0.0000

> <Gold.Chemscore.DEClash.Weighted>
0.3279

> <Gold.Chemscore.DEInternal.Weighted>
0.5258

> <Gold.Chemscore.Rot.Weighted>
6.6809

> <Gold.Chemscore.Internal.Correction.Weighted>
   9.000000E+99

> <Gold.Protein.RotatedTorsions>
[ 6907 6896 6895 6894 ] final  -92.27 input  -60.11 | X-H torsion
[ 7974 7965 7964 7962 ] final   86.44 input  175.53 | X-H torsion
[ 8008 7997 7996 7995 ] final   24.03 input   59.86 | X-H torsion
[ 10167 10162 10161 10158 ] final  169.08 input  -65.29 | X-H torsion
[ 10718 10713 10712 10709 ] final -161.76 input   66.30 | X-H torsion
[ 10763 10752 10751 10750 ] final   86.26 input  -60.55 | X-H torsion
[ 11005 11000 10999 10996 ] final   -3.84 input  -57.11 | X-H torsion

> <Gold.Protein.ActiveResidues>
 VAL166  LYS551  ARG553  GLY616  TRP617  ASP618  TYR619  PRO620  LYS621  CYS622 
 ASP623  PHE694  ASN695  SER759  ASP760  ASP761  ALA762  ILE779  LEU786  VAL792 
 PHE793  MET794  SER795  GLU796  ALA797  LYS798  CYS799  TRP800  GLU811  SER814 

> <Gold.Protein.RotatedAtoms>
  150.6904  134.2148  159.4373 H   0  0  0  0  0  0  0  0  0  0  0  0  # atno 6907 bound_to 6896
  152.0107  134.9875  160.0577 H   0  0  0  0  0  0  0  0  0  0  0  0  # atno 6908 bound_to 6896
  152.1491  133.4476  159.4841 H   0  0  0  0  0  0  0  0  0  0  0  0  # atno 6909 bound_to 6896
  145.5722  139.2315  143.2400 H   0  0  0  0  0  0  0  0  0  0  0  0  # atno 7974 bound_to 7965
  154.9900  140.3112  155.4910 H   0  0  0  0  0  0  0  0  0  0  0  0  # atno 8008 bound_to 7997
  156.2941  140.2251  156.4944 H   0  0  0  0  0  0  0  0  0  0  0  0  # atno 8009 bound_to 7997
  154.7712  140.0452  157.1041 H   0  0  0  0  0  0  0  0  0  0  0  0  # atno 8010 bound_to 7997
  139.4983  144.3745  151.9689 H   0  0  0  0  0  0  0  0  0  0  0  0  # atno 10167 bound_to 10162
  156.6007  130.8809  151.2913 H   0  0  0  0  0  0  0  0  0  0  0  0  # atno 10718 bound_to 10713
  153.1553  135.4587  154.9696 H   0  0  0  0  0  0  0  0  0  0  0  0  # atno 10763 bound_to 10752
  154.7857  135.3203  154.7894 H   0  0  0  0  0  0  0  0  0  0  0  0  # atno 10764 bound_to 10752
  153.8393  135.6931  153.4859 H   0  0  0  0  0  0  0  0  0  0  0  0  # atno 10765 bound_to 10752
  140.6737  133.9214  155.8511 H   0  0  0  0  0  0  0  0  0  0  0  0  # atno 11005 bound_to 11000
  146.1776  140.6548  142.9204 LP  0  0  0  0  0  0  0  0  0  0  0  0  # atno 17320 bound_to 7965
  144.7432  140.4999  143.6854 LP  0  0  0  0  0  0  0  0  0  0  0  0  # atno 17321 bound_to 7965
  140.3181  144.3459  150.6016 LP  0  0  0  0  0  0  0  0  0  0  0  0  # atno 17342 bound_to 10162
  140.5744  143.2178  151.7541 LP  0  0  0  0  0  0  0  0  0  0  0  0  # atno 17343 bound_to 10162
  157.7280  130.9651  150.1724 LP  0  0  0  0  0  0  0  0  0  0  0  0  # atno 17370 bound_to 10713
  156.2471  130.3697  149.8273 LP  0  0  0  0  0  0  0  0  0  0  0  0  # atno 17371 bound_to 10713
  141.0372  134.0673  157.3945 LP  0  0  0  0  0  0  0  0  0  0  0  0  # atno 17394 bound_to 11000
  139.8973  135.0150  156.7095 LP  0  0  0  0  0  0  0  0  0  0  0  0  # atno 17395 bound_to 11000

$$$$
