AV-unprocessed.smi:2631|AV-procd|sdf|10249|dock6
  -GOLD-   2272014263D 1   1.00000     0.00000
 Structure written by MMmdl.
 34 35  0  0  0  0  0  0  0  0  2 V2000
  147.5204  136.1920  161.9651 C   0  0  0  0  0  0  0  0  0  0  0  0
  147.7630  137.1566  160.9573 O   0  0  0  0  0  0  0  0  0  0  0  0
  148.5883  136.6621  159.9159 C   0  0  0  0  0  0  0  0  0  0  0  0
  148.2737  137.3995  158.6031 C   0  0  0  0  0  0  0  0  0  0  0  0
  149.5016  137.8855  157.9376 N   0  0  0  0  0  0  0  0  0  0  0  0
  149.5815  139.2521  157.5594 C   0  0  0  0  0  0  0  0  0  0  0  0
  148.5184  140.1050  157.8083 N   0  0  0  0  0  0  0  0  0  0  0  0
  150.7050  139.7098  156.9627 C   0  0  0  0  0  0  0  0  0  0  0  0
  151.0010  141.3858  156.4450 S   0  0  0  0  0  0  0  0  0  0  0  0
  151.4233  142.1363  157.9829 C   0  0  0  0  0  0  0  0  0  0  0  0
  152.3675  141.5218  158.8291 C   0  0  0  0  0  0  0  0  0  0  0  0
  152.7119  142.1276  160.0531 C   0  0  0  0  0  0  0  0  0  0  0  0
  152.1120  143.3455  160.4307 C   0  0  0  0  0  0  0  0  0  0  0  0
  152.5368  144.0879  161.9290 Cl  0  0  0  0  0  0  0  0  0  0  0  0
  151.1655  143.9571  159.5847 C   0  0  0  0  0  0  0  0  0  0  0  0
  150.8197  143.3522  158.3606 C   0  0  0  0  0  0  0  0  0  0  0  0
  151.8283  138.8079  156.7005 C   0  0  0  0  0  0  0  0  0  0  0  0
  152.8535  139.2072  156.1466 O   0  0  0  0  0  0  0  0  0  0  0  0
  151.6784  137.5162  157.1013 N   0  5  0  0  0  0  0  0  0  0  0  0
  150.5550  137.0370  157.7144 C   0  0  0  0  0  0  0  0  0  0  0  0
  150.4682  135.8612  158.0706 O   0  0  0  0  0  0  0  0  0  0  0  0
  146.8830  136.6225  162.7374 H   0  0  0  0  0  0  0  0  0  0  0  0
  148.4504  135.8707  162.4358 H   0  0  0  0  0  0  0  0  0  0  0  0
  147.0117  135.3172  161.5582 H   0  0  0  0  0  0  0  0  0  0  0  0
  149.6347  136.8220  160.1798 H   0  0  0  0  0  0  0  0  0  0  0  0
  148.4466  135.5871  159.7961 H   0  0  0  0  0  0  0  0  0  0  0  0
  147.6825  136.7511  157.9549 H   0  0  0  0  0  0  0  0  0  0  0  0
  147.6046  138.2359  158.8057 H   0  0  0  0  0  0  0  0  0  0  0  0
  147.6749  139.7795  158.2577 H   0  0  0  0  0  0  0  0  0  0  0  0
  148.5982  141.1024  157.6732 H   0  0  0  0  0  0  0  0  0  0  0  0
  152.8308  140.5899  158.5406 H   0  0  0  0  0  0  0  0  0  0  0  0
  153.4375  141.6575  160.7006 H   0  0  0  0  0  0  0  0  0  0  0  0
  150.7047  144.8908  159.8717 H   0  0  0  0  0  0  0  0  0  0  0  0
  150.0964  143.8250  157.7123 H   0  0  0  0  0  0  0  0  0  0  0  0
  1  2  1  0  0  0  0
  1 22  1  0  0  0  0
  1 23  1  0  0  0  0
  1 24  1  0  0  0  0
  2  3  1  0  0  0  0
  3  4  1  0  0  0  0
  3 25  1  0  0  0  0
  3 26  1  0  0  0  0
  4  5  1  0  0  0  0
  4 27  1  0  0  0  0
  4 28  1  0  0  0  0
  5 20  1  0  0  0  0
  5  6  1  0  0  0  0
  6  7  1  0  0  0  0
  6  8  2  0  0  0  0
  7 29  1  0  0  0  0
  7 30  1  0  0  0  0
  8  9  1  0  0  0  0
  8 17  1  0  0  0  0
  9 10  1  0  0  0  0
 10 16  1  0  0  0  0
 10 11  2  0  0  0  0
 11 12  1  0  0  0  0
 11 31  1  0  0  0  0
 12 13  2  0  0  0  0
 12 32  1  0  0  0  0
 13 14  1  0  0  0  0
 13 15  1  0  0  0  0
 15 16  2  0  0  0  0
 15 33  1  0  0  0  0
 16 34  1  0  0  0  0
 17 18  2  0  0  0  0
 17 19  1  0  0  0  0
 19 20  1  0  0  0  0
 20 21  2  0  0  0  0
M  CHG  1  19  -1
M  END
> <s_m_source_file>
AV-unprocessed.smi

> <i_m_source_file_index>
2631

> <i_lp_mmshare_version>
43012

> <i_f3d_flags>
0

> <s_epik_input>
W0NIM11PW0NIMl1bQ0gyXW4xYyhbTkgyXSljKGMoPU8pW25IXWMxPU8pU2MyW2NIXVtjSF1jKENsKVtjSF1bY0hdMg==

> <s_epik_cmdline>
J2VwaWtfcHl0aG9uJywgJy1waCcsICc3LjAnLCAnLXRuJywgJzgnLCAnLW1hJywgJzIwMCcsICctbWV0YWxfYmluZGluZycsICctaW1hZScsICc8aW5maWxlLm1hZT4nLCAnLW9tYWUnLCAnPG91dGZpbGUubWFlPic=

> <r_lp_tautomer_probability>
1

> <r_epik_Ionization_Penalty>
5.35309

> <r_epik_Ionization_Penalty_Charging>
0.0281434

> <r_epik_Ionization_Penalty_Neutral>
5.32495

> <r_epik_State_Penalty>
5.32488

> <r_epik_Charging_Adjusted_Penalty>
5.35302

> <i_epik_Tot_Q>
-1

> <i_epik_Tot_abs_Q>
1

> <r_epik_Metal_State_Penalty>
1.30191

> <b_epik_Metal_Only>
1

> <s_epik_Chemistry_Notes>
This compound has an imine and may undergo hydrolysis.

> <s_lp_Force_Field>
OPLS_2005

> <r_lp_Energy>
29.1443

> <b_lp_Chiralities_Consistent>
1

> <s_lp_Variant>
AV-unprocessed.smi:2631-2

> <Gold.Version>
5.8.1

> <Gold.Id.Protein>
6NUR|6NUR_protein|mol2

> <Gold.PLP.Fitness>
45.6483

> <Gold.PLP.PLP>
-37.1630

> <Gold.PLP.part.hbond>
-4.0000

> <Gold.PLP.part.metal>
0.0000

> <Gold.PLP.part.buried>
-6.3049

> <Gold.PLP.part.nonpolar>
-27.4123

> <Gold.PLP.part.repulsive>
0.1656

> <Gold.PLP.ligand.clash>
0.0000

> <Gold.PLP.ligand.torsion>
0.9756

> <Gold.PLP.Chemscore.Hbond>
3.4640

> <Gold.PLP.Chemscore.CHOScore>
0.0000

> <Gold.PLP.Chemscore.Metal>
0.0000

> <Gold.Chemscore.Hbonds>
donor molecule, donor type, donor heavy atom, donor atom, acceptor molecule, acceptor atom, score
      P1  H  6896  6907       L1    21  0.67
      P1  H  6931  6943       L1     2  0.87
      P1  H  6934  6947       L1     2  0.86
      P1  H  7997  8009       L1    18  1.00

> <Gold.PLP.Chemscore.Internal.Correction>
0.0445

> <Gold.Rescore>
     Score         DG    S(hbond)    S(metal)    S(lipo)     H(rot)  DE(clash)    DE(int)     intcor
     18.57     -20.79       2.68        0.00      98.65       2.02       0.14       2.09       ----

> <Gold.Chemscore.Fitness>
18.5662

> <Gold.Chemscore.DG>
-20.7930

> <Gold.Chemscore.ZeroCoef>
-5.4800

> <Gold.Chemscore.Hbond>
2.6798

> <Gold.Chemscore.Metal>
0.0000

> <Gold.Chemscore.Lipo>
98.6526

> <Gold.Chemscore.Internal_Hbond>
0.0000

> <Gold.Chemscore.DEClash>
0.1392

> <Gold.Chemscore.DEInternal>
2.0876

> <Gold.Chemscore.Rot>
2.0234

> <Gold.Chemscore.Internal.Correction>
   9.000000E+99

> <Gold.Chemscore.Hbonds>
donor molecule, donor type, donor heavy atom, donor atom, acceptor molecule, acceptor atom, score
      P1  H  6896  6907       L1    21  0.65
      P1  H  6931  6943       L1     2  0.05
      P1  H  6934  6947       L1     2  0.82
      P1  H  7997  8009       L1    18  1.00

> <Gold.Chemscore.Hbond.Weighted>
-8.9504

> <Gold.Chemscore.Metal.Weighted>
-0.0000

> <Gold.Chemscore.Lipo.Weighted>
-11.5423

> <Gold.Chemscore.Internal_Hbond.Weighted>
0.0000

> <Gold.Chemscore.DEClash.Weighted>
0.1392

> <Gold.Chemscore.DEInternal.Weighted>
2.0876

> <Gold.Chemscore.Rot.Weighted>
5.1798

> <Gold.Chemscore.Internal.Correction.Weighted>
   9.000000E+99

> <Gold.Protein.RotatedTorsions>
[ 6907 6896 6895 6894 ] final  -43.38 input  -60.11 | X-H torsion
[ 7974 7965 7964 7962 ] final   26.12 input  175.53 | X-H torsion
[ 8008 7997 7996 7995 ] final -171.26 input   59.86 | X-H torsion
[ 10167 10162 10161 10158 ] final  150.00 input  -65.29 | X-H torsion
[ 10718 10713 10712 10709 ] final  144.28 input   66.30 | X-H torsion
[ 10763 10752 10751 10750 ] final -146.08 input  -60.55 | X-H torsion
[ 11005 11000 10999 10996 ] final  -98.57 input  -57.11 | X-H torsion

> <Gold.Protein.ActiveResidues>
 VAL166  LYS551  ARG553  GLY616  TRP617  ASP618  TYR619  PRO620  LYS621  CYS622 
 ASP623  PHE694  ASN695  SER759  ASP760  ASP761  ALA762  ILE779  LEU786  VAL792 
 PHE793  MET794  SER795  GLU796  ALA797  LYS798  CYS799  TRP800  GLU811  SER814 

> <Gold.Protein.RotatedAtoms>
  150.9446  134.8852  159.7633 H   0  0  0  0  0  0  0  0  0  0  0  0  # atno 6907 bound_to 6896
  152.5094  134.3893  159.9388 H   0  0  0  0  0  0  0  0  0  0  0  0  # atno 6908 bound_to 6896
  151.3912  133.3748  159.2756 H   0  0  0  0  0  0  0  0  0  0  0  0  # atno 6909 bound_to 6896
  146.1854  139.7372  142.8870 H   0  0  0  0  0  0  0  0  0  0  0  0  # atno 7974 bound_to 7965
  155.9292  140.1088  157.1145 H   0  0  0  0  0  0  0  0  0  0  0  0  # atno 8008 bound_to 7997
  154.4068  140.1241  156.4846 H   0  0  0  0  0  0  0  0  0  0  0  0  # atno 8009 bound_to 7997
  155.7100  140.3471  155.4972 H   0  0  0  0  0  0  0  0  0  0  0  0  # atno 8010 bound_to 7997
  139.4855  144.5557  151.7321 H   0  0  0  0  0  0  0  0  0  0  0  0  # atno 10167 bound_to 10162
  157.3591  131.0962  151.0932 H   0  0  0  0  0  0  0  0  0  0  0  0  # atno 10718 bound_to 10713
  154.8353  135.3396  154.6605 H   0  0  0  0  0  0  0  0  0  0  0  0  # atno 10763 bound_to 10752
  153.7221  135.6957  153.5015 H   0  0  0  0  0  0  0  0  0  0  0  0  # atno 10764 bound_to 10752
  153.2374  135.4396  155.0614 H   0  0  0  0  0  0  0  0  0  0  0  0  # atno 10765 bound_to 10752
  141.1340  133.8255  157.0857 H   0  0  0  0  0  0  0  0  0  0  0  0  # atno 11005 bound_to 11000
  145.3954  141.0378  143.3100 LP  0  0  0  0  0  0  0  0  0  0  0  0  # atno 17320 bound_to 7965
  144.8388  139.5506  143.6910 LP  0  0  0  0  0  0  0  0  0  0  0  0  # atno 17321 bound_to 7965
  140.5118  144.1013  150.5997 LP  0  0  0  0  0  0  0  0  0  0  0  0  # atno 17342 bound_to 10162
  140.3941  143.2737  152.0025 LP  0  0  0  0  0  0  0  0  0  0  0  0  # atno 17343 bound_to 10162
  157.2079  130.6424  149.5763 LP  0  0  0  0  0  0  0  0  0  0  0  0  # atno 17370 bound_to 10713
  155.9734  130.4669  150.6308 LP  0  0  0  0  0  0  0  0  0  0  0  0  # atno 17371 bound_to 10713
  140.0424  134.9848  157.0985 LP  0  0  0  0  0  0  0  0  0  0  0  0  # atno 17394 bound_to 11000
  140.4115  134.1976  155.7163 LP  0  0  0  0  0  0  0  0  0  0  0  0  # atno 17395 bound_to 11000

$$$$
