AV-unprocessed.smi:499|AV-procd|sdf|2732|dock3
  -GOLD-   2262023183D 1   1.00000     0.00000
 Structure written by MMmdl.
 36 37  0  0  0  0  0  0  0  0  1 V2000
  152.0782  137.5212  158.0460 C   0  0  0  0  0  0  0  0  0  0  0  0
  150.8697  137.5900  157.0908 C   0  0  1  0  0  0  0  0  0  0  0  0
  150.9514  136.4717  156.1275 C   0  0  0  0  0  0  0  0  0  0  0  0
  151.0158  135.5963  155.3726 N   0  0  0  0  0  0  0  0  0  0  0  0
  149.6329  137.5098  157.8724 N   0  0  0  0  0  0  0  0  0  0  0  0
  149.1658  136.4509  158.5551 C   0  0  0  0  0  0  0  0  0  0  0  0
  149.7484  135.3672  158.6077 O   0  0  0  0  0  0  0  0  0  0  0  0
  147.8250  136.6609  159.2737 C   0  0  0  0  0  0  0  0  0  0  0  0
  147.6301  135.7641  160.4257 N   0  0  0  0  0  0  0  0  0  0  0  0
  147.7047  134.3789  160.1796 C   0  0  0  0  0  0  0  0  0  0  0  0
  147.5623  133.4536  161.1481 C   0  0  0  0  0  0  0  0  0  0  0  0
  147.5944  131.9636  160.8460 C   0  0  0  0  0  0  0  0  0  0  0  0
  146.4063  131.4042  161.0758 F   0  0  0  0  0  0  0  0  0  0  0  0
  147.9262  131.7345  159.5747 F   0  0  0  0  0  0  0  0  0  0  0  0
  148.4929  131.3627  161.6247 F   0  0  0  0  0  0  0  0  0  0  0  0
  147.2890  133.9522  162.4815 C   0  0  0  0  0  0  0  0  0  0  0  0
  147.2095  135.2735  162.7332 C   0  0  0  0  0  0  0  0  0  0  0  0
  147.3918  136.2683  161.6737 C   0  0  0  0  0  0  0  0  0  0  0  0
  147.3332  137.4785  161.8930 O   0  0  0  0  0  0  0  0  0  0  0  0
  150.9257  138.9173  156.3367 C   0  0  0  0  0  0  0  0  0  0  0  0
  150.6403  139.0324  154.8557 C   0  0  0  0  0  0  0  0  0  0  0  0
  152.0427  139.2594  155.3759 C   0  0  0  0  0  0  0  0  0  0  0  0
  153.0157  137.6239  157.4983 H   0  0  0  0  0  0  0  0  0  0  0  0
  152.1230  136.5717  158.5799 H   0  0  0  0  0  0  0  0  0  0  0  0
  152.0439  138.3178  158.7902 H   0  0  0  0  0  0  0  0  0  0  0  0
  149.0719  138.3489  157.8914 H   0  0  0  0  0  0  0  0  0  0  0  0
  147.7483  137.7027  159.5908 H   0  0  0  0  0  0  0  0  0  0  0  0
  147.0239  136.5263  158.5456 H   0  0  0  0  0  0  0  0  0  0  0  0
  147.8899  134.1156  159.1484 H   0  0  0  0  0  0  0  0  0  0  0  0
  147.1509  133.2540  163.2940 H   0  0  0  0  0  0  0  0  0  0  0  0
  147.0078  135.6092  163.7399 H   0  0  0  0  0  0  0  0  0  0  0  0
  150.5707  139.7533  156.9373 H   0  0  0  0  0  0  0  0  0  0  0  0
  150.4548  138.1213  154.2907 H   0  0  0  0  0  0  0  0  0  0  0  0
  150.0820  139.9045  154.5214 H   0  0  0  0  0  0  0  0  0  0  0  0
  152.4152  140.2817  155.3858 H   0  0  0  0  0  0  0  0  0  0  0  0
  152.7890  138.4977  155.1598 H   0  0  0  0  0  0  0  0  0  0  0  0
  1  2  1  0  0  0  0
  1 23  1  0  0  0  0
  1 24  1  0  0  0  0
  1 25  1  0  0  0  0
  2  3  1  0  0  0  0
  2  5  1  0  0  0  0
  2 20  1  0  0  0  0
  3  4  3  0  0  0  0
  5  6  1  0  0  0  0
  5 26  1  0  0  0  0
  6  7  2  0  0  0  0
  6  8  1  0  0  0  0
  8  9  1  0  0  0  0
  8 27  1  0  0  0  0
  8 28  1  0  0  0  0
  9 18  1  0  0  0  0
  9 10  1  0  0  0  0
 10 11  2  0  0  0  0
 10 29  1  0  0  0  0
 11 12  1  0  0  0  0
 11 16  1  0  0  0  0
 12 13  1  0  0  0  0
 12 14  1  0  0  0  0
 12 15  1  0  0  0  0
 16 17  2  0  0  0  0
 16 30  1  0  0  0  0
 17 18  1  0  0  0  0
 17 31  1  0  0  0  0
 18 19  2  0  0  0  0
 20 22  1  0  0  0  0
 20 21  1  0  0  0  0
 20 32  1  0  0  0  0
 21 22  1  0  0  0  0
 21 33  1  0  0  0  0
 21 34  1  0  0  0  0
 22 35  1  0  0  0  0
 22 36  1  0  0  0  0
M  END
> <s_m_source_file>
AV-unprocessed.smi

> <i_m_source_file_index>
499

> <i_lp_mmshare_version>
43012

> <i_f3d_flags>
0

> <s_epik_input>
W0NIMl0xW0NIMl1bQ0hdMVtDQF0oW0NIM10pKEMjTilbTkhdQyg9TylbQ0gyXW4yW2NIXWMoQyhGKShGKUYpW2NIXVtjSF1jMj1P

> <s_epik_cmdline>
J2VwaWtfcHl0aG9uJywgJy1waCcsICc3LjAnLCAnLXRuJywgJzgnLCAnLW1hJywgJzIwMCcsICctbWV0YWxfYmluZGluZycsICctaW1hZScsICc8aW5maWxlLm1hZT4nLCAnLW9tYWUnLCAnPG91dGZpbGUubWFlPic=

> <r_lp_tautomer_probability>
1

> <r_epik_Ionization_Penalty>
4.79953e-07

> <r_epik_Ionization_Penalty_Charging>
1.46911e-08

> <r_epik_Ionization_Penalty_Neutral>
4.65262e-07

> <r_epik_State_Penalty>
-0

> <r_epik_Charging_Adjusted_Penalty>
1.46911e-08

> <i_epik_Tot_Q>
0

> <i_epik_Tot_abs_Q>
0

> <r_epik_Metal_State_Penalty>
-0

> <b_epik_Metal_Only>
0

> <s_lp_Force_Field>
OPLS_2005

> <r_lp_Energy>
24.0499

> <b_lp_Chiralities_Consistent>
1

> <s_lp_Variant>
AV-unprocessed.smi:499-1

> <Gold.Version>
5.8.1

> <Gold.Id.Protein>
6NUR|6NUR_protein|mol2

> <Gold.PLP.Fitness>
45.8700

> <Gold.PLP.PLP>
-37.6953

> <Gold.PLP.part.hbond>
-3.8189

> <Gold.PLP.part.metal>
0.0000

> <Gold.PLP.part.buried>
-4.1665

> <Gold.PLP.part.nonpolar>
-30.0683

> <Gold.PLP.part.repulsive>
0.1746

> <Gold.PLP.ligand.clash>
1.0252

> <Gold.PLP.ligand.torsion>
1.4484

> <Gold.PLP.Chemscore.Hbond>
3.4880

> <Gold.PLP.Chemscore.CHOScore>
0.0000

> <Gold.PLP.Chemscore.Metal>
0.0000

> <Gold.Chemscore.Hbonds>
donor molecule, donor type, donor heavy atom, donor atom, acceptor molecule, acceptor atom, score
      P1  H  6896  6909       L1     7  1.00
      P1  H  6931  6943       L1    19  0.75
      P1  H  6934  6947       L1    19  0.70
      P1  H 10752 10763       L1     4  0.93

> <Gold.PLP.Chemscore.Internal.Correction>
1.6328

> <Gold.Rescore>
     Score         DG    S(hbond)    S(metal)    S(lipo)     H(rot)  DE(clash)    DE(int)     intcor
     15.58     -19.47       3.51        0.00      61.03       1.90       0.00       3.89       ----

> <Gold.Chemscore.Fitness>
15.5784

> <Gold.Chemscore.DG>
-19.4671

> <Gold.Chemscore.ZeroCoef>
-5.4800

> <Gold.Chemscore.Hbond>
3.5083

> <Gold.Chemscore.Metal>
0.0000

> <Gold.Chemscore.Lipo>
61.0340

> <Gold.Chemscore.Internal_Hbond>
0.0000

> <Gold.Chemscore.DEClash>
0.0000

> <Gold.Chemscore.DEInternal>
3.8886

> <Gold.Chemscore.Rot>
1.9030

> <Gold.Chemscore.Internal.Correction>
   9.000000E+99

> <Gold.Chemscore.Hbonds>
donor molecule, donor type, donor heavy atom, donor atom, acceptor molecule, acceptor atom, score
      P1  H  6896  6909       L1     7  0.94
      P1  H  6931  6943       L1    19  0.61
      P1  H  6934  6947       L1    19  0.70
      P1  H 10752 10763       L1     4  0.44

> <Gold.Chemscore.Hbond.Weighted>
-11.7179

> <Gold.Chemscore.Metal.Weighted>
-0.0000

> <Gold.Chemscore.Lipo.Weighted>
-7.1410

> <Gold.Chemscore.Internal_Hbond.Weighted>
0.0000

> <Gold.Chemscore.DEClash.Weighted>
0.0000

> <Gold.Chemscore.DEInternal.Weighted>
3.8886

> <Gold.Chemscore.Rot.Weighted>
4.8718

> <Gold.Chemscore.Internal.Correction.Weighted>
   9.000000E+99

> <Gold.Protein.RotatedTorsions>
[ 6907 6896 6895 6894 ] final   65.56 input  -60.11 | X-H torsion
[ 7974 7965 7964 7962 ] final -171.59 input  175.53 | X-H torsion
[ 8008 7997 7996 7995 ] final   64.14 input   59.86 | X-H torsion
[ 10167 10162 10161 10158 ] final  160.13 input  -65.29 | X-H torsion
[ 10718 10713 10712 10709 ] final  117.50 input   66.30 | X-H torsion
[ 10763 10752 10751 10750 ] final   76.52 input  -60.55 | X-H torsion
[ 11005 11000 10999 10996 ] final  -72.28 input  -57.11 | X-H torsion

> <Gold.Protein.ActiveResidues>
 VAL166  LYS551  ARG553  GLY616  TRP617  ASP618  TYR619  PRO620  LYS621  CYS622 
 ASP623  PHE694  ASN695  SER759  ASP760  ASP761  ALA762  ILE779  LEU786  VAL792 
 PHE793  MET794  SER795  GLU796  ALA797  LYS798  CYS799  TRP800  GLU811  SER814 

> <Gold.Protein.RotatedAtoms>
  152.4417  134.5578  159.9885 H   0  0  0  0  0  0  0  0  0  0  0  0  # atno 6907 bound_to 6896
  151.5673  133.3389  159.2990 H   0  0  0  0  0  0  0  0  0  0  0  0  # atno 6908 bound_to 6896
  150.8324  134.7617  159.6929 H   0  0  0  0  0  0  0  0  0  0  0  0  # atno 6909 bound_to 6896
  144.7155  140.1899  143.6349 H   0  0  0  0  0  0  0  0  0  0  0  0  # atno 7974 bound_to 7965
  155.6413  140.3497  155.4716 H   0  0  0  0  0  0  0  0  0  0  0  0  # atno 8008 bound_to 7997
  155.9924  140.1196  157.0649 H   0  0  0  0  0  0  0  0  0  0  0  0  # atno 8009 bound_to 7997
  154.4223  140.1117  156.5569 H   0  0  0  0  0  0  0  0  0  0  0  0  # atno 8010 bound_to 7997
  139.4837  144.4663  151.8636 H   0  0  0  0  0  0  0  0  0  0  0  0  # atno 10167 bound_to 10162
  157.6092  131.1038  150.7623 H   0  0  0  0  0  0  0  0  0  0  0  0  # atno 10718 bound_to 10713
  153.0731  135.4948  154.8347 H   0  0  0  0  0  0  0  0  0  0  0  0  # atno 10763 bound_to 10752
  154.7050  135.3009  154.9286 H   0  0  0  0  0  0  0  0  0  0  0  0  # atno 10764 bound_to 10752
  153.9998  135.6768  153.4811 H   0  0  0  0  0  0  0  0  0  0  0  0  # atno 10765 bound_to 10752
  141.1606  133.6842  156.7035 H   0  0  0  0  0  0  0  0  0  0  0  0  # atno 11005 bound_to 11000
  145.8778  139.2306  143.1623 LP  0  0  0  0  0  0  0  0  0  0  0  0  # atno 17320 bound_to 7965
  146.0024  140.8509  143.0012 LP  0  0  0  0  0  0  0  0  0  0  0  0  # atno 17321 bound_to 7965
  140.4129  144.2345  150.5888 LP  0  0  0  0  0  0  0  0  0  0  0  0  # atno 17342 bound_to 10162
  140.4949  143.2336  151.8765 LP  0  0  0  0  0  0  0  0  0  0  0  0  # atno 17343 bound_to 10162
  156.8005  130.4919  149.5370 LP  0  0  0  0  0  0  0  0  0  0  0  0  # atno 17370 bound_to 10713
  156.1189  130.6095  151.0163 LP  0  0  0  0  0  0  0  0  0  0  0  0  # atno 17371 bound_to 10713
  140.2941  134.8217  157.4042 LP  0  0  0  0  0  0  0  0  0  0  0  0  # atno 17394 bound_to 11000
  140.1320  134.5082  155.8098 LP  0  0  0  0  0  0  0  0  0  0  0  0  # atno 17395 bound_to 11000

$$$$
