#       Name:                AV-unprocessed.smi:2906
#       Creating user name   scv26
#       Creation time:       Fri Mar 27 16:05:23 2020


#       File generated by GOLD software.
#

@<TRIPOS>MOLECULE
AV-unprocessed.smi:2906
    45    46     1
SMALL
NO_CHARGES


@<TRIPOS>ATOM
      1 ****        -5.6777  -3.2674   3.2294 C.3            1 S1                 0.0000
      2 ****        -4.5873  -3.0903   2.1606 C.3            1 S1                 0.0000
      3 ****        -3.6036  -1.9472   2.4628 C.2            1 S1                 0.0000
      4 ****        -3.6807  -1.3386   3.5313 O.2            1 S1                 0.0000
      5 ****        -2.6755  -1.6429   1.5319 N.am           1 S1                 0.0000
      6 ****        -2.5012  -2.3202   0.2488 C.3            1 S1                 0.0000
      7 ****        -1.1963  -1.7807  -0.3363 C.3            1 S1                 0.0000
      8 ****        -1.0044  -0.4192   0.3313 C.3            1 S1                 0.0000
      9 ****         0.4035  -0.0679   0.4932 N.am           1 S1                 0.0000
     10 ****         1.2123   0.3891  -0.4731 C.2            1 S1                 0.0000
     11 ****         0.7776   0.5447  -1.6167 O.2            1 S1                 0.0000
     12 ****         2.4750   0.6342  -0.0546 N.pl3          1 S1                -1.0000
     13 ****         3.3939   1.0893  -0.9217 C.2            1 S1                 0.0000
     14 ****         3.7335   2.3799  -1.0146 N.2            1 S1                 0.0000
     15 ****         4.7159   2.6327  -1.9759 C.2            1 S1                 0.0000
     16 ****         5.1945   4.0337  -2.2070 C.3            1 S1                 0.0000
     17 ****         4.2198   4.8477  -3.0652 C.3            1 S1                 0.0000
     18 ****         5.1376   1.5007  -2.6235 C.2            1 S1                 0.0000
     19 ****         4.3118   0.0826  -2.0438 S.3            1 S1                 0.0000
     20 ****        -1.6995  -0.5671   1.6892 C.3            1 S1                 0.0000
     21 ****        -6.3530  -4.0793   2.9588 H              1 S1                 0.0000
     22 ****        -6.2782  -2.3638   3.3397 H              1 S1                 0.0000
     23 ****        -5.2477  -3.5088   4.2021 H              1 S1                 0.0000
     24 ****        -4.0266  -4.0206   2.0649 H              1 S1                 0.0000
     25 ****        -5.0631  -2.9040   1.1973 H              1 S1                 0.0000
     26 ****        -2.4622  -3.4051   0.3528 H              1 S1                 0.0000
     27 ****        -3.3394  -2.0693  -0.4026 H              1 S1                 0.0000
     28 ****        -0.3795  -2.4506  -0.0624 H              1 S1                 0.0000
     29 ****        -1.2180  -1.7160  -1.4246 H              1 S1                 0.0000
     30 ****        -1.5250   0.3456  -0.2481 H              1 S1                 0.0000
     31 ****         0.7999  -0.1800   1.4148 H              1 S1                 0.0000
     32 ****         5.3410   4.5395  -1.2520 H              1 S1                 0.0000
     33 ****         6.1718   4.0197  -2.6905 H              1 S1                 0.0000
     34 ****         4.5915   5.8604  -3.2206 H              1 S1                 0.0000
     35 ****         3.2419   4.9213  -2.5882 H              1 S1                 0.0000
     36 ****         4.0813   4.3885  -4.0443 H              1 S1                 0.0000
     37 ****         5.8794   1.4141  -3.4029 H              1 S1                 0.0000
     38 ****        -2.1711   0.3688   1.9927 H              1 S1                 0.0000
     39 ****        -0.9915  -0.8547   2.4686 H              1 S1                 0.0000
     40 ****        -4.3816  -1.5882   4.1994 LP             1 S1                 0.0000
     41 ****        -3.0424  -0.5950   3.7303 LP             1 S1                 0.0000
     42 ****        -0.1772   0.3300  -1.8222 LP             1 S1                 0.0000
     43 ****         1.3799   0.8856  -2.3385 LP             1 S1                 0.0000
     44 ****         2.7243   0.4765   0.9008 LP             1 S1                 0.0000
     45 ****         3.3233   3.0959  -0.4498 LP             1 S1                 0.0000
@<TRIPOS>BOND
    1    1    2 1     
    2    1   21 1     
    3    1   22 1     
    4    1   23 1     
    5    2    3 1     
    6    2   24 1     
    7    2   25 1     
    8    3    4 2     
    9    3    5 am    
   10    5   20 1     
   11    5    6 1     
   12    6    7 1     
   13    6   26 1     
   14    6   27 1     
   15    7    8 1     
   16    7   28 1     
   17    7   29 1     
   18    8    9 1     
   19    8   20 1     
   20    8   30 1     
   21    9   10 am    
   22    9   31 1     
   23   10   11 2     
   24   10   12 1     
   25   12   13 1     
   26   13   19 1     
   27   13   14 2     
   28   14   15 1     
   29   15   16 1     
   30   15   18 2     
   31   16   17 1     
   32   16   32 1     
   33   16   33 1     
   34   17   34 1     
   35   17   35 1     
   36   17   36 1     
   37   18   19 1     
   38   18   37 1     
   39   20   38 1     
   40   20   39 1     
   41    4   40 1     
   42    4   41 1     
   43   11   42 1     
   44   11   43 1     
   45   12   44 1     
   46   14   45 1     
@<TRIPOS>SUBSTRUCTURE
      1 S1             1
@<TRIPOS>SET
LONE_PAIRS      STATIC     ATOMS    <user>   **** ""
6 40 41 42 43 44 45
DONOR_HYDROGENS      STATIC     ATOMS    <user>   **** ""
1 31
ATOM$BLUE        STATIC     ATOMS    COLORGROUP SYSTEM
6 40 41 42 43 44 45
ATOM$RED        STATIC     ATOMS    COLORGROUP SYSTEM
1 31
