AV-unprocessed.smi:1457|AV-procd|sdf|5919|dock9
  -GOLD-   22720 6 03D 1   1.00000     0.00000
 Structure written by MMmdl.
 36 37  0  0  0  0  0  0  0  0  2 V2000
  147.1227  128.7425  152.5449 C   0  0  0  0  0  0  0  0  0  0  0  0
  147.5670  130.1502  152.6301 N   0  3  2  0  0  0  0  0  0  0  0  0
  148.2684  130.4451  153.9045 C   0  0  0  0  0  0  0  0  0  0  0  0
  148.8289  131.8772  153.9080 C   0  0  0  0  0  0  0  0  0  0  0  0
  147.7190  132.9075  153.6428 C   0  0  1  0  0  0  0  0  0  0  0  0
  148.2951  134.2464  153.5483 N   0  0  0  0  0  0  0  0  0  0  0  0
  148.9155  134.9038  154.5388 C   0  0  0  0  0  0  0  0  0  0  0  0
  149.0640  134.4478  155.6723 O   0  0  0  0  0  0  0  0  0  0  0  0
  149.3251  136.1171  154.1312 N   0  0  0  0  0  0  0  0  0  0  0  0
  150.0582  137.0911  154.8611 C   0  0  0  0  0  0  0  0  0  0  0  0
  150.4953  136.9203  156.1970 C   0  0  0  0  0  0  0  0  0  0  0  0
  151.2361  137.9510  156.8067 C   0  0  0  0  0  0  0  0  0  0  0  0
  151.5182  139.1100  156.0579 C   0  0  0  0  0  0  0  0  0  0  0  0
  151.1201  139.2804  154.7796 N   0  0  0  0  0  0  0  0  0  0  0  0
  150.4116  138.2873  154.2012 C   0  0  0  0  0  0  0  0  0  0  0  0
  146.9827  132.5557  152.3391 C   0  0  0  0  0  0  0  0  0  0  0  0
  146.4638  131.1080  152.3676 C   0  0  0  0  0  0  0  0  0  0  0  0
  146.3833  128.5174  153.3147 H   0  0  0  0  0  0  0  0  0  0  0  0
  147.9669  128.0639  152.6721 H   0  0  0  0  0  0  0  0  0  0  0  0
  146.6766  128.5379  151.5711 H   0  0  0  0  0  0  0  0  0  0  0  0
  147.5806  130.3090  154.7409 H   0  0  0  0  0  0  0  0  0  0  0  0
  149.0845  129.7354  154.0462 H   0  0  0  0  0  0  0  0  0  0  0  0
  149.3089  132.0832  154.8657 H   0  0  0  0  0  0  0  0  0  0  0  0
  149.6064  131.9632  153.1472 H   0  0  0  0  0  0  0  0  0  0  0  0
  147.0043  132.8555  154.4661 H   0  0  0  0  0  0  0  0  0  0  0  0
  148.2183  134.7096  152.6546 H   0  0  0  0  0  0  0  0  0  0  0  0
  149.0442  136.3942  153.2019 H   0  0  0  0  0  0  0  0  0  0  0  0
  150.2924  136.0205  156.7568 H   0  0  0  0  0  0  0  0  0  0  0  0
  151.5842  137.8527  157.8242 H   0  0  0  0  0  0  0  0  0  0  0  0
  152.0833  139.9193  156.4961 H   0  0  0  0  0  0  0  0  0  0  0  0
  150.1134  138.4562  153.1767 H   0  0  0  0  0  0  0  0  0  0  0  0
  146.1504  133.2431  152.1821 H   0  0  0  0  0  0  0  0  0  0  0  0
  147.6530  132.6828  151.4874 H   0  0  0  0  0  0  0  0  0  0  0  0
  145.9943  130.8718  151.4118 H   0  0  0  0  0  0  0  0  0  0  0  0
  145.6947  130.9998  153.1341 H   0  0  0  0  0  0  0  0  0  0  0  0
  148.2441  130.2811  151.8918 H   0  0  0  0  0  0  0  0  0  0  0  0
  1  2  1  0  0  0  0
  1 18  1  0  0  0  0
  1 19  1  0  0  0  0
  1 20  1  0  0  0  0
  2 17  1  0  0  0  0
  2  3  1  0  0  0  0
  2 36  1  0  0  0  0
  3  4  1  0  0  0  0
  3 21  1  0  0  0  0
  3 22  1  0  0  0  0
  4  5  1  0  0  0  0
  4 23  1  0  0  0  0
  4 24  1  0  0  0  0
  5  6  1  0  0  0  0
  5 16  1  0  0  0  0
  5 25  1  0  0  0  0
  6  7  1  0  0  0  0
  6 26  1  0  0  0  0
  7  8  2  0  0  0  0
  7  9  1  0  0  0  0
  9 10  1  0  0  0  0
  9 27  1  0  0  0  0
 10 15  1  0  0  0  0
 10 11  2  0  0  0  0
 11 12  1  0  0  0  0
 11 28  1  0  0  0  0
 12 13  2  0  0  0  0
 12 29  1  0  0  0  0
 13 14  1  0  0  0  0
 13 30  1  0  0  0  0
 14 15  2  0  0  0  0
 15 31  1  0  0  0  0
 16 17  1  0  0  0  0
 16 32  1  0  0  0  0
 16 33  1  0  0  0  0
 17 34  1  0  0  0  0
 17 35  1  0  0  0  0
M  CHG  1   2   1
M  END
> <s_m_source_file>
AV-unprocessed.smi

> <i_m_source_file_index>
1457

> <i_lp_mmshare_version>
43012

> <i_f3d_flags>
0

> <s_epik_input>
W0NIM11OMVtDSDJdW0NIMl1bQ0hdKFtDSDJdW0NIMl0xKVtOSF1DKD1PKVtOSF1jMltjSF1bY0hdW2NIXW5bY0hdMg==

> <s_epik_cmdline>
J2VwaWtfcHl0aG9uJywgJy1waCcsICc3LjAnLCAnLXRuJywgJzgnLCAnLW1hJywgJzIwMCcsICctbWV0YWxfYmluZGluZycsICctaW1hZScsICc8aW5maWxlLm1hZT4nLCAnLW9tYWUnLCAnPG91dGZpbGUubWFlPic=

> <r_lp_tautomer_probability>
1

> <r_epik_Ionization_Penalty>
0.00766642

> <r_epik_Ionization_Penalty_Charging>
0.00366825

> <r_epik_Ionization_Penalty_Neutral>
0.00399817

> <r_epik_State_Penalty>
-0

> <r_epik_Charging_Adjusted_Penalty>
0.00366825

> <i_epik_Tot_Q>
1

> <i_epik_Tot_abs_Q>
1

> <r_epik_Metal_State_Penalty>
-0

> <b_epik_Metal_Only>
0

> <s_lp_Force_Field>
OPLS_2005

> <r_lp_Energy>
19.7358

> <b_lp_Chiralities_Consistent>
1

> <s_lp_Variant>
AV-unprocessed.smi:1457-1

> <Gold.Version>
5.8.1

> <Gold.Id.Protein>
6NUR|6NUR_protein|mol2

> <Gold.PLP.Fitness>
41.8681

> <Gold.PLP.PLP>
-27.4653

> <Gold.PLP.part.hbond>
-4.6958

> <Gold.PLP.part.metal>
0.0000

> <Gold.PLP.part.buried>
-1.6622

> <Gold.PLP.part.nonpolar>
-21.1738

> <Gold.PLP.part.repulsive>
0.2131

> <Gold.PLP.ligand.clash>
0.0000

> <Gold.PLP.ligand.torsion>
0.0238

> <Gold.PLP.Chemscore.Hbond>
3.7353

> <Gold.PLP.Chemscore.CHOScore>
1.0811

> <Gold.PLP.Chemscore.Metal>
0.0000

> <Gold.Chemscore.Hbonds>
donor molecule, donor type, donor heavy atom, donor atom, acceptor molecule, acceptor atom, score
      L1  H     2    36       P1 10747  1.00
      L1  H     6    26       P1  7948  0.74
      L1  H     9    27       P1  7948  0.52
      P1  H  7989  7998       L1    14  0.83
      L1  C    15    31       P1  7948  0.27
      L1  C    15    31       P1  7957  0.84

> <Gold.PLP.Chemscore.Internal.Correction>
0.0012

> <Gold.Rescore>
     Score         DG    S(hbond)    S(metal)    S(lipo)     H(rot)  DE(clash)    DE(int)     intcor
     19.94     -21.41       3.33        0.00      62.83       1.00       0.02       1.44       ----

> <Gold.Chemscore.Fitness>
19.9421

> <Gold.Chemscore.DG>
-21.4051

> <Gold.Chemscore.ZeroCoef>
-5.4800

> <Gold.Chemscore.Hbond>
3.3335

> <Gold.Chemscore.Metal>
0.0000

> <Gold.Chemscore.Lipo>
62.8303

> <Gold.Chemscore.Internal_Hbond>
0.0000

> <Gold.Chemscore.DEClash>
0.0186

> <Gold.Chemscore.DEInternal>
1.4444

> <Gold.Chemscore.Rot>
1.0000

> <Gold.Chemscore.Internal.Correction>
   9.000000E+99

> <Gold.Chemscore.Hbonds>
donor molecule, donor type, donor heavy atom, donor atom, acceptor molecule, acceptor atom, score
      L1  H     2    36       P1 10747  0.92
      L1  H     6    26       P1  7948  0.37
      L1  H     9    27       P1  7948  0.50
      P1  H  7989  7998       L1    14  0.73

> <Gold.Chemscore.Hbond.Weighted>
-11.1339

> <Gold.Chemscore.Metal.Weighted>
-0.0000

> <Gold.Chemscore.Lipo.Weighted>
-7.3511

> <Gold.Chemscore.Internal_Hbond.Weighted>
0.0000

> <Gold.Chemscore.DEClash.Weighted>
0.0186

> <Gold.Chemscore.DEInternal.Weighted>
1.4444

> <Gold.Chemscore.Rot.Weighted>
2.5600

> <Gold.Chemscore.Internal.Correction.Weighted>
   9.000000E+99

> <Gold.Protein.RotatedTorsions>
[ 6907 6896 6895 6894 ] final  135.66 input  -60.11 | X-H torsion
[ 7974 7965 7964 7962 ] final  -20.21 input  175.53 | X-H torsion
[ 8008 7997 7996 7995 ] final  -40.76 input   59.86 | X-H torsion
[ 10167 10162 10161 10158 ] final  -85.36 input  -65.29 | X-H torsion
[ 10718 10713 10712 10709 ] final   47.09 input   66.30 | X-H torsion
[ 10763 10752 10751 10750 ] final   18.33 input  -60.55 | X-H torsion
[ 11005 11000 10999 10996 ] final  -38.45 input  -57.11 | X-H torsion

> <Gold.Protein.ActiveResidues>
 VAL166  LYS551  ARG553  GLY616  TRP617  ASP618  TYR619  PRO620  LYS621  CYS622 
 ASP623  PHE694  ASN695  SER759  ASP760  ASP761  ALA762  ILE779  LEU786  VAL792 
 PHE793  MET794  SER795  GLU796  ALA797  LYS798  CYS799  TRP800  GLU811  SER814 

> <Gold.Protein.RotatedAtoms>
  152.2980  133.5627  159.5599 H   0  0  0  0  0  0  0  0  0  0  0  0  # atno 6907 bound_to 6896
  150.7265  134.0332  159.3749 H   0  0  0  0  0  0  0  0  0  0  0  0  # atno 6908 bound_to 6896
  151.8234  135.0645  160.0479 H   0  0  0  0  0  0  0  0  0  0  0  0  # atno 6909 bound_to 6896
  146.1800  140.4170  142.8498 H   0  0  0  0  0  0  0  0  0  0  0  0  # atno 7974 bound_to 7965
  154.4009  140.1517  156.3080 H   0  0  0  0  0  0  0  0  0  0  0  0  # atno 8008 bound_to 7997
  155.8641  140.3452  155.5755 H   0  0  0  0  0  0  0  0  0  0  0  0  # atno 8009 bound_to 7997
  155.7847  140.0848  157.2031 H   0  0  0  0  0  0  0  0  0  0  0  0  # atno 8010 bound_to 7997
  140.4045  143.2648  151.9099 H   0  0  0  0  0  0  0  0  0  0  0  0  # atno 10167 bound_to 10162
  157.4549  130.8161  149.7826 H   0  0  0  0  0  0  0  0  0  0  0  0  # atno 10718 bound_to 10713
  153.1259  135.6729  153.9258 H   0  0  0  0  0  0  0  0  0  0  0  0  # atno 10763 bound_to 10752
  153.8760  135.3064  155.3445 H   0  0  0  0  0  0  0  0  0  0  0  0  # atno 10764 bound_to 10752
  154.7664  135.4962  153.9643 H   0  0  0  0  0  0  0  0  0  0  0  0  # atno 10765 bound_to 10752
  141.0028  133.6947  156.2054 H   0  0  0  0  0  0  0  0  0  0  0  0  # atno 11005 bound_to 11000
  144.8300  140.6691  143.6297 LP  0  0  0  0  0  0  0  0  0  0  0  0  # atno 17320 bound_to 7965
  145.4102  139.1581  143.4130 LP  0  0  0  0  0  0  0  0  0  0  0  0  # atno 17321 bound_to 7965
  139.4784  144.5600  151.8254 LP  0  0  0  0  0  0  0  0  0  0  0  0  # atno 17342 bound_to 10162
  140.4704  144.1594  150.5917 LP  0  0  0  0  0  0  0  0  0  0  0  0  # atno 17343 bound_to 10162
  156.0003  130.3884  150.2632 LP  0  0  0  0  0  0  0  0  0  0  0  0  # atno 17370 bound_to 10713
  157.0806  131.0142  151.3158 LP  0  0  0  0  0  0  0  0  0  0  0  0  # atno 17371 bound_to 10713
  140.6861  134.4715  157.5589 LP  0  0  0  0  0  0  0  0  0  0  0  0  # atno 17394 bound_to 11000
  139.9048  134.8475  156.1751 LP  0  0  0  0  0  0  0  0  0  0  0  0  # atno 17395 bound_to 11000

$$$$
