AV-unprocessed.smi:1809|AV-procd|sdf|7324|dock3
  -GOLD-   22720 8583D 1   1.00000     0.00000
 Structure written by MMmdl.
 39 41  0  0  0  0  0  0  0  0  3 V2000
  147.4016  135.3962  163.0998 C   0  0  0  0  0  0  0  0  0  0  0  0
  147.5791  135.8290  161.6848 C   0  0  0  0  0  0  0  0  0  0  0  0
  147.9374  137.0706  161.3491 N   0  0  0  0  0  0  0  0  0  0  0  0
  148.0309  137.2339  159.9745 N   0  0  0  0  0  0  0  0  0  0  0  0
  147.7340  136.1192  159.2912 C   0  0  0  0  0  0  0  0  0  0  0  0
  147.7644  136.0677  157.9491 N   0  5  0  0  0  0  0  0  0  0  0  0
  146.6490  136.3432  157.2371 C   0  0  0  0  0  0  0  0  0  0  0  0
  145.8833  137.2935  157.4152 O   0  0  0  0  0  0  0  0  0  0  0  0
  146.3998  135.4588  156.2612 N   0  0  0  0  0  0  0  0  0  0  0  0
  145.2596  135.4943  155.3518 C   0  0  0  0  0  0  0  0  0  0  0  0
  145.7053  135.6669  153.8894 C   0  0  1  0  0  0  0  0  0  0  0  0
  146.3332  134.3839  153.3240 C   0  0  0  0  0  0  0  0  0  0  0  0
  146.7285  134.5577  151.9034 N   0  3  1  0  0  0  0  0  0  0  0  0
  147.0672  133.2720  151.2542 C   0  0  0  0  0  0  0  0  0  0  0  0
  145.8163  132.8273  150.4738 C   0  0  0  0  0  0  0  0  0  0  0  0
  144.7997  133.9627  150.6380 C   0  0  0  0  0  0  0  0  0  0  0  0
  145.6579  135.1509  151.0719 C   0  0  1  0  0  0  0  0  0  0  0  0
  144.9115  136.3072  151.7691 C   0  0  0  0  0  0  0  0  0  0  0  0
  144.5593  135.9623  153.1007 O   0  0  0  0  0  0  0  0  0  0  0  0
  147.3299  134.7480  160.3240 S   0  0  0  0  0  0  0  0  0  0  0  0
  146.4467  135.7572  163.4820 H   0  0  0  0  0  0  0  0  0  0  0  0
  148.2036  135.7961  163.7207 H   0  0  0  0  0  0  0  0  0  0  0  0
  147.4178  134.3085  163.1682 H   0  0  0  0  0  0  0  0  0  0  0  0
  147.0529  134.6973  156.1479 H   0  0  0  0  0  0  0  0  0  0  0  0
  144.6751  134.5801  155.4669 H   0  0  0  0  0  0  0  0  0  0  0  0
  144.6081  136.3173  155.6468 H   0  0  0  0  0  0  0  0  0  0  0  0
  146.4274  136.4829  153.8240 H   0  0  0  0  0  0  0  0  0  0  0  0
  147.2136  134.1063  153.9048 H   0  0  0  0  0  0  0  0  0  0  0  0
  145.6217  133.5611  153.4138 H   0  0  0  0  0  0  0  0  0  0  0  0
  147.8892  133.4463  150.5589 H   0  0  0  0  0  0  0  0  0  0  0  0
  147.4036  132.5186  151.9683 H   0  0  0  0  0  0  0  0  0  0  0  0
  146.0631  132.6790  149.4218 H   0  0  0  0  0  0  0  0  0  0  0  0
  145.4164  131.8863  150.8530 H   0  0  0  0  0  0  0  0  0  0  0  0
  144.2380  134.1608  149.7246 H   0  0  0  0  0  0  0  0  0  0  0  0
  144.0832  133.7080  151.4204 H   0  0  0  0  0  0  0  0  0  0  0  0
  146.1350  135.5503  150.1751 H   0  0  0  0  0  0  0  0  0  0  0  0
  145.5326  137.2044  151.7830 H   0  0  0  0  0  0  0  0  0  0  0  0
  144.0089  136.5644  151.2145 H   0  0  0  0  0  0  0  0  0  0  0  0
  147.5321  135.1696  151.8868 H   0  0  0  0  0  0  0  0  0  0  0  0
  1  2  1  0  0  0  0
  1 21  1  0  0  0  0
  1 22  1  0  0  0  0
  1 23  1  0  0  0  0
  2 20  1  0  0  0  0
  2  3  2  0  0  0  0
  3  4  1  0  0  0  0
  4  5  2  0  0  0  0
  5  6  1  0  0  0  0
  5 20  1  0  0  0  0
  6  7  1  0  0  0  0
  7  8  2  0  0  0  0
  7  9  1  0  0  0  0
  9 10  1  0  0  0  0
  9 24  1  0  0  0  0
 10 11  1  0  0  0  0
 10 25  1  0  0  0  0
 10 26  1  0  0  0  0
 11 19  1  0  0  0  0
 11 12  1  0  0  0  0
 11 27  1  0  0  0  0
 12 13  1  0  0  0  0
 12 28  1  0  0  0  0
 12 29  1  0  0  0  0
 13 17  1  0  0  0  0
 13 14  1  0  0  0  0
 13 39  1  0  0  0  0
 14 15  1  0  0  0  0
 14 30  1  0  0  0  0
 14 31  1  0  0  0  0
 15 16  1  0  0  0  0
 15 32  1  0  0  0  0
 15 33  1  0  0  0  0
 16 17  1  0  0  0  0
 16 34  1  0  0  0  0
 16 35  1  0  0  0  0
 17 18  1  0  0  0  0
 17 36  1  0  0  0  0
 18 19  1  0  0  0  0
 18 37  1  0  0  0  0
 18 38  1  0  0  0  0
M  CHG  1   6  -1
M  CHG  1  13   1
M  END
> <s_m_source_file>
AV-unprocessed.smi

> <i_m_source_file_index>
1809

> <i_lp_mmshare_version>
43012

> <i_f3d_flags>
0

> <s_epik_input>
W0NIM11jMW5uYyhzMSlbTkhdQyg9TylbTkhdW0NIMl1bQ0BIXShbQ0gyXTIpT1tDSDJdW0NAQEhdKE4yMylbQ0gyXVtDSDJdW0NIMl0z

> <s_epik_cmdline>
J2VwaWtfcHl0aG9uJywgJy1waCcsICc3LjAnLCAnLXRuJywgJzgnLCAnLW1hJywgJzIwMCcsICctbWV0YWxfYmluZGluZycsICctaW1hZScsICc8aW5maWxlLm1hZT4nLCAnLW9tYWUnLCAnPG91dGZpbGUubWFlPic=

> <r_lp_tautomer_probability>
1

> <r_epik_Ionization_Penalty>
3.2601

> <r_epik_Ionization_Penalty_Charging>
3.1406

> <r_epik_Ionization_Penalty_Neutral>
0.119497

> <r_epik_State_Penalty>
3.08894

> <r_epik_Charging_Adjusted_Penalty>
6.22954

> <i_epik_Tot_Q>
0

> <i_epik_Tot_abs_Q>
2

> <r_epik_Metal_State_Penalty>
0.510807

> <b_epik_Metal_Only>
1

> <s_lp_Force_Field>
OPLS_2005

> <r_lp_Energy>
28.9947

> <b_lp_Chiralities_Consistent>
1

> <s_lp_Variant>
AV-unprocessed.smi:1809-16

> <Gold.Version>
5.8.1

> <Gold.Id.Protein>
6NUR|6NUR_protein|mol2

> <Gold.PLP.Fitness>
34.6591

> <Gold.PLP.PLP>
-28.0774

> <Gold.PLP.part.hbond>
-4.6785

> <Gold.PLP.part.metal>
0.0000

> <Gold.PLP.part.buried>
-3.3498

> <Gold.PLP.part.nonpolar>
-20.2406

> <Gold.PLP.part.repulsive>
0.1178

> <Gold.PLP.ligand.clash>
0.0000

> <Gold.PLP.ligand.torsion>
1.2204

> <Gold.PLP.Chemscore.Hbond>
3.0000

> <Gold.PLP.Chemscore.CHOScore>
0.0000

> <Gold.PLP.Chemscore.Metal>
0.0000

> <Gold.Chemscore.Hbonds>
donor molecule, donor type, donor heavy atom, donor atom, acceptor molecule, acceptor atom, score
      L1  H    13    39       P1  7948  2.00
      P1  H  6931  6943       L1     3  1.00

> <Gold.PLP.Chemscore.Internal.Correction>
0.0225

> <Gold.Rescore>
     Score         DG    S(hbond)    S(metal)    S(lipo)     H(rot)  DE(clash)    DE(int)     intcor
     14.31     -15.41       1.83        0.00      61.55       1.32       0.03       1.07       ----

> <Gold.Chemscore.Fitness>
14.3087

> <Gold.Chemscore.DG>
-15.4091

> <Gold.Chemscore.ZeroCoef>
-5.4800

> <Gold.Chemscore.Hbond>
1.8319

> <Gold.Chemscore.Metal>
0.0000

> <Gold.Chemscore.Lipo>
61.5514

> <Gold.Chemscore.Internal_Hbond>
0.0000

> <Gold.Chemscore.DEClash>
0.0330

> <Gold.Chemscore.DEInternal>
1.0675

> <Gold.Chemscore.Rot>
1.3246

> <Gold.Chemscore.Internal.Correction>
   9.000000E+99

> <Gold.Chemscore.Hbonds>
donor molecule, donor type, donor heavy atom, donor atom, acceptor molecule, acceptor atom, score
      L1  H    13    39       P1  7948  0.93
      P1  H  6931  6943       L1     3  0.30

> <Gold.Chemscore.Hbond.Weighted>
-6.1186

> <Gold.Chemscore.Metal.Weighted>
-0.0000

> <Gold.Chemscore.Lipo.Weighted>
-7.2015

> <Gold.Chemscore.Internal_Hbond.Weighted>
0.0000

> <Gold.Chemscore.DEClash.Weighted>
0.0330

> <Gold.Chemscore.DEInternal.Weighted>
1.0675

> <Gold.Chemscore.Rot.Weighted>
3.3910

> <Gold.Chemscore.Internal.Correction.Weighted>
   9.000000E+99

> <Gold.Protein.RotatedTorsions>
[ 6907 6896 6895 6894 ] final  129.68 input  -60.11 | X-H torsion
[ 7974 7965 7964 7962 ] final   76.50 input  175.53 | X-H torsion
[ 8008 7997 7996 7995 ] final  -82.10 input   59.86 | X-H torsion
[ 10167 10162 10161 10158 ] final   12.93 input  -65.29 | X-H torsion
[ 10718 10713 10712 10709 ] final   -3.28 input   66.30 | X-H torsion
[ 10763 10752 10751 10750 ] final  173.53 input  -60.55 | X-H torsion
[ 11005 11000 10999 10996 ] final  -84.84 input  -57.11 | X-H torsion

> <Gold.Protein.ActiveResidues>
 VAL166  LYS551  ARG553  GLY616  TRP617  ASP618  TYR619  PRO620  LYS621  CYS622 
 ASP623  PHE694  ASN695  SER759  ASP760  ASP761  ALA762  ILE779  LEU786  VAL792 
 PHE793  MET794  SER795  GLU796  ALA797  LYS798  CYS799  TRP800  GLU811  SER814 

> <Gold.Protein.RotatedAtoms>
  152.3601  133.6286  159.6008 H   0  0  0  0  0  0  0  0  0  0  0  0  # atno 6907 bound_to 6896
  150.7595  133.9438  159.3473 H   0  0  0  0  0  0  0  0  0  0  0  0  # atno 6908 bound_to 6896
  151.7277  135.0882  160.0346 H   0  0  0  0  0  0  0  0  0  0  0  0  # atno 6909 bound_to 6896
  145.7020  139.2586  143.1700 H   0  0  0  0  0  0  0  0  0  0  0  0  # atno 7974 bound_to 7965
  154.6051  140.0638  156.9420 H   0  0  0  0  0  0  0  0  0  0  0  0  # atno 8008 bound_to 7997
  155.2067  140.3319  155.4316 H   0  0  0  0  0  0  0  0  0  0  0  0  # atno 8009 bound_to 7997
  156.2342  140.1855  156.7146 H   0  0  0  0  0  0  0  0  0  0  0  0  # atno 8010 bound_to 7997
  140.6036  143.8554  150.6990 H   0  0  0  0  0  0  0  0  0  0  0  0  # atno 10167 bound_to 10162
  156.7784  130.5322  149.5755 H   0  0  0  0  0  0  0  0  0  0  0  0  # atno 10718 bound_to 10713
  154.4413  135.2762  155.1845 H   0  0  0  0  0  0  0  0  0  0  0  0  # atno 10763 bound_to 10752
  154.3710  135.6108  153.5744 H   0  0  0  0  0  0  0  0  0  0  0  0  # atno 10764 bound_to 10752
  152.9841  135.5857  154.4741 H   0  0  0  0  0  0  0  0  0  0  0  0  # atno 10765 bound_to 10752
  141.1647  133.7367  156.8927 H   0  0  0  0  0  0  0  0  0  0  0  0  # atno 11005 bound_to 11000
  146.0789  140.7786  142.9651 LP  0  0  0  0  0  0  0  0  0  0  0  0  # atno 17320 bound_to 7965
  144.6966  140.3458  143.7191 LP  0  0  0  0  0  0  0  0  0  0  0  0  # atno 17321 bound_to 7965
  140.2106  143.3887  152.1721 LP  0  0  0  0  0  0  0  0  0  0  0  0  # atno 17342 bound_to 10162
  139.5309  144.7157  151.5061 LP  0  0  0  0  0  0  0  0  0  0  0  0  # atno 17343 bound_to 10162
  156.1234  130.6126  151.0227 LP  0  0  0  0  0  0  0  0  0  0  0  0  # atno 17370 bound_to 10713
  157.6658  131.0872  150.7731 LP  0  0  0  0  0  0  0  0  0  0  0  0  # atno 17371 bound_to 10713
  140.1637  134.9148  157.2747 LP  0  0  0  0  0  0  0  0  0  0  0  0  # atno 17394 bound_to 11000
  140.2581  134.3603  155.7416 LP  0  0  0  0  0  0  0  0  0  0  0  0  # atno 17395 bound_to 11000

$$$$
