#       Name:                AV-unprocessed.smi:2564
#       Creating user name   scv26
#       Creation time:       Fri Mar 27 14:10:19 2020


#       File generated by GOLD software.
#

@<TRIPOS>MOLECULE
AV-unprocessed.smi:2564
    33    34     1
SMALL
NO_CHARGES


@<TRIPOS>ATOM
      1 ****        -3.7338   2.0232  -1.0537 C.ar           1 S1                 0.0000
      2 ****        -2.9229   3.1724  -1.0373 C.ar           1 S1                 0.0000
      3 ****        -1.5787   3.1168  -1.1716 N.ar           1 S1                 0.0000
      4 ****        -0.9695   1.9356  -1.3256 N.ar           1 S1                 0.0000
      5 ****        -1.6887   0.7846  -1.3460 C.ar           1 S1                 0.0000
      6 ****        -1.0239  -0.4397  -1.5067 N.pl3          1 S1                 0.0000
      7 ****         0.4273  -0.5351  -1.3978 C.3            1 S1                 0.0000
      8 ****         0.9143  -0.4739   0.0600 C.3            1 S1                 0.0000
      9 ****         2.4527  -0.4069   0.1379 C.3            1 S1                 0.0000
     10 ****         2.8976  -0.4318   1.5306 N.3            1 S1                 0.0000
     11 ****         2.3683  -1.5968   2.2363 C.3            1 S1                 0.0000
     12 ****         0.8367  -1.6500   2.1033 C.3            1 S1                 0.0000
     13 ****         0.4824  -1.6591   0.7248 O.3            1 S1                 0.0000
     14 ****        -3.0917   0.7833  -1.2152 C.ar           1 S1                 0.0000
     15 ****        -4.8061   2.0914  -0.9460 H              1 S1                 0.0000
     16 ****        -3.3582   4.1531  -0.9147 H              1 S1                 0.0000
     17 ****        -1.5592  -1.2947  -1.4619 H              1 S1                 0.0000
     18 ****         0.7452  -1.4732  -1.8534 H              1 S1                 0.0000
     19 ****         0.8898   0.2584  -1.9860 H              1 S1                 0.0000
     20 ****         0.4896   0.4027   0.5531 H              1 S1                 0.0000
     21 ****         2.8867  -1.2480  -0.4043 H              1 S1                 0.0000
     22 ****         2.8129   0.4990  -0.3502 H              1 S1                 0.0000
     23 ****         3.9119  -0.4461   1.5635 H              1 S1                 0.0000
     24 ****         2.8029  -2.5087   1.8250 H              1 S1                 0.0000
     25 ****         2.6532  -1.5597   3.2879 H              1 S1                 0.0000
     26 ****         0.4516  -2.5555   2.5723 H              1 S1                 0.0000
     27 ****         0.3684  -0.8046   2.6102 H              1 S1                 0.0000
     28 ****        -3.6585  -0.1360  -1.2350 H              1 S1                 0.0000
     29 ****        -1.0396   3.9589  -1.1558 LP             1 S1                 0.0000
     30 ****         0.0248   1.9004  -1.4266 LP             1 S1                 0.0000
     31 ****         2.5529   0.3906   1.9832 LP             1 S1                 0.0000
     32 ****         0.9087  -2.4502   0.2861 LP             1 S1                 0.0000
     33 ****        -0.5120  -1.7303   0.6465 LP             1 S1                 0.0000
@<TRIPOS>BOND
    1    1   14 ar    
    2    1    2 ar    
    3    1   15 1     
    4    2    3 ar    
    5    2   16 1     
    6    3    4 ar    
    7    4    5 ar    
    8    5    6 1     
    9    5   14 ar    
   10    6    7 1     
   11    6   17 1     
   12    7    8 1     
   13    7   18 1     
   14    7   19 1     
   15    8   13 1     
   16    8    9 1     
   17    8   20 1     
   18    9   10 1     
   19    9   21 1     
   20    9   22 1     
   21   10   11 1     
   22   10   23 1     
   23   11   12 1     
   24   11   24 1     
   25   11   25 1     
   26   12   13 1     
   27   12   26 1     
   28   12   27 1     
   29   14   28 1     
   30    3   29 1     
   31    4   30 1     
   32   10   31 1     
   33   13   32 1     
   34   13   33 1     
@<TRIPOS>SUBSTRUCTURE
      1 S1             1
@<TRIPOS>SET
LONE_PAIRS      STATIC     ATOMS    <user>   **** ""
5 29 30 31 32 33
DONOR_HYDROGENS      STATIC     ATOMS    <user>   **** ""
2 17 23
ATOM$BLUE        STATIC     ATOMS    COLORGROUP SYSTEM
5 29 30 31 32 33
ATOM$RED        STATIC     ATOMS    COLORGROUP SYSTEM
2 17 23
