AV-unprocessed.smi:3303|AV-procd|sdf|12666|dock9
  -GOLD-   2272019 03D 1   1.00000     0.00000
 Structure written by MMmdl.
 45 46  0  0  0  0  0  0  0  0  3 V2000
  145.9820  142.9834  154.1385 C   0  0  0  0  0  0  0  0  0  0  0  0
  146.8730  142.0572  154.9856 C   0  0  1  0  0  0  0  0  0  0  0  0
  146.0611  140.9000  155.6034 C   0  0  0  0  0  0  0  0  0  0  0  0
  145.6499  139.8929  154.5895 N   0  3  2  0  0  0  0  0  0  0  0  0
  144.7399  138.8840  155.1850 C   0  0  0  0  0  0  0  0  0  0  0  0
  146.8230  139.3079  153.8728 C   0  0  1  0  0  0  0  0  0  0  0  0
  146.4120  138.2779  152.8024 C   0  0  0  0  0  0  0  0  0  0  0  0
  147.6662  140.4225  153.2144 C   0  0  0  0  0  0  0  0  0  0  0  0
  148.0900  141.5281  154.1979 C   0  0  2  0  0  0  0  0  0  0  0  0
  149.1481  141.0420  155.1156 N   0  3  0  0  0  0  0  0  0  0  0  0
  149.4942  141.9736  156.2079 C   0  0  0  0  0  0  0  0  0  0  0  0
  150.9657  142.4012  156.1281 C   0  0  0  0  0  0  0  0  0  0  0  0
  151.3811  143.2324  157.3269 C   0  0  0  0  0  0  0  0  0  0  0  0
  151.6394  144.6136  157.1954 C   0  0  0  0  0  0  0  0  0  0  0  0
  152.0336  145.3332  158.3404 C   0  0  0  0  0  0  0  0  0  0  0  0
  152.1554  144.6470  159.5641 C   0  0  0  0  0  0  0  0  0  0  0  0
  151.8759  143.2662  159.5897 C   0  0  0  0  0  0  0  0  0  0  0  0
  151.4976  142.5667  158.4977 N   0  0  0  0  0  0  0  0  0  0  0  0
  145.5357  142.4610  153.2922 H   0  0  0  0  0  0  0  0  0  0  0  0
  146.5527  143.8251  153.7449 H   0  0  0  0  0  0  0  0  0  0  0  0
  145.1684  143.3957  154.7360 H   0  0  0  0  0  0  0  0  0  0  0  0
  147.2470  142.6729  155.8053 H   0  0  0  0  0  0  0  0  0  0  0  0
  146.6486  140.4044  156.3779 H   0  0  0  0  0  0  0  0  0  0  0  0
  145.1786  141.3047  156.1014 H   0  0  0  0  0  0  0  0  0  0  0  0
  145.2778  138.2223  155.8651 H   0  0  0  0  0  0  0  0  0  0  0  0
  144.2581  138.2776  154.4188 H   0  0  0  0  0  0  0  0  0  0  0  0
  143.9395  139.3676  155.7462 H   0  0  0  0  0  0  0  0  0  0  0  0
  147.4433  138.7940  154.6090 H   0  0  0  0  0  0  0  0  0  0  0  0
  147.2781  137.9450  152.2294 H   0  0  0  0  0  0  0  0  0  0  0  0
  145.6947  138.7001  152.0975 H   0  0  0  0  0  0  0  0  0  0  0  0
  145.9702  137.3834  153.2414 H   0  0  0  0  0  0  0  0  0  0  0  0
  148.5514  139.9945  152.7413 H   0  0  0  0  0  0  0  0  0  0  0  0
  147.0903  140.8711  152.4036 H   0  0  0  0  0  0  0  0  0  0  0  0
  148.5041  142.3505  153.6114 H   0  0  0  0  0  0  0  0  0  0  0  0
  148.8419  140.1719  155.5274 H   0  0  0  0  0  0  0  0  0  0  0  0
  148.8464  142.8493  156.1453 H   0  0  0  0  0  0  0  0  0  0  0  0
  149.2993  141.4926  157.1678 H   0  0  0  0  0  0  0  0  0  0  0  0
  151.6080  141.5218  156.0607 H   0  0  0  0  0  0  0  0  0  0  0  0
  151.1406  142.9801  155.2199 H   0  0  0  0  0  0  0  0  0  0  0  0
  151.5404  145.1128  156.2426 H   0  0  0  0  0  0  0  0  0  0  0  0
  152.2403  146.3917  158.2808 H   0  0  0  0  0  0  0  0  0  0  0  0
  152.4560  145.1660  160.4622 H   0  0  0  0  0  0  0  0  0  0  0  0
  151.9598  142.7082  160.5105 H   0  0  0  0  0  0  0  0  0  0  0  0
  149.9851  140.8658  154.5782 H   0  0  0  0  0  0  0  0  0  0  0  0
  145.1051  140.3902  153.8988 H   0  0  0  0  0  0  0  0  0  0  0  0
  1  2  1  0  0  0  0
  1 19  1  0  0  0  0
  1 20  1  0  0  0  0
  1 21  1  0  0  0  0
  2  9  1  0  0  0  0
  2  3  1  0  0  0  0
  2 22  1  0  0  0  0
  3  4  1  0  0  0  0
  3 23  1  0  0  0  0
  3 24  1  0  0  0  0
  4  5  1  0  0  0  0
  4  6  1  0  0  0  0
  4 45  1  0  0  0  0
  5 25  1  0  0  0  0
  5 26  1  0  0  0  0
  5 27  1  0  0  0  0
  6  7  1  0  0  0  0
  6  8  1  0  0  0  0
  6 28  1  0  0  0  0
  7 29  1  0  0  0  0
  7 30  1  0  0  0  0
  7 31  1  0  0  0  0
  8  9  1  0  0  0  0
  8 32  1  0  0  0  0
  8 33  1  0  0  0  0
  9 10  1  0  0  0  0
  9 34  1  0  0  0  0
 10 11  1  0  0  0  0
 10 35  1  0  0  0  0
 10 44  1  0  0  0  0
 11 12  1  0  0  0  0
 11 36  1  0  0  0  0
 11 37  1  0  0  0  0
 12 13  1  0  0  0  0
 12 38  1  0  0  0  0
 12 39  1  0  0  0  0
 13 18  1  0  0  0  0
 13 14  2  0  0  0  0
 14 15  1  0  0  0  0
 14 40  1  0  0  0  0
 15 16  2  0  0  0  0
 15 41  1  0  0  0  0
 16 17  1  0  0  0  0
 16 42  1  0  0  0  0
 17 18  2  0  0  0  0
 17 43  1  0  0  0  0
M  CHG  1   4   1
M  CHG  1  10   1
M  END
> <s_m_source_file>
AV-unprocessed.smi

> <i_m_source_file_index>
3303

> <i_lp_mmshare_version>
43012

> <i_f3d_flags>
0

> <s_epik_input>
W0NIM11bQ0BASF0xW0NIMl1OKFtDSDNdKVtDQEBIXShbQ0gzXSlbQ0gyXVtDQEhdMVtOSF1bQ0gyXVtDSDJdYzJbY0hdW2NIXVtjSF1bY0hdbjI=

> <s_epik_cmdline>
J2VwaWtfcHl0aG9uJywgJy1waCcsICc3LjAnLCAnLXRuJywgJzgnLCAnLW1hJywgJzIwMCcsICctbWV0YWxfYmluZGluZycsICctaW1hZScsICc8aW5maWxlLm1hZT4nLCAnLW9tYWUnLCAnPG91dGZpbGUubWFlPic=

> <r_epik_Ionization_Penalty>
0.0769462

> <r_epik_Ionization_Penalty_Charging>
0.0759813

> <r_epik_Ionization_Penalty_Neutral>
0.000964829

> <r_epik_State_Penalty>
0.0654373

> <r_epik_Charging_Adjusted_Penalty>
0.141419

> <i_epik_Tot_Q>
2

> <i_epik_Tot_abs_Q>
2

> <r_epik_Metal_State_Penalty>
0.0656439

> <b_epik_Metal_Only>
0

> <s_lp_Force_Field>
OPLS_2005

> <r_lp_Energy>
35.1377

> <b_lp_Chiralities_Consistent>
1

> <s_lp_Variant>
AV-unprocessed.smi:3303-10

> <Gold.Version>
5.8.1

> <Gold.Id.Protein>
6NUR|6NUR_protein|mol2

> <Gold.PLP.Fitness>
42.1135

> <Gold.PLP.PLP>
-37.2409

> <Gold.PLP.part.hbond>
-1.0000

> <Gold.PLP.part.metal>
0.0000

> <Gold.PLP.part.buried>
-2.0335

> <Gold.PLP.part.nonpolar>
-34.6508

> <Gold.PLP.part.repulsive>
0.1272

> <Gold.PLP.ligand.clash>
0.0000

> <Gold.PLP.ligand.torsion>
0.5448

> <Gold.PLP.Chemscore.Hbond>
1.9840

> <Gold.PLP.Chemscore.CHOScore>
0.0000

> <Gold.PLP.Chemscore.Metal>
0.0000

> <Gold.Chemscore.Hbonds>
donor molecule, donor type, donor heavy atom, donor atom, acceptor molecule, acceptor atom, score
      L1  H     4    45       P1 10175  2.00

> <Gold.PLP.Chemscore.Internal.Correction>
0.0102

> <Gold.Rescore>
     Score         DG    S(hbond)    S(metal)    S(lipo)     H(rot)  DE(clash)    DE(int)     intcor
     17.22     -17.88       0.97        0.00     108.44       1.37       0.14       0.52       ----

> <Gold.Chemscore.Fitness>
17.2170

> <Gold.Chemscore.DG>
-17.8803

> <Gold.Chemscore.ZeroCoef>
-5.4800

> <Gold.Chemscore.Hbond>
0.9673

> <Gold.Chemscore.Metal>
0.0000

> <Gold.Chemscore.Lipo>
108.4449

> <Gold.Chemscore.Internal_Hbond>
0.0000

> <Gold.Chemscore.DEClash>
0.1433

> <Gold.Chemscore.DEInternal>
0.5200

> <Gold.Chemscore.Rot>
1.3744

> <Gold.Chemscore.Internal.Correction>
   9.000000E+99

> <Gold.Chemscore.Hbonds>
donor molecule, donor type, donor heavy atom, donor atom, acceptor molecule, acceptor atom, score
      L1  H     4    45       P1 10175  0.92

> <Gold.Chemscore.Hbond.Weighted>
-3.2307

> <Gold.Chemscore.Metal.Weighted>
-0.0000

> <Gold.Chemscore.Lipo.Weighted>
-12.6881

> <Gold.Chemscore.Internal_Hbond.Weighted>
0.0000

> <Gold.Chemscore.DEClash.Weighted>
0.1433

> <Gold.Chemscore.DEInternal.Weighted>
0.5200

> <Gold.Chemscore.Rot.Weighted>
3.5185

> <Gold.Chemscore.Internal.Correction.Weighted>
   9.000000E+99

> <Gold.Protein.RotatedTorsions>
[ 6907 6896 6895 6894 ] final -144.16 input  -60.11 | X-H torsion
[ 7974 7965 7964 7962 ] final -157.19 input  175.53 | X-H torsion
[ 8008 7997 7996 7995 ] final -116.09 input   59.86 | X-H torsion
[ 10167 10162 10161 10158 ] final  152.41 input  -65.29 | X-H torsion
[ 10718 10713 10712 10709 ] final  119.87 input   66.30 | X-H torsion
[ 10763 10752 10751 10750 ] final   -5.81 input  -60.55 | X-H torsion
[ 11005 11000 10999 10996 ] final  -66.32 input  -57.11 | X-H torsion

> <Gold.Protein.ActiveResidues>
 VAL166  LYS551  ARG553  GLY616  TRP617  ASP618  TYR619  PRO620  LYS621  CYS622 
 ASP623  PHE694  ASN695  SER759  ASP760  ASP761  ALA762  ILE779  LEU786  VAL792 
 PHE793  MET794  SER795  GLU796  ALA797  LYS798  CYS799  TRP800  GLU811  SER814 

> <Gold.Protein.RotatedAtoms>
  151.1102  133.5178  159.2605 H   0  0  0  0  0  0  0  0  0  0  0  0  # atno 6907 bound_to 6896
  151.1976  135.0428  159.8868 H   0  0  0  0  0  0  0  0  0  0  0  0  # atno 6908 bound_to 6896
  152.5449  134.0934  159.8340 H   0  0  0  0  0  0  0  0  0  0  0  0  # atno 6909 bound_to 6896
  144.7559  140.4004  143.6012 H   0  0  0  0  0  0  0  0  0  0  0  0  # atno 7974 bound_to 7965
  155.0624  140.0393  157.2581 H   0  0  0  0  0  0  0  0  0  0  0  0  # atno 8008 bound_to 7997
  154.7049  140.2681  155.6660 H   0  0  0  0  0  0  0  0  0  0  0  0  # atno 8009 bound_to 7997
  156.2772  140.2733  156.1671 H   0  0  0  0  0  0  0  0  0  0  0  0  # atno 8010 bound_to 7997
  139.4833  144.5360  151.7644 H   0  0  0  0  0  0  0  0  0  0  0  0  # atno 10167 bound_to 10162
  157.5931  131.1061  150.7956 H   0  0  0  0  0  0  0  0  0  0  0  0  # atno 10718 bound_to 10713
  153.4037  135.7005  153.6408 H   0  0  0  0  0  0  0  0  0  0  0  0  # atno 10763 bound_to 10752
  153.4931  135.3668  155.2502 H   0  0  0  0  0  0  0  0  0  0  0  0  # atno 10764 bound_to 10752
  154.8712  135.4093  154.3376 H   0  0  0  0  0  0  0  0  0  0  0  0  # atno 10765 bound_to 10752
  141.1479  133.6697  156.6122 H   0  0  0  0  0  0  0  0  0  0  0  0  # atno 11005 bound_to 11000
  145.6781  139.1612  143.2716 LP  0  0  0  0  0  0  0  0  0  0  0  0  # atno 17320 bound_to 7965
  146.1569  140.6845  142.9296 LP  0  0  0  0  0  0  0  0  0  0  0  0  # atno 17321 bound_to 7965
  140.4893  144.1334  150.5947 LP  0  0  0  0  0  0  0  0  0  0  0  0  # atno 17342 bound_to 10162
  140.4189  143.2621  151.9740 LP  0  0  0  0  0  0  0  0  0  0  0  0  # atno 17343 bound_to 10162
  156.8373  130.5036  149.5325 LP  0  0  0  0  0  0  0  0  0  0  0  0  # atno 17370 bound_to 10713
  156.0989  130.5954  150.9861 LP  0  0  0  0  0  0  0  0  0  0  0  0  # atno 17371 bound_to 10713
  140.3605  134.7691  157.4531 LP  0  0  0  0  0  0  0  0  0  0  0  0  # atno 17394 bound_to 11000
  140.0788  134.5759  155.8562 LP  0  0  0  0  0  0  0  0  0  0  0  0  # atno 17395 bound_to 11000

$$$$
