AV-unprocessed.smi:47|AV-procd|sdf|439|dock5
  -GOLD-   2262016313D 1   1.00000     0.00000
 Structure written by MMmdl.
 32 34  0  0  0  0  0  0  0  0  2 V2000
  147.1269  140.4428  152.7443 O   0  0  0  0  0  0  0  0  0  0  0  0
  147.7084  140.1504  153.9979 C   0  0  1  0  0  0  0  0  0  0  0  0
  148.1788  138.6901  154.0608 C   0  0  0  0  0  0  0  0  0  0  0  0
  149.4364  138.7180  154.8214 N   0  3  0  0  0  0  0  0  0  0  0  0
  150.0943  139.9901  154.4797 C   0  0  2  0  0  0  0  0  0  0  0  0
  151.0022  140.2967  155.6332 C   0  0  0  0  0  0  0  0  0  0  0  0
  152.0333  139.5496  156.0357 N   0  0  0  0  0  0  0  0  0  0  0  0
  152.5591  140.2125  157.1286 N   0  0  0  0  0  0  0  0  0  0  0  0
  151.8064  141.3076  157.3090 C   0  0  0  0  0  0  0  0  0  0  0  0
  152.0256  142.2897  158.3733 C   0  0  0  0  0  0  0  0  0  0  0  0
  152.6503  141.9082  159.5837 C   0  0  0  0  0  0  0  0  0  0  0  0
  152.8650  142.8538  160.6054 C   0  0  0  0  0  0  0  0  0  0  0  0
  152.4605  144.1899  160.4270 C   0  0  0  0  0  0  0  0  0  0  0  0
  151.8398  144.5799  159.2258 C   0  0  0  0  0  0  0  0  0  0  0  0
  151.6230  143.6350  158.2040 C   0  0  0  0  0  0  0  0  0  0  0  0
  150.8266  141.3874  156.3911 N   0  0  0  0  0  0  0  0  0  0  0  0
  148.9634  141.0021  154.2527 C   0  0  0  0  0  0  0  0  0  0  0  0
  146.9739  140.3375  154.7825 H   0  0  0  0  0  0  0  0  0  0  0  0
  150.6712  139.8501  153.5641 H   0  0  0  0  0  0  0  0  0  0  0  0
  150.1195  142.1029  156.3017 H   0  0  0  0  0  0  0  0  0  0  0  0
  147.7726  140.2977  152.0689 H   0  0  0  0  0  0  0  0  0  0  0  0
  147.4430  138.0269  154.5164 H   0  0  0  0  0  0  0  0  0  0  0  0
  148.4011  138.3110  153.0619 H   0  0  0  0  0  0  0  0  0  0  0  0
  149.2149  138.7354  155.8070 H   0  0  0  0  0  0  0  0  0  0  0  0
  152.9685  140.8887  159.7434 H   0  0  0  0  0  0  0  0  0  0  0  0
  153.3414  142.5540  161.5271 H   0  0  0  0  0  0  0  0  0  0  0  0
  152.6267  144.9148  161.2102 H   0  0  0  0  0  0  0  0  0  0  0  0
  151.5301  145.6053  159.0866 H   0  0  0  0  0  0  0  0  0  0  0  0
  151.1469  143.9568  157.2895 H   0  0  0  0  0  0  0  0  0  0  0  0
  149.2003  141.6860  153.4366 H   0  0  0  0  0  0  0  0  0  0  0  0
  148.8023  141.6102  155.1442 H   0  0  0  0  0  0  0  0  0  0  0  0
  150.0240  137.9230  154.6147 H   0  0  0  0  0  0  0  0  0  0  0  0
  1  2  1  0  0  0  0
  1 21  1  0  0  0  0
  2 18  1  0  0  0  0
  2 17  1  0  0  0  0
  2  3  1  0  0  0  0
  3  4  1  0  0  0  0
  3 22  1  0  0  0  0
  3 23  1  0  0  0  0
  4  5  1  0  0  0  0
  4 24  1  0  0  0  0
  4 32  1  0  0  0  0
  5 19  1  0  0  0  0
  5 17  1  0  0  0  0
  5  6  1  0  0  0  0
  6  7  2  0  0  0  0
  6 16  1  0  0  0  0
  7  8  1  0  0  0  0
  8  9  2  0  0  0  0
  9 16  1  0  0  0  0
  9 10  1  0  0  0  0
 10 15  1  0  0  0  0
 10 11  2  0  0  0  0
 11 12  1  0  0  0  0
 11 25  1  0  0  0  0
 12 13  2  0  0  0  0
 12 26  1  0  0  0  0
 13 14  1  0  0  0  0
 13 27  1  0  0  0  0
 14 15  2  0  0  0  0
 14 28  1  0  0  0  0
 15 29  1  0  0  0  0
 16 20  1  0  0  0  0
 17 30  1  0  0  0  0
 17 31  1  0  0  0  0
M  CHG  1   4   1
M  END
> <s_m_source_file>
AV-unprocessed.smi

> <i_m_source_file_index>
47

> <i_lp_mmshare_version>
43012

> <i_f3d_flags>
0

> <s_epik_input>
W09IXVtDQEhdMVtDSDJdW05IXVtDQEBIXShbQ0gyXTEpYzJuW25IXWMobjIpLWMzW2NIXVtjSF1bY0hdW2NIXVtjSF0z

> <s_epik_cmdline>
J2VwaWtfcHl0aG9uJywgJy1waCcsICc3LjAnLCAnLXRuJywgJzgnLCAnLW1hJywgJzIwMCcsICctbWV0YWxfYmluZGluZycsICctaW1hZScsICc8aW5maWxlLm1hZT4nLCAnLW9tYWUnLCAnPG91dGZpbGUubWFlPic=

> <r_lp_tautomer_probability>
0.0517155

> <r_epik_Ionization_Penalty>
2.45729

> <r_epik_Ionization_Penalty_Charging>
0.0688988

> <r_epik_Ionization_Penalty_Neutral>
2.3884

> <r_epik_State_Penalty>
2.69236

> <r_epik_Charging_Adjusted_Penalty>
2.76126

> <i_epik_Tot_Q>
1

> <i_epik_Tot_abs_Q>
1

> <r_epik_Metal_State_Penalty>
3.18974

> <b_epik_Metal_Only>
0

> <s_lp_Force_Field>
OPLS_2005

> <r_lp_Energy>
30.5648

> <b_lp_Chiralities_Consistent>
1

> <s_lp_Variant>
AV-unprocessed.smi:47-17

> <Gold.Version>
5.8.1

> <Gold.Id.Protein>
6NUR|6NUR_protein|mol2

> <Gold.PLP.Fitness>
41.2220

> <Gold.PLP.PLP>
-35.8377

> <Gold.PLP.part.hbond>
-2.0000

> <Gold.PLP.part.metal>
0.0000

> <Gold.PLP.part.buried>
-3.4282

> <Gold.PLP.part.nonpolar>
-29.8112

> <Gold.PLP.part.repulsive>
0.1260

> <Gold.PLP.ligand.clash>
0.0000

> <Gold.PLP.ligand.torsion>
0.3146

> <Gold.PLP.Chemscore.Hbond>
2.0000

> <Gold.PLP.Chemscore.CHOScore>
0.0000

> <Gold.PLP.Chemscore.Metal>
0.0000

> <Gold.Chemscore.Hbonds>
donor molecule, donor type, donor heavy atom, donor atom, acceptor molecule, acceptor atom, score
      L1  H     1    21       P1  7957  0.98
      P1  H  7997  8009       L1     8  0.98

> <Gold.PLP.Chemscore.Internal.Correction>
0.0136

> <Gold.Rescore>
     Score         DG    S(hbond)    S(metal)    S(lipo)     H(rot)  DE(clash)    DE(int)     intcor
     17.59     -17.84       1.52        0.00      95.08       1.50       0.03       0.21       ----

> <Gold.Chemscore.Fitness>
17.5909

> <Gold.Chemscore.DG>
-17.8370

> <Gold.Chemscore.ZeroCoef>
-5.4800

> <Gold.Chemscore.Hbond>
1.5162

> <Gold.Chemscore.Metal>
0.0000

> <Gold.Chemscore.Lipo>
95.0783

> <Gold.Chemscore.Internal_Hbond>
0.0000

> <Gold.Chemscore.DEClash>
0.0316

> <Gold.Chemscore.DEInternal>
0.2145

> <Gold.Chemscore.Rot>
1.4966

> <Gold.Chemscore.Internal.Correction>
   9.000000E+99

> <Gold.Chemscore.Hbonds>
donor molecule, donor type, donor heavy atom, donor atom, acceptor molecule, acceptor atom, score
      L1  H     1    21       P1  7957  0.92
      P1  H  7997  8009       L1     8  0.28

> <Gold.Chemscore.Hbond.Weighted>
-5.0640

> <Gold.Chemscore.Metal.Weighted>
-0.0000

> <Gold.Chemscore.Lipo.Weighted>
-11.1242

> <Gold.Chemscore.Internal_Hbond.Weighted>
0.0000

> <Gold.Chemscore.DEClash.Weighted>
0.0316

> <Gold.Chemscore.DEInternal.Weighted>
0.2145

> <Gold.Chemscore.Rot.Weighted>
3.8312

> <Gold.Chemscore.Internal.Correction.Weighted>
   9.000000E+99

> <Gold.Protein.RotatedTorsions>
[ 6907 6896 6895 6894 ] final  -78.44 input  -60.11 | X-H torsion
[ 7974 7965 7964 7962 ] final   31.76 input  175.53 | X-H torsion
[ 8008 7997 7996 7995 ] final  171.92 input   59.86 | X-H torsion
[ 10167 10162 10161 10158 ] final   -1.62 input  -65.29 | X-H torsion
[ 10718 10713 10712 10709 ] final  -72.06 input   66.30 | X-H torsion
[ 10763 10752 10751 10750 ] final  -33.82 input  -60.55 | X-H torsion
[ 11005 11000 10999 10996 ] final   40.43 input  -57.11 | X-H torsion

> <Gold.Protein.ActiveResidues>
 VAL166  LYS551  ARG553  GLY616  TRP617  ASP618  TYR619  PRO620  LYS621  CYS622 
 ASP623  PHE694  ASN695  SER759  ASP760  ASP761  ALA762  ILE779  LEU786  VAL792 
 PHE793  MET794  SER795  GLU796  ALA797  LYS798  CYS799  TRP800  GLU811  SER814 

> <Gold.Protein.RotatedAtoms>
  150.6973  134.4272  159.5231 H   0  0  0  0  0  0  0  0  0  0  0  0  # atno 6907 bound_to 6896
  152.2005  134.8590  160.0517 H   0  0  0  0  0  0  0  0  0  0  0  0  # atno 6908 bound_to 6896
  151.9512  133.3631  159.4037 H   0  0  0  0  0  0  0  0  0  0  0  0  # atno 6909 bound_to 6896
  146.1529  139.6614  142.9086 H   0  0  0  0  0  0  0  0  0  0  0  0  # atno 7974 bound_to 7965
  156.1225  140.1499  156.9184 H   0  0  0  0  0  0  0  0  0  0  0  0  # atno 8008 bound_to 7997
  154.4846  140.0869  156.7498 H   0  0  0  0  0  0  0  0  0  0  0  0  # atno 8009 bound_to 7997
  155.4403  140.3431  155.4291 H   0  0  0  0  0  0  0  0  0  0  0  0  # atno 8010 bound_to 7997
  140.6818  143.6753  150.8151 H   0  0  0  0  0  0  0  0  0  0  0  0  # atno 10167 bound_to 10162
  156.0336  130.4364  150.2537 H   0  0  0  0  0  0  0  0  0  0  0  0  # atno 10718 bound_to 10713
  153.8365  135.6861  153.4808 H   0  0  0  0  0  0  0  0  0  0  0  0  # atno 10763 bound_to 10752
  153.1479  135.4630  154.9592 H   0  0  0  0  0  0  0  0  0  0  0  0  # atno 10764 bound_to 10752
  154.7864  135.3286  154.7823 H   0  0  0  0  0  0  0  0  0  0  0  0  # atno 10765 bound_to 10752
  140.1932  134.3961  155.8135 H   0  0  0  0  0  0  0  0  0  0  0  0  # atno 11005 bound_to 11000
  145.4778  141.0437  143.2662 LP  0  0  0  0  0  0  0  0  0  0  0  0  # atno 17320 bound_to 7965
  144.7927  139.6296  143.7106 LP  0  0  0  0  0  0  0  0  0  0  0  0  # atno 17321 bound_to 7965
  140.0454  143.5303  152.2698 LP  0  0  0  0  0  0  0  0  0  0  0  0  # atno 17342 bound_to 10162
  139.6146  144.7616  151.2876 LP  0  0  0  0  0  0  0  0  0  0  0  0  # atno 17343 bound_to 10162
  157.0637  131.0097  151.3214 LP  0  0  0  0  0  0  0  0  0  0  0  0  # atno 17370 bound_to 10713
  157.5051  130.7904  149.7645 LP  0  0  0  0  0  0  0  0  0  0  0  0  # atno 17371 bound_to 10713
  141.2226  133.7056  156.8131 LP  0  0  0  0  0  0  0  0  0  0  0  0  # atno 17394 bound_to 11000
  140.2137  134.8809  157.3302 LP  0  0  0  0  0  0  0  0  0  0  0  0  # atno 17395 bound_to 11000

$$$$
