AV-unprocessed.smi:2172|AV-procd|sdf|8834|dock3
  -GOLD-   2272012 23D 1   1.00000     0.00000
 Structure written by MMmdl.
 36 38  0  0  0  0  0  0  0  0  1 V2000
  151.5613  140.0996  155.0275 O   0  0  0  0  0  0  0  0  0  0  0  0
  150.9054  140.0914  156.2768 C   0  0  0  0  0  0  0  0  0  0  0  0
  151.2481  141.2776  157.1268 C   0  0  0  0  0  0  0  0  0  0  0  0
  151.0276  142.5242  156.7068 N   0  0  0  0  0  0  0  0  0  0  0  0
  151.4548  143.2865  157.7756 C   0  0  0  0  0  0  0  0  0  0  0  0
  151.4790  144.6887  157.9515 C   0  0  0  0  0  0  0  0  0  0  0  0
  151.9606  145.2493  159.1527 C   0  0  0  0  0  0  0  0  0  0  0  0
  152.4219  144.4176  160.1936 C   0  0  0  0  0  0  0  0  0  0  0  0
  152.4075  143.0182  160.0381 C   0  0  0  0  0  0  0  0  0  0  0  0
  151.9301  142.4634  158.8351 C   0  0  0  0  0  0  0  0  0  0  0  0
  151.7908  141.1602  158.3667 N   0  0  0  0  0  0  0  0  0  0  0  0
  152.1500  139.9487  159.0954 C   0  0  0  0  0  0  0  0  0  0  0  0
  153.6750  139.7439  159.2054 C   0  0  2  0  0  0  0  0  0  0  0  0
  154.1679  139.1116  158.0405 O   0  0  0  0  0  0  0  0  0  0  0  0
  154.0378  138.9862  160.4731 C   0  0  0  0  0  0  0  0  0  0  0  0
  154.7882  139.6250  161.4836 C   0  0  0  0  0  0  0  0  0  0  0  0
  155.1226  138.9339  162.6646 C   0  0  0  0  0  0  0  0  0  0  0  0
  154.7064  137.6004  162.8430 C   0  0  0  0  0  0  0  0  0  0  0  0
  155.1171  136.7541  164.2895 Cl  0  0  0  0  0  0  0  0  0  0  0  0
  153.9531  136.9594  161.8406 C   0  0  0  0  0  0  0  0  0  0  0  0
  153.6180  137.6506  160.6601 C   0  0  0  0  0  0  0  0  0  0  0  0
  152.4279  139.7412  155.1418 H   0  0  0  0  0  0  0  0  0  0  0  0
  149.8295  140.0748  156.0996 H   0  0  0  0  0  0  0  0  0  0  0  0
  151.1437  139.1727  156.8124 H   0  0  0  0  0  0  0  0  0  0  0  0
  151.1248  145.3338  157.1612 H   0  0  0  0  0  0  0  0  0  0  0  0
  151.9742  146.3222  159.2764 H   0  0  0  0  0  0  0  0  0  0  0  0
  152.7870  144.8548  161.1114 H   0  0  0  0  0  0  0  0  0  0  0  0
  152.7593  142.3794  160.8345 H   0  0  0  0  0  0  0  0  0  0  0  0
  151.7134  140.0185  160.0925 H   0  0  0  0  0  0  0  0  0  0  0  0
  151.6898  139.0812  158.6246 H   0  0  0  0  0  0  0  0  0  0  0  0
  154.1616  140.7187  159.2486 H   0  0  0  0  0  0  0  0  0  0  0  0
  153.6728  138.3198  157.8964 H   0  0  0  0  0  0  0  0  0  0  0  0
  155.1094  140.6485  161.3573 H   0  0  0  0  0  0  0  0  0  0  0  0
  155.6981  139.4286  163.4333 H   0  0  0  0  0  0  0  0  0  0  0  0
  153.6307  135.9374  161.9757 H   0  0  0  0  0  0  0  0  0  0  0  0
  153.0357  137.1513  159.8993 H   0  0  0  0  0  0  0  0  0  0  0  0
  1  2  1  0  0  0  0
  1 22  1  0  0  0  0
  2  3  1  0  0  0  0
  2 23  1  0  0  0  0
  2 24  1  0  0  0  0
  3 11  1  0  0  0  0
  3  4  2  0  0  0  0
  4  5  1  0  0  0  0
  5 10  2  0  0  0  0
  5  6  1  0  0  0  0
  6  7  2  0  0  0  0
  6 25  1  0  0  0  0
  7  8  1  0  0  0  0
  7 26  1  0  0  0  0
  8  9  2  0  0  0  0
  8 27  1  0  0  0  0
  9 10  1  0  0  0  0
  9 28  1  0  0  0  0
 10 11  1  0  0  0  0
 11 12  1  0  0  0  0
 12 13  1  0  0  0  0
 12 29  1  0  0  0  0
 12 30  1  0  0  0  0
 13 14  1  0  0  0  0
 13 15  1  0  0  0  0
 13 31  1  0  0  0  0
 14 32  1  0  0  0  0
 15 21  1  0  0  0  0
 15 16  2  0  0  0  0
 16 17  1  0  0  0  0
 16 33  1  0  0  0  0
 17 18  2  0  0  0  0
 17 34  1  0  0  0  0
 18 19  1  0  0  0  0
 18 20  1  0  0  0  0
 20 21  2  0  0  0  0
 20 35  1  0  0  0  0
 21 36  1  0  0  0  0
M  END
> <s_m_source_file>
AV-unprocessed.smi

> <i_m_source_file_index>
2172

> <i_lp_mmshare_version>
43012

> <i_f3d_flags>
0

> <s_epik_input>
W2NIXTFbY0hdW2NIXVtjSF1jKGMxMiluKGMobjIpW0NIMl1bT0hdKVtDSDJdW0NASF0oW09IXSljM1tjSF1bY0hdYyhDbClbY0hdW2NIXTM=

> <s_epik_cmdline>
J2VwaWtfcHl0aG9uJywgJy1waCcsICc3LjAnLCAnLXRuJywgJzgnLCAnLW1hJywgJzIwMCcsICctbWV0YWxfYmluZGluZycsICctaW1hZScsICc8aW5maWxlLm1hZT4nLCAnLW9tYWUnLCAnPG91dGZpbGUubWFlPic=

> <r_epik_Ionization_Penalty>
0.0634726

> <r_epik_Ionization_Penalty_Charging>
0

> <r_epik_Ionization_Penalty_Neutral>
0.0634726

> <r_epik_State_Penalty>
0.0551572

> <r_epik_Charging_Adjusted_Penalty>
0.0551572

> <i_epik_Tot_Q>
0

> <i_epik_Tot_abs_Q>
0

> <r_epik_Metal_State_Penalty>
5.78034e-05

> <b_epik_Metal_Only>
0

> <s_lp_Force_Field>
OPLS_2005

> <r_lp_Energy>
12.889

> <b_lp_Chiralities_Consistent>
1

> <s_lp_Variant>
AV-unprocessed.smi:2172-1

> <Gold.Version>
5.8.1

> <Gold.Id.Protein>
6NUR|6NUR_protein|mol2

> <Gold.PLP.Fitness>
52.8024

> <Gold.PLP.PLP>
-47.7047

> <Gold.PLP.part.hbond>
-1.8856

> <Gold.PLP.part.metal>
0.0000

> <Gold.PLP.part.buried>
-6.1603

> <Gold.PLP.part.nonpolar>
-39.5856

> <Gold.PLP.part.repulsive>
0.1148

> <Gold.PLP.ligand.clash>
0.0000

> <Gold.PLP.ligand.torsion>
0.4723

> <Gold.PLP.Chemscore.Hbond>
2.0000

> <Gold.PLP.Chemscore.CHOScore>
0.0000

> <Gold.PLP.Chemscore.Metal>
0.0000

> <Gold.Chemscore.Hbonds>
donor molecule, donor type, donor heavy atom, donor atom, acceptor molecule, acceptor atom, score
      P1  H  7989  7998       L1     1  1.00
      P1  H  7997  8008       L1    14  0.70

> <Gold.PLP.Chemscore.Internal.Correction>
0.0423

> <Gold.Rescore>
     Score         DG    S(hbond)    S(metal)    S(lipo)     H(rot)  DE(clash)    DE(int)     intcor
     21.16     -21.59       1.90        0.00     140.75       2.62       0.15       0.28       ----

> <Gold.Chemscore.Fitness>
21.1563

> <Gold.Chemscore.DG>
-21.5881

> <Gold.Chemscore.ZeroCoef>
-5.4800

> <Gold.Chemscore.Hbond>
1.9028

> <Gold.Chemscore.Metal>
0.0000

> <Gold.Chemscore.Lipo>
140.7546

> <Gold.Chemscore.Internal_Hbond>
0.0000

> <Gold.Chemscore.DEClash>
0.1482

> <Gold.Chemscore.DEInternal>
0.2836

> <Gold.Chemscore.Rot>
2.6232

> <Gold.Chemscore.Internal.Correction>
   9.000000E+99

> <Gold.Chemscore.Hbonds>
donor molecule, donor type, donor heavy atom, donor atom, acceptor molecule, acceptor atom, score
      P1  H  7989  7998       L1     1  0.38
      P1  H  7997  8008       L1    14  0.55

> <Gold.Chemscore.Hbond.Weighted>
-6.3553

> <Gold.Chemscore.Metal.Weighted>
-0.0000

> <Gold.Chemscore.Lipo.Weighted>
-16.4683

> <Gold.Chemscore.Internal_Hbond.Weighted>
0.0000

> <Gold.Chemscore.DEClash.Weighted>
0.1482

> <Gold.Chemscore.DEInternal.Weighted>
0.2836

> <Gold.Chemscore.Rot.Weighted>
6.7154

> <Gold.Chemscore.Internal.Correction.Weighted>
   9.000000E+99

> <Gold.Protein.RotatedTorsions>
[ 6907 6896 6895 6894 ] final   61.95 input  -60.11 | X-H torsion
[ 7974 7965 7964 7962 ] final  107.99 input  175.53 | X-H torsion
[ 8008 7997 7996 7995 ] final -111.89 input   59.86 | X-H torsion
[ 10167 10162 10161 10158 ] final -159.67 input  -65.29 | X-H torsion
[ 10718 10713 10712 10709 ] final -151.51 input   66.30 | X-H torsion
[ 10763 10752 10751 10750 ] final -149.31 input  -60.55 | X-H torsion
[ 11005 11000 10999 10996 ] final -164.27 input  -57.11 | X-H torsion

> <Gold.Protein.ActiveResidues>
 VAL166  LYS551  ARG553  GLY616  TRP617  ASP618  TYR619  PRO620  LYS621  CYS622 
 ASP623  PHE694  ASN695  SER759  ASP760  ASP761  ALA762  ILE779  LEU786  VAL792 
 PHE793  MET794  SER795  GLU796  ALA797  LYS798  CYS799  TRP800  GLU811  SER814 

> <Gold.Protein.RotatedAtoms>
  152.4132  134.6088  160.0019 H   0  0  0  0  0  0  0  0  0  0  0  0  # atno 6907 bound_to 6896
  151.6259  133.3330  159.3106 H   0  0  0  0  0  0  0  0  0  0  0  0  # atno 6908 bound_to 6896
  150.8022  134.7163  159.6677 H   0  0  0  0  0  0  0  0  0  0  0  0  # atno 6909 bound_to 6896
  145.2864  139.2615  143.3888 H   0  0  0  0  0  0  0  0  0  0  0  0  # atno 7974 bound_to 7965
  154.9967  140.0394  157.2343 H   0  0  0  0  0  0  0  0  0  0  0  0  # atno 8008 bound_to 7997
  154.7580  140.2779  155.6215 H   0  0  0  0  0  0  0  0  0  0  0  0  # atno 8009 bound_to 7997
  156.2898  140.2634  156.2351 H   0  0  0  0  0  0  0  0  0  0  0  0  # atno 8010 bound_to 7997
  139.6597  143.9935  152.2217 H   0  0  0  0  0  0  0  0  0  0  0  0  # atno 10167 bound_to 10162
  156.4603  130.8210  151.2441 H   0  0  0  0  0  0  0  0  0  0  0  0  # atno 10718 bound_to 10713
  154.8184  135.3312  154.7109 H   0  0  0  0  0  0  0  0  0  0  0  0  # atno 10763 bound_to 10752
  153.7746  135.6923  153.4904 H   0  0  0  0  0  0  0  0  0  0  0  0  # atno 10764 bound_to 10752
  153.2022  135.4512  155.0228 H   0  0  0  0  0  0  0  0  0  0  0  0  # atno 10765 bound_to 10752
  140.5888  134.5066  157.5190 H   0  0  0  0  0  0  0  0  0  0  0  0  # atno 11005 bound_to 11000
  146.3199  140.3345  142.8643 LP  0  0  0  0  0  0  0  0  0  0  0  0  # atno 17320 bound_to 7965
  144.9209  140.7867  143.5749 LP  0  0  0  0  0  0  0  0  0  0  0  0  # atno 17321 bound_to 7965
  139.9670  144.6519  150.8025 LP  0  0  0  0  0  0  0  0  0  0  0  0  # atno 17342 bound_to 10162
  140.7574  143.3087  151.2899 LP  0  0  0  0  0  0  0  0  0  0  0  0  # atno 17343 bound_to 10162
  157.7498  131.0109  150.3326 LP  0  0  0  0  0  0  0  0  0  0  0  0  # atno 17370 bound_to 10713
  156.3724  130.3866  149.7165 LP  0  0  0  0  0  0  0  0  0  0  0  0  # atno 17371 bound_to 10713
  139.9283  134.8012  156.1003 LP  0  0  0  0  0  0  0  0  0  0  0  0  # atno 17394 bound_to 11000
  141.0948  133.6700  156.2621 LP  0  0  0  0  0  0  0  0  0  0  0  0  # atno 17395 bound_to 11000

$$$$
