AV-unprocessed.smi:28|AV-procd|sdf|190|dock10
  -GOLD-   2262015453D 1   1.00000     0.00000
 Structure written by MMmdl.
 41 44  0  0  0  0  0  0  0  0  1 V2000
  153.7870  138.4143  155.5984 O   0  0  0  0  0  0  0  0  0  0  0  0
  152.8638  137.9757  156.2864 C   0  0  0  0  0  0  0  0  0  0  0  0
  151.5377  137.6826  155.7531 C   0  0  0  0  0  0  0  0  0  0  0  0
  151.2887  137.8790  154.4472 F   0  0  0  0  0  0  0  0  0  0  0  0
  150.5500  137.2237  156.5516 C   0  0  0  0  0  0  0  0  0  0  0  0
  150.7173  136.9999  157.9084 N   0  0  0  0  0  0  0  0  0  0  0  0
  149.5801  136.5086  158.7790 C   0  0  1  0  0  0  0  0  0  0  0  0
  148.3315  137.3682  158.5542 C   0  0  0  0  0  0  0  0  0  0  0  0
  147.6428  136.6190  157.4346 C   0  0  0  0  0  0  0  0  0  0  0  0
  147.9673  135.1707  157.7863 C   0  0  0  0  0  0  0  0  0  0  0  0
  149.2489  135.1996  158.4134 O   0  0  0  0  0  0  0  0  0  0  0  0
  151.9678  137.2585  158.5108 C   0  0  0  0  0  0  0  0  0  0  0  0
  152.1303  137.0924  159.7223 O   0  0  0  0  0  0  0  0  0  0  0  0
  153.0074  137.7292  157.6742 N   0  0  0  0  0  0  0  0  0  0  0  0
  154.2818  138.0504  158.2950 C   0  0  0  0  0  0  0  0  0  0  0  0
  154.1201  139.1974  159.2425 C   0  0  0  0  0  0  0  0  0  0  0  0
  154.6190  139.3107  160.4744 N   0  0  0  0  0  0  0  0  0  0  0  0
  154.2261  140.5509  160.9227 N   0  0  0  0  0  0  0  0  0  0  0  0
  153.5046  141.0931  159.9358 C   0  0  0  0  0  0  0  0  0  0  0  0
  152.8744  142.4092  159.8677 C   0  0  0  0  0  0  0  0  0  0  0  0
  152.4918  142.9075  158.6017 C   0  0  0  0  0  0  0  0  0  0  0  0
  151.8782  144.1686  158.4821 C   0  0  0  0  0  0  0  0  0  0  0  0
  151.6358  144.9430  159.6308 C   0  0  0  0  0  0  0  0  0  0  0  0
  152.0022  144.4510  160.8973 C   0  0  0  0  0  0  0  0  0  0  0  0
  152.6150  143.1879  161.0252 C   0  0  0  0  0  0  0  0  0  0  0  0
  153.0392  142.5735  162.7808 Br  0  0  0  0  0  0  0  0  0  0  0  0
  153.4098  140.2845  158.8465 O   0  0  0  0  0  0  0  0  0  0  0  0
  149.5899  137.0350  156.0954 H   0  0  0  0  0  0  0  0  0  0  0  0
  149.9578  136.5257  159.8026 H   0  0  0  0  0  0  0  0  0  0  0  0
  147.7253  137.3452  159.4605 H   0  0  0  0  0  0  0  0  0  0  0  0
  148.5718  138.4048  158.3155 H   0  0  0  0  0  0  0  0  0  0  0  0
  146.5718  136.8157  157.3815 H   0  0  0  0  0  0  0  0  0  0  0  0
  148.0863  136.8851  156.4741 H   0  0  0  0  0  0  0  0  0  0  0  0
  147.2402  134.7834  158.5012 H   0  0  0  0  0  0  0  0  0  0  0  0
  147.9649  134.5176  156.9134 H   0  0  0  0  0  0  0  0  0  0  0  0
  154.6526  137.1615  158.8080 H   0  0  0  0  0  0  0  0  0  0  0  0
  155.0103  138.2818  157.5167 H   0  0  0  0  0  0  0  0  0  0  0  0
  152.6746  142.3251  157.7101 H   0  0  0  0  0  0  0  0  0  0  0  0
  151.5940  144.5414  157.5091 H   0  0  0  0  0  0  0  0  0  0  0  0
  151.1640  145.9105  159.5418 H   0  0  0  0  0  0  0  0  0  0  0  0
  151.8052  145.0442  161.7781 H   0  0  0  0  0  0  0  0  0  0  0  0
  1  2  2  0  0  0  0
  2 14  1  0  0  0  0
  2  3  1  0  0  0  0
  3  4  1  0  0  0  0
  3  5  2  0  0  0  0
  5  6  1  0  0  0  0
  5 28  1  0  0  0  0
  6  7  1  0  0  0  0
  6 12  1  0  0  0  0
  7 11  1  0  0  0  0
  7  8  1  0  0  0  0
  7 29  1  0  0  0  0
  8  9  1  0  0  0  0
  8 30  1  0  0  0  0
  8 31  1  0  0  0  0
  9 10  1  0  0  0  0
  9 32  1  0  0  0  0
  9 33  1  0  0  0  0
 10 11  1  0  0  0  0
 10 34  1  0  0  0  0
 10 35  1  0  0  0  0
 12 13  2  0  0  0  0
 12 14  1  0  0  0  0
 14 15  1  0  0  0  0
 15 16  1  0  0  0  0
 15 36  1  0  0  0  0
 15 37  1  0  0  0  0
 16 27  1  0  0  0  0
 16 17  2  0  0  0  0
 17 18  1  0  0  0  0
 18 19  2  0  0  0  0
 19 20  1  0  0  0  0
 19 27  1  0  0  0  0
 20 25  1  0  0  0  0
 20 21  2  0  0  0  0
 21 22  1  0  0  0  0
 21 38  1  0  0  0  0
 22 23  2  0  0  0  0
 22 39  1  0  0  0  0
 23 24  1  0  0  0  0
 23 40  1  0  0  0  0
 24 25  2  0  0  0  0
 24 41  1  0  0  0  0
 25 26  1  0  0  0  0
M  END
> <s_m_source_file>
AV-unprocessed.smi

> <i_m_source_file_index>
28

> <i_lp_mmshare_version>
43012

> <i_f3d_flags>
0

> <s_epik_input>
TzFbQ0gyXVtDSDJdW0NIMl1bQ0BIXTFuKFtjSF1jKEYpYzI9TyljKD1PKW4yW0NIMl1jM25uYyhvMyktYzRbY0hdW2NIXVtjSF1bY0hdYzRCcg==

> <s_epik_cmdline>
J2VwaWtfcHl0aG9uJywgJy1waCcsICc3LjAnLCAnLXRuJywgJzgnLCAnLW1hJywgJzIwMCcsICctbWV0YWxfYmluZGluZycsICctaW1hZScsICc8aW5maWxlLm1hZT4nLCAnLW9tYWUnLCAnPG91dGZpbGUubWFlPic=

> <r_lp_tautomer_probability>
1

> <r_epik_Ionization_Penalty>
2.5628e-09

> <r_epik_Ionization_Penalty_Charging>
2.54231e-09

> <r_epik_Ionization_Penalty_Neutral>
2.0492e-11

> <r_epik_State_Penalty>
-0

> <r_epik_Charging_Adjusted_Penalty>
2.54231e-09

> <i_epik_Tot_Q>
0

> <i_epik_Tot_abs_Q>
0

> <r_epik_Metal_State_Penalty>
-0

> <b_epik_Metal_Only>
0

> <s_epik_Chemistry_Notes>
This compound contains an acetal/aminal-like group ( X-CH(R)-Y where X, Y are N, S, or O) that may be acid/base labile, releasing an aldehyde.

> <s_lp_Force_Field>
OPLS_2005

> <r_lp_Energy>
35.5142

> <b_lp_Chiralities_Consistent>
1

> <s_lp_Variant>
AV-unprocessed.smi:28-2

> <Gold.Version>
5.8.1

> <Gold.Id.Protein>
6NUR|6NUR_protein|mol2

> <Gold.PLP.Fitness>
55.8949

> <Gold.PLP.PLP>
-49.1889

> <Gold.PLP.part.hbond>
-3.9544

> <Gold.PLP.part.metal>
0.0000

> <Gold.PLP.part.buried>
-6.9198

> <Gold.PLP.part.nonpolar>
-39.1711

> <Gold.PLP.part.repulsive>
0.0000

> <Gold.PLP.ligand.clash>
0.0000

> <Gold.PLP.ligand.torsion>
0.4853

> <Gold.PLP.Chemscore.Hbond>
2.5498

> <Gold.PLP.Chemscore.CHOScore>
0.0000

> <Gold.PLP.Chemscore.Metal>
0.0000

> <Gold.Chemscore.Hbonds>
donor molecule, donor type, donor heavy atom, donor atom, acceptor molecule, acceptor atom, score
      P1  H  6896  6907       L1    11  1.00
      P1  H  6896  6908       L1    13  0.99
      P1  H  7997  8010       L1     1  0.61

> <Gold.PLP.Chemscore.Internal.Correction>
0.0274

> <Gold.Rescore>
     Score         DG    S(hbond)    S(metal)    S(lipo)     H(rot)  DE(clash)    DE(int)     intcor
     16.93     -20.36       2.24        0.00     100.51       1.70       0.07       3.36       ----

> <Gold.Chemscore.Fitness>
16.9296

> <Gold.Chemscore.DG>
-20.3585

> <Gold.Chemscore.ZeroCoef>
-5.4800

> <Gold.Chemscore.Hbond>
2.2352

> <Gold.Chemscore.Metal>
0.0000

> <Gold.Chemscore.Lipo>
100.5106

> <Gold.Chemscore.Internal_Hbond>
0.0000

> <Gold.Chemscore.DEClash>
0.0690

> <Gold.Chemscore.DEInternal>
3.3599

> <Gold.Chemscore.Rot>
1.6980

> <Gold.Chemscore.Internal.Correction>
   9.000000E+99

> <Gold.Chemscore.Hbonds>
donor molecule, donor type, donor heavy atom, donor atom, acceptor molecule, acceptor atom, score
      P1  H  6896  6907       L1    11  0.28
      P1  H  6896  6908       L1    13  0.50
      P1  H  7997  8010       L1     1  0.45

> <Gold.Chemscore.Hbond.Weighted>
-7.4656

> <Gold.Chemscore.Metal.Weighted>
-0.0000

> <Gold.Chemscore.Lipo.Weighted>
-11.7597

> <Gold.Chemscore.Internal_Hbond.Weighted>
0.0000

> <Gold.Chemscore.DEClash.Weighted>
0.0690

> <Gold.Chemscore.DEInternal.Weighted>
3.3599

> <Gold.Chemscore.Rot.Weighted>
4.3469

> <Gold.Chemscore.Internal.Correction.Weighted>
   9.000000E+99

> <Gold.Protein.RotatedTorsions>
[ 6907 6896 6895 6894 ] final  -96.94 input  -60.11 | X-H torsion
[ 7974 7965 7964 7962 ] final   64.66 input  175.53 | X-H torsion
[ 8008 7997 7996 7995 ] final   77.76 input   59.86 | X-H torsion
[ 10167 10162 10161 10158 ] final  -16.79 input  -65.29 | X-H torsion
[ 10718 10713 10712 10709 ] final   92.25 input   66.30 | X-H torsion
[ 10763 10752 10751 10750 ] final  142.80 input  -60.55 | X-H torsion
[ 11005 11000 10999 10996 ] final   58.74 input  -57.11 | X-H torsion

> <Gold.Protein.ActiveResidues>
 VAL166  LYS551  ARG553  GLY616  TRP617  ASP618  TYR619  PRO620  LYS621  CYS622 
 ASP623  PHE694  ASN695  SER759  ASP760  ASP761  ALA762  ILE779  LEU786  VAL792 
 PHE793  MET794  SER795  GLU796  ALA797  LYS798  CYS799  TRP800  GLU811  SER814 

> <Gold.Protein.RotatedAtoms>
  150.7002  134.1426  159.4110 H   0  0  0  0  0  0  0  0  0  0  0  0  # atno 6907 bound_to 6896
  151.9410  135.0211  160.0545 H   0  0  0  0  0  0  0  0  0  0  0  0  # atno 6908 bound_to 6896
  152.2094  133.4864  159.5138 H   0  0  0  0  0  0  0  0  0  0  0  0  # atno 6909 bound_to 6896
  145.8476  139.3234  143.0894 H   0  0  0  0  0  0  0  0  0  0  0  0  # atno 7974 bound_to 7965
  155.8461  140.3460  155.5663 H   0  0  0  0  0  0  0  0  0  0  0  0  # atno 8008 bound_to 7997
  155.8088  140.0896  157.1935 H   0  0  0  0  0  0  0  0  0  0  0  0  # atno 8009 bound_to 7997
  154.4006  140.1451  156.3349 H   0  0  0  0  0  0  0  0  0  0  0  0  # atno 8010 bound_to 7997
  140.7238  143.5081  150.9784 H   0  0  0  0  0  0  0  0  0  0  0  0  # atno 10167 bound_to 10162
  157.6959  131.0436  150.3853 H   0  0  0  0  0  0  0  0  0  0  0  0  # atno 10718 bound_to 10713
  153.9618  135.2959  155.3433 H   0  0  0  0  0  0  0  0  0  0  0  0  # atno 10763 bound_to 10752
  154.7370  135.5042  153.9062 H   0  0  0  0  0  0  0  0  0  0  0  0  # atno 10764 bound_to 10752
  153.0943  135.6716  153.9904 H   0  0  0  0  0  0  0  0  0  0  0  0  # atno 10765 bound_to 10752
  140.0355  134.5949  155.9450 H   0  0  0  0  0  0  0  0  0  0  0  0  # atno 11005 bound_to 11000
  145.9394  140.8991  143.0315 LP  0  0  0  0  0  0  0  0  0  0  0  0  # atno 17320 bound_to 7965
  144.6730  140.1528  143.7428 LP  0  0  0  0  0  0  0  0  0  0  0  0  # atno 17321 bound_to 7965
  139.8793  143.7092  152.3158 LP  0  0  0  0  0  0  0  0  0  0  0  0  # atno 17342 bound_to 10162
  139.7369  144.7569  151.0714 LP  0  0  0  0  0  0  0  0  0  0  0  0  # atno 17343 bound_to 10162
  156.4263  130.3963  149.6791 LP  0  0  0  0  0  0  0  0  0  0  0  0  # atno 17370 bound_to 10713
  156.4024  130.7681  151.2690 LP  0  0  0  0  0  0  0  0  0  0  0  0  # atno 17371 bound_to 10713
  141.1855  133.6555  156.5200 LP  0  0  0  0  0  0  0  0  0  0  0  0  # atno 17394 bound_to 11000
  140.4155  134.7234  157.4860 LP  0  0  0  0  0  0  0  0  0  0  0  0  # atno 17395 bound_to 11000

$$$$
