AV-unprocessed.smi:2154|AV-procd|sdf|8774|dock2
  -GOLD-   2272011553D 1   1.00000     0.00000
 Structure written by MMmdl.
 31 32  0  0  0  0  0  0  0  0  2 V2000
  152.0149  144.4624  158.3065 C   0  0  0  0  0  0  0  0  0  0  0  0
  151.9737  143.3299  159.3091 C   0  0  2  0  0  0  0  0  0  0  0  0
  152.1131  143.5995  160.7906 C   0  0  0  0  0  0  0  0  0  0  0  0
  153.2274  142.9090  160.0410 C   0  0  1  0  0  0  0  0  0  0  0  0
  153.5329  141.4460  160.2787 C   0  0  0  0  0  0  0  0  0  0  0  0
  152.6416  140.5487  159.5577 N   0  0  0  0  0  0  0  0  0  0  0  0
  153.0050  139.6116  158.6666 C   0  0  0  0  0  0  0  0  0  0  0  0
  154.1789  139.3813  158.3778 O   0  0  0  0  0  0  0  0  0  0  0  0
  151.8933  138.7923  157.9866 C   0  0  0  0  0  0  0  0  0  0  0  0
  151.0872  139.5373  157.0014 N   0  0  0  0  0  0  0  0  0  0  0  0
  150.1583  140.4704  157.4947 C   0  0  0  0  0  0  0  0  0  0  0  0
  149.3877  141.2088  156.6735 C   0  0  0  0  0  0  0  0  0  0  0  0
  149.5347  141.0217  155.2355 C   0  0  0  0  0  0  0  0  0  0  0  0
  148.8406  141.6884  154.4706 O   0  0  0  0  0  0  0  0  0  0  0  0
  150.4498  140.1045  154.8054 N   0  5  0  0  0  0  0  0  0  0  0  0
  151.2275  139.3612  155.6523 C   0  0  0  0  0  0  0  0  0  0  0  0
  152.0544  138.5461  155.2428 O   0  0  0  0  0  0  0  0  0  0  0  0
  152.7105  145.2386  158.6265 H   0  0  0  0  0  0  0  0  0  0  0  0
  151.0248  144.9050  158.1995 H   0  0  0  0  0  0  0  0  0  0  0  0
  152.3370  144.0877  157.3348 H   0  0  0  0  0  0  0  0  0  0  0  0
  151.2872  142.5312  159.0339 H   0  0  0  0  0  0  0  0  0  0  0  0
  152.2851  144.6263  161.1070 H   0  0  0  0  0  0  0  0  0  0  0  0
  151.5084  142.9995  161.4677 H   0  0  0  0  0  0  0  0  0  0  0  0
  154.1157  143.5126  159.8618 H   0  0  0  0  0  0  0  0  0  0  0  0
  154.5736  141.2719  160.0017 H   0  0  0  0  0  0  0  0  0  0  0  0
  153.4530  141.2271  161.3442 H   0  0  0  0  0  0  0  0  0  0  0  0
  151.6524  140.6666  159.7258 H   0  0  0  0  0  0  0  0  0  0  0  0
  152.3468  137.9177  157.5174 H   0  0  0  0  0  0  0  0  0  0  0  0
  151.2474  138.3882  158.7673 H   0  0  0  0  0  0  0  0  0  0  0  0
  150.1162  140.5520  158.5709 H   0  0  0  0  0  0  0  0  0  0  0  0
  148.6811  141.9234  157.0691 H   0  0  0  0  0  0  0  0  0  0  0  0
  1  2  1  0  0  0  0
  1 18  1  0  0  0  0
  1 19  1  0  0  0  0
  1 20  1  0  0  0  0
  2  4  1  0  0  0  0
  2  3  1  0  0  0  0
  2 21  1  0  0  0  0
  3  4  1  0  0  0  0
  3 22  1  0  0  0  0
  3 23  1  0  0  0  0
  4  5  1  0  0  0  0
  4 24  1  0  0  0  0
  5  6  1  0  0  0  0
  5 25  1  0  0  0  0
  5 26  1  0  0  0  0
  6  7  1  0  0  0  0
  6 27  1  0  0  0  0
  7  8  2  0  0  0  0
  7  9  1  0  0  0  0
  9 10  1  0  0  0  0
  9 28  1  0  0  0  0
  9 29  1  0  0  0  0
 10 16  1  0  0  0  0
 10 11  1  0  0  0  0
 11 12  2  0  0  0  0
 11 30  1  0  0  0  0
 12 13  1  0  0  0  0
 12 31  1  0  0  0  0
 13 14  2  0  0  0  0
 13 15  1  0  0  0  0
 15 16  1  0  0  0  0
 16 17  2  0  0  0  0
M  CHG  1  15  -1
M  END
> <s_m_source_file>
AV-unprocessed.smi

> <i_m_source_file_index>
2154

> <i_lp_mmshare_version>
43012

> <i_f3d_flags>
0

> <s_epik_input>
W0NIM11bQ0BASF0xW0NIMl1bQ0BIXTFbQ0gyXVtOSF1DKD1PKVtDSDJdbjJbY0hdW2NIXWMoPU8pW25IXWMyPU8=

> <s_epik_cmdline>
J2VwaWtfcHl0aG9uJywgJy1waCcsICc3LjAnLCAnLXRuJywgJzgnLCAnLW1hJywgJzIwMCcsICctbWV0YWxfYmluZGluZycsICctaW1hZScsICc8aW5maWxlLm1hZT4nLCAnLW9tYWUnLCAnPG91dGZpbGUubWFlPic=

> <r_lp_tautomer_probability>
0.999537

> <r_epik_Ionization_Penalty>
3.12283

> <r_epik_Ionization_Penalty_Charging>
2.83566e-08

> <r_epik_Ionization_Penalty_Neutral>
3.12283

> <r_epik_State_Penalty>
3.12192

> <r_epik_Charging_Adjusted_Penalty>
3.12192

> <i_epik_Tot_Q>
-1

> <i_epik_Tot_abs_Q>
1

> <r_epik_Metal_State_Penalty>
0.463748

> <b_epik_Metal_Only>
1

> <s_lp_Force_Field>
OPLS_2005

> <r_lp_Energy>
23.7869

> <b_lp_Chiralities_Consistent>
1

> <s_lp_Variant>
AV-unprocessed.smi:2154-5

> <Gold.Version>
5.8.1

> <Gold.Id.Protein>
6NUR|6NUR_protein|mol2

> <Gold.PLP.Fitness>
43.9103

> <Gold.PLP.PLP>
-37.3209

> <Gold.PLP.part.hbond>
-3.7915

> <Gold.PLP.part.metal>
0.0000

> <Gold.PLP.part.buried>
-3.5591

> <Gold.PLP.part.nonpolar>
-29.8023

> <Gold.PLP.part.repulsive>
0.4390

> <Gold.PLP.ligand.clash>
0.0000

> <Gold.PLP.ligand.torsion>
0.7447

> <Gold.PLP.Chemscore.Hbond>
2.5120

> <Gold.PLP.Chemscore.CHOScore>
0.0000

> <Gold.PLP.Chemscore.Metal>
0.0000

> <Gold.Chemscore.Hbonds>
donor molecule, donor type, donor heavy atom, donor atom, acceptor molecule, acceptor atom, score
      P1  H  7989  7998       L1    15  1.00
      P1  H  7997  8008       L1     8  0.93

> <Gold.PLP.Chemscore.Internal.Correction>
0.5429

> <Gold.Rescore>
     Score         DG    S(hbond)    S(metal)    S(lipo)     H(rot)  DE(clash)    DE(int)     intcor
     15.29     -16.20       2.15        0.00      73.12       1.96       0.00       0.91       ----

> <Gold.Chemscore.Fitness>
15.2899

> <Gold.Chemscore.DG>
-16.1986

> <Gold.Chemscore.ZeroCoef>
-5.4800

> <Gold.Chemscore.Hbond>
2.1507

> <Gold.Chemscore.Metal>
0.0000

> <Gold.Chemscore.Lipo>
73.1205

> <Gold.Chemscore.Internal_Hbond>
0.0000

> <Gold.Chemscore.DEClash>
0.0000

> <Gold.Chemscore.DEInternal>
0.9086

> <Gold.Chemscore.Rot>
1.9609

> <Gold.Chemscore.Internal.Correction>
   9.000000E+99

> <Gold.Chemscore.Hbonds>
donor molecule, donor type, donor heavy atom, donor atom, acceptor molecule, acceptor atom, score
      P1  H  7989  7998       L1    15  0.47
      P1  H  7997  8008       L1     8  0.88
      P1  H  8011  8017       L1    14  0.03

> <Gold.Chemscore.Hbond.Weighted>
-7.1835

> <Gold.Chemscore.Metal.Weighted>
-0.0000

> <Gold.Chemscore.Lipo.Weighted>
-8.5551

> <Gold.Chemscore.Internal_Hbond.Weighted>
0.0000

> <Gold.Chemscore.DEClash.Weighted>
0.0000

> <Gold.Chemscore.DEInternal.Weighted>
0.9086

> <Gold.Chemscore.Rot.Weighted>
5.0200

> <Gold.Chemscore.Internal.Correction.Weighted>
   9.000000E+99

> <Gold.Protein.RotatedTorsions>
[ 6907 6896 6895 6894 ] final   75.42 input  -60.11 | X-H torsion
[ 7974 7965 7964 7962 ] final  158.83 input  175.53 | X-H torsion
[ 8008 7997 7996 7995 ] final -115.87 input   59.86 | X-H torsion
[ 10167 10162 10161 10158 ] final  -17.40 input  -65.29 | X-H torsion
[ 10718 10713 10712 10709 ] final -167.29 input   66.30 | X-H torsion
[ 10763 10752 10751 10750 ] final -162.97 input  -60.55 | X-H torsion
[ 11005 11000 10999 10996 ] final  110.59 input  -57.11 | X-H torsion

> <Gold.Protein.ActiveResidues>
 VAL166  LYS551  ARG553  GLY616  TRP617  ASP618  TYR619  PRO620  LYS621  CYS622 
 ASP623  PHE694  ASN695  SER759  ASP760  ASP761  ALA762  ILE779  LEU786  VAL792 
 PHE793  MET794  SER795  GLU796  ALA797  LYS798  CYS799  TRP800  GLU811  SER814 

> <Gold.Protein.RotatedAtoms>
  152.5025  134.4124  159.9452 H   0  0  0  0  0  0  0  0  0  0  0  0  # atno 6907 bound_to 6896
  151.4092  133.3726  159.2749 H   0  0  0  0  0  0  0  0  0  0  0  0  # atno 6908 bound_to 6896
  150.9304  134.8741  159.7606 H   0  0  0  0  0  0  0  0  0  0  0  0  # atno 6909 bound_to 6896
  144.7824  139.7532  143.6254 H   0  0  0  0  0  0  0  0  0  0  0  0  # atno 7974 bound_to 7965
  155.0588  140.0393  157.2569 H   0  0  0  0  0  0  0  0  0  0  0  0  # atno 8008 bound_to 7997
  154.7076  140.2686  155.6635 H   0  0  0  0  0  0  0  0  0  0  0  0  # atno 8009 bound_to 7997
  156.2780  140.2728  156.1708 H   0  0  0  0  0  0  0  0  0  0  0  0  # atno 8010 bound_to 7997
  140.7246  143.5019  150.9858 H   0  0  0  0  0  0  0  0  0  0  0  0  # atno 10167 bound_to 10162
  156.6802  130.9119  151.3056 H   0  0  0  0  0  0  0  0  0  0  0  0  # atno 10718 bound_to 10713
  154.7166  135.3017  154.9114 H   0  0  0  0  0  0  0  0  0  0  0  0  # atno 10763 bound_to 10752
  153.9999  135.6708  153.4762 H   0  0  0  0  0  0  0  0  0  0  0  0  # atno 10764 bound_to 10752
  153.0798  135.5015  154.8395 H   0  0  0  0  0  0  0  0  0  0  0  0  # atno 10765 bound_to 10752
  139.8885  134.9488  156.6302 H   0  0  0  0  0  0  0  0  0  0  0  0  # atno 11005 bound_to 11000
  146.2039  139.5350  142.9725 LP  0  0  0  0  0  0  0  0  0  0  0  0  # atno 17320 bound_to 7965
  145.6014  141.0354  143.2016 LP  0  0  0  0  0  0  0  0  0  0  0  0  # atno 17321 bound_to 7965
  139.8729  143.7169  152.3164 LP  0  0  0  0  0  0  0  0  0  0  0  0  # atno 17342 bound_to 10162
  139.7424  144.7556  151.0631 LP  0  0  0  0  0  0  0  0  0  0  0  0  # atno 17343 bound_to 10162
  157.7046  130.9371  150.0891 LP  0  0  0  0  0  0  0  0  0  0  0  0  # atno 17370 bound_to 10713
  156.1873  130.3653  149.8956 LP  0  0  0  0  0  0  0  0  0  0  0  0  # atno 17371 bound_to 10713
  140.7672  133.8768  155.8463 LP  0  0  0  0  0  0  0  0  0  0  0  0  # atno 17394 bound_to 11000
  140.9872  134.1326  157.4441 LP  0  0  0  0  0  0  0  0  0  0  0  0  # atno 17395 bound_to 11000

$$$$
