AV-unprocessed.smi:21|AV-procd|sdf|125|dock8
  -GOLD-   2262015303D 1   1.00000     0.00000
 Structure written by MMmdl.
 62 65  0  0  0  0  0  0  0  0  2 V2000
  145.6416  131.9078  149.9600 C   0  0  0  0  0  0  0  0  0  0  0  0
  146.0467  132.0108  151.3156 O   0  0  0  0  0  0  0  0  0  0  0  0
  145.6104  133.2050  151.9476 C   0  0  1  0  0  0  0  0  0  0  0  0
  146.2596  133.3531  153.3169 C   0  0  0  0  0  0  0  0  0  0  0  0
  146.1598  134.8575  153.5849 C   0  0  1  0  0  0  0  0  0  0  0  0
  147.2088  135.3693  154.5948 C   0  0  0  0  0  0  0  0  0  0  0  0
  146.9174  136.7037  155.1152 N   0  0  0  0  0  0  0  0  0  0  0  0
  146.0475  136.7533  156.2813 C   0  0  0  0  0  0  0  0  0  0  0  0
  147.9896  137.5126  155.2614 C   0  0  0  0  0  0  0  0  0  0  0  0
  148.6000  137.9410  154.1298 N   0  0  0  0  0  0  0  0  0  0  0  0
  149.6696  138.7386  154.2099 C   0  0  0  0  0  0  0  0  0  0  0  0
  150.2757  139.2162  155.2995 N   0  0  0  0  0  0  0  0  0  0  0  0
  149.6581  138.7904  156.4386 C   0  0  0  0  0  0  0  0  0  0  0  0
  148.5194  137.9404  156.5115 C   0  0  0  0  0  0  0  0  0  0  0  0
  148.1764  137.7192  157.8400 N   0  0  0  0  0  0  0  0  0  0  0  0
  149.0600  138.4035  158.5146 C   0  0  0  0  0  0  0  0  0  0  0  0
  149.9823  139.0833  157.7512 N   0  0  0  0  0  0  0  0  0  0  0  0
  151.0682  139.9184  158.2354 C   0  0  0  0  0  0  0  0  0  0  0  0
  150.9481  141.4002  157.7891 C   0  0  1  0  0  0  0  0  0  0  0  0
  149.5698  141.7056  157.1529 C   0  0  0  0  0  0  0  0  0  0  0  0
  149.7033  142.1143  155.8074 O   0  0  0  0  0  0  0  0  0  0  0  0
  151.2994  142.4210  158.9085 C   0  0  2  0  0  0  0  0  0  0  0  0
  151.4336  143.8742  158.4909 C   0  0  0  0  0  0  0  0  0  0  0  0
  152.0934  144.4774  159.7260 C   0  0  0  0  0  0  0  0  0  0  0  0
  152.9628  143.4639  160.2222 O   0  0  0  0  0  0  0  0  0  0  0  0
  152.6134  142.1984  159.6652 C   0  0  0  0  0  0  0  0  0  0  0  0
  146.3293  135.4964  152.2586 N   0  3  2  0  0  0  0  0  0  0  0  0
  145.5563  136.7462  152.0875 C   0  0  0  0  0  0  0  0  0  0  0  0
  146.0598  134.4770  151.2167 C   0  0  0  0  0  0  0  0  0  0  0  0
  144.5257  133.2064  152.0723 H   0  0  0  0  0  0  0  0  0  0  0  0
  145.1489  135.0745  153.9358 H   0  0  0  0  0  0  0  0  0  0  0  0
  145.9947  130.9641  149.5446 H   0  0  0  0  0  0  0  0  0  0  0  0
  146.0563  132.7142  149.3544 H   0  0  0  0  0  0  0  0  0  0  0  0
  144.5548  131.9267  149.8709 H   0  0  0  0  0  0  0  0  0  0  0  0
  145.7707  132.7513  154.0838 H   0  0  0  0  0  0  0  0  0  0  0  0
  147.3060  133.0474  153.2668 H   0  0  0  0  0  0  0  0  0  0  0  0
  147.2685  134.6764  155.4350 H   0  0  0  0  0  0  0  0  0  0  0  0
  148.1983  135.3696  154.1380 H   0  0  0  0  0  0  0  0  0  0  0  0
  145.8477  137.7839  156.5787 H   0  0  0  0  0  0  0  0  0  0  0  0
  146.4967  136.2315  157.1273 H   0  0  0  0  0  0  0  0  0  0  0  0
  145.0907  136.2803  156.0582 H   0  0  0  0  0  0  0  0  0  0  0  0
  150.1007  139.0387  153.2661 H   0  0  0  0  0  0  0  0  0  0  0  0
  149.0587  138.4373  159.5944 H   0  0  0  0  0  0  0  0  0  0  0  0
  151.0900  139.8426  159.3221 H   0  0  0  0  0  0  0  0  0  0  0  0
  151.9947  139.4749  157.8735 H   0  0  0  0  0  0  0  0  0  0  0  0
  151.6907  141.5440  157.0027 H   0  0  0  0  0  0  0  0  0  0  0  0
  148.9302  140.8236  157.1498 H   0  0  0  0  0  0  0  0  0  0  0  0
  149.0427  142.4767  157.7151 H   0  0  0  0  0  0  0  0  0  0  0  0
  149.2050  142.9077  155.6832 H   0  0  0  0  0  0  0  0  0  0  0  0
  150.4969  142.3957  159.6477 H   0  0  0  0  0  0  0  0  0  0  0  0
  152.1010  143.9918  157.6384 H   0  0  0  0  0  0  0  0  0  0  0  0
  150.4790  144.3415  158.2476 H   0  0  0  0  0  0  0  0  0  0  0  0
  152.6357  145.3972  159.5054 H   0  0  0  0  0  0  0  0  0  0  0  0
  151.3448  144.6991  160.4878 H   0  0  0  0  0  0  0  0  0  0  0  0
  152.5163  141.4416  160.4440 H   0  0  0  0  0  0  0  0  0  0  0  0
  153.4204  141.8934  159.0008 H   0  0  0  0  0  0  0  0  0  0  0  0
  144.4835  136.5572  152.1475 H   0  0  0  0  0  0  0  0  0  0  0  0
  145.7711  137.1963  151.1180 H   0  0  0  0  0  0  0  0  0  0  0  0
  145.8209  137.4700  152.8591 H   0  0  0  0  0  0  0  0  0  0  0  0
  146.9939  134.2979  150.6826 H   0  0  0  0  0  0  0  0  0  0  0  0
  145.3203  134.8011  150.4828 H   0  0  0  0  0  0  0  0  0  0  0  0
  147.3072  135.7340  152.1718 H   0  0  0  0  0  0  0  0  0  0  0  0
  1  2  1  0  0  0  0
  1 32  1  0  0  0  0
  1 33  1  0  0  0  0
  1 34  1  0  0  0  0
  2  3  1  0  0  0  0
  3 30  1  0  0  0  0
  3 29  1  0  0  0  0
  3  4  1  0  0  0  0
  4  5  1  0  0  0  0
  4 35  1  0  0  0  0
  4 36  1  0  0  0  0
  5 31  1  0  0  0  0
  5  6  1  0  0  0  0
  5 27  1  0  0  0  0
  6  7  1  0  0  0  0
  6 37  1  0  0  0  0
  6 38  1  0  0  0  0
  7  8  1  0  0  0  0
  7  9  1  0  0  0  0
  8 39  1  0  0  0  0
  8 40  1  0  0  0  0
  8 41  1  0  0  0  0
  9 14  1  0  0  0  0
  9 10  2  0  0  0  0
 10 11  1  0  0  0  0
 11 12  2  0  0  0  0
 11 42  1  0  0  0  0
 12 13  1  0  0  0  0
 13 17  1  0  0  0  0
 13 14  2  0  0  0  0
 14 15  1  0  0  0  0
 15 16  2  0  0  0  0
 16 17  1  0  0  0  0
 16 43  1  0  0  0  0
 17 18  1  0  0  0  0
 18 19  1  0  0  0  0
 18 44  1  0  0  0  0
 18 45  1  0  0  0  0
 19 20  1  0  0  0  0
 19 22  1  0  0  0  0
 19 46  1  0  0  0  0
 20 21  1  0  0  0  0
 20 47  1  0  0  0  0
 20 48  1  0  0  0  0
 21 49  1  0  0  0  0
 22 26  1  0  0  0  0
 22 23  1  0  0  0  0
 22 50  1  0  0  0  0
 23 24  1  0  0  0  0
 23 51  1  0  0  0  0
 23 52  1  0  0  0  0
 24 25  1  0  0  0  0
 24 53  1  0  0  0  0
 24 54  1  0  0  0  0
 25 26  1  0  0  0  0
 26 55  1  0  0  0  0
 26 56  1  0  0  0  0
 27 28  1  0  0  0  0
 27 29  1  0  0  0  0
 27 62  1  0  0  0  0
 28 57  1  0  0  0  0
 28 58  1  0  0  0  0
 28 59  1  0  0  0  0
 29 60  1  0  0  0  0
 29 61  1  0  0  0  0
M  CHG  1  27   1
M  END
> <s_m_source_file>
AV-unprocessed.smi

> <i_m_source_file_index>
21

> <i_lp_mmshare_version>
43012

> <i_f3d_flags>
0

> <s_epik_input>
W0NIM11PW0NASF0xW0NIMl1bQ0BIXShOKFtDSDNdKVtDSDJdMSlbQ0gyXU4oW0NIM10pYyhuW2NIXW4yKWMoYzIzKW5bY0hdbjNbQ0gyXVtDQEhdKFtDSDJdW09IXSlbQ0BASF00W0NIMl1bQ0gyXU9bQ0gyXTQ=

> <s_epik_cmdline>
J2VwaWtfcHl0aG9uJywgJy1waCcsICc3LjAnLCAnLXRuJywgJzgnLCAnLW1hJywgJzIwMCcsICctbWV0YWxfYmluZGluZycsICctaW1hZScsICc8aW5maWxlLm1hZT4nLCAnLW9tYWUnLCAnPG91dGZpbGUubWFlPic=

> <r_lp_tautomer_probability>
1

> <r_epik_Ionization_Penalty>
0.0157465

> <r_epik_Ionization_Penalty_Charging>
0.015354

> <r_epik_Ionization_Penalty_Neutral>
0.000392529

> <r_epik_State_Penalty>
0.0120612

> <r_epik_Charging_Adjusted_Penalty>
0.0274152

> <i_epik_Tot_Q>
1

> <i_epik_Tot_abs_Q>
1

> <r_epik_Metal_State_Penalty>
0.0121253

> <b_epik_Metal_Only>
0

> <s_lp_Force_Field>
OPLS_2005

> <r_lp_Energy>
61.1599

> <b_lp_Chiralities_Consistent>
1

> <s_lp_Variant>
AV-unprocessed.smi:21-5

> <Gold.Version>
5.8.1

> <Gold.Id.Protein>
6NUR|6NUR_protein|mol2

> <Gold.PLP.Fitness>
45.9864

> <Gold.PLP.PLP>
-37.7775

> <Gold.PLP.part.hbond>
-2.0000

> <Gold.PLP.part.metal>
0.0000

> <Gold.PLP.part.buried>
-6.2312

> <Gold.PLP.part.nonpolar>
-31.5503

> <Gold.PLP.part.repulsive>
2.2668

> <Gold.PLP.ligand.clash>
0.0000

> <Gold.PLP.ligand.torsion>
2.4291

> <Gold.PLP.Chemscore.Hbond>
3.0000

> <Gold.PLP.Chemscore.CHOScore>
1.0000

> <Gold.PLP.Chemscore.Metal>
0.0000

> <Gold.Chemscore.Hbonds>
donor molecule, donor type, donor heavy atom, donor atom, acceptor molecule, acceptor atom, score
      L1  H    21    49       P1  8028  1.00
      L1  H    27    62       P1  7948  2.00
      L1  C    11    42       P1  7957  1.00

> <Gold.PLP.Chemscore.Internal.Correction>
1.0670

> <Gold.Rescore>
     Score         DG    S(hbond)    S(metal)    S(lipo)     H(rot)  DE(clash)    DE(int)     intcor
      9.57     -14.60       1.99        0.00      94.22       3.35       0.33       4.70       ----

> <Gold.Chemscore.Fitness>
9.5695

> <Gold.Chemscore.DG>
-14.5967

> <Gold.Chemscore.ZeroCoef>
-5.4800

> <Gold.Chemscore.Hbond>
1.9931

> <Gold.Chemscore.Metal>
0.0000

> <Gold.Chemscore.Lipo>
94.2173

> <Gold.Chemscore.Internal_Hbond>
0.0000

> <Gold.Chemscore.DEClash>
0.3269

> <Gold.Chemscore.DEInternal>
4.7003

> <Gold.Chemscore.Rot>
3.3452

> <Gold.Chemscore.Internal.Correction>
   9.000000E+99

> <Gold.Chemscore.Hbonds>
donor molecule, donor type, donor heavy atom, donor atom, acceptor molecule, acceptor atom, score
      L1  H    21    49       P1  8028  0.99
      L1  H    27    62       P1  7948  1.00

> <Gold.Chemscore.Hbond.Weighted>
-6.6569

> <Gold.Chemscore.Metal.Weighted>
-0.0000

> <Gold.Chemscore.Lipo.Weighted>
-11.0234

> <Gold.Chemscore.Internal_Hbond.Weighted>
0.0000

> <Gold.Chemscore.DEClash.Weighted>
0.3269

> <Gold.Chemscore.DEInternal.Weighted>
4.7003

> <Gold.Chemscore.Rot.Weighted>
8.5636

> <Gold.Chemscore.Internal.Correction.Weighted>
   9.000000E+99

> <Gold.Protein.RotatedTorsions>
[ 6907 6896 6895 6894 ] final   42.84 input  -60.11 | X-H torsion
[ 7974 7965 7964 7962 ] final   84.76 input  175.53 | X-H torsion
[ 8008 7997 7996 7995 ] final  128.35 input   59.86 | X-H torsion
[ 10167 10162 10161 10158 ] final  -27.14 input  -65.29 | X-H torsion
[ 10718 10713 10712 10709 ] final  -80.03 input   66.30 | X-H torsion
[ 10763 10752 10751 10750 ] final  -31.62 input  -60.55 | X-H torsion
[ 11005 11000 10999 10996 ] final -112.27 input  -57.11 | X-H torsion

> <Gold.Protein.ActiveResidues>
 VAL166  LYS551  ARG553  GLY616  TRP617  ASP618  TYR619  PRO620  LYS621  CYS622 
 ASP623  PHE694  ASN695  SER759  ASP760  ASP761  ALA762  ILE779  LEU786  VAL792 
 PHE793  MET794  SER795  GLU796  ALA797  LYS798  CYS799  TRP800  GLU811  SER814 

> <Gold.Protein.RotatedAtoms>
  152.2129  134.8484  160.0494 H   0  0  0  0  0  0  0  0  0  0  0  0  # atno 6907 bound_to 6896
  151.9296  133.3602  159.3934 H   0  0  0  0  0  0  0  0  0  0  0  0  # atno 6908 bound_to 6896
  150.6981  134.4476  159.5365 H   0  0  0  0  0  0  0  0  0  0  0  0  # atno 6909 bound_to 6896
  145.5945  139.2343  143.2281 H   0  0  0  0  0  0  0  0  0  0  0  0  # atno 7974 bound_to 7965
  156.2913  140.2647  156.2421 H   0  0  0  0  0  0  0  0  0  0  0  0  # atno 8008 bound_to 7997
  154.9966  140.0388  157.2361 H   0  0  0  0  0  0  0  0  0  0  0  0  # atno 8009 bound_to 7997
  154.7638  140.2765  155.6197 H   0  0  0  0  0  0  0  0  0  0  0  0  # atno 8010 bound_to 7997
  140.7279  143.4118  151.1093 H   0  0  0  0  0  0  0  0  0  0  0  0  # atno 10167 bound_to 10162
  156.0079  130.4562  150.3738 H   0  0  0  0  0  0  0  0  0  0  0  0  # atno 10718 bound_to 10713
  153.8003  135.6890  153.4857 H   0  0  0  0  0  0  0  0  0  0  0  0  # atno 10763 bound_to 10752
  153.1692  135.4549  154.9878 H   0  0  0  0  0  0  0  0  0  0  0  0  # atno 10764 bound_to 10752
  154.8009  135.3337  154.7492 H   0  0  0  0  0  0  0  0  0  0  0  0  # atno 10765 bound_to 10752
  141.0685  133.9419  157.2531 H   0  0  0  0  0  0  0  0  0  0  0  0  # atno 11005 bound_to 11000
  146.1622  140.6771  142.9272 LP  0  0  0  0  0  0  0  0  0  0  0  0  # atno 17320 bound_to 7965
  144.7337  140.4746  143.6919 LP  0  0  0  0  0  0  0  0  0  0  0  0  # atno 17321 bound_to 7965
  139.7753  143.8435  152.3128 LP  0  0  0  0  0  0  0  0  0  0  0  0  # atno 17342 bound_to 10162
  139.8367  144.7229  150.9382 LP  0  0  0  0  0  0  0  0  0  0  0  0  # atno 17343 bound_to 10162
  157.1821  131.0395  151.2743 LP  0  0  0  0  0  0  0  0  0  0  0  0  # atno 17370 bound_to 10713
  157.4136  130.7399  149.6858 LP  0  0  0  0  0  0  0  0  0  0  0  0  # atno 17371 bound_to 10713
  139.9500  135.0177  156.8966 LP  0  0  0  0  0  0  0  0  0  0  0  0  # atno 17394 bound_to 11000
  140.5722  134.0432  155.7434 LP  0  0  0  0  0  0  0  0  0  0  0  0  # atno 17395 bound_to 11000

$$$$
