AV-unprocessed.smi:198|AV-procd|sdf|1555|dock10
  -GOLD-   2262019423D 1   1.00000     0.00000
 Structure written by MMmdl.
 59 63  0  0  0  0  0  0  0  0  2 V2000
  151.2772  145.8375  160.4622 C   0  0  0  0  0  0  0  0  0  0  0  0
  151.6631  144.4376  160.1843 N   0  3  2  0  0  0  0  0  0  0  0  0
  152.2718  143.7754  161.3636 C   0  0  0  0  0  0  0  0  0  0  0  0
  152.5179  142.2848  161.0889 C   0  0  0  0  0  0  0  0  0  0  0  0
  153.4040  142.0934  159.8392 C   0  0  2  0  0  0  0  0  0  0  0  0
  152.8091  142.8433  158.6236 C   0  0  1  0  0  0  0  0  0  0  0  0
  151.5798  142.1131  158.0437 C   0  0  0  0  0  0  0  0  0  0  0  0
  151.9266  140.6515  157.7278 C   0  0  0  0  0  0  0  0  0  0  0  0
  152.4959  139.9376  158.9634 C   0  0  0  0  0  0  0  0  0  0  0  0
  153.6320  140.6786  159.5184 N   0  0  0  0  0  0  0  0  0  0  0  0
  154.4619  140.0129  160.3639 C   0  0  0  0  0  0  0  0  0  0  0  0
  155.6522  140.5688  160.7160 N   0  0  0  0  0  0  0  0  0  0  0  0
  156.4877  139.9182  161.5308 C   0  0  0  0  0  0  0  0  0  0  0  0
  156.3364  138.7194  162.0958 N   0  0  0  0  0  0  0  0  0  0  0  0
  155.1436  138.1560  161.7503 C   0  0  0  0  0  0  0  0  0  0  0  0
  154.1542  138.7314  160.9032 C   0  0  0  0  0  0  0  0  0  0  0  0
  153.0615  137.8776  160.8077 N   0  0  0  0  0  0  0  0  0  0  0  0
  153.3877  136.8563  161.5517 C   0  0  0  0  0  0  0  0  0  0  0  0
  154.6350  136.9258  162.1299 N   0  0  0  0  0  0  0  0  0  0  0  0
  155.2241  135.9669  163.0187 C   0  0  0  0  0  0  0  0  0  0  0  0
  155.3287  134.4882  162.6281 C   0  0  0  0  0  0  0  0  0  0  0  0
  155.0328  134.0728  164.0874 C   0  0  0  0  0  0  0  0  0  0  0  0
  154.0200  132.9286  164.2805 C   0  0  0  0  0  0  0  0  0  0  0  0
  154.5185  131.6764  163.8528 O   0  0  0  0  0  0  0  0  0  0  0  0
  156.2531  133.6778  164.9456 C   0  0  0  0  0  0  0  0  0  0  0  0
  155.9486  133.5136  166.3159 O   0  0  0  0  0  0  0  0  0  0  0  0
  154.4932  135.5076  164.2864 C   0  0  0  0  0  0  0  0  0  0  0  0
  152.5148  144.3166  158.9739 C   0  0  0  0  0  0  0  0  0  0  0  0
  152.1524  146.4463  160.6938 H   0  0  0  0  0  0  0  0  0  0  0  0
  150.5916  145.8873  161.3086 H   0  0  0  0  0  0  0  0  0  0  0  0
  150.7730  146.2765  159.6007 H   0  0  0  0  0  0  0  0  0  0  0  0
  153.2091  144.2715  161.6205 H   0  0  0  0  0  0  0  0  0  0  0  0
  151.6105  143.8803  162.2247 H   0  0  0  0  0  0  0  0  0  0  0  0
  152.9932  141.8312  161.9594 H   0  0  0  0  0  0  0  0  0  0  0  0
  151.5605  141.7783  160.9668 H   0  0  0  0  0  0  0  0  0  0  0  0
  154.3625  142.5644  160.0523 H   0  0  0  0  0  0  0  0  0  0  0  0
  153.5686  142.8472  157.8398 H   0  0  0  0  0  0  0  0  0  0  0  0
  150.7466  142.1464  158.7461 H   0  0  0  0  0  0  0  0  0  0  0  0
  151.2380  142.6135  157.1371 H   0  0  0  0  0  0  0  0  0  0  0  0
  151.0422  140.1253  157.3674 H   0  0  0  0  0  0  0  0  0  0  0  0
  152.6584  140.6171  156.9196 H   0  0  0  0  0  0  0  0  0  0  0  0
  151.7217  139.8262  159.7231 H   0  0  0  0  0  0  0  0  0  0  0  0
  152.8096  138.9321  158.6792 H   0  0  0  0  0  0  0  0  0  0  0  0
  157.4111  140.4292  161.7600 H   0  0  0  0  0  0  0  0  0  0  0  0
  152.7232  136.0165  161.6948 H   0  0  0  0  0  0  0  0  0  0  0  0
  156.2080  136.3655  163.2688 H   0  0  0  0  0  0  0  0  0  0  0  0
  154.5505  134.1945  161.9224 H   0  0  0  0  0  0  0  0  0  0  0  0
  156.3114  134.1935  162.2590 H   0  0  0  0  0  0  0  0  0  0  0  0
  153.7392  132.8328  165.3299 H   0  0  0  0  0  0  0  0  0  0  0  0
  153.1018  133.1265  163.7263 H   0  0  0  0  0  0  0  0  0  0  0  0
  154.7678  131.1759  164.6144 H   0  0  0  0  0  0  0  0  0  0  0  0
  156.6864  132.7418  164.5915 H   0  0  0  0  0  0  0  0  0  0  0  0
  157.0372  134.4321  164.8713 H   0  0  0  0  0  0  0  0  0  0  0  0
  156.6495  133.0283  166.7239 H   0  0  0  0  0  0  0  0  0  0  0  0
  154.8309  136.0003  165.1987 H   0  0  0  0  0  0  0  0  0  0  0  0
  153.4092  135.5810  164.1897 H   0  0  0  0  0  0  0  0  0  0  0  0
  152.0296  144.8078  158.1293 H   0  0  0  0  0  0  0  0  0  0  0  0
  153.4526  144.8477  159.1460 H   0  0  0  0  0  0  0  0  0  0  0  0
  150.8073  143.9394  159.9844 H   0  0  0  0  0  0  0  0  0  0  0  0
  1  2  1  0  0  0  0
  1 29  1  0  0  0  0
  1 30  1  0  0  0  0
  1 31  1  0  0  0  0
  2 28  1  0  0  0  0
  2  3  1  0  0  0  0
  2 59  1  0  0  0  0
  3  4  1  0  0  0  0
  3 32  1  0  0  0  0
  3 33  1  0  0  0  0
  4  5  1  0  0  0  0
  4 34  1  0  0  0  0
  4 35  1  0  0  0  0
  5 10  1  0  0  0  0
  5  6  1  0  0  0  0
  5 36  1  0  0  0  0
  6  7  1  0  0  0  0
  6 28  1  0  0  0  0
  6 37  1  0  0  0  0
  7  8  1  0  0  0  0
  7 38  1  0  0  0  0
  7 39  1  0  0  0  0
  8  9  1  0  0  0  0
  8 40  1  0  0  0  0
  8 41  1  0  0  0  0
  9 10  1  0  0  0  0
  9 42  1  0  0  0  0
  9 43  1  0  0  0  0
 10 11  1  0  0  0  0
 11 16  1  0  0  0  0
 11 12  2  0  0  0  0
 12 13  1  0  0  0  0
 13 14  2  0  0  0  0
 13 44  1  0  0  0  0
 14 15  1  0  0  0  0
 15 19  1  0  0  0  0
 15 16  2  0  0  0  0
 16 17  1  0  0  0  0
 17 18  2  0  0  0  0
 18 19  1  0  0  0  0
 18 45  1  0  0  0  0
 19 20  1  0  0  0  0
 20 27  1  0  0  0  0
 20 21  1  0  0  0  0
 20 46  1  0  0  0  0
 21 22  1  0  0  0  0
 21 47  1  0  0  0  0
 21 48  1  0  0  0  0
 22 23  1  0  0  0  0
 22 25  1  0  0  0  0
 22 27  1  0  0  0  0
 23 24  1  0  0  0  0
 23 49  1  0  0  0  0
 23 50  1  0  0  0  0
 24 51  1  0  0  0  0
 25 26  1  0  0  0  0
 25 52  1  0  0  0  0
 25 53  1  0  0  0  0
 26 54  1  0  0  0  0
 27 55  1  0  0  0  0
 27 56  1  0  0  0  0
 28 57  1  0  0  0  0
 28 58  1  0  0  0  0
M  CHG  1   2   1
M  END
> <s_m_source_file>
AV-unprocessed.smi

> <i_m_source_file_index>
198

> <i_lp_mmshare_version>
43012

> <i_f3d_flags>
0

> <s_epik_input>
W0NIMl0xW0NIMl1OKFtDSDNdKVtDSDJdW0NAQEhdKFtDQEhdMTIpW0NIMl1bQ0gyXVtDSDJdTjJjKG5bY0hdbjMpYyhjMzQpbltjSF1uNFtDSF0oW0NIMl01KVtDSDJdQzUoW0NIMl1bT0hdKVtDSDJdW09IXQ==

> <s_epik_cmdline>
J2VwaWtfcHl0aG9uJywgJy1waCcsICc3LjAnLCAnLXRuJywgJzgnLCAnLW1hJywgJzIwMCcsICctbWV0YWxfYmluZGluZycsICctaW1hZScsICc8aW5maWxlLm1hZT4nLCAnLW9tYWUnLCAnPG91dGZpbGUubWFlPic=

> <r_lp_tautomer_probability>
1

> <r_epik_Ionization_Penalty>
0.00239938

> <r_epik_Ionization_Penalty_Charging>
0.00138697

> <r_epik_Ionization_Penalty_Neutral>
0.00101241

> <r_epik_State_Penalty>
-0

> <r_epik_Charging_Adjusted_Penalty>
0.00138697

> <i_epik_Tot_Q>
1

> <i_epik_Tot_abs_Q>
1

> <r_epik_Metal_State_Penalty>
-0

> <b_epik_Metal_Only>
0

> <s_lp_Force_Field>
OPLS_2005

> <r_lp_Energy>
59.0053

> <b_lp_Chiralities_Consistent>
1

> <s_lp_Variant>
AV-unprocessed.smi:198-4

> <Gold.Version>
5.8.1

> <Gold.Id.Protein>
6NUR|6NUR_protein|mol2

> <Gold.PLP.Fitness>
46.9288

> <Gold.PLP.PLP>
-46.9464

> <Gold.PLP.part.hbond>
-1.8465

> <Gold.PLP.part.metal>
0.0000

> <Gold.PLP.part.buried>
-2.1211

> <Gold.PLP.part.nonpolar>
-42.4374

> <Gold.PLP.part.repulsive>
0.0937

> <Gold.PLP.ligand.clash>
0.0000

> <Gold.PLP.ligand.torsion>
0.4625

> <Gold.PLP.Chemscore.Hbond>
0.0000

> <Gold.PLP.Chemscore.CHOScore>
0.0000

> <Gold.PLP.Chemscore.Metal>
0.0000

> <Gold.PLP.Chemscore.Internal.Correction>
0.9074

> <Gold.Rescore>
     Score         DG    S(hbond)    S(metal)    S(lipo)     H(rot)  DE(clash)    DE(int)     intcor
     11.01     -13.22       0.00        0.00     133.48       3.08       0.30       1.90       ----

> <Gold.Chemscore.Fitness>
11.0094

> <Gold.Chemscore.DG>
-13.2168

> <Gold.Chemscore.ZeroCoef>
-5.4800

> <Gold.Chemscore.Hbond>
0.0000

> <Gold.Chemscore.Metal>
0.0000

> <Gold.Chemscore.Lipo>
133.4767

> <Gold.Chemscore.Internal_Hbond>
0.0000

> <Gold.Chemscore.DEClash>
0.3043

> <Gold.Chemscore.DEInternal>
1.9031

> <Gold.Chemscore.Rot>
3.0781

> <Gold.Chemscore.Internal.Correction>
   9.000000E+99

> <Gold.Chemscore.Hbond.Weighted>
-0.0000

> <Gold.Chemscore.Metal.Weighted>
-0.0000

> <Gold.Chemscore.Lipo.Weighted>
-15.6168

> <Gold.Chemscore.Internal_Hbond.Weighted>
0.0000

> <Gold.Chemscore.DEClash.Weighted>
0.3043

> <Gold.Chemscore.DEInternal.Weighted>
1.9031

> <Gold.Chemscore.Rot.Weighted>
7.8800

> <Gold.Chemscore.Internal.Correction.Weighted>
   9.000000E+99

> <Gold.Protein.RotatedTorsions>
[ 6907 6896 6895 6894 ] final   47.92 input  -60.11 | X-H torsion
[ 7974 7965 7964 7962 ] final   15.05 input  175.53 | X-H torsion
[ 8008 7997 7996 7995 ] final   89.04 input   59.86 | X-H torsion
[ 10167 10162 10161 10158 ] final  -98.97 input  -65.29 | X-H torsion
[ 10718 10713 10712 10709 ] final   73.41 input   66.30 | X-H torsion
[ 10763 10752 10751 10750 ] final -173.19 input  -60.55 | X-H torsion
[ 11005 11000 10999 10996 ] final  125.84 input  -57.11 | X-H torsion

> <Gold.Protein.ActiveResidues>
 VAL166  LYS551  ARG553  GLY616  TRP617  ASP618  TYR619  PRO620  LYS621  CYS622 
 ASP623  PHE694  ASN695  SER759  ASP760  ASP761  ALA762  ILE779  LEU786  VAL792 
 PHE793  MET794  SER795  GLU796  ALA797  LYS798  CYS799  TRP800  GLU811  SER814 

> <Gold.Protein.RotatedAtoms>
  152.2736  134.7906  160.0409 H   0  0  0  0  0  0  0  0  0  0  0  0  # atno 6907 bound_to 6896
  151.8510  133.3434  159.3681 H   0  0  0  0  0  0  0  0  0  0  0  0  # atno 6908 bound_to 6896
  150.7161  134.5227  159.5706 H   0  0  0  0  0  0  0  0  0  0  0  0  # atno 6909 bound_to 6896
  146.2289  139.8950  142.8548 H   0  0  0  0  0  0  0  0  0  0  0  0  # atno 7974 bound_to 7965
  155.9951  140.3365  155.6791 H   0  0  0  0  0  0  0  0  0  0  0  0  # atno 8008 bound_to 7997
  155.6367  140.0691  157.2649 H   0  0  0  0  0  0  0  0  0  0  0  0  # atno 8009 bound_to 7997
  154.4231  140.1750  156.1517 H   0  0  0  0  0  0  0  0  0  0  0  0  # atno 8010 bound_to 7997
  140.2673  143.3367  152.0568 H   0  0  0  0  0  0  0  0  0  0  0  0  # atno 10167 bound_to 10162
  157.6547  130.9627  150.1066 H   0  0  0  0  0  0  0  0  0  0  0  0  # atno 10718 bound_to 10713
  154.6107  135.2864  155.0435 H   0  0  0  0  0  0  0  0  0  0  0  0  # atno 10763 bound_to 10752
  154.1666  135.6479  153.5003 H   0  0  0  0  0  0  0  0  0  0  0  0  # atno 10764 bound_to 10752
  153.0194  135.5391  154.6859 H   0  0  0  0  0  0  0  0  0  0  0  0  # atno 10765 bound_to 10752
  139.9426  134.9633  156.8618 H   0  0  0  0  0  0  0  0  0  0  0  0  # atno 11005 bound_to 11000
  145.2379  140.9998  143.3952 LP  0  0  0  0  0  0  0  0  0  0  0  0  # atno 17320 bound_to 7965
  144.9476  139.4119  143.6418 LP  0  0  0  0  0  0  0  0  0  0  0  0  # atno 17321 bound_to 7965
  139.4999  144.6679  151.6312 LP  0  0  0  0  0  0  0  0  0  0  0  0  # atno 17342 bound_to 10162
  140.5918  143.9766  150.6329 LP  0  0  0  0  0  0  0  0  0  0  0  0  # atno 17343 bound_to 10162
  156.1974  130.3658  149.8832 LP  0  0  0  0  0  0  0  0  0  0  0  0  # atno 17370 bound_to 10713
  156.6744  130.8833  151.3567 LP  0  0  0  0  0  0  0  0  0  0  0  0  # atno 17371 bound_to 10713
  140.5913  134.0259  155.7501 LP  0  0  0  0  0  0  0  0  0  0  0  0  # atno 17394 bound_to 11000
  141.1066  133.9683  157.2986 LP  0  0  0  0  0  0  0  0  0  0  0  0  # atno 17395 bound_to 11000

$$$$
