#       Name:                AV-unprocessed.smi:358
#       Creating user name   scv26
#       Creation time:       Thu Mar 26 22:35:26 2020


#       File generated by GOLD software.
#

@<TRIPOS>MOLECULE
AV-unprocessed.smi:358
    43    45     1
SMALL
NO_CHARGES


@<TRIPOS>ATOM
      1 ****        -1.3294   3.3973  -2.8330 N.am           1 S1                 0.0000
      2 ****        -0.9501   2.1340  -2.6275 C.2            1 S1                 0.0000
      3 ****        -0.5151   1.4272  -3.5350 O.2            1 S1                 0.0000
      4 ****        -1.0839   1.5973  -1.1984 C.3            1 S1                 0.0000
      5 ****        -1.4379   0.1826  -1.1703 N.pl3          1 S1                 0.0000
      6 ****        -0.6325  -0.8998  -1.1695 C.2            1 S1                 0.0000
      7 ****         1.1227  -0.7864  -1.2107 S.3            1 S1                 0.0000
      8 ****         1.3990  -0.8965   0.5810 C.3            1 S1                 0.0000
      9 ****         2.8652  -0.7625   0.9958 C.2            1 S1                 0.0000
     10 ****         3.6794  -0.2025   0.2609 O.2            1 S1                 0.0000
     11 ****         3.1828  -1.2750   2.1939 N.am           1 S1                 0.0000
     12 ****         4.4806  -1.2575   2.7872 C.3            1 S1                 0.0000
     13 ****         4.8396  -2.3925   3.7219 C.3            1 S1                 0.0000
     14 ****         4.5685  -1.0225   4.2798 C.3            1 S1                 0.0000
     15 ****        -1.2901  -2.0605  -1.1193 N.2            1 S1                 0.0000
     16 ****        -2.6256  -1.7258  -1.0851 N.2            1 S1                 0.0000
     17 ****        -2.6580  -0.3921  -1.1349 C.2            1 S1                 0.0000
     18 ****        -3.9235   0.4043  -1.0921 C.3            1 S1                 0.0000
     19 ****        -5.1376  -0.0108  -1.8940 C.3            1 S1                 0.0000
     20 ****        -4.3713   1.2263  -2.2808 C.3            1 S1                 0.0000
     21 ****        -1.2580   3.7960  -3.7581 H              1 S1                 0.0000
     22 ****        -1.6839   3.9507  -2.0665 H              1 S1                 0.0000
     23 ****        -0.1424   1.7448  -0.6690 H              1 S1                 0.0000
     24 ****        -1.8396   2.1612  -0.6502 H              1 S1                 0.0000
     25 ****         0.8261  -0.1107   1.0739 H              1 S1                 0.0000
     26 ****         1.0053  -1.8508   0.9335 H              1 S1                 0.0000
     27 ****         2.4469  -1.7140   2.7278 H              1 S1                 0.0000
     28 ****         5.2987  -0.8576   2.1898 H              1 S1                 0.0000
     29 ****         4.0918  -3.1633   3.8987 H              1 S1                 0.0000
     30 ****         5.8714  -2.7381   3.7181 H              1 S1                 0.0000
     31 ****         5.4187  -0.4519   4.6477 H              1 S1                 0.0000
     32 ****         3.6393  -0.8780   4.8280 H              1 S1                 0.0000
     33 ****        -4.0868   0.8139  -0.0973 H              1 S1                 0.0000
     34 ****        -5.0467  -0.8775  -2.5459 H              1 S1                 0.0000
     35 ****        -6.1137   0.1258  -1.4331 H              1 S1                 0.0000
     36 ****        -4.8338   2.1901  -2.0785 H              1 S1                 0.0000
     37 ****        -3.7745   1.1764  -3.1893 H              1 S1                 0.0000
     38 ****        -0.4368   1.7951  -4.4615 LP             1 S1                 0.0000
     39 ****        -0.2398   0.4845  -3.3464 LP             1 S1                 0.0000
     40 ****         3.3848   0.1711  -0.6186 LP             1 S1                 0.0000
     41 ****         4.6351  -0.1214   0.5437 LP             1 S1                 0.0000
     42 ****        -0.8960  -2.9795  -1.1087 LP             1 S1                 0.0000
     43 ****        -3.4056  -2.3495  -1.0338 LP             1 S1                 0.0000
@<TRIPOS>BOND
    1    1    2 am    
    2    1   21 1     
    3    1   22 1     
    4    2    3 2     
    5    2    4 1     
    6    4    5 1     
    7    4   23 1     
    8    4   24 1     
    9    5   17 1     
   10    5    6 1     
   11    6    7 1     
   12    6   15 2     
   13    7    8 1     
   14    8    9 1     
   15    8   25 1     
   16    8   26 1     
   17    9   10 2     
   18    9   11 am    
   19   11   12 1     
   20   11   27 1     
   21   12   14 1     
   22   12   13 1     
   23   12   28 1     
   24   13   14 1     
   25   13   29 1     
   26   13   30 1     
   27   14   31 1     
   28   14   32 1     
   29   15   16 1     
   30   16   17 2     
   31   17   18 1     
   32   18   20 1     
   33   18   19 1     
   34   18   33 1     
   35   19   20 1     
   36   19   34 1     
   37   19   35 1     
   38   20   36 1     
   39   20   37 1     
   40    3   38 1     
   41    3   39 1     
   42   10   40 1     
   43   10   41 1     
   44   15   42 1     
   45   16   43 1     
@<TRIPOS>SUBSTRUCTURE
      1 S1             1
@<TRIPOS>SET
LONE_PAIRS      STATIC     ATOMS    <user>   **** ""
6 38 39 40 41 42 43
DONOR_HYDROGENS      STATIC     ATOMS    <user>   **** ""
3 21 22 27
ATOM$BLUE        STATIC     ATOMS    COLORGROUP SYSTEM
6 38 39 40 41 42 43
ATOM$RED        STATIC     ATOMS    COLORGROUP SYSTEM
3 21 22 27
