AV-unprocessed.smi:993|AV-procd|sdf|4336|dock2
  -GOLD-   22720 2233D 1   1.00000     0.00000
 Structure written by MMmdl.
 31 32  0  0  0  0  0  0  0  0  2 V2000
  152.4103  138.4080  159.0705 C   0  0  0  0  0  0  0  0  0  0  0  0
  151.9909  139.5993  158.2268 C   0  0  0  0  0  0  0  0  0  0  0  0
  152.0793  140.8185  158.8719 N   0  0  0  0  0  0  0  0  0  0  0  0
  151.7275  141.9758  158.1880 C   0  0  0  0  0  0  0  0  0  0  0  0
  151.8593  143.1557  158.9179 N   0  0  0  0  0  0  0  0  0  0  0  0
  151.7517  144.5102  158.3864 C   0  0  0  0  0  0  0  0  0  0  0  0
  151.6840  145.4427  159.5965 C   0  0  0  0  0  0  0  0  0  0  0  0
  152.4374  144.6715  160.6723 C   0  0  0  0  0  0  0  0  0  0  0  0
  152.1003  143.2149  160.3543 C   0  0  0  0  0  0  0  0  0  0  0  0
  151.3031  141.9716  156.9579 N   0  0  0  0  0  0  0  0  0  0  0  0
  151.1893  140.7656  156.2492 C   0  0  0  0  0  0  0  0  0  0  0  0
  150.7863  140.7658  155.0868 O   0  0  0  0  0  0  0  0  0  0  0  0
  151.5649  139.5156  156.9438 C   0  0  0  0  0  0  0  0  0  0  0  0
  151.4570  138.1887  156.1904 C   0  0  0  0  0  0  0  0  0  0  0  0
  152.2917  138.1118  154.9066 C   0  0  0  0  0  0  0  0  0  0  0  0
  153.1750  138.9850  154.7638 O   0  0  0  0  0  0  0  0  0  0  0  0
  152.0437  137.1971  154.0893 O   0  5  0  0  0  0  0  0  0  0  0  0
  152.4111  140.8250  159.8249 H   0  0  0  0  0  0  0  0  0  0  0  0
  153.2411  137.8821  158.5997 H   0  0  0  0  0  0  0  0  0  0  0  0
  151.5802  137.7108  159.1844 H   0  0  0  0  0  0  0  0  0  0  0  0
  152.7301  138.7132  160.0674 H   0  0  0  0  0  0  0  0  0  0  0  0
  150.8742  144.6284  157.7496 H   0  0  0  0  0  0  0  0  0  0  0  0
  152.6379  144.7240  157.7876 H   0  0  0  0  0  0  0  0  0  0  0  0
  152.1071  146.4279  159.3986 H   0  0  0  0  0  0  0  0  0  0  0  0
  150.6452  145.5755  159.9011 H   0  0  0  0  0  0  0  0  0  0  0  0
  153.5098  144.8351  160.5589 H   0  0  0  0  0  0  0  0  0  0  0  0
  152.1558  144.9614  161.6849 H   0  0  0  0  0  0  0  0  0  0  0  0
  152.9066  142.5455  160.6572 H   0  0  0  0  0  0  0  0  0  0  0  0
  151.1924  142.9081  160.8753 H   0  0  0  0  0  0  0  0  0  0  0  0
  150.4195  137.9617  155.9446 H   0  0  0  0  0  0  0  0  0  0  0  0
  151.7751  137.3828  156.8519 H   0  0  0  0  0  0  0  0  0  0  0  0
  1 19  1  0  0  0  0
  1 20  1  0  0  0  0
  1 21  1  0  0  0  0
  1  2  1  0  0  0  0
  2 13  2  0  0  0  0
  2  3  1  0  0  0  0
  3 18  1  0  0  0  0
  3  4  1  0  0  0  0
  4  5  1  0  0  0  0
  4 10  2  0  0  0  0
  5  9  1  0  0  0  0
  5  6  1  0  0  0  0
  6  7  1  0  0  0  0
  6 22  1  0  0  0  0
  6 23  1  0  0  0  0
  7  8  1  0  0  0  0
  7 24  1  0  0  0  0
  7 25  1  0  0  0  0
  8  9  1  0  0  0  0
  8 26  1  0  0  0  0
  8 27  1  0  0  0  0
  9 28  1  0  0  0  0
  9 29  1  0  0  0  0
 10 11  1  0  0  0  0
 11 12  2  0  0  0  0
 11 13  1  0  0  0  0
 13 14  1  0  0  0  0
 14 15  1  0  0  0  0
 14 30  1  0  0  0  0
 14 31  1  0  0  0  0
 15 16  2  0  0  0  0
 15 17  1  0  0  0  0
M  CHG  1  17  -1
M  END
> <s_m_source_file>
AV-unprocessed.smi

> <i_m_source_file_index>
993

> <i_lp_mmshare_version>
43012

> <i_f3d_flags>
0

> <s_epik_input>
W0NIMl0xW0NIMl1bQ0gyXVtDSDJdTjFjKG5jMltDSDNdKVtuSF1jKD1PKWMyW0NIMl1DKD1PKVtPSF0=

> <s_epik_cmdline>
J2VwaWtfcHl0aG9uJywgJy1waCcsICc3LjAnLCAnLXRuJywgJzgnLCAnLW1hJywgJzIwMCcsICctbWV0YWxfYmluZGluZycsICctaW1hZScsICc8aW5maWxlLm1hZT4nLCAnLW9tYWUnLCAnPG91dGZpbGUubWFlPic=

> <r_lp_tautomer_probability>
0.108306

> <r_epik_Ionization_Penalty>
0.978387

> <r_epik_Ionization_Penalty_Charging>
0.00633795

> <r_epik_Ionization_Penalty_Neutral>
0.972049

> <r_epik_State_Penalty>
1.38976

> <r_epik_Charging_Adjusted_Penalty>
1.3961

> <i_epik_Tot_Q>
-1

> <i_epik_Tot_abs_Q>
1

> <r_epik_Metal_State_Penalty>
0.631271

> <b_epik_Metal_Only>
0

> <s_lp_Force_Field>
OPLS_2005

> <r_lp_Energy>
28.5052

> <b_lp_Chiralities_Consistent>
1

> <s_lp_Variant>
AV-unprocessed.smi:993-2

> <Gold.Version>
5.8.1

> <Gold.Id.Protein>
6NUR|6NUR_protein|mol2

> <Gold.PLP.Fitness>
47.8104

> <Gold.PLP.PLP>
-33.9438

> <Gold.PLP.part.hbond>
-3.0000

> <Gold.PLP.part.metal>
0.0000

> <Gold.PLP.part.buried>
-5.6856

> <Gold.PLP.part.nonpolar>
-26.6025

> <Gold.PLP.part.repulsive>
0.9975

> <Gold.PLP.ligand.clash>
0.0000

> <Gold.PLP.ligand.torsion>
0.2432

> <Gold.PLP.Chemscore.Hbond>
4.7840

> <Gold.PLP.Chemscore.CHOScore>
0.0000

> <Gold.PLP.Chemscore.Metal>
0.0000

> <Gold.Chemscore.Hbonds>
donor molecule, donor type, donor heavy atom, donor atom, acceptor molecule, acceptor atom, score
      P1  H  7989  7998       L1    12  0.86
      P1  H  7997  8010       L1    16  1.69
      P1  H 10752 10765       L1    17  2.00

> <Gold.PLP.Chemscore.Internal.Correction>
0.0009

> <Gold.Rescore>
     Score         DG    S(hbond)    S(metal)    S(lipo)     H(rot)  DE(clash)    DE(int)     intcor
     18.21     -18.76       2.76        0.00      67.84       1.51       0.28       0.27       ----

> <Gold.Chemscore.Fitness>
18.2117

> <Gold.Chemscore.DG>
-18.7617

> <Gold.Chemscore.ZeroCoef>
-5.4800

> <Gold.Chemscore.Hbond>
2.7555

> <Gold.Chemscore.Metal>
0.0000

> <Gold.Chemscore.Lipo>
67.8423

> <Gold.Chemscore.Internal_Hbond>
0.0000

> <Gold.Chemscore.DEClash>
0.2780

> <Gold.Chemscore.DEInternal>
0.2721

> <Gold.Chemscore.Rot>
1.5075

> <Gold.Chemscore.Internal.Correction>
   9.000000E+99

> <Gold.Chemscore.Hbonds>
donor molecule, donor type, donor heavy atom, donor atom, acceptor molecule, acceptor atom, score
      P1  H  7989  7998       L1    12  0.85
      P1  H  7997  8010       L1    16  0.82
      P1  H 10752 10765       L1    17  0.91

> <Gold.Chemscore.Hbond.Weighted>
-9.2034

> <Gold.Chemscore.Metal.Weighted>
-0.0000

> <Gold.Chemscore.Lipo.Weighted>
-7.9376

> <Gold.Chemscore.Internal_Hbond.Weighted>
0.0000

> <Gold.Chemscore.DEClash.Weighted>
0.2780

> <Gold.Chemscore.DEInternal.Weighted>
0.2721

> <Gold.Chemscore.Rot.Weighted>
3.8592

> <Gold.Chemscore.Internal.Correction.Weighted>
   9.000000E+99

> <Gold.Protein.RotatedTorsions>
[ 6907 6896 6895 6894 ] final  -78.31 input  -60.11 | X-H torsion
[ 7974 7965 7964 7962 ] final   52.37 input  175.53 | X-H torsion
[ 8008 7997 7996 7995 ] final  117.21 input   59.86 | X-H torsion
[ 10167 10162 10161 10158 ] final  -35.42 input  -65.29 | X-H torsion
[ 10718 10713 10712 10709 ] final   44.02 input   66.30 | X-H torsion
[ 10763 10752 10751 10750 ] final  152.98 input  -60.55 | X-H torsion
[ 11005 11000 10999 10996 ] final  157.78 input  -57.11 | X-H torsion

> <Gold.Protein.ActiveResidues>
 VAL166  LYS551  ARG553  GLY616  TRP617  ASP618  TYR619  PRO620  LYS621  CYS622 
 ASP623  PHE694  ASN695  SER759  ASP760  ASP761  ALA762  ILE779  LEU786  VAL792 
 PHE793  MET794  SER795  GLU796  ALA797  LYS798  CYS799  TRP800  GLU811  SER814 

> <Gold.Protein.RotatedAtoms>
  150.6976  134.4291  159.5239 H   0  0  0  0  0  0  0  0  0  0  0  0  # atno 6907 bound_to 6896
  152.2021  134.8576  160.0516 H   0  0  0  0  0  0  0  0  0  0  0  0  # atno 6908 bound_to 6896
  151.9492  133.3626  159.4030 H   0  0  0  0  0  0  0  0  0  0  0  0  # atno 6909 bound_to 6896
  145.9820  139.4251  143.0126 H   0  0  0  0  0  0  0  0  0  0  0  0  # atno 7974 bound_to 7965
  156.2482  140.2901  156.0643 H   0  0  0  0  0  0  0  0  0  0  0  0  # atno 8008 bound_to 7997
  155.1741  140.0402  157.2886 H   0  0  0  0  0  0  0  0  0  0  0  0  # atno 8009 bound_to 7997
  154.6305  140.2498  155.7446 H   0  0  0  0  0  0  0  0  0  0  0  0  # atno 8010 bound_to 7997
  140.7165  143.3479  151.2218 H   0  0  0  0  0  0  0  0  0  0  0  0  # atno 10167 bound_to 10162
  157.4223  130.7976  149.7526 H   0  0  0  0  0  0  0  0  0  0  0  0  # atno 10718 bound_to 10713
  154.1288  135.2828  155.3190 H   0  0  0  0  0  0  0  0  0  0  0  0  # atno 10763 bound_to 10752
  154.6370  135.5415  153.7749 H   0  0  0  0  0  0  0  0  0  0  0  0  # atno 10764 bound_to 10752
  153.0288  135.6477  154.1439 H   0  0  0  0  0  0  0  0  0  0  0  0  # atno 10765 bound_to 10752
  140.1803  134.8481  157.2794 H   0  0  0  0  0  0  0  0  0  0  0  0  # atno 11005 bound_to 11000
  145.7756  140.9878  143.1126 LP  0  0  0  0  0  0  0  0  0  0  0  0  # atno 17320 bound_to 7965
  144.6864  139.9501  143.7477 LP  0  0  0  0  0  0  0  0  0  0  0  0  # atno 17321 bound_to 7965
  139.7002  143.9545  152.2902 LP  0  0  0  0  0  0  0  0  0  0  0  0  # atno 17342 bound_to 10162
  139.9236  144.6785  150.8436 LP  0  0  0  0  0  0  0  0  0  0  0  0  # atno 17343 bound_to 10162
  155.9885  130.3959  150.3117 LP  0  0  0  0  0  0  0  0  0  0  0  0  # atno 17370 bound_to 10713
  157.1266  131.0261  151.2987 LP  0  0  0  0  0  0  0  0  0  0  0  0  # atno 17371 bound_to 10713
  140.2275  134.3948  155.7537 LP  0  0  0  0  0  0  0  0  0  0  0  0  # atno 17394 bound_to 11000
  141.2222  133.7198  156.8589 LP  0  0  0  0  0  0  0  0  0  0  0  0  # atno 17395 bound_to 11000

$$$$
