AV-unprocessed.smi:1433|AV-procd|sdf|5848|dock9
  -GOLD-   22720 5513D 1   1.00000     0.00000
 Structure written by MMmdl.
 45 46  0  0  0  0  0  0  0  0  2 V2000
  148.4561  139.3348  153.9314 C   0  0  0  0  0  0  0  0  0  0  0  0
  149.0597  138.8715  155.2693 C   0  0  1  0  0  0  0  0  0  0  0  0
  148.7851  137.3909  155.5908 C   0  0  0  0  0  0  0  0  0  0  0  0
  149.5928  136.4788  154.7358 N   0  3  2  0  0  0  0  0  0  0  0  0
  149.2564  135.0347  154.9631 C   0  0  1  0  0  0  0  0  0  0  0  0
  149.7865  134.5758  156.3419 C   0  0  0  0  0  0  0  0  0  0  0  0
  147.7402  134.7125  154.8351 C   0  0  0  0  0  0  0  0  0  0  0  0
  147.2289  134.9406  153.4877 N   0  0  0  0  0  0  0  0  0  0  0  0
  145.9765  134.6752  153.0848 C   0  0  0  0  0  0  0  0  0  0  0  0
  145.1326  134.1385  153.8020 O   0  0  0  0  0  0  0  0  0  0  0  0
  145.6147  135.1051  151.6636 C   0  0  0  0  0  0  0  0  0  0  0  0
  145.3739  133.9458  150.8229 N   0  0  0  0  0  0  0  0  0  0  0  0
  144.2380  133.6274  150.1078 C   0  0  0  0  0  0  0  0  0  0  0  0
  144.4835  132.4525  149.4568 C   0  0  0  0  0  0  0  0  0  0  0  0
  145.8140  132.1248  149.8401 C   0  0  0  0  0  0  0  0  0  0  0  0
  146.3458  133.0216  150.6552 N   0  0  0  0  0  0  0  0  0  0  0  0
  151.0321  136.8348  154.8599 C   0  0  0  0  0  0  0  0  0  0  0  0
  151.2696  138.3200  154.5295 C   0  0  2  0  0  0  0  0  0  0  0  0
  152.7298  138.7285  154.7540 C   0  0  0  0  0  0  0  0  0  0  0  0
  150.4564  139.1385  155.3620 O   0  0  0  0  0  0  0  0  0  0  0  0
  147.3696  139.2455  153.9471 H   0  0  0  0  0  0  0  0  0  0  0  0
  148.8152  138.7471  153.0870 H   0  0  0  0  0  0  0  0  0  0  0  0
  148.6964  140.3806  153.7386 H   0  0  0  0  0  0  0  0  0  0  0  0
  148.5893  139.4713  156.0491 H   0  0  0  0  0  0  0  0  0  0  0  0
  149.0278  137.1997  156.6375 H   0  0  0  0  0  0  0  0  0  0  0  0
  147.7185  137.2023  155.4831 H   0  0  0  0  0  0  0  0  0  0  0  0
  149.7710  134.4591  154.1919 H   0  0  0  0  0  0  0  0  0  0  0  0
  149.5936  133.5180  156.5205 H   0  0  0  0  0  0  0  0  0  0  0  0
  149.3147  135.1362  157.1497 H   0  0  0  0  0  0  0  0  0  0  0  0
  150.8633  134.6993  156.4413 H   0  0  0  0  0  0  0  0  0  0  0  0
  147.5537  133.6696  155.0937 H   0  0  0  0  0  0  0  0  0  0  0  0
  147.1421  135.3198  155.5158 H   0  0  0  0  0  0  0  0  0  0  0  0
  147.8540  135.3819  152.8279 H   0  0  0  0  0  0  0  0  0  0  0  0
  144.7281  135.7413  151.6734 H   0  0  0  0  0  0  0  0  0  0  0  0
  146.4272  135.6912  151.2318 H   0  0  0  0  0  0  0  0  0  0  0  0
  143.3609  134.2576  150.1200 H   0  0  0  0  0  0  0  0  0  0  0  0
  143.8143  131.9093  148.8060 H   0  0  0  0  0  0  0  0  0  0  0  0
  146.4058  131.2689  149.5512 H   0  0  0  0  0  0  0  0  0  0  0  0
  151.3787  136.6059  155.8691 H   0  0  0  0  0  0  0  0  0  0  0  0
  151.6365  136.2538  154.1641 H   0  0  0  0  0  0  0  0  0  0  0  0
  151.0270  138.5046  153.4828 H   0  0  0  0  0  0  0  0  0  0  0  0
  153.4036  138.1376  154.1328 H   0  0  0  0  0  0  0  0  0  0  0  0
  153.0241  138.5876  155.7944 H   0  0  0  0  0  0  0  0  0  0  0  0
  152.8837  139.7786  154.5040 H   0  0  0  0  0  0  0  0  0  0  0  0
  149.3442  136.6764  153.7770 H   0  0  0  0  0  0  0  0  0  0  0  0
  1  2  1  0  0  0  0
  1 21  1  0  0  0  0
  1 22  1  0  0  0  0
  1 23  1  0  0  0  0
  2 20  1  0  0  0  0
  2  3  1  0  0  0  0
  2 24  1  0  0  0  0
  3  4  1  0  0  0  0
  3 25  1  0  0  0  0
  3 26  1  0  0  0  0
  4  5  1  0  0  0  0
  4 17  1  0  0  0  0
  4 45  1  0  0  0  0
  5  6  1  0  0  0  0
  5  7  1  0  0  0  0
  5 27  1  0  0  0  0
  6 28  1  0  0  0  0
  6 29  1  0  0  0  0
  6 30  1  0  0  0  0
  7  8  1  0  0  0  0
  7 31  1  0  0  0  0
  7 32  1  0  0  0  0
  8  9  1  0  0  0  0
  8 33  1  0  0  0  0
  9 10  2  0  0  0  0
  9 11  1  0  0  0  0
 11 12  1  0  0  0  0
 11 34  1  0  0  0  0
 11 35  1  0  0  0  0
 12 16  1  0  0  0  0
 12 13  1  0  0  0  0
 13 14  2  0  0  0  0
 13 36  1  0  0  0  0
 14 15  1  0  0  0  0
 14 37  1  0  0  0  0
 15 16  2  0  0  0  0
 15 38  1  0  0  0  0
 17 18  1  0  0  0  0
 17 39  1  0  0  0  0
 17 40  1  0  0  0  0
 18 19  1  0  0  0  0
 18 20  1  0  0  0  0
 18 41  1  0  0  0  0
 19 42  1  0  0  0  0
 19 43  1  0  0  0  0
 19 44  1  0  0  0  0
M  CHG  1   4   1
M  END
> <s_m_source_file>
AV-unprocessed.smi

> <i_m_source_file_index>
1433

> <i_lp_mmshare_version>
43012

> <i_f3d_flags>
0

> <s_epik_input>
W0NIM11bQ0BASF0xW0NIMl1OKFtDSDJdW0NASF0oTzEpW0NIM10pW0NASF0oW0NIM10pW0NIMl1bTkhdQyg9TylbQ0gyXW4yW2NIXVtjSF1bY0hdbjI=

> <s_epik_cmdline>
J2VwaWtfcHl0aG9uJywgJy1waCcsICc3LjAnLCAnLXRuJywgJzgnLCAnLW1hJywgJzIwMCcsICctbWV0YWxfYmluZGluZycsICctaW1hZScsICc8aW5maWxlLm1hZT4nLCAnLW9tYWUnLCAnPG91dGZpbGUubWFlPic=

> <r_lp_tautomer_probability>
1

> <r_epik_Ionization_Penalty>
0.748405

> <r_epik_Ionization_Penalty_Charging>
0.748396

> <r_epik_Ionization_Penalty_Neutral>
8.54426e-06

> <r_epik_State_Penalty>
0.775162

> <r_epik_Charging_Adjusted_Penalty>
1.52356

> <i_epik_Tot_Q>
1

> <i_epik_Tot_abs_Q>
1

> <r_epik_Metal_State_Penalty>
0.775167

> <b_epik_Metal_Only>
0

> <s_lp_Force_Field>
OPLS_2005

> <r_lp_Energy>
21.4141

> <b_lp_Chiralities_Consistent>
1

> <s_lp_Variant>
AV-unprocessed.smi:1433-14

> <Gold.Version>
5.8.1

> <Gold.Id.Protein>
6NUR|6NUR_protein|mol2

> <Gold.PLP.Fitness>
46.7663

> <Gold.PLP.PLP>
-32.4471

> <Gold.PLP.part.hbond>
-2.0000

> <Gold.PLP.part.metal>
0.0000

> <Gold.PLP.part.buried>
-4.5731

> <Gold.PLP.part.nonpolar>
-26.7145

> <Gold.PLP.part.repulsive>
0.3790

> <Gold.PLP.ligand.clash>
0.0000

> <Gold.PLP.ligand.torsion>
0.1398

> <Gold.PLP.Chemscore.Hbond>
3.0000

> <Gold.PLP.Chemscore.CHOScore>
1.8475

> <Gold.PLP.Chemscore.Metal>
0.0000

> <Gold.Chemscore.Hbonds>
donor molecule, donor type, donor heavy atom, donor atom, acceptor molecule, acceptor atom, score
      L1  H     4    45       P1  7948  2.00
      L1  H     8    33       P1  7948  1.00
      L1  C    13    36       P1 10186  1.00
      L1  C    15    38       P1 10747  0.57

> <Gold.PLP.Chemscore.Internal.Correction>
0.0565

> <Gold.Rescore>
     Score         DG    S(hbond)    S(metal)    S(lipo)     H(rot)  DE(clash)    DE(int)     intcor
     16.58     -16.86       1.91        0.00      83.48       1.87       0.16       0.12       ----

> <Gold.Chemscore.Fitness>
16.5818

> <Gold.Chemscore.DG>
-16.8645

> <Gold.Chemscore.ZeroCoef>
-5.4800

> <Gold.Chemscore.Hbond>
1.9141

> <Gold.Chemscore.Metal>
0.0000

> <Gold.Chemscore.Lipo>
83.4845

> <Gold.Chemscore.Internal_Hbond>
0.0000

> <Gold.Chemscore.DEClash>
0.1631

> <Gold.Chemscore.DEInternal>
0.1196

> <Gold.Chemscore.Rot>
1.8657

> <Gold.Chemscore.Internal.Correction>
   9.000000E+99

> <Gold.Chemscore.Hbonds>
donor molecule, donor type, donor heavy atom, donor atom, acceptor molecule, acceptor atom, score
      L1  H     4    45       P1  7948  0.90
      L1  H     8    33       P1  7948  1.00

> <Gold.Chemscore.Hbond.Weighted>
-6.3930

> <Gold.Chemscore.Metal.Weighted>
-0.0000

> <Gold.Chemscore.Lipo.Weighted>
-9.7677

> <Gold.Chemscore.Internal_Hbond.Weighted>
0.0000

> <Gold.Chemscore.DEClash.Weighted>
0.1631

> <Gold.Chemscore.DEInternal.Weighted>
0.1196

> <Gold.Chemscore.Rot.Weighted>
4.7761

> <Gold.Chemscore.Internal.Correction.Weighted>
   9.000000E+99

> <Gold.Protein.RotatedTorsions>
[ 6907 6896 6895 6894 ] final -155.57 input  -60.11 | X-H torsion
[ 7974 7965 7964 7962 ] final  -15.68 input  175.53 | X-H torsion
[ 8008 7997 7996 7995 ] final  -69.04 input   59.86 | X-H torsion
[ 10167 10162 10161 10158 ] final  -13.96 input  -65.29 | X-H torsion
[ 10718 10713 10712 10709 ] final -164.79 input   66.30 | X-H torsion
[ 10763 10752 10751 10750 ] final -152.40 input  -60.55 | X-H torsion
[ 11005 11000 10999 10996 ] final   32.56 input  -57.11 | X-H torsion

> <Gold.Protein.ActiveResidues>
 VAL166  LYS551  ARG553  GLY616  TRP617  ASP618  TYR619  PRO620  LYS621  CYS622 
 ASP623  PHE694  ASN695  SER759  ASP760  ASP761  ALA762  ILE779  LEU786  VAL792 
 PHE793  MET794  SER795  GLU796  ALA797  LYS798  CYS799  TRP800  GLU811  SER814 

> <Gold.Protein.RotatedAtoms>
  151.2745  133.4239  159.2622 H   0  0  0  0  0  0  0  0  0  0  0  0  # atno 6907 bound_to 6896
  151.0416  134.9611  159.8175 H   0  0  0  0  0  0  0  0  0  0  0  0  # atno 6908 bound_to 6896
  152.5366  134.2703  159.9021 H   0  0  0  0  0  0  0  0  0  0  0  0  # atno 6909 bound_to 6896
  146.2021  140.3528  142.8419 H   0  0  0  0  0  0  0  0  0  0  0  0  # atno 7974 bound_to 7965
  154.4910  140.0861  156.7594 H   0  0  0  0  0  0  0  0  0  0  0  0  # atno 8008 bound_to 7997
  155.4231  140.3446  155.4255 H   0  0  0  0  0  0  0  0  0  0  0  0  # atno 8009 bound_to 7997
  156.1329  140.1507  156.9025 H   0  0  0  0  0  0  0  0  0  0  0  0  # atno 8010 bound_to 7997
  140.7192  143.5371  150.9452 H   0  0  0  0  0  0  0  0  0  0  0  0  # atno 10167 bound_to 10162
  156.6441  130.8981  151.3001 H   0  0  0  0  0  0  0  0  0  0  0  0  # atno 10718 bound_to 10713
  154.7997  135.3237  154.7581 H   0  0  0  0  0  0  0  0  0  0  0  0  # atno 10763 bound_to 10752
  153.8252  135.6884  153.4826 H   0  0  0  0  0  0  0  0  0  0  0  0  # atno 10764 bound_to 10752
  153.1706  135.4624  154.9840 H   0  0  0  0  0  0  0  0  0  0  0  0  # atno 10765 bound_to 10752
  140.2722  134.3069  155.7824 H   0  0  0  0  0  0  0  0  0  0  0  0  # atno 11005 bound_to 11000
  144.8707  140.7269  143.6048 LP  0  0  0  0  0  0  0  0  0  0  0  0  # atno 17320 bound_to 7965
  145.3447  139.1722  143.4466 LP  0  0  0  0  0  0  0  0  0  0  0  0  # atno 17321 bound_to 7965
  139.9093  143.6740  152.3118 LP  0  0  0  0  0  0  0  0  0  0  0  0  # atno 17342 bound_to 10162
  139.7117  144.7619  151.1101 LP  0  0  0  0  0  0  0  0  0  0  0  0  # atno 17343 bound_to 10162
  157.7162  130.9500  150.1263 LP  0  0  0  0  0  0  0  0  0  0  0  0  # atno 17370 bound_to 10713
  156.2136  130.3668  149.8641 LP  0  0  0  0  0  0  0  0  0  0  0  0  # atno 17371 bound_to 10713
  141.2176  133.7473  156.9351 LP  0  0  0  0  0  0  0  0  0  0  0  0  # atno 17394 bound_to 11000
  140.1363  134.9323  157.2405 LP  0  0  0  0  0  0  0  0  0  0  0  0  # atno 17395 bound_to 11000

$$$$
