AV-unprocessed.smi:2073|AV-procd|sdf|8450|dock4
  -GOLD-   2272011143D 1   1.00000     0.00000
 Structure written by MMmdl.
 28 28  0  0  0  0  0  0  0  0  1 V2000
  152.5663  144.6180  157.8936 C   0  0  0  0  0  0  0  0  0  0  0  0
  151.6517  143.7032  158.7252 C   0  0  0  0  0  0  0  0  0  0  0  0
  152.2888  143.3631  160.0825 C   0  0  0  0  0  0  0  0  0  0  0  0
  151.3112  142.4236  157.9489 C   0  0  0  0  0  0  0  0  0  0  0  0
  151.7370  141.3385  158.3475 O   0  0  0  0  0  0  0  0  0  0  0  0
  150.5462  142.5874  156.8528 N   0  0  0  0  0  0  0  0  0  0  0  0
  150.0887  141.5981  155.9436 C   0  0  0  0  0  0  0  0  0  0  0  0
  149.0147  141.7358  155.1585 N   0  0  0  0  0  0  0  0  0  0  0  0
  148.7830  140.6019  154.3724 C   0  0  0  0  0  0  0  0  0  0  0  0
  147.6138  140.5698  153.4316 C   0  0  0  0  0  0  0  0  0  0  0  0
  147.2181  139.1240  153.1257 C   0  0  0  0  0  0  0  0  0  0  0  0
  147.7351  138.5700  152.0253 N   0  0  0  0  0  0  0  0  0  0  0  0
  146.4581  138.5135  153.8745 O   0  0  0  0  0  0  0  0  0  0  0  0
  149.7123  139.6088  154.5685 C   0  0  0  0  0  0  0  0  0  0  0  0
  150.9072  140.0550  155.7570 S   0  0  0  0  0  0  0  0  0  0  0  0
  152.1202  144.8524  156.9261 H   0  0  0  0  0  0  0  0  0  0  0  0
  153.5377  144.1567  157.7101 H   0  0  0  0  0  0  0  0  0  0  0  0
  152.7431  145.5629  158.4081 H   0  0  0  0  0  0  0  0  0  0  0  0
  150.7248  144.2459  158.9186 H   0  0  0  0  0  0  0  0  0  0  0  0
  151.6443  142.7087  160.6710 H   0  0  0  0  0  0  0  0  0  0  0  0
  152.4589  144.2664  160.6687 H   0  0  0  0  0  0  0  0  0  0  0  0
  153.2507  142.8629  159.9617 H   0  0  0  0  0  0  0  0  0  0  0  0
  150.2660  143.5338  156.6409 H   0  0  0  0  0  0  0  0  0  0  0  0
  146.7592  141.1003  153.8543 H   0  0  0  0  0  0  0  0  0  0  0  0
  147.8584  141.0784  152.4981 H   0  0  0  0  0  0  0  0  0  0  0  0
  147.5095  137.6140  151.7897 H   0  0  0  0  0  0  0  0  0  0  0  0
  148.3578  139.1055  151.4383 H   0  0  0  0  0  0  0  0  0  0  0  0
  149.7625  138.6425  154.0890 H   0  0  0  0  0  0  0  0  0  0  0  0
  1  2  1  0  0  0  0
  1 16  1  0  0  0  0
  1 17  1  0  0  0  0
  1 18  1  0  0  0  0
  2  3  1  0  0  0  0
  2  4  1  0  0  0  0
  2 19  1  0  0  0  0
  3 20  1  0  0  0  0
  3 21  1  0  0  0  0
  3 22  1  0  0  0  0
  4  5  2  0  0  0  0
  4  6  1  0  0  0  0
  6  7  1  0  0  0  0
  6 23  1  0  0  0  0
  7 15  1  0  0  0  0
  7  8  2  0  0  0  0
  8  9  1  0  0  0  0
  9 10  1  0  0  0  0
  9 14  2  0  0  0  0
 10 11  1  0  0  0  0
 10 24  1  0  0  0  0
 10 25  1  0  0  0  0
 11 12  1  0  0  0  0
 11 13  2  0  0  0  0
 12 26  1  0  0  0  0
 12 27  1  0  0  0  0
 14 15  1  0  0  0  0
 14 28  1  0  0  0  0
M  END
> <s_m_source_file>
AV-unprocessed.smi

> <i_m_source_file_index>
2073

> <i_lp_mmshare_version>
43012

> <i_f3d_flags>
0

> <s_epik_input>
W0NIM11bQ0hdKFtDSDNdKUMoPU8pW05IXWMxbmMoW2NIXXMxKVtDSDJdQyg9TylbTkgyXQ==

> <s_epik_cmdline>
J2VwaWtfcHl0aG9uJywgJy1waCcsICc3LjAnLCAnLXRuJywgJzgnLCAnLW1hJywgJzIwMCcsICctbWV0YWxfYmluZGluZycsICctaW1hZScsICc8aW5maWxlLm1hZT4nLCAnLW9tYWUnLCAnPG91dGZpbGUubWFlPic=

> <r_lp_tautomer_probability>
1

> <r_epik_Ionization_Penalty>
0.000158353

> <r_epik_Ionization_Penalty_Charging>
0

> <r_epik_Ionization_Penalty_Neutral>
0.000158353

> <r_epik_State_Penalty>
-0

> <r_epik_Charging_Adjusted_Penalty>
0

> <i_epik_Tot_Q>
0

> <i_epik_Tot_abs_Q>
0

> <r_epik_Metal_State_Penalty>
0.0986865

> <b_epik_Metal_Only>
0

> <s_lp_Force_Field>
OPLS_2005

> <r_lp_Energy>
2.86857

> <b_lp_Chiralities_Consistent>
1

> <s_lp_Variant>
AV-unprocessed.smi:2073-1

> <Gold.Version>
5.8.1

> <Gold.Id.Protein>
6NUR|6NUR_protein|mol2

> <Gold.PLP.Fitness>
39.1141

> <Gold.PLP.PLP>
-33.7719

> <Gold.PLP.part.hbond>
-2.9757

> <Gold.PLP.part.metal>
0.0000

> <Gold.PLP.part.buried>
-3.8822

> <Gold.PLP.part.nonpolar>
-27.5464

> <Gold.PLP.part.repulsive>
0.9551

> <Gold.PLP.ligand.clash>
0.0000

> <Gold.PLP.ligand.torsion>
0.9495

> <Gold.PLP.Chemscore.Hbond>
2.4080

> <Gold.PLP.Chemscore.CHOScore>
0.0000

> <Gold.PLP.Chemscore.Metal>
0.0000

> <Gold.Chemscore.Hbonds>
donor molecule, donor type, donor heavy atom, donor atom, acceptor molecule, acceptor atom, score
      L1  H     6    23       P1  8028  0.86
      L1  H    12    26       P1  7948  0.38
      L1  H    12    27       P1  7957  1.00

> <Gold.PLP.Chemscore.Internal.Correction>
0.0171

> <Gold.Rescore>
     Score         DG    S(hbond)    S(metal)    S(lipo)     H(rot)  DE(clash)    DE(int)     intcor
     15.38     -16.44       2.50        0.00      64.55       1.93       0.11       0.96       ----

> <Gold.Chemscore.Fitness>
15.3784

> <Gold.Chemscore.DG>
-16.4410

> <Gold.Chemscore.ZeroCoef>
-5.4800

> <Gold.Chemscore.Hbond>
2.5016

> <Gold.Chemscore.Metal>
0.0000

> <Gold.Chemscore.Lipo>
64.5514

> <Gold.Chemscore.Internal_Hbond>
0.0000

> <Gold.Chemscore.DEClash>
0.1075

> <Gold.Chemscore.DEInternal>
0.9551

> <Gold.Chemscore.Rot>
1.9323

> <Gold.Chemscore.Internal.Correction>
   9.000000E+99

> <Gold.Chemscore.Hbonds>
donor molecule, donor type, donor heavy atom, donor atom, acceptor molecule, acceptor atom, score
      L1  H     6    23       P1  8028  0.79
      L1  H    12    26       P1  7948  0.37
      L1  H    12    27       P1  7957  0.65

> <Gold.Chemscore.Hbond.Weighted>
-8.3552

> <Gold.Chemscore.Metal.Weighted>
-0.0000

> <Gold.Chemscore.Lipo.Weighted>
-7.5525

> <Gold.Chemscore.Internal_Hbond.Weighted>
0.0000

> <Gold.Chemscore.DEClash.Weighted>
0.1075

> <Gold.Chemscore.DEInternal.Weighted>
0.9551

> <Gold.Chemscore.Rot.Weighted>
4.9468

> <Gold.Chemscore.Internal.Correction.Weighted>
   9.000000E+99

> <Gold.Protein.RotatedTorsions>
[ 6907 6896 6895 6894 ] final  -82.97 input  -60.11 | X-H torsion
[ 7974 7965 7964 7962 ] final  172.92 input  175.53 | X-H torsion
[ 8008 7997 7996 7995 ] final   -2.98 input   59.86 | X-H torsion
[ 10167 10162 10161 10158 ] final -165.77 input  -65.29 | X-H torsion
[ 10718 10713 10712 10709 ] final   29.00 input   66.30 | X-H torsion
[ 10763 10752 10751 10750 ] final   56.07 input  -60.55 | X-H torsion
[ 11005 11000 10999 10996 ] final   94.15 input  -57.11 | X-H torsion

> <Gold.Protein.ActiveResidues>
 VAL166  LYS551  ARG553  GLY616  TRP617  ASP618  TYR619  PRO620  LYS621  CYS622 
 ASP623  PHE694  ASN695  SER759  ASP760  ASP761  ALA762  ILE779  LEU786  VAL792 
 PHE793  MET794  SER795  GLU796  ALA797  LYS798  CYS799  TRP800  GLU811  SER814 

> <Gold.Protein.RotatedAtoms>
  150.6891  134.3583  159.4938 H   0  0  0  0  0  0  0  0  0  0  0  0  # atno 6907 bound_to 6896
  152.1415  134.9056  160.0562 H   0  0  0  0  0  0  0  0  0  0  0  0  # atno 6908 bound_to 6896
  152.0188  133.3855  159.4286 H   0  0  0  0  0  0  0  0  0  0  0  0  # atno 6909 bound_to 6896
  144.7256  139.9570  143.6433 H   0  0  0  0  0  0  0  0  0  0  0  0  # atno 7974 bound_to 7965
  154.6298  140.2520  155.7447 H   0  0  0  0  0  0  0  0  0  0  0  0  # atno 8008 bound_to 7997
  156.2473  140.2909  156.0564 H   0  0  0  0  0  0  0  0  0  0  0  0  # atno 8009 bound_to 7997
  155.1763  140.0388  157.2863 H   0  0  0  0  0  0  0  0  0  0  0  0  # atno 8010 bound_to 7997
  139.6160  144.0719  152.1888 H   0  0  0  0  0  0  0  0  0  0  0  0  # atno 10167 bound_to 10162
  157.2408  130.7068  149.6357 H   0  0  0  0  0  0  0  0  0  0  0  0  # atno 10718 bound_to 10713
  152.9826  135.5689  154.5170 H   0  0  0  0  0  0  0  0  0  0  0  0  # atno 10763 bound_to 10752
  154.4664  135.2783  155.1677 H   0  0  0  0  0  0  0  0  0  0  0  0  # atno 10764 bound_to 10752
  154.3243  135.6262  153.5575 H   0  0  0  0  0  0  0  0  0  0  0  0  # atno 10765 bound_to 10752
  139.8802  134.8829  156.3822 H   0  0  0  0  0  0  0  0  0  0  0  0  # atno 11005 bound_to 11000
  146.0667  139.3657  143.0548 LP  0  0  0  0  0  0  0  0  0  0  0  0  # atno 17320 bound_to 7965
  145.8022  140.9765  143.0993 LP  0  0  0  0  0  0  0  0  0  0  0  0  # atno 17321 bound_to 7965
  140.0350  144.6052  150.7457 LP  0  0  0  0  0  0  0  0  0  0  0  0  # atno 17342 bound_to 10162
  140.7351  143.2737  151.3809 LP  0  0  0  0  0  0  0  0  0  0  0  0  # atno 17343 bound_to 10162
  155.9670  130.4459  150.5518 LP  0  0  0  0  0  0  0  0  0  0  0  0  # atno 17370 bound_to 10713
  157.3381  131.0712  151.1809 LP  0  0  0  0  0  0  0  0  0  0  0  0  # atno 17371 bound_to 10713
  140.9391  133.7527  156.0123 LP  0  0  0  0  0  0  0  0  0  0  0  0  # atno 17394 bound_to 11000
  140.8241  134.3255  157.5372 LP  0  0  0  0  0  0  0  0  0  0  0  0  # atno 17395 bound_to 11000

$$$$
