AV-unprocessed.smi:1254|AV-procd|sdf|5272|dock8
  -GOLD-   22720 4393D 1   1.00000     0.00000
 Structure written by MMmdl.
 46 47  0  0  0  0  0  0  0  0  2 V2000
  154.0340  141.3879  160.3703 C   0  0  0  0  0  0  0  0  0  0  0  0
  153.1694  142.1111  159.3954 C   0  0  0  0  0  0  0  0  0  0  0  0
  152.3156  141.6861  158.4169 C   0  0  0  0  0  0  0  0  0  0  0  0
  151.8254  142.9016  157.8703 C   0  0  0  0  0  0  0  0  0  0  0  0
  150.8887  142.8956  156.8055 N   0  0  0  0  0  0  0  0  0  0  0  0
  150.5016  141.8445  156.0634 C   0  0  0  0  0  0  0  0  0  0  0  0
  150.8973  140.6875  156.2089 O   0  0  0  0  0  0  0  0  0  0  0  0
  149.6192  142.2082  155.1217 N   0  0  0  0  0  0  0  0  0  0  0  0
  149.0160  141.3022  154.1500 C   0  0  0  0  0  0  0  0  0  0  0  0
  147.5139  141.5804  153.9586 C   0  0  1  0  0  0  0  0  0  0  0  0
  146.6707  141.0146  155.1173 C   0  0  0  0  0  0  0  0  0  0  0  0
  145.2372  141.3476  154.9251 N   0  3  1  0  0  0  0  0  0  0  0  0
  144.3464  140.7898  155.9750 C   0  0  0  0  0  0  0  0  0  0  0  0
  142.8504  141.0790  155.7237 C   0  0  0  0  0  0  0  0  0  0  0  0
  142.4458  142.4800  156.2124 C   0  0  0  0  0  0  0  0  0  0  0  0
  141.9757  140.0068  156.3901 C   0  0  0  0  0  0  0  0  0  0  0  0
  145.0660  142.8104  154.7585 C   0  0  0  0  0  0  0  0  0  0  0  0
  145.9665  143.3331  153.6274 C   0  0  0  0  0  0  0  0  0  0  0  0
  147.3191  142.9899  153.8994 O   0  0  0  0  0  0  0  0  0  0  0  0
  152.3327  143.9722  158.4624 N   0  0  0  0  0  0  0  0  0  0  0  0
  153.1978  143.4707  159.4420 O   0  0  0  0  0  0  0  0  0  0  0  0
  153.6831  140.3665  160.5183 H   0  0  0  0  0  0  0  0  0  0  0  0
  154.0327  141.8885  161.3387 H   0  0  0  0  0  0  0  0  0  0  0  0
  155.0630  141.3437  160.0129 H   0  0  0  0  0  0  0  0  0  0  0  0
  152.0824  140.6690  158.1397 H   0  0  0  0  0  0  0  0  0  0  0  0
  150.4766  143.7888  156.5804 H   0  0  0  0  0  0  0  0  0  0  0  0
  149.3472  143.1791  155.0697 H   0  0  0  0  0  0  0  0  0  0  0  0
  149.5421  141.3901  153.1981 H   0  0  0  0  0  0  0  0  0  0  0  0
  149.1675  140.2786  154.4936 H   0  0  0  0  0  0  0  0  0  0  0  0
  147.1785  141.1286  153.0231 H   0  0  0  0  0  0  0  0  0  0  0  0
  146.8058  139.9347  155.1617 H   0  0  0  0  0  0  0  0  0  0  0  0
  147.0171  141.4197  156.0695 H   0  0  0  0  0  0  0  0  0  0  0  0
  144.5210  139.7159  156.0587 H   0  0  0  0  0  0  0  0  0  0  0  0
  144.6184  141.2174  156.9413 H   0  0  0  0  0  0  0  0  0  0  0  0
  142.6488  141.0249  154.6543 H   0  0  0  0  0  0  0  0  0  0  0  0
  142.6296  142.5962  157.2810 H   0  0  0  0  0  0  0  0  0  0  0  0
  141.3855  142.6653  156.0367 H   0  0  0  0  0  0  0  0  0  0  0  0
  143.0004  143.2611  155.6922 H   0  0  0  0  0  0  0  0  0  0  0  0
  142.1097  140.0012  157.4724 H   0  0  0  0  0  0  0  0  0  0  0  0
  142.2214  139.0113  156.0190 H   0  0  0  0  0  0  0  0  0  0  0  0
  140.9182  140.1790  156.1874 H   0  0  0  0  0  0  0  0  0  0  0  0
  144.0243  143.0393  154.5306 H   0  0  0  0  0  0  0  0  0  0  0  0
  145.3094  143.3159  155.6945 H   0  0  0  0  0  0  0  0  0  0  0  0
  145.6602  142.9248  152.6629 H   0  0  0  0  0  0  0  0  0  0  0  0
  145.8852  144.4175  153.5532 H   0  0  0  0  0  0  0  0  0  0  0  0
  144.9507  140.9283  154.0517 H   0  0  0  0  0  0  0  0  0  0  0  0
  1  2  1  0  0  0  0
  1 22  1  0  0  0  0
  1 23  1  0  0  0  0
  1 24  1  0  0  0  0
  2 21  1  0  0  0  0
  2  3  2  0  0  0  0
  3  4  1  0  0  0  0
  3 25  1  0  0  0  0
  4  5  1  0  0  0  0
  4 20  2  0  0  0  0
  5  6  1  0  0  0  0
  5 26  1  0  0  0  0
  6  7  2  0  0  0  0
  6  8  1  0  0  0  0
  8  9  1  0  0  0  0
  8 27  1  0  0  0  0
  9 10  1  0  0  0  0
  9 28  1  0  0  0  0
  9 29  1  0  0  0  0
 10 19  1  0  0  0  0
 10 11  1  0  0  0  0
 10 30  1  0  0  0  0
 11 12  1  0  0  0  0
 11 31  1  0  0  0  0
 11 32  1  0  0  0  0
 12 13  1  0  0  0  0
 12 17  1  0  0  0  0
 12 46  1  0  0  0  0
 13 14  1  0  0  0  0
 13 33  1  0  0  0  0
 13 34  1  0  0  0  0
 14 15  1  0  0  0  0
 14 16  1  0  0  0  0
 14 35  1  0  0  0  0
 15 36  1  0  0  0  0
 15 37  1  0  0  0  0
 15 38  1  0  0  0  0
 16 39  1  0  0  0  0
 16 40  1  0  0  0  0
 16 41  1  0  0  0  0
 17 18  1  0  0  0  0
 17 42  1  0  0  0  0
 17 43  1  0  0  0  0
 18 19  1  0  0  0  0
 18 44  1  0  0  0  0
 18 45  1  0  0  0  0
 20 21  1  0  0  0  0
M  CHG  1  12   1
M  END
> <s_m_source_file>
AV-unprocessed.smi

> <i_m_source_file_index>
1254

> <i_lp_mmshare_version>
43012

> <i_f3d_flags>
0

> <s_epik_input>
W0NIM11jMVtjSF1jKG5vMSlbTkhdQyg9TylbTkhdW0NIMl1bQ0BASF0yW0NIMl1OKFtDSDJdW0NIMl1PMilbQ0gyXVtDSF0oW0NIM10pW0NIM10=

> <s_epik_cmdline>
J2VwaWtfcHl0aG9uJywgJy1waCcsICc3LjAnLCAnLXRuJywgJzgnLCAnLW1hJywgJzIwMCcsICctbWV0YWxfYmluZGluZycsICctaW1hZScsICc8aW5maWxlLm1hZT4nLCAnLW9tYWUnLCAnPG91dGZpbGUubWFlPic=

> <r_epik_Ionization_Penalty>
0.0986825

> <r_epik_Ionization_Penalty_Charging>
0.0986478

> <r_epik_Ionization_Penalty_Neutral>
3.46838e-05

> <r_epik_State_Penalty>
0.0887259

> <r_epik_Charging_Adjusted_Penalty>
0.187374

> <i_epik_Tot_Q>
1

> <i_epik_Tot_abs_Q>
1

> <r_epik_Metal_State_Penalty>
0.103424

> <b_epik_Metal_Only>
0

> <s_lp_Force_Field>
OPLS_2005

> <r_lp_Energy>
13.7393

> <b_lp_Chiralities_Consistent>
1

> <s_lp_Variant>
AV-unprocessed.smi:1254-4

> <Gold.Version>
5.8.1

> <Gold.Id.Protein>
6NUR|6NUR_protein|mol2

> <Gold.PLP.Fitness>
46.2969

> <Gold.PLP.PLP>
-34.7615

> <Gold.PLP.part.hbond>
-4.0198

> <Gold.PLP.part.metal>
0.0000

> <Gold.PLP.part.buried>
-5.4219

> <Gold.PLP.part.nonpolar>
-27.0414

> <Gold.PLP.part.repulsive>
2.0856

> <Gold.PLP.ligand.clash>
0.0000

> <Gold.PLP.ligand.torsion>
0.5674

> <Gold.PLP.Chemscore.Hbond>
4.2142

> <Gold.PLP.Chemscore.CHOScore>
0.0000

> <Gold.PLP.Chemscore.Metal>
0.0000

> <Gold.Chemscore.Hbonds>
donor molecule, donor type, donor heavy atom, donor atom, acceptor molecule, acceptor atom, score
      L1  H     5    26       P1  8028  0.87
      L1  H     8    27       P1  8028  1.00
      L1  H    12    46       P1 10175  1.85
      P1  H  8022  8030       L1    19  0.35

> <Gold.PLP.Chemscore.Internal.Correction>
0.0275

> <Gold.Rescore>
     Score         DG    S(hbond)    S(metal)    S(lipo)     H(rot)  DE(clash)    DE(int)     intcor
     15.43     -18.28       2.93        0.00      63.64       1.73       0.87       1.99       ----

> <Gold.Chemscore.Fitness>
15.4276

> <Gold.Chemscore.DG>
-18.2800

> <Gold.Chemscore.ZeroCoef>
-5.4800

> <Gold.Chemscore.Hbond>
2.9283

> <Gold.Chemscore.Metal>
0.0000

> <Gold.Chemscore.Lipo>
63.6418

> <Gold.Chemscore.Internal_Hbond>
0.0000

> <Gold.Chemscore.DEClash>
0.8655

> <Gold.Chemscore.DEInternal>
1.9870

> <Gold.Chemscore.Rot>
1.7291

> <Gold.Chemscore.Internal.Correction>
   9.000000E+99

> <Gold.Chemscore.Hbonds>
donor molecule, donor type, donor heavy atom, donor atom, acceptor molecule, acceptor atom, score
      L1  H     5    26       P1  8028  0.82
      L1  H     8    27       P1  8028  0.99
      L1  H    12    46       P1 10175  0.81
      P1  H  8022  8030       L1    19  0.23

> <Gold.Chemscore.Hbond.Weighted>
-9.7804

> <Gold.Chemscore.Metal.Weighted>
-0.0000

> <Gold.Chemscore.Lipo.Weighted>
-7.4461

> <Gold.Chemscore.Internal_Hbond.Weighted>
0.0000

> <Gold.Chemscore.DEClash.Weighted>
0.8655

> <Gold.Chemscore.DEInternal.Weighted>
1.9870

> <Gold.Chemscore.Rot.Weighted>
4.4265

> <Gold.Chemscore.Internal.Correction.Weighted>
   9.000000E+99

> <Gold.Protein.RotatedTorsions>
[ 6907 6896 6895 6894 ] final   61.65 input  -60.11 | X-H torsion
[ 7974 7965 7964 7962 ] final -133.36 input  175.53 | X-H torsion
[ 8008 7997 7996 7995 ] final   98.15 input   59.86 | X-H torsion
[ 10167 10162 10161 10158 ] final  145.33 input  -65.29 | X-H torsion
[ 10718 10713 10712 10709 ] final    1.98 input   66.30 | X-H torsion
[ 10763 10752 10751 10750 ] final  100.52 input  -60.55 | X-H torsion
[ 11005 11000 10999 10996 ] final -159.21 input  -57.11 | X-H torsion

> <Gold.Protein.ActiveResidues>
 VAL166  LYS551  ARG553  GLY616  TRP617  ASP618  TYR619  PRO620  LYS621  CYS622 
 ASP623  PHE694  ASN695  SER759  ASP760  ASP761  ALA762  ILE779  LEU786  VAL792 
 PHE793  MET794  SER795  GLU796  ALA797  LYS798  CYS799  TRP800  GLU811  SER814 

> <Gold.Protein.RotatedAtoms>
  152.4107  134.6130  160.0030 H   0  0  0  0  0  0  0  0  0  0  0  0  # atno 6907 bound_to 6896
  151.6308  133.3326  159.3116 H   0  0  0  0  0  0  0  0  0  0  0  0  # atno 6908 bound_to 6896
  150.7998  134.7124  159.6656 H   0  0  0  0  0  0  0  0  0  0  0  0  # atno 6909 bound_to 6896
  144.9200  140.7002  143.4971 H   0  0  0  0  0  0  0  0  0  0  0  0  # atno 7974 bound_to 7965
  156.0975  140.3248  155.7897 H   0  0  0  0  0  0  0  0  0  0  0  0  # atno 8008 bound_to 7997
  155.4894  140.0560  157.2973 H   0  0  0  0  0  0  0  0  0  0  0  0  # atno 8009 bound_to 7997
  154.4675  140.1996  156.0095 H   0  0  0  0  0  0  0  0  0  0  0  0  # atno 8010 bound_to 7997
  139.4928  144.5909  151.6683 H   0  0  0  0  0  0  0  0  0  0  0  0  # atno 10167 bound_to 10162
  156.8563  130.5571  149.5666 H   0  0  0  0  0  0  0  0  0  0  0  0  # atno 10718 bound_to 10713
  153.3149  135.4076  155.1368 H   0  0  0  0  0  0  0  0  0  0  0  0  # atno 10763 bound_to 10752
  154.8586  135.3573  154.5673 H   0  0  0  0  0  0  0  0  0  0  0  0  # atno 10764 bound_to 10752
  153.6104  135.7068  153.5408 H   0  0  0  0  0  0  0  0  0  0  0  0  # atno 10765 bound_to 10752
  140.6451  134.4510  157.5234 H   0  0  0  0  0  0  0  0  0  0  0  0  # atno 11005 bound_to 11000
  145.3312  139.1759  143.4536 LP  0  0  0  0  0  0  0  0  0  0  0  0  # atno 17320 bound_to 7965
  146.3200  140.3341  142.8642 LP  0  0  0  0  0  0  0  0  0  0  0  0  # atno 17321 bound_to 7965
  140.5535  144.0385  150.6137 LP  0  0  0  0  0  0  0  0  0  0  0  0  # atno 17342 bound_to 10162
  140.3448  143.2998  152.0550 LP  0  0  0  0  0  0  0  0  0  0  0  0  # atno 17343 bound_to 10162
  156.0801  130.5813  150.9547 LP  0  0  0  0  0  0  0  0  0  0  0  0  # atno 17370 bound_to 10713
  157.6275  131.0924  150.8505 LP  0  0  0  0  0  0  0  0  0  0  0  0  # atno 17371 bound_to 10713
  139.9066  134.8436  156.1684 LP  0  0  0  0  0  0  0  0  0  0  0  0  # atno 17394 bound_to 11000
  141.0578  133.6856  156.1894 LP  0  0  0  0  0  0  0  0  0  0  0  0  # atno 17395 bound_to 11000

$$$$
