#       Name:                AV-unprocessed.smi:3155
#       Creating user name   scv26
#       Creation time:       Fri Mar 27 17:44:08 2020


#       File generated by GOLD software.
#

@<TRIPOS>MOLECULE
AV-unprocessed.smi:3155
    41    42     1
SMALL
NO_CHARGES


@<TRIPOS>ATOM
      1 ****        -1.6465  -1.5725   2.5998 C.3            1 S1                 0.0000
      2 ****        -1.2911  -0.7505   1.3489 C.3            1 S1                 0.0000
      3 ****        -1.9671  -1.2970   0.0688 C.3            1 S1                 0.0000
      4 ****        -3.4068  -1.4331   0.1971 N.pl3          1 S1                 0.0000
      5 ****        -4.1657  -2.5847   0.1808 C.2            1 S1                 0.0000
      6 ****        -5.4712  -2.2119   0.3263 C.2            1 S1                 0.0000
      7 ****        -5.4104  -0.7932   0.4150 C.2            1 S1                 0.0000
      8 ****        -4.1734  -0.3298   0.3333 N.2            1 S1                 0.0000
      9 ****         0.1808  -0.7050   1.2015 N.4            1 S1                 1.0000
     10 ****         0.7022   0.3279   0.2789 C.3            1 S1                 0.0000
     11 ****         2.2370   0.3831   0.2784 C.2            1 S1                 0.0000
     12 ****         2.8709  -0.2823   1.0990 O.2            1 S1                 0.0000
     13 ****         2.8473   1.1708  -0.6308 N.am           1 S1                 0.0000
     14 ****         4.2991   1.2927  -0.7507 C.3            1 S1                 0.0000
     15 ****         4.5432   2.0499  -2.0561 C.3            1 S1                 0.0000
     16 ****         3.2709   2.8613  -2.2585 C.3            1 S1                 0.0000
     17 ****         2.1741   2.0035  -1.6271 C.3            1 S1                 0.0000
     18 ****        -2.7164  -1.5487   2.8085 H              1 S1                 0.0000
     19 ****        -1.1398  -1.1812   3.4828 H              1 S1                 0.0000
     20 ****        -1.3531  -2.6163   2.4832 H              1 S1                 0.0000
     21 ****        -1.6373   0.2695   1.5228 H              1 S1                 0.0000
     22 ****        -1.7740  -0.6461  -0.7839 H              1 S1                 0.0000
     23 ****        -1.5539  -2.2741  -0.1852 H              1 S1                 0.0000
     24 ****        -3.7198  -3.5625   0.0715 H              1 S1                 0.0000
     25 ****        -6.3387  -2.8540   0.3610 H              1 S1                 0.0000
     26 ****        -6.2230  -0.0917   0.5339 H              1 S1                 0.0000
     27 ****         0.5737  -0.5116   2.1118 H              1 S1                 0.0000
     28 ****         0.3544   0.1193  -0.7324 H              1 S1                 0.0000
     29 ****         0.3132   1.3037   0.5720 H              1 S1                 0.0000
     30 ****         4.6798   1.8613   0.0991 H              1 S1                 0.0000
     31 ****         4.7956   0.3209  -0.7586 H              1 S1                 0.0000
     32 ****         5.4405   2.6686  -2.0255 H              1 S1                 0.0000
     33 ****         4.6561   1.3385  -2.8754 H              1 S1                 0.0000
     34 ****         3.3516   3.8062  -1.7194 H              1 S1                 0.0000
     35 ****         3.0777   3.0905  -3.3070 H              1 S1                 0.0000
     36 ****         1.7153   1.3609  -2.3797 H              1 S1                 0.0000
     37 ****         1.3945   2.6271  -1.1876 H              1 S1                 0.0000
     38 ****         0.5119  -1.6111   0.9018 H              1 S1                 0.0000
     39 ****        -3.8737   0.6237   0.3653 LP             1 S1                 0.0000
     40 ****         2.3859  -0.8542   1.7606 LP             1 S1                 0.0000
     41 ****         3.8703  -0.2504   1.1035 LP             1 S1                 0.0000
@<TRIPOS>BOND
    1    1    2 1     
    2    1   18 1     
    3    1   19 1     
    4    1   20 1     
    5    2    3 1     
    6    2    9 1     
    7    2   21 1     
    8    3    4 1     
    9    3   22 1     
   10    3   23 1     
   11    4    8 1     
   12    4    5 1     
   13    5    6 2     
   14    5   24 1     
   15    6    7 1     
   16    6   25 1     
   17    7    8 2     
   18    7   26 1     
   19    9   10 1     
   20    9   27 1     
   21    9   38 1     
   22   10   11 1     
   23   10   28 1     
   24   10   29 1     
   25   11   12 2     
   26   11   13 am    
   27   13   17 1     
   28   13   14 1     
   29   14   15 1     
   30   14   30 1     
   31   14   31 1     
   32   15   16 1     
   33   15   32 1     
   34   15   33 1     
   35   16   17 1     
   36   16   34 1     
   37   16   35 1     
   38   17   36 1     
   39   17   37 1     
   40    8   39 1     
   41   12   40 1     
   42   12   41 1     
@<TRIPOS>SUBSTRUCTURE
      1 S1             1
@<TRIPOS>SET
LONE_PAIRS      STATIC     ATOMS    <user>   **** ""
3 39 40 41
DONOR_HYDROGENS      STATIC     ATOMS    <user>   **** ""
2 27 38
ATOM$BLUE        STATIC     ATOMS    COLORGROUP SYSTEM
3 39 40 41
ATOM$RED        STATIC     ATOMS    COLORGROUP SYSTEM
2 27 38
