AV-unprocessed.smi:3135|AV-procd|sdf|11946|dock1
  -GOLD-   2272017333D 1   1.00000     0.00000
 Structure written by MMmdl.
 38 39  0  0  0  0  0  0  0  0  2 V2000
  151.7922  144.3904  159.8732 C   0  0  0  0  0  0  0  0  0  0  0  0
  151.6835  143.2171  158.9425 C   0  0  0  0  0  0  0  0  0  0  0  0
  150.9764  143.1430  157.7086 C   0  0  0  0  0  0  0  0  0  0  0  0
  151.0802  141.9594  157.1265 N   0  0  0  0  0  0  0  0  0  0  0  0
  151.8551  141.2376  157.9643 N   0  0  0  0  0  0  0  0  0  0  0  0
  152.1937  139.8625  157.6360 C   0  0  0  0  0  0  0  0  0  0  0  0
  151.6802  139.4511  156.2519 C   0  0  0  0  0  0  0  0  0  0  0  0
  151.7251  140.2528  155.3194 O   0  0  0  0  0  0  0  0  0  0  0  0
  151.1772  138.2118  156.1276 N   0  0  0  0  0  0  0  0  0  0  0  0
  150.6586  137.6411  154.8908 C   0  0  0  0  0  0  0  0  0  0  0  0
  150.7194  136.1023  154.9105 C   0  0  0  0  0  0  0  0  0  0  0  0
  149.4309  135.4640  154.5391 N   0  3  2  0  0  0  0  0  0  0  0  0
  148.3004  136.0715  155.2780 C   0  0  0  0  0  0  0  0  0  0  0  0
  149.4477  133.9884  154.6867 C   0  0  0  0  0  0  0  0  0  0  0  0
  149.6824  133.2378  153.3939 C   0  0  0  0  0  0  0  0  0  0  0  0
  148.2981  133.2880  153.9939 C   0  0  0  0  0  0  0  0  0  0  0  0
  152.2293  141.9714  159.0706 C   0  0  0  0  0  0  0  0  0  0  0  0
  151.8543  145.3329  159.3288 H   0  0  0  0  0  0  0  0  0  0  0  0
  152.6788  144.3265  160.5046 H   0  0  0  0  0  0  0  0  0  0  0  0
  150.9292  144.4573  160.5356 H   0  0  0  0  0  0  0  0  0  0  0  0
  150.3941  143.9112  157.2211 H   0  0  0  0  0  0  0  0  0  0  0  0
  153.2777  139.7472  157.6681 H   0  0  0  0  0  0  0  0  0  0  0  0
  151.7786  139.2046  158.4012 H   0  0  0  0  0  0  0  0  0  0  0  0
  151.1778  137.6164  156.9435 H   0  0  0  0  0  0  0  0  0  0  0  0
  149.6369  137.9846  154.7190 H   0  0  0  0  0  0  0  0  0  0  0  0
  151.2640  138.0384  154.0765 H   0  0  0  0  0  0  0  0  0  0  0  0
  151.5091  135.7452  154.2473 H   0  0  0  0  0  0  0  0  0  0  0  0
  150.9888  135.7769  155.9165 H   0  0  0  0  0  0  0  0  0  0  0  0
  148.4046  135.9075  156.3514 H   0  0  0  0  0  0  0  0  0  0  0  0
  147.3478  135.6471  154.9605 H   0  0  0  0  0  0  0  0  0  0  0  0
  148.2535  137.1463  155.0994 H   0  0  0  0  0  0  0  0  0  0  0  0
  149.8222  133.6036  155.6339 H   0  0  0  0  0  0  0  0  0  0  0  0
  149.8521  133.8119  152.4848 H   0  0  0  0  0  0  0  0  0  0  0  0
  150.2171  132.2920  153.4525 H   0  0  0  0  0  0  0  0  0  0  0  0
  147.9198  132.3741  154.4477 H   0  0  0  0  0  0  0  0  0  0  0  0
  147.5550  133.8897  153.4736 H   0  0  0  0  0  0  0  0  0  0  0  0
  152.8504  141.5517  159.8484 H   0  0  0  0  0  0  0  0  0  0  0  0
  149.2750  135.6633  153.5612 H   0  0  0  0  0  0  0  0  0  0  0  0
  1  2  1  0  0  0  0
  1 18  1  0  0  0  0
  1 19  1  0  0  0  0
  1 20  1  0  0  0  0
  2 17  2  0  0  0  0
  2  3  1  0  0  0  0
  3  4  2  0  0  0  0
  3 21  1  0  0  0  0
  4  5  1  0  0  0  0
  5  6  1  0  0  0  0
  5 17  1  0  0  0  0
  6  7  1  0  0  0  0
  6 22  1  0  0  0  0
  6 23  1  0  0  0  0
  7  8  2  0  0  0  0
  7  9  1  0  0  0  0
  9 10  1  0  0  0  0
  9 24  1  0  0  0  0
 10 11  1  0  0  0  0
 10 25  1  0  0  0  0
 10 26  1  0  0  0  0
 11 12  1  0  0  0  0
 11 27  1  0  0  0  0
 11 28  1  0  0  0  0
 12 13  1  0  0  0  0
 12 14  1  0  0  0  0
 12 38  1  0  0  0  0
 13 29  1  0  0  0  0
 13 30  1  0  0  0  0
 13 31  1  0  0  0  0
 14 16  1  0  0  0  0
 14 15  1  0  0  0  0
 14 32  1  0  0  0  0
 15 16  1  0  0  0  0
 15 33  1  0  0  0  0
 15 34  1  0  0  0  0
 16 35  1  0  0  0  0
 16 36  1  0  0  0  0
 17 37  1  0  0  0  0
M  CHG  1  12   1
M  END
> <s_m_source_file>
AV-unprocessed.smi

> <i_m_source_file_index>
3135

> <i_lp_mmshare_version>
43012

> <i_f3d_flags>
0

> <s_epik_input>
W0NIM11jMVtjSF1ubihbY0hdMSlbQ0gyXUMoPU8pW05IXVtDSDJdW0NIMl1OKFtDSDNdKVtDSF0yW0NIMl1bQ0gyXTI=

> <s_epik_cmdline>
J2VwaWtfcHl0aG9uJywgJy1waCcsICc3LjAnLCAnLXRuJywgJzgnLCAnLW1hJywgJzIwMCcsICctbWV0YWxfYmluZGluZycsICctaW1hZScsICc8aW5maWxlLm1hZT4nLCAnLW9tYWUnLCAnPG91dGZpbGUubWFlPic=

> <r_lp_tautomer_probability>
1

> <r_epik_Ionization_Penalty>
0.174318

> <r_epik_Ionization_Penalty_Charging>
0.174302

> <r_epik_Ionization_Penalty_Neutral>
1.62778e-05

> <r_epik_State_Penalty>
0.163722

> <r_epik_Charging_Adjusted_Penalty>
0.338024

> <i_epik_Tot_Q>
1

> <i_epik_Tot_abs_Q>
1

> <r_epik_Metal_State_Penalty>
0.163727

> <b_epik_Metal_Only>
0

> <s_lp_Force_Field>
OPLS_2005

> <r_lp_Energy>
17.5594

> <b_lp_Chiralities_Consistent>
1

> <s_lp_Variant>
AV-unprocessed.smi:3135-2

> <Gold.Version>
5.8.1

> <Gold.Id.Protein>
6NUR|6NUR_protein|mol2

> <Gold.PLP.Fitness>
41.1240

> <Gold.PLP.PLP>
-31.3930

> <Gold.PLP.part.hbond>
-2.0000

> <Gold.PLP.part.metal>
0.0000

> <Gold.PLP.part.buried>
-3.7271

> <Gold.PLP.part.nonpolar>
-25.6146

> <Gold.PLP.part.repulsive>
0.1490

> <Gold.PLP.ligand.clash>
0.0000

> <Gold.PLP.ligand.torsion>
1.5504

> <Gold.PLP.Chemscore.Hbond>
2.8160

> <Gold.PLP.Chemscore.CHOScore>
1.0000

> <Gold.PLP.Chemscore.Metal>
0.0000

> <Gold.Chemscore.Hbonds>
donor molecule, donor type, donor heavy atom, donor atom, acceptor molecule, acceptor atom, score
      L1  H    12    38       P1  7948  2.00
      P1  H  7989  7998       L1     8  0.86
      L1  C     3    21       P1  8028  1.00

> <Gold.PLP.Chemscore.Internal.Correction>
1.3836

> <Gold.Rescore>
     Score         DG    S(hbond)    S(metal)    S(lipo)     H(rot)  DE(clash)    DE(int)     intcor
     12.81     -15.96       1.91        0.00      77.91       1.96       0.13       3.02       ----

> <Gold.Chemscore.Fitness>
12.8120

> <Gold.Chemscore.DG>
-15.9618

> <Gold.Chemscore.ZeroCoef>
-5.4800

> <Gold.Chemscore.Hbond>
1.9078

> <Gold.Chemscore.Metal>
0.0000

> <Gold.Chemscore.Lipo>
77.9114

> <Gold.Chemscore.Internal_Hbond>
0.0000

> <Gold.Chemscore.DEClash>
0.1310

> <Gold.Chemscore.DEInternal>
3.0188

> <Gold.Chemscore.Rot>
1.9555

> <Gold.Chemscore.Internal.Correction>
   9.000000E+99

> <Gold.Chemscore.Hbonds>
donor molecule, donor type, donor heavy atom, donor atom, acceptor molecule, acceptor atom, score
      L1  H    12    38       P1  7948  0.50
      P1  H  7989  7998       L1     8  0.85

> <Gold.Chemscore.Hbond.Weighted>
-6.3722

> <Gold.Chemscore.Metal.Weighted>
-0.0000

> <Gold.Chemscore.Lipo.Weighted>
-9.1156

> <Gold.Chemscore.Internal_Hbond.Weighted>
0.0000

> <Gold.Chemscore.DEClash.Weighted>
0.1310

> <Gold.Chemscore.DEInternal.Weighted>
3.0188

> <Gold.Chemscore.Rot.Weighted>
5.0060

> <Gold.Chemscore.Internal.Correction.Weighted>
   9.000000E+99

> <Gold.Protein.RotatedTorsions>
[ 6907 6896 6895 6894 ] final  -19.62 input  -60.11 | X-H torsion
[ 7974 7965 7964 7962 ] final -167.03 input  175.53 | X-H torsion
[ 8008 7997 7996 7995 ] final  -37.69 input   59.86 | X-H torsion
[ 10167 10162 10161 10158 ] final  109.40 input  -65.29 | X-H torsion
[ 10718 10713 10712 10709 ] final -171.33 input   66.30 | X-H torsion
[ 10763 10752 10751 10750 ] final  -96.52 input  -60.55 | X-H torsion
[ 11005 11000 10999 10996 ] final   18.64 input  -57.11 | X-H torsion

> <Gold.Protein.ActiveResidues>
 VAL166  LYS551  ARG553  GLY616  TRP617  ASP618  TYR619  PRO620  LYS621  CYS622 
 ASP623  PHE694  ASN695  SER759  ASP760  ASP761  ALA762  ILE779  LEU786  VAL792 
 PHE793  MET794  SER795  GLU796  ALA797  LYS798  CYS799  TRP800  GLU811  SER814 

> <Gold.Protein.RotatedAtoms>
  151.2604  135.0652  159.9095 H   0  0  0  0  0  0  0  0  0  0  0  0  # atno 6907 bound_to 6896
  152.5367  134.0237  159.8003 H   0  0  0  0  0  0  0  0  0  0  0  0  # atno 6908 bound_to 6896
  151.0459  133.5616  159.2678 H   0  0  0  0  0  0  0  0  0  0  0  0  # atno 6909 bound_to 6896
  144.7232  140.2578  143.6269 H   0  0  0  0  0  0  0  0  0  0  0  0  # atno 7974 bound_to 7965
  154.4049  140.1597  156.2578 H   0  0  0  0  0  0  0  0  0  0  0  0  # atno 8008 bound_to 7997
  155.9063  140.3430  155.6042 H   0  0  0  0  0  0  0  0  0  0  0  0  # atno 8009 bound_to 7997
  155.7388  140.0790  157.2246 H   0  0  0  0  0  0  0  0  0  0  0  0  # atno 8010 bound_to 7997
  139.6770  144.7121  151.1584 H   0  0  0  0  0  0  0  0  0  0  0  0  # atno 10167 bound_to 10162
  156.7393  130.9336  151.3109 H   0  0  0  0  0  0  0  0  0  0  0  0  # atno 10718 bound_to 10713
  154.7247  135.5080  153.8867 H   0  0  0  0  0  0  0  0  0  0  0  0  # atno 10763 bound_to 10752
  153.0894  135.6655  153.9893 H   0  0  0  0  0  0  0  0  0  0  0  0  # atno 10764 bound_to 10752
  153.9708  135.3038  155.3407 H   0  0  0  0  0  0  0  0  0  0  0  0  # atno 10765 bound_to 10752
  140.4226  134.1503  155.7674 H   0  0  0  0  0  0  0  0  0  0  0  0  # atno 11005 bound_to 11000
  145.8165  139.2025  143.1963 LP  0  0  0  0  0  0  0  0  0  0  0  0  # atno 17320 bound_to 7965
  146.0551  140.8029  142.9762 LP  0  0  0  0  0  0  0  0  0  0  0  0  # atno 17321 bound_to 7965
  140.7639  143.5757  150.8948 LP  0  0  0  0  0  0  0  0  0  0  0  0  # atno 17342 bound_to 10162
  139.9426  143.6364  152.3050 LP  0  0  0  0  0  0  0  0  0  0  0  0  # atno 17343 bound_to 10162
  157.6825  130.9154  150.0303 LP  0  0  0  0  0  0  0  0  0  0  0  0  # atno 17370 bound_to 10713
  156.1475  130.3642  149.9488 LP  0  0  0  0  0  0  0  0  0  0  0  0  # atno 17371 bound_to 10713
  141.1778  133.8478  157.1362 LP  0  0  0  0  0  0  0  0  0  0  0  0  # atno 17394 bound_to 11000
  140.0190  134.9954  157.0552 LP  0  0  0  0  0  0  0  0  0  0  0  0  # atno 17395 bound_to 11000

$$$$
