AV-unprocessed.smi:1174|AV-procd|sdf|4946|dock3
  -GOLD-   22720 3533D 1   1.00000     0.00000
 Structure written by MMmdl.
 41 42  0  0  0  0  0  0  0  0  1 V2000
  146.8520  139.3617  151.8119 C   0  0  0  0  0  0  0  0  0  0  0  0
  146.4746  138.4193  152.9638 C   0  0  2  0  0  0  0  0  0  0  0  0
  147.5951  138.3203  154.0176 C   0  0  0  0  0  0  0  0  0  0  0  0
  148.1458  139.6224  154.3560 N   0  0  0  0  0  0  0  0  0  0  0  0
  149.4701  139.9968  154.4429 C   0  0  0  0  0  0  0  0  0  0  0  0
  149.4972  141.3240  154.7638 C   0  0  0  0  0  0  0  0  0  0  0  0
  148.1219  141.6789  154.8516 C   0  0  0  0  0  0  0  0  0  0  0  0
  147.3156  140.6578  154.6113 N   0  0  0  0  0  0  0  0  0  0  0  0
  146.1712  137.0894  152.4424 N   0  0  0  0  0  0  0  0  0  0  0  0
  144.9754  136.4849  152.4889 C   0  0  0  0  0  0  0  0  0  0  0  0
  143.9469  137.0428  152.8725 O   0  0  0  0  0  0  0  0  0  0  0  0
  144.9503  135.0112  152.0678 C   0  0  2  0  0  0  0  0  0  0  0  0
  145.8660  134.1407  152.9583 C   0  0  0  0  0  0  0  0  0  0  0  0
  145.9370  132.6893  152.4454 C   0  0  0  0  0  0  0  0  0  0  0  0
  146.2789  132.6482  150.9442 C   0  0  0  0  0  0  0  0  0  0  0  0
  145.2875  133.4510  150.2071 N   0  0  0  0  0  0  0  0  0  0  0  0
  144.2814  132.9726  149.4326 C   0  0  0  0  0  0  0  0  0  0  0  0
  143.7725  133.8445  148.5566 N   0  0  0  0  0  0  0  0  0  0  0  0
  143.8231  131.8352  149.5313 O   0  0  0  0  0  0  0  0  0  0  0  0
  145.3627  134.8668  150.5864 C   0  0  0  0  0  0  0  0  0  0  0  0
  147.0681  140.3642  152.1822 H   0  0  0  0  0  0  0  0  0  0  0  0
  146.0385  139.4475  151.0906 H   0  0  0  0  0  0  0  0  0  0  0  0
  147.7343  139.0052  151.2791 H   0  0  0  0  0  0  0  0  0  0  0  0
  145.5897  138.8260  153.4573 H   0  0  0  0  0  0  0  0  0  0  0  0
  147.2281  137.8402  154.9266 H   0  0  0  0  0  0  0  0  0  0  0  0
  148.4084  137.6975  153.6431 H   0  0  0  0  0  0  0  0  0  0  0  0
  150.2730  139.2966  154.2657 H   0  0  0  0  0  0  0  0  0  0  0  0
  150.3666  141.9476  154.9098 H   0  0  0  0  0  0  0  0  0  0  0  0
  147.6886  142.6412  155.0816 H   0  0  0  0  0  0  0  0  0  0  0  0
  146.9557  136.5475  152.1096 H   0  0  0  0  0  0  0  0  0  0  0  0
  143.9276  134.6427  152.1726 H   0  0  0  0  0  0  0  0  0  0  0  0
  146.8748  134.5557  152.9733 H   0  0  0  0  0  0  0  0  0  0  0  0
  145.5125  134.1514  153.9902 H   0  0  0  0  0  0  0  0  0  0  0  0
  146.6783  132.1285  153.0154 H   0  0  0  0  0  0  0  0  0  0  0  0
  144.9789  132.1956  152.6132 H   0  0  0  0  0  0  0  0  0  0  0  0
  147.2719  133.0683  150.7788 H   0  0  0  0  0  0  0  0  0  0  0  0
  146.3448  131.6129  150.6107 H   0  0  0  0  0  0  0  0  0  0  0  0
  143.0222  133.5623  147.9432 H   0  0  0  0  0  0  0  0  0  0  0  0
  144.1443  134.7820  148.5121 H   0  0  0  0  0  0  0  0  0  0  0  0
  144.7370  135.4993  149.9536 H   0  0  0  0  0  0  0  0  0  0  0  0
  146.3834  135.2223  150.4355 H   0  0  0  0  0  0  0  0  0  0  0  0
  1  2  1  0  0  0  0
  1 21  1  0  0  0  0
  1 22  1  0  0  0  0
  1 23  1  0  0  0  0
  2  3  1  0  0  0  0
  2  9  1  0  0  0  0
  2 24  1  0  0  0  0
  3  4  1  0  0  0  0
  3 25  1  0  0  0  0
  3 26  1  0  0  0  0
  4  8  1  0  0  0  0
  4  5  1  0  0  0  0
  5  6  2  0  0  0  0
  5 27  1  0  0  0  0
  6  7  1  0  0  0  0
  6 28  1  0  0  0  0
  7  8  2  0  0  0  0
  7 29  1  0  0  0  0
  9 10  1  0  0  0  0
  9 30  1  0  0  0  0
 10 11  2  0  0  0  0
 10 12  1  0  0  0  0
 12 20  1  0  0  0  0
 12 13  1  0  0  0  0
 12 31  1  0  0  0  0
 13 14  1  0  0  0  0
 13 32  1  0  0  0  0
 13 33  1  0  0  0  0
 14 15  1  0  0  0  0
 14 34  1  0  0  0  0
 14 35  1  0  0  0  0
 15 16  1  0  0  0  0
 15 36  1  0  0  0  0
 15 37  1  0  0  0  0
 16 17  1  0  0  0  0
 16 20  1  0  0  0  0
 17 18  1  0  0  0  0
 17 19  2  0  0  0  0
 18 38  1  0  0  0  0
 18 39  1  0  0  0  0
 20 40  1  0  0  0  0
 20 41  1  0  0  0  0
M  END
> <s_m_source_file>
AV-unprocessed.smi

> <i_m_source_file_index>
1174

> <i_lp_mmshare_version>
43012

> <i_f3d_flags>
0

> <s_epik_input>
bjFbY0hdW2NIXVtjSF1uMVtDSDJdW0NAQEhdKFtDSDNdKVtOSF1DKD1PKVtDQEBIXTJbQ0gyXVtDSDJdW0NIMl1OKFtDSDJdMilDKD1PKVtOSDJd

> <s_epik_cmdline>
J2VwaWtfcHl0aG9uJywgJy1waCcsICc3LjAnLCAnLXRuJywgJzgnLCAnLW1hJywgJzIwMCcsICctbWV0YWxfYmluZGluZycsICctaW1hZScsICc8aW5maWxlLm1hZT4nLCAnLW9tYWUnLCAnPG91dGZpbGUubWFlPic=

> <r_lp_tautomer_probability>
1

> <r_epik_Ionization_Penalty>
0.000372452

> <r_epik_Ionization_Penalty_Charging>
0

> <r_epik_Ionization_Penalty_Neutral>
0.000372452

> <r_epik_State_Penalty>
-0

> <r_epik_Charging_Adjusted_Penalty>
0

> <i_epik_Tot_Q>
0

> <i_epik_Tot_abs_Q>
0

> <r_epik_Metal_State_Penalty>
-0

> <b_epik_Metal_Only>
0

> <s_lp_Force_Field>
OPLS_2005

> <r_lp_Energy>
26.8287

> <b_lp_Chiralities_Consistent>
1

> <s_lp_Variant>
AV-unprocessed.smi:1174-1

> <Gold.Version>
5.8.1

> <Gold.Id.Protein>
6NUR|6NUR_protein|mol2

> <Gold.PLP.Fitness>
43.3260

> <Gold.PLP.PLP>
-35.4536

> <Gold.PLP.part.hbond>
-4.0000

> <Gold.PLP.part.metal>
0.0000

> <Gold.PLP.part.buried>
-0.4232

> <Gold.PLP.part.nonpolar>
-30.3664

> <Gold.PLP.part.repulsive>
0.6794

> <Gold.PLP.ligand.clash>
0.0000

> <Gold.PLP.ligand.torsion>
0.5610

> <Gold.PLP.Chemscore.Hbond>
1.9939

> <Gold.PLP.Chemscore.CHOScore>
0.9661

> <Gold.PLP.Chemscore.Metal>
0.0000

> <Gold.Chemscore.Hbonds>
donor molecule, donor type, donor heavy atom, donor atom, acceptor molecule, acceptor atom, score
      L1  H     9    30       P1  7948  1.00
      L1  H    18    39       P1  7921  0.16
      P1  H 10785 10796       L1    19  0.83
      L1  C     7    29       P1  8028  0.97

> <Gold.PLP.Chemscore.Internal.Correction>
0.1146

> <Gold.Rescore>
     Score         DG    S(hbond)    S(metal)    S(lipo)     H(rot)  DE(clash)    DE(int)     intcor
     13.95     -14.57       1.82        0.00      65.48       1.82       0.12       0.50       ----

> <Gold.Chemscore.Fitness>
13.9482

> <Gold.Chemscore.DG>
-14.5655

> <Gold.Chemscore.ZeroCoef>
-5.4800

> <Gold.Chemscore.Hbond>
1.8220

> <Gold.Chemscore.Metal>
0.0000

> <Gold.Chemscore.Lipo>
65.4751

> <Gold.Chemscore.Internal_Hbond>
0.0000

> <Gold.Chemscore.DEClash>
0.1219

> <Gold.Chemscore.DEInternal>
0.4954

> <Gold.Chemscore.Rot>
1.8206

> <Gold.Chemscore.Internal.Correction>
   9.000000E+99

> <Gold.Chemscore.Hbonds>
donor molecule, donor type, donor heavy atom, donor atom, acceptor molecule, acceptor atom, score
      L1  H     9    30       P1  7948  0.92
      L1  H    18    39       P1  7921  0.16
      P1  H 10785 10796       L1    19  0.80

> <Gold.Chemscore.Hbond.Weighted>
-6.0856

> <Gold.Chemscore.Metal.Weighted>
-0.0000

> <Gold.Chemscore.Lipo.Weighted>
-7.6606

> <Gold.Chemscore.Internal_Hbond.Weighted>
0.0000

> <Gold.Chemscore.DEClash.Weighted>
0.1219

> <Gold.Chemscore.DEInternal.Weighted>
0.4954

> <Gold.Chemscore.Rot.Weighted>
4.6607

> <Gold.Chemscore.Internal.Correction.Weighted>
   9.000000E+99

> <Gold.Protein.RotatedTorsions>
[ 6907 6896 6895 6894 ] final -179.68 input  -60.11 | X-H torsion
[ 7974 7965 7964 7962 ] final -134.28 input  175.53 | X-H torsion
[ 8008 7997 7996 7995 ] final -102.00 input   59.86 | X-H torsion
[ 10167 10162 10161 10158 ] final -150.65 input  -65.29 | X-H torsion
[ 10718 10713 10712 10709 ] final  -94.90 input   66.30 | X-H torsion
[ 10763 10752 10751 10750 ] final  179.86 input  -60.55 | X-H torsion
[ 11005 11000 10999 10996 ] final  -15.14 input  -57.11 | X-H torsion

> <Gold.Protein.ActiveResidues>
 VAL166  LYS551  ARG553  GLY616  TRP617  ASP618  TYR619  PRO620  LYS621  CYS622 
 ASP623  PHE694  ASN695  SER759  ASP760  ASP761  ALA762  ILE779  LEU786  VAL792 
 PHE793  MET794  SER795  GLU796  ALA797  LYS798  CYS799  TRP800  GLU811  SER814 

> <Gold.Protein.RotatedAtoms>
  151.6574  133.3318  159.3165 H   0  0  0  0  0  0  0  0  0  0  0  0  # atno 6907 bound_to 6896
  150.7930  134.6972  159.6539 H   0  0  0  0  0  0  0  0  0  0  0  0  # atno 6908 bound_to 6896
  152.4013  134.6285  160.0121 H   0  0  0  0  0  0  0  0  0  0  0  0  # atno 6909 bound_to 6896
  144.9117  140.6903  143.5021 H   0  0  0  0  0  0  0  0  0  0  0  0  # atno 7974 bound_to 7965
  154.8505  140.0431  157.1601 H   0  0  0  0  0  0  0  0  0  0  0  0  # atno 8008 bound_to 7997
  154.8947  140.2991  155.5330 H   0  0  0  0  0  0  0  0  0  0  0  0  # atno 8009 bound_to 7997
  156.2996  140.2387  156.3968 H   0  0  0  0  0  0  0  0  0  0  0  0  # atno 8010 bound_to 7997
  139.7336  143.8771  152.2542 H   0  0  0  0  0  0  0  0  0  0  0  0  # atno 10167 bound_to 10162
  156.0034  130.5087  150.5996 H   0  0  0  0  0  0  0  0  0  0  0  0  # atno 10718 bound_to 10713
  154.5261  135.2797  155.1221 H   0  0  0  0  0  0  0  0  0  0  0  0  # atno 10763 bound_to 10752
  154.2759  135.6294  153.5332 H   0  0  0  0  0  0  0  0  0  0  0  0  # atno 10764 bound_to 10752
  152.9947  135.5639  154.5762 H   0  0  0  0  0  0  0  0  0  0  0  0  # atno 10765 bound_to 10752
  140.7936  133.8269  155.9402 H   0  0  0  0  0  0  0  0  0  0  0  0  # atno 11005 bound_to 11000
  145.3444  139.1723  143.4468 LP  0  0  0  0  0  0  0  0  0  0  0  0  # atno 17320 bound_to 7965
  146.3161  140.3489  142.8654 LP  0  0  0  0  0  0  0  0  0  0  0  0  # atno 17321 bound_to 7965
  139.8701  144.7073  150.8998 LP  0  0  0  0  0  0  0  0  0  0  0  0  # atno 17342 bound_to 10162
  140.7775  143.3745  151.1588 LP  0  0  0  0  0  0  0  0  0  0  0  0  # atno 17343 bound_to 10162
  157.3847  131.0786  151.1446 LP  0  0  0  0  0  0  0  0  0  0  0  0  # atno 17370 bound_to 10713
  157.2158  130.6458  149.5791 LP  0  0  0  0  0  0  0  0  0  0  0  0  # atno 17371 bound_to 10713
  140.9365  134.1955  157.4827 LP  0  0  0  0  0  0  0  0  0  0  0  0  # atno 17394 bound_to 11000
  139.8728  134.9854  156.5282 LP  0  0  0  0  0  0  0  0  0  0  0  0  # atno 17395 bound_to 11000

$$$$
