AV-unprocessed.smi:89|AV-procd|sdf|827|dock5
  -GOLD-   2262017243D 1   1.00000     0.00000
 Structure written by MMmdl.
 54 56  0  0  0  0  0  0  0  0  1 V2000
  150.8777  136.8018  154.7555 C   0  0  0  0  0  0  0  0  0  0  0  0
  151.0004  135.9128  156.0040 C   0  0  0  0  0  0  0  0  0  0  0  0
  149.7119  135.5862  156.6183 N   0  0  0  0  0  0  0  0  0  0  0  0
  148.6933  135.3651  155.7509 C   0  0  0  0  0  0  0  0  0  0  0  0
  147.5693  136.1070  155.9134 N   0  0  0  0  0  0  0  0  0  0  0  0
  146.5248  135.9314  155.0999 C   0  0  0  0  0  0  0  0  0  0  0  0
  146.3935  135.0765  154.0839 N   0  0  0  0  0  0  0  0  0  0  0  0
  147.5151  134.3167  153.9265 C   0  0  0  0  0  0  0  0  0  0  0  0
  148.7030  134.3956  154.7073 C   0  0  0  0  0  0  0  0  0  0  0  0
  149.6325  133.4714  154.2457 N   0  0  0  0  0  0  0  0  0  0  0  0
  149.0297  132.8811  153.2508 C   0  0  0  0  0  0  0  0  0  0  0  0
  147.7471  133.3144  153.0004 N   0  0  0  0  0  0  0  0  0  0  0  0
  146.8477  132.8215  151.9681 C   0  0  0  0  0  0  0  0  0  0  0  0
  145.3745  132.6423  152.4231 C   0  0  1  0  0  0  0  0  0  0  0  0
  145.3968  132.1741  153.7575 O   0  0  0  0  0  0  0  0  0  0  0  0
  144.5286  133.9114  152.3416 C   0  0  0  0  0  0  0  0  0  0  0  0
  143.7830  133.7981  151.0065 C   0  0  0  0  0  0  0  0  0  0  0  0
  144.0658  132.5001  150.4965 O   0  0  0  0  0  0  0  0  0  0  0  0
  144.5562  131.6861  151.5507 C   0  0  0  0  0  0  0  0  0  0  0  0
  149.3773  136.2779  157.8740 C   0  0  1  0  0  0  0  0  0  0  0  0
  149.0267  137.7625  157.6588 C   0  0  0  0  0  0  0  0  0  0  0  0
  148.2811  135.5767  158.7121 C   0  0  0  0  0  0  0  0  0  0  0  0
  147.6522  136.6102  160.1174 S   0  0  0  0  0  0  0  0  0  0  0  0
  148.8049  137.0142  160.9365 O   0  0  0  0  0  0  0  0  0  0  0  0
  146.7260  137.6293  159.5998 O   0  0  0  0  0  0  0  0  0  0  0  0
  146.6728  135.3892  161.0985 C   0  0  0  0  0  0  0  0  0  0  0  0
  147.1906  135.2454  162.5341 C   0  0  0  0  0  0  0  0  0  0  0  0
  151.8526  136.9448  154.2898 H   0  0  0  0  0  0  0  0  0  0  0  0
  150.4842  137.7900  154.9952 H   0  0  0  0  0  0  0  0  0  0  0  0
  150.2198  136.3470  154.0142 H   0  0  0  0  0  0  0  0  0  0  0  0
  151.4903  134.9813  155.7191 H   0  0  0  0  0  0  0  0  0  0  0  0
  151.6559  136.3882  156.7330 H   0  0  0  0  0  0  0  0  0  0  0  0
  145.6719  136.5655  155.2927 H   0  0  0  0  0  0  0  0  0  0  0  0
  149.5042  132.0999  152.6750 H   0  0  0  0  0  0  0  0  0  0  0  0
  146.8975  133.5059  151.1200 H   0  0  0  0  0  0  0  0  0  0  0  0
  147.2423  131.8693  151.6102 H   0  0  0  0  0  0  0  0  0  0  0  0
  144.5085  132.1409  154.0781 H   0  0  0  0  0  0  0  0  0  0  0  0
  143.7930  133.9349  153.1475 H   0  0  0  0  0  0  0  0  0  0  0  0
  145.1179  134.8248  152.4229 H   0  0  0  0  0  0  0  0  0  0  0  0
  142.7084  133.9179  151.1481 H   0  0  0  0  0  0  0  0  0  0  0  0
  144.1148  134.5508  150.2910 H   0  0  0  0  0  0  0  0  0  0  0  0
  145.1300  130.8356  151.1832 H   0  0  0  0  0  0  0  0  0  0  0  0
  143.6984  131.2948  152.1010 H   0  0  0  0  0  0  0  0  0  0  0  0
  150.2886  136.2632  158.4714 H   0  0  0  0  0  0  0  0  0  0  0  0
  148.9046  138.2741  158.6137 H   0  0  0  0  0  0  0  0  0  0  0  0
  148.0937  137.8787  157.1073 H   0  0  0  0  0  0  0  0  0  0  0  0
  149.8094  138.2877  157.1116 H   0  0  0  0  0  0  0  0  0  0  0  0
  147.4228  135.3322  158.0872 H   0  0  0  0  0  0  0  0  0  0  0  0
  148.6311  134.6264  159.1142 H   0  0  0  0  0  0  0  0  0  0  0  0
  145.6277  135.6982  161.0903 H   0  0  0  0  0  0  0  0  0  0  0  0
  146.7320  134.4309  160.5824 H   0  0  0  0  0  0  0  0  0  0  0  0
  146.6396  134.4691  163.0650 H   0  0  0  0  0  0  0  0  0  0  0  0
  147.0712  136.1711  163.0959 H   0  0  0  0  0  0  0  0  0  0  0  0
  148.2459  134.9720  162.5490 H   0  0  0  0  0  0  0  0  0  0  0  0
  1  2  1  0  0  0  0
  1 28  1  0  0  0  0
  1 29  1  0  0  0  0
  1 30  1  0  0  0  0
  2  3  1  0  0  0  0
  2 31  1  0  0  0  0
  2 32  1  0  0  0  0
  3  4  1  0  0  0  0
  3 20  1  0  0  0  0
  4  9  1  0  0  0  0
  4  5  2  0  0  0  0
  5  6  1  0  0  0  0
  6  7  2  0  0  0  0
  6 33  1  0  0  0  0
  7  8  1  0  0  0  0
  8 12  1  0  0  0  0
  8  9  2  0  0  0  0
  9 10  1  0  0  0  0
 10 11  2  0  0  0  0
 11 12  1  0  0  0  0
 11 34  1  0  0  0  0
 12 13  1  0  0  0  0
 13 14  1  0  0  0  0
 13 35  1  0  0  0  0
 13 36  1  0  0  0  0
 14 19  1  0  0  0  0
 14 15  1  0  0  0  0
 14 16  1  0  0  0  0
 15 37  1  0  0  0  0
 16 17  1  0  0  0  0
 16 38  1  0  0  0  0
 16 39  1  0  0  0  0
 17 18  1  0  0  0  0
 17 40  1  0  0  0  0
 17 41  1  0  0  0  0
 18 19  1  0  0  0  0
 19 42  1  0  0  0  0
 19 43  1  0  0  0  0
 20 21  1  0  0  0  0
 20 22  1  0  0  0  0
 20 44  1  0  0  0  0
 21 45  1  0  0  0  0
 21 46  1  0  0  0  0
 21 47  1  0  0  0  0
 22 23  1  0  0  0  0
 22 48  1  0  0  0  0
 22 49  1  0  0  0  0
 23 24  2  0  0  0  0
 23 25  2  0  0  0  0
 23 26  1  0  0  0  0
 26 27  1  0  0  0  0
 26 50  1  0  0  0  0
 26 51  1  0  0  0  0
 27 52  1  0  0  0  0
 27 53  1  0  0  0  0
 27 54  1  0  0  0  0
M  END
> <s_m_source_file>
AV-unprocessed.smi

> <i_m_source_file_index>
89

> <i_lp_mmshare_version>
43012

> <i_f3d_flags>
0

> <s_epik_input>
W0NIM11bQ0gyXVMoPU8pKD1PKVtDSDJdW0NAQEhdKFtDSDNdKU4oW0NIMl1bQ0gzXSljKG5bY0hdbjEpYyhjMTIpbltjSF1uMltDSDJdW0NAQF0zKFtPSF0pW0NIMl1bQ0gyXU9bQ0gyXTM=

> <s_epik_cmdline>
J2VwaWtfcHl0aG9uJywgJy1waCcsICc3LjAnLCAnLXRuJywgJzgnLCAnLW1hJywgJzIwMCcsICctbWV0YWxfYmluZGluZycsICctaW1hZScsICc8aW5maWxlLm1hZT4nLCAnLW9tYWUnLCAnPG91dGZpbGUubWFlPic=

> <r_lp_tautomer_probability>
1

> <r_epik_Ionization_Penalty>
0.00103773

> <r_epik_Ionization_Penalty_Charging>
0

> <r_epik_Ionization_Penalty_Neutral>
0.00103773

> <r_epik_State_Penalty>
0.000558914

> <r_epik_Charging_Adjusted_Penalty>
0.000558914

> <i_epik_Tot_Q>
0

> <i_epik_Tot_abs_Q>
0

> <r_epik_Metal_State_Penalty>
-0

> <b_epik_Metal_Only>
0

> <s_lp_Force_Field>
OPLS_2005

> <r_lp_Energy>
30.4714

> <b_lp_Chiralities_Consistent>
1

> <s_lp_Variant>
AV-unprocessed.smi:89-3

> <Gold.Version>
5.8.1

> <Gold.Id.Protein>
6NUR|6NUR_protein|mol2

> <Gold.PLP.Fitness>
41.6220

> <Gold.PLP.PLP>
-33.4603

> <Gold.PLP.part.hbond>
-3.0000

> <Gold.PLP.part.metal>
0.0000

> <Gold.PLP.part.buried>
-4.0565

> <Gold.PLP.part.nonpolar>
-27.7886

> <Gold.PLP.part.repulsive>
0.4337

> <Gold.PLP.ligand.clash>
0.0000

> <Gold.PLP.ligand.torsion>
1.8210

> <Gold.PLP.Chemscore.Hbond>
2.8760

> <Gold.PLP.Chemscore.CHOScore>
0.5793

> <Gold.PLP.Chemscore.Metal>
0.0000

> <Gold.Chemscore.Hbonds>
donor molecule, donor type, donor heavy atom, donor atom, acceptor molecule, acceptor atom, score
      L1  H    15    37       P1 10957  0.90
      P1  H  6931  6943       L1    24  0.94
      P1  H  6934  6947       L1    25  0.79
      L1  C    11    34       P1 10747  0.53

> <Gold.PLP.Chemscore.Internal.Correction>
1.4379

> <Gold.Rescore>
     Score         DG    S(hbond)    S(metal)    S(lipo)     H(rot)  DE(clash)    DE(int)     intcor
      4.54     -12.65       2.58        0.00      63.06       3.45       0.10       8.01       ----

> <Gold.Chemscore.Fitness>
4.5364

> <Gold.Chemscore.DG>
-12.6470

> <Gold.Chemscore.ZeroCoef>
-5.4800

> <Gold.Chemscore.Hbond>
2.5830

> <Gold.Chemscore.Metal>
0.0000

> <Gold.Chemscore.Lipo>
63.0591

> <Gold.Chemscore.Internal_Hbond>
0.0000

> <Gold.Chemscore.DEClash>
0.0976

> <Gold.Chemscore.DEInternal>
8.0131

> <Gold.Chemscore.Rot>
3.4524

> <Gold.Chemscore.Internal.Correction>
   9.000000E+99

> <Gold.Chemscore.Hbonds>
donor molecule, donor type, donor heavy atom, donor atom, acceptor molecule, acceptor atom, score
      L1  H    15    37       P1 10957  0.17
      P1  H  6931  6943       L1    24  0.89
      P1  H  6934  6947       L1    25  0.13

> <Gold.Chemscore.Hbond.Weighted>
-8.6273

> <Gold.Chemscore.Metal.Weighted>
-0.0000

> <Gold.Chemscore.Lipo.Weighted>
-7.3779

> <Gold.Chemscore.Internal_Hbond.Weighted>
0.0000

> <Gold.Chemscore.DEClash.Weighted>
0.0976

> <Gold.Chemscore.DEInternal.Weighted>
8.0131

> <Gold.Chemscore.Rot.Weighted>
8.8382

> <Gold.Chemscore.Internal.Correction.Weighted>
   9.000000E+99

> <Gold.Protein.RotatedTorsions>
[ 6907 6896 6895 6894 ] final  -84.43 input  -60.11 | X-H torsion
[ 7974 7965 7964 7962 ] final -120.52 input  175.53 | X-H torsion
[ 8008 7997 7996 7995 ] final -165.16 input   59.86 | X-H torsion
[ 10167 10162 10161 10158 ] final   71.49 input  -65.29 | X-H torsion
[ 10718 10713 10712 10709 ] final   62.21 input   66.30 | X-H torsion
[ 10763 10752 10751 10750 ] final  -45.48 input  -60.55 | X-H torsion
[ 11005 11000 10999 10996 ] final    5.54 input  -57.11 | X-H torsion

> <Gold.Protein.ActiveResidues>
 VAL166  LYS551  ARG553  GLY616  TRP617  ASP618  TYR619  PRO620  LYS621  CYS622 
 ASP623  PHE694  ASN695  SER759  ASP760  ASP761  ALA762  ILE779  LEU786  VAL792 
 PHE793  MET794  SER795  GLU796  ALA797  LYS798  CYS799  TRP800  GLU811  SER814 

> <Gold.Protein.RotatedAtoms>
  150.6876  134.3360  159.4847 H   0  0  0  0  0  0  0  0  0  0  0  0  # atno 6907 bound_to 6896
  152.1219  134.9196  160.0572 H   0  0  0  0  0  0  0  0  0  0  0  0  # atno 6908 bound_to 6896
  152.0399  133.3938  159.4369 H   0  0  0  0  0  0  0  0  0  0  0  0  # atno 6909 bound_to 6896
  145.0504  140.8214  143.4212 H   0  0  0  0  0  0  0  0  0  0  0  0  # atno 7974 bound_to 7965
  155.8459  140.0955  157.1705 H   0  0  0  0  0  0  0  0  0  0  0  0  # atno 8008 bound_to 7997
  154.3983  140.1392  156.3847 H   0  0  0  0  0  0  0  0  0  0  0  0  # atno 8009 bound_to 7997
  155.8014  140.3452  155.5407 H   0  0  0  0  0  0  0  0  0  0  0  0  # atno 8010 bound_to 7997
  140.0455  144.5354  150.7402 H   0  0  0  0  0  0  0  0  0  0  0  0  # atno 10167 bound_to 10162
  157.5884  130.9037  149.9559 H   0  0  0  0  0  0  0  0  0  0  0  0  # atno 10718 bound_to 10713
  154.0293  135.6659  153.4779 H   0  0  0  0  0  0  0  0  0  0  0  0  # atno 10763 bound_to 10752
  153.0547  135.5063  154.7948 H   0  0  0  0  0  0  0  0  0  0  0  0  # atno 10764 bound_to 10752
  154.6888  135.3058  154.9474 H   0  0  0  0  0  0  0  0  0  0  0  0  # atno 10765 bound_to 10752
  140.5696  134.0115  155.8003 H   0  0  0  0  0  0  0  0  0  0  0  0  # atno 11005 bound_to 11000
  145.1534  139.2501  143.5429 LP  0  0  0  0  0  0  0  0  0  0  0  0  # atno 17320 bound_to 7965
  146.3517  140.1243  142.8599 LP  0  0  0  0  0  0  0  0  0  0  0  0  # atno 17321 bound_to 7965
  140.7240  143.2617  151.4182 LP  0  0  0  0  0  0  0  0  0  0  0  0  # atno 17342 bound_to 10162
  139.5986  144.1344  152.2172 LP  0  0  0  0  0  0  0  0  0  0  0  0  # atno 17343 bound_to 10162
  156.0936  130.3661  150.0349 LP  0  0  0  0  0  0  0  0  0  0  0  0  # atno 17370 bound_to 10713
  156.8476  130.9447  151.3628 LP  0  0  0  0  0  0  0  0  0  0  0  0  # atno 17371 bound_to 10713
  141.1064  133.9686  157.2989 LP  0  0  0  0  0  0  0  0  0  0  0  0  # atno 17394 bound_to 11000
  139.9368  135.0195  156.8582 LP  0  0  0  0  0  0  0  0  0  0  0  0  # atno 17395 bound_to 11000

$$$$
