AV-unprocessed.smi:676|AV-procd|sdf|3308|dock8
  -GOLD-   22720 0273D 1   1.00000     0.00000
 Structure written by MMmdl.
 42 43  0  0  0  0  0  0  0  0  1 V2000
  152.7978  140.9922  158.7287 C   0  0  0  0  0  0  0  0  0  0  0  0
  152.5165  140.3828  157.4747 O   0  0  0  0  0  0  0  0  0  0  0  0
  151.1504  140.3758  157.0377 C   0  0  2  0  0  0  0  0  0  0  0  0
  150.8311  141.6516  156.2483 C   0  0  0  0  0  0  0  0  0  0  0  0
  150.2244  139.9514  158.1935 C   0  0  0  0  0  0  0  0  0  0  0  0
  150.5556  138.5052  157.8312 C   0  0  1  0  0  0  0  0  0  0  0  0
  149.4071  137.6158  157.9639 N   0  0  0  0  0  0  0  0  0  0  0  0
  149.1358  136.8863  159.0555 C   0  0  0  0  0  0  0  0  0  0  0  0
  149.8175  136.9266  160.0803 O   0  0  0  0  0  0  0  0  0  0  0  0
  147.8979  135.9833  158.9750 C   0  0  0  0  0  0  0  0  0  0  0  0
  147.5513  135.3752  160.2698 N   0  0  0  0  0  0  0  0  0  0  0  0
  147.4772  133.9690  160.3219 C   0  0  0  0  0  0  0  0  0  0  0  0
  147.1653  133.3159  161.4525 C   0  0  0  0  0  0  0  0  0  0  0  0
  146.9013  134.0938  162.6394 C   0  0  0  0  0  0  0  0  0  0  0  0
  146.9672  135.4394  162.6003 C   0  0  0  0  0  0  0  0  0  0  0  0
  147.3069  136.1576  161.3664 C   0  0  0  0  0  0  0  0  0  0  0  0
  147.3679  137.3868  161.3214 O   0  0  0  0  0  0  0  0  0  0  0  0
  150.8475  138.9868  156.3859 C   0  0  0  0  0  0  0  0  0  0  0  0
  149.6705  138.9506  155.3920 C   0  0  0  0  0  0  0  0  0  0  0  0
  152.0148  138.2964  155.6716 C   0  0  0  0  0  0  0  0  0  0  0  0
  153.8333  140.7860  158.9989 H   0  0  0  0  0  0  0  0  0  0  0  0
  152.1655  140.6098  159.5292 H   0  0  0  0  0  0  0  0  0  0  0  0
  152.6880  142.0754  158.6824 H   0  0  0  0  0  0  0  0  0  0  0  0
  149.8299  141.6228  155.8193 H   0  0  0  0  0  0  0  0  0  0  0  0
  151.5344  141.7959  155.4279 H   0  0  0  0  0  0  0  0  0  0  0  0
  150.8628  142.5402  156.8780 H   0  0  0  0  0  0  0  0  0  0  0  0
  150.5391  140.2444  159.1945 H   0  0  0  0  0  0  0  0  0  0  0  0
  149.1807  140.2184  158.0187 H   0  0  0  0  0  0  0  0  0  0  0  0
  151.4496  138.1541  158.3518 H   0  0  0  0  0  0  0  0  0  0  0  0
  148.7942  137.5315  157.1660 H   0  0  0  0  0  0  0  0  0  0  0  0
  147.0688  136.5798  158.5925 H   0  0  0  0  0  0  0  0  0  0  0  0
  148.0566  135.2019  158.2290 H   0  0  0  0  0  0  0  0  0  0  0  0
  147.6813  133.4614  159.3905 H   0  0  0  0  0  0  0  0  0  0  0  0
  147.1097  132.2375  161.4727 H   0  0  0  0  0  0  0  0  0  0  0  0
  146.6478  133.5946  163.5629 H   0  0  0  0  0  0  0  0  0  0  0  0
  146.7649  136.0046  163.4982 H   0  0  0  0  0  0  0  0  0  0  0  0
  149.4123  137.9292  155.1097 H   0  0  0  0  0  0  0  0  0  0  0  0
  149.9080  139.4861  154.4724 H   0  0  0  0  0  0  0  0  0  0  0  0
  148.7684  139.4031  155.8038 H   0  0  0  0  0  0  0  0  0  0  0  0
  151.7338  137.3090  155.3036 H   0  0  0  0  0  0  0  0  0  0  0  0
  152.8690  138.1503  156.3326 H   0  0  0  0  0  0  0  0  0  0  0  0
  152.3607  138.8806  154.8184 H   0  0  0  0  0  0  0  0  0  0  0  0
  1  2  1  0  0  0  0
  1 21  1  0  0  0  0
  1 22  1  0  0  0  0
  1 23  1  0  0  0  0
  2  3  1  0  0  0  0
  3 18  1  0  0  0  0
  3  4  1  0  0  0  0
  3  5  1  0  0  0  0
  4 24  1  0  0  0  0
  4 25  1  0  0  0  0
  4 26  1  0  0  0  0
  5  6  1  0  0  0  0
  5 27  1  0  0  0  0
  5 28  1  0  0  0  0
  6  7  1  0  0  0  0
  6 18  1  0  0  0  0
  6 29  1  0  0  0  0
  7  8  1  0  0  0  0
  7 30  1  0  0  0  0
  8  9  2  0  0  0  0
  8 10  1  0  0  0  0
 10 11  1  0  0  0  0
 10 31  1  0  0  0  0
 10 32  1  0  0  0  0
 11 16  1  0  0  0  0
 11 12  1  0  0  0  0
 12 13  2  0  0  0  0
 12 33  1  0  0  0  0
 13 14  1  0  0  0  0
 13 34  1  0  0  0  0
 14 15  2  0  0  0  0
 14 35  1  0  0  0  0
 15 16  1  0  0  0  0
 15 36  1  0  0  0  0
 16 17  2  0  0  0  0
 18 19  1  0  0  0  0
 18 20  1  0  0  0  0
 19 37  1  0  0  0  0
 19 38  1  0  0  0  0
 19 39  1  0  0  0  0
 20 40  1  0  0  0  0
 20 41  1  0  0  0  0
 20 42  1  0  0  0  0
M  END
> <s_m_source_file>
AV-unprocessed.smi

> <i_m_source_file_index>
676

> <i_lp_mmshare_version>
43012

> <i_f3d_flags>
0

> <s_epik_input>
W0NIM11PW0NAQF0xKFtDSDNdKVtDSDJdW0NASF0oQzEoW0NIM10pW0NIM10pW05IXUMoPU8pW0NIMl1uMltjSF1bY0hdW2NIXVtjSF1jMj1P

> <s_epik_cmdline>
J2VwaWtfcHl0aG9uJywgJy1waCcsICc3LjAnLCAnLXRuJywgJzgnLCAnLW1hJywgJzIwMCcsICctbWV0YWxfYmluZGluZycsICctaW1hZScsICc8aW5maWxlLm1hZT4nLCAnLW9tYWUnLCAnPG91dGZpbGUubWFlPic=

> <r_lp_tautomer_probability>
1

> <r_epik_Ionization_Penalty>
4.09771e-07

> <r_epik_Ionization_Penalty_Charging>
3.90712e-07

> <r_epik_Ionization_Penalty_Neutral>
1.90591e-08

> <r_epik_State_Penalty>
-0

> <r_epik_Charging_Adjusted_Penalty>
3.90712e-07

> <i_epik_Tot_Q>
0

> <i_epik_Tot_abs_Q>
0

> <r_epik_Metal_State_Penalty>
-0

> <b_epik_Metal_Only>
0

> <s_lp_Force_Field>
OPLS_2005

> <r_lp_Energy>
31.4736

> <b_lp_Chiralities_Consistent>
1

> <s_lp_Variant>
AV-unprocessed.smi:676-2

> <Gold.Version>
5.8.1

> <Gold.Id.Protein>
6NUR|6NUR_protein|mol2

> <Gold.PLP.Fitness>
44.0088

> <Gold.PLP.PLP>
-34.4767

> <Gold.PLP.part.hbond>
-4.3964

> <Gold.PLP.part.metal>
0.0000

> <Gold.PLP.part.buried>
-3.0410

> <Gold.PLP.part.nonpolar>
-26.4615

> <Gold.PLP.part.repulsive>
0.0798

> <Gold.PLP.ligand.clash>
0.0000

> <Gold.PLP.ligand.torsion>
0.8439

> <Gold.PLP.Chemscore.Hbond>
3.6130

> <Gold.PLP.Chemscore.CHOScore>
0.0000

> <Gold.PLP.Chemscore.Metal>
0.0000

> <Gold.Chemscore.Hbonds>
donor molecule, donor type, donor heavy atom, donor atom, acceptor molecule, acceptor atom, score
      P1  H  6896  6907       L1     9  0.40
      P1  H  6931  6943       L1    17  0.78
      P1  H  6934  6947       L1    17  0.94
      P1  H  7997  8010       L1     2  0.86

> <Gold.PLP.Chemscore.Internal.Correction>
0.3808

> <Gold.Rescore>
     Score         DG    S(hbond)    S(metal)    S(lipo)     H(rot)  DE(clash)    DE(int)     intcor
     17.07     -20.06       3.08        0.00      71.98       1.62       0.02       2.97       ----

> <Gold.Chemscore.Fitness>
17.0666

> <Gold.Chemscore.DG>
-20.0569

> <Gold.Chemscore.ZeroCoef>
-5.4800

> <Gold.Chemscore.Hbond>
3.0825

> <Gold.Chemscore.Metal>
0.0000

> <Gold.Chemscore.Lipo>
71.9849

> <Gold.Chemscore.Internal_Hbond>
0.0000

> <Gold.Chemscore.DEClash>
0.0195

> <Gold.Chemscore.DEInternal>
2.9708

> <Gold.Chemscore.Rot>
1.6175

> <Gold.Chemscore.Internal.Correction>
   9.000000E+99

> <Gold.Chemscore.Hbonds>
donor molecule, donor type, donor heavy atom, donor atom, acceptor molecule, acceptor atom, score
      P1  H  6896  6907       L1     9  0.09
      P1  H  6931  6943       L1    17  0.74
      P1  H  6934  6947       L1    17  0.92
      P1  H  7997  8010       L1     2  0.32

> <Gold.Chemscore.Hbond.Weighted>
-10.2954

> <Gold.Chemscore.Metal.Weighted>
-0.0000

> <Gold.Chemscore.Lipo.Weighted>
-8.4222

> <Gold.Chemscore.Internal_Hbond.Weighted>
0.0000

> <Gold.Chemscore.DEClash.Weighted>
0.0195

> <Gold.Chemscore.DEInternal.Weighted>
2.9708

> <Gold.Chemscore.Rot.Weighted>
4.1408

> <Gold.Chemscore.Internal.Correction.Weighted>
   9.000000E+99

> <Gold.Protein.RotatedTorsions>
[ 6907 6896 6895 6894 ] final  -36.82 input  -60.11 | X-H torsion
[ 7974 7965 7964 7962 ] final   88.66 input  175.53 | X-H torsion
[ 8008 7997 7996 7995 ] final   60.24 input   59.86 | X-H torsion
[ 10167 10162 10161 10158 ] final  120.67 input  -65.29 | X-H torsion
[ 10718 10713 10712 10709 ] final -120.48 input   66.30 | X-H torsion
[ 10763 10752 10751 10750 ] final  -12.71 input  -60.55 | X-H torsion
[ 11005 11000 10999 10996 ] final  127.31 input  -57.11 | X-H torsion

> <Gold.Protein.ActiveResidues>
 VAL166  LYS551  ARG553  GLY616  TRP617  ASP618  TYR619  PRO620  LYS621  CYS622 
 ASP623  PHE694  ASN695  SER759  ASP760  ASP761  ALA762  ILE779  LEU786  VAL792 
 PHE793  MET794  SER795  GLU796  ALA797  LYS798  CYS799  TRP800  GLU811  SER814 

> <Gold.Protein.RotatedAtoms>
  151.0223  134.9478  159.8066 H   0  0  0  0  0  0  0  0  0  0  0  0  # atno 6907 bound_to 6896
  152.5328  134.2887  159.9045 H   0  0  0  0  0  0  0  0  0  0  0  0  # atno 6908 bound_to 6896
  151.2894  133.4130  159.2666 H   0  0  0  0  0  0  0  0  0  0  0  0  # atno 6909 bound_to 6896
  145.5426  139.2289  143.2557 H   0  0  0  0  0  0  0  0  0  0  0  0  # atno 7974 bound_to 7965
  155.5791  140.3491  155.4535 H   0  0  0  0  0  0  0  0  0  0  0  0  # atno 8008 bound_to 7997
  156.0387  140.1291  157.0205 H   0  0  0  0  0  0  0  0  0  0  0  0  # atno 8009 bound_to 7997
  154.4382  140.1028  156.6190 H   0  0  0  0  0  0  0  0  0  0  0  0  # atno 8010 bound_to 7997
  139.5967  144.7044  151.3158 H   0  0  0  0  0  0  0  0  0  0  0  0  # atno 10167 bound_to 10162
  156.1261  130.6360  150.9545 H   0  0  0  0  0  0  0  0  0  0  0  0  # atno 10718 bound_to 10713
  153.5026  135.7017  153.5824 H   0  0  0  0  0  0  0  0  0  0  0  0  # atno 10763 bound_to 10752
  153.3949  135.3886  155.1948 H   0  0  0  0  0  0  0  0  0  0  0  0  # atno 10764 bound_to 10752
  154.8709  135.3867  154.4498 H   0  0  0  0  0  0  0  0  0  0  0  0  # atno 10765 bound_to 10752
  139.9501  134.9623  156.8835 H   0  0  0  0  0  0  0  0  0  0  0  0  # atno 11005 bound_to 11000
  146.1970  140.6247  142.9119 LP  0  0  0  0  0  0  0  0  0  0  0  0  # atno 17320 bound_to 7965
  144.7569  140.5329  143.6762 LP  0  0  0  0  0  0  0  0  0  0  0  0  # atno 17321 bound_to 7965
  140.7218  143.7115  150.7766 LP  0  0  0  0  0  0  0  0  0  0  0  0  # atno 17342 bound_to 10162
  140.0683  143.5086  152.2593 LP  0  0  0  0  0  0  0  0  0  0  0  0  # atno 17343 bound_to 10162
  157.6443  131.0906  150.8187 LP  0  0  0  0  0  0  0  0  0  0  0  0  # atno 17370 bound_to 10713
  156.8277  130.5005  149.5335 LP  0  0  0  0  0  0  0  0  0  0  0  0  # atno 17371 bound_to 10713
  140.5740  134.0416  155.7440 LP  0  0  0  0  0  0  0  0  0  0  0  0  # atno 17394 bound_to 11000
  141.1161  133.9537  157.2819 LP  0  0  0  0  0  0  0  0  0  0  0  0  # atno 17395 bound_to 11000

$$$$
