AV-unprocessed.smi:625|AV-procd|sdf|3107|dock10
  -GOLD-   22720 0 33D 1   1.00000     0.00000
 Structure written by MMmdl.
 49 51  0  0  0  0  0  0  0  0  1 V2000
  139.7026  138.2341  153.8335 C   0  0  0  0  0  0  0  0  0  0  0  0
  140.9309  137.6210  153.3511 N   0  0  0  0  0  0  0  0  0  0  0  0
  141.2513  136.3267  153.5147 C   0  0  0  0  0  0  0  0  0  0  0  0
  140.5038  135.5453  154.1053 O   0  0  0  0  0  0  0  0  0  0  0  0
  142.5447  135.9589  152.9330 C   0  0  0  0  0  0  0  0  0  0  0  0
  142.8302  134.6346  152.4004 C   0  0  0  0  0  0  0  0  0  0  0  0
  144.0424  134.3494  151.8857 C   0  0  0  0  0  0  0  0  0  0  0  0
  145.1147  135.3471  151.8369 C   0  0  0  0  0  0  0  0  0  0  0  0
  146.2255  135.0900  151.3711 O   0  0  0  0  0  0  0  0  0  0  0  0
  144.8030  136.5799  152.3418 N   0  0  0  0  0  0  0  0  0  0  0  0
  145.8032  137.6603  152.3507 C   0  0  0  0  0  0  0  0  0  0  0  0
  146.3273  137.9609  153.7606 C   0  0  0  0  0  0  0  0  0  0  0  0
  145.5950  138.4909  154.5970 O   0  0  0  0  0  0  0  0  0  0  0  0
  147.6018  137.6168  154.0008 N   0  0  0  0  0  0  0  0  0  0  0  0
  148.2910  137.7232  155.2848 C   0  0  2  0  0  0  0  0  0  0  0  0
  147.3880  137.1497  156.3879 C   0  0  0  0  0  0  0  0  0  0  0  0
  148.6721  139.1991  155.5493 C   0  0  1  0  0  0  0  0  0  0  0  0
  149.4015  139.4534  156.8877 C   0  0  0  0  0  0  0  0  0  0  0  0
  150.6186  140.2974  156.4643 C   0  0  1  0  0  0  0  0  0  0  0  0
  151.6405  139.3879  155.7579 C   0  0  0  0  0  0  0  0  0  0  0  0
  150.9624  139.1061  154.4051 C   0  0  0  0  0  0  0  0  0  0  0  0
  149.6262  139.8676  154.5262 C   0  0  2  0  0  0  0  0  0  0  0  0
  150.0624  141.1080  155.2992 C   0  0  0  0  0  0  0  0  0  0  0  0
  143.5350  136.8714  152.8820 C   0  0  0  0  0  0  0  0  0  0  0  0
  139.6938  139.2945  153.5818 H   0  0  0  0  0  0  0  0  0  0  0  0
  139.6202  138.1401  154.9169 H   0  0  0  0  0  0  0  0  0  0  0  0
  138.8299  137.7673  153.3751 H   0  0  0  0  0  0  0  0  0  0  0  0
  141.5808  138.2162  152.8585 H   0  0  0  0  0  0  0  0  0  0  0  0
  142.0841  133.8537  152.4050 H   0  0  0  0  0  0  0  0  0  0  0  0
  144.2312  133.3593  151.4975 H   0  0  0  0  0  0  0  0  0  0  0  0
  146.6337  137.4009  151.6906 H   0  0  0  0  0  0  0  0  0  0  0  0
  145.3883  138.5814  151.9396 H   0  0  0  0  0  0  0  0  0  0  0  0
  148.1235  137.1983  153.2443 H   0  0  0  0  0  0  0  0  0  0  0  0
  149.2043  137.1270  155.2720 H   0  0  0  0  0  0  0  0  0  0  0  0
  147.8780  137.1863  157.3610 H   0  0  0  0  0  0  0  0  0  0  0  0
  147.1399  136.1069  156.1875 H   0  0  0  0  0  0  0  0  0  0  0  0
  146.4525  137.7048  156.4658 H   0  0  0  0  0  0  0  0  0  0  0  0
  147.7489  139.7817  155.5528 H   0  0  0  0  0  0  0  0  0  0  0  0
  148.7590  140.0077  157.5728 H   0  0  0  0  0  0  0  0  0  0  0  0
  149.7050  138.5347  157.3913 H   0  0  0  0  0  0  0  0  0  0  0  0
  151.0464  140.8867  157.2760 H   0  0  0  0  0  0  0  0  0  0  0  0
  152.5884  139.9071  155.6103 H   0  0  0  0  0  0  0  0  0  0  0  0
  151.8427  138.4756  156.3203 H   0  0  0  0  0  0  0  0  0  0  0  0
  151.5599  139.5163  153.5900 H   0  0  0  0  0  0  0  0  0  0  0  0
  150.8401  138.0417  154.2096 H   0  0  0  0  0  0  0  0  0  0  0  0
  149.1580  140.0785  153.5641 H   0  0  0  0  0  0  0  0  0  0  0  0
  149.2338  141.7598  155.5815 H   0  0  0  0  0  0  0  0  0  0  0  0
  150.8203  141.6984  154.7810 H   0  0  0  0  0  0  0  0  0  0  0  0
  143.4314  137.8804  153.2562 H   0  0  0  0  0  0  0  0  0  0  0  0
  1  2  1  0  0  0  0
  1 25  1  0  0  0  0
  1 26  1  0  0  0  0
  1 27  1  0  0  0  0
  2  3  1  0  0  0  0
  2 28  1  0  0  0  0
  3  4  2  0  0  0  0
  3  5  1  0  0  0  0
  5 24  2  0  0  0  0
  5  6  1  0  0  0  0
  6  7  2  0  0  0  0
  6 29  1  0  0  0  0
  7  8  1  0  0  0  0
  7 30  1  0  0  0  0
  8  9  2  0  0  0  0
  8 10  1  0  0  0  0
 10 11  1  0  0  0  0
 10 24  1  0  0  0  0
 11 12  1  0  0  0  0
 11 31  1  0  0  0  0
 11 32  1  0  0  0  0
 12 13  2  0  0  0  0
 12 14  1  0  0  0  0
 14 15  1  0  0  0  0
 14 33  1  0  0  0  0
 15 16  1  0  0  0  0
 15 17  1  0  0  0  0
 15 34  1  0  0  0  0
 16 35  1  0  0  0  0
 16 36  1  0  0  0  0
 16 37  1  0  0  0  0
 17 22  1  0  0  0  0
 17 18  1  0  0  0  0
 17 38  1  0  0  0  0
 18 19  1  0  0  0  0
 18 39  1  0  0  0  0
 18 40  1  0  0  0  0
 19 23  1  0  0  0  0
 19 20  1  0  0  0  0
 19 41  1  0  0  0  0
 20 21  1  0  0  0  0
 20 42  1  0  0  0  0
 20 43  1  0  0  0  0
 21 22  1  0  0  0  0
 21 44  1  0  0  0  0
 21 45  1  0  0  0  0
 22 23  1  0  0  0  0
 22 46  1  0  0  0  0
 23 47  1  0  0  0  0
 23 48  1  0  0  0  0
 24 49  1  0  0  0  0
M  END
> <s_m_source_file>
AV-unprocessed.smi

> <i_m_source_file_index>
625

> <i_lp_mmshare_version>
43012

> <i_f3d_flags>
0

> <s_epik_input>
W0NIM11bTkhdQyg9TyljMVtjSF1bY0hdYyg9TyluKFtjSF0xKVtDSDJdQyg9TylbTkhdW0NASF0oW0NIM10pW0NASF0oW0NIMl1bQ0BIXTIzKVtDQEhdKFtDSDJdMylbQ0gyXVtDSDJdMg==

> <s_epik_cmdline>
J2VwaWtfcHl0aG9uJywgJy1waCcsICc3LjAnLCAnLXRuJywgJzgnLCAnLW1hJywgJzIwMCcsICctbWV0YWxfYmluZGluZycsICctaW1hZScsICc8aW5maWxlLm1hZT4nLCAnLW9tYWUnLCAnPG91dGZpbGUubWFlPic=

> <r_lp_tautomer_probability>
1

> <r_epik_Ionization_Penalty>
3.7129e-07

> <r_epik_Ionization_Penalty_Charging>
5.04114e-08

> <r_epik_Ionization_Penalty_Neutral>
3.20879e-07

> <r_epik_State_Penalty>
-0

> <r_epik_Charging_Adjusted_Penalty>
5.04114e-08

> <i_epik_Tot_Q>
0

> <i_epik_Tot_abs_Q>
0

> <r_epik_Metal_State_Penalty>
-0

> <b_epik_Metal_Only>
0

> <s_lp_Force_Field>
OPLS_2005

> <r_lp_Energy>
63.4891

> <b_lp_Chiralities_Consistent>
1

> <s_lp_Variant>
AV-unprocessed.smi:625-7

> <Gold.Version>
5.8.1

> <Gold.Id.Protein>
6NUR|6NUR_protein|mol2

> <Gold.PLP.Fitness>
41.1597

> <Gold.PLP.PLP>
-34.6199

> <Gold.PLP.part.hbond>
-2.0000

> <Gold.PLP.part.metal>
0.0000

> <Gold.PLP.part.buried>
-5.6154

> <Gold.PLP.part.nonpolar>
-27.4303

> <Gold.PLP.part.repulsive>
1.4026

> <Gold.PLP.ligand.clash>
0.0000

> <Gold.PLP.ligand.torsion>
0.8012

> <Gold.PLP.Chemscore.Hbond>
2.0000

> <Gold.PLP.Chemscore.CHOScore>
0.6939

> <Gold.PLP.Chemscore.Metal>
0.0000

> <Gold.Chemscore.Hbonds>
donor molecule, donor type, donor heavy atom, donor atom, acceptor molecule, acceptor atom, score
      L1  H    14    33       P1  7948  1.00
      P1  H 11000 11005       L1     4  1.00
      L1  C    24    49       P1 10175  0.62

> <Gold.PLP.Chemscore.Internal.Correction>
0.0604

> <Gold.Rescore>
     Score         DG    S(hbond)    S(metal)    S(lipo)     H(rot)  DE(clash)    DE(int)     intcor
     14.34     -16.34       2.00        0.00      72.39       1.67       0.05       1.95       ----

> <Gold.Chemscore.Fitness>
14.3389

> <Gold.Chemscore.DG>
-16.3392

> <Gold.Chemscore.ZeroCoef>
-5.4800

> <Gold.Chemscore.Hbond>
1.9960

> <Gold.Chemscore.Metal>
0.0000

> <Gold.Chemscore.Lipo>
72.3923

> <Gold.Chemscore.Internal_Hbond>
0.0000

> <Gold.Chemscore.DEClash>
0.0480

> <Gold.Chemscore.DEInternal>
1.9524

> <Gold.Chemscore.Rot>
1.6709

> <Gold.Chemscore.Internal.Correction>
   9.000000E+99

> <Gold.Chemscore.Hbonds>
donor molecule, donor type, donor heavy atom, donor atom, acceptor molecule, acceptor atom, score
      L1  H    14    33       P1  7948  1.00
      P1  H 11000 11005       L1     4  0.94

> <Gold.Chemscore.Hbond.Weighted>
-6.6667

> <Gold.Chemscore.Metal.Weighted>
-0.0000

> <Gold.Chemscore.Lipo.Weighted>
-8.4699

> <Gold.Chemscore.Internal_Hbond.Weighted>
0.0000

> <Gold.Chemscore.DEClash.Weighted>
0.0480

> <Gold.Chemscore.DEInternal.Weighted>
1.9524

> <Gold.Chemscore.Rot.Weighted>
4.2774

> <Gold.Chemscore.Internal.Correction.Weighted>
   9.000000E+99

> <Gold.Protein.RotatedTorsions>
[ 6907 6896 6895 6894 ] final  -56.79 input  -60.11 | X-H torsion
[ 7974 7965 7964 7962 ] final  166.53 input  175.53 | X-H torsion
[ 8008 7997 7996 7995 ] final   25.97 input   59.86 | X-H torsion
[ 10167 10162 10161 10158 ] final  -79.83 input  -65.29 | X-H torsion
[ 10718 10713 10712 10709 ] final   58.37 input   66.30 | X-H torsion
[ 10763 10752 10751 10750 ] final  -41.74 input  -60.55 | X-H torsion
[ 11005 11000 10999 10996 ] final   45.92 input  -57.11 | X-H torsion

> <Gold.Protein.ActiveResidues>
 VAL166  LYS551  ARG553  GLY616  TRP617  ASP618  TYR619  PRO620  LYS621  CYS622 
 ASP623  PHE694  ASN695  SER759  ASP760  ASP761  ALA762  ILE779  LEU786  VAL792 
 PHE793  MET794  SER795  GLU796  ALA797  LYS798  CYS799  TRP800  GLU811  SER814 

> <Gold.Protein.RotatedAtoms>
  150.8139  134.7309  159.6711 H   0  0  0  0  0  0  0  0  0  0  0  0  # atno 6907 bound_to 6896
  152.4258  134.5868  159.9973 H   0  0  0  0  0  0  0  0  0  0  0  0  # atno 6908 bound_to 6896
  151.6070  133.3313  159.3095 H   0  0  0  0  0  0  0  0  0  0  0  0  # atno 6909 bound_to 6896
  144.7459  139.8629  143.6382 H   0  0  0  0  0  0  0  0  0  0  0  0  # atno 7974 bound_to 7965
  155.0200  140.3146  155.4797 H   0  0  0  0  0  0  0  0  0  0  0  0  # atno 8008 bound_to 7997
  156.2894  140.2199  156.5260 H   0  0  0  0  0  0  0  0  0  0  0  0  # atno 8009 bound_to 7997
  154.7460  140.0470  157.0840 H   0  0  0  0  0  0  0  0  0  0  0  0  # atno 8010 bound_to 7997
  140.4558  143.2469  151.8422 H   0  0  0  0  0  0  0  0  0  0  0  0  # atno 10167 bound_to 10162
  157.5590  130.8822  149.9081 H   0  0  0  0  0  0  0  0  0  0  0  0  # atno 10718 bound_to 10713
  153.9675  135.6732  153.4746 H   0  0  0  0  0  0  0  0  0  0  0  0  # atno 10763 bound_to 10752
  153.0808  135.4924  154.8496 H   0  0  0  0  0  0  0  0  0  0  0  0  # atno 10764 bound_to 10752
  154.7238  135.3123  154.8965 H   0  0  0  0  0  0  0  0  0  0  0  0  # atno 10765 bound_to 10752
  140.1416  134.4576  155.8445 H   0  0  0  0  0  0  0  0  0  0  0  0  # atno 11005 bound_to 11000
  146.1335  139.4376  143.0153 LP  0  0  0  0  0  0  0  0  0  0  0  0  # atno 17320 bound_to 7965
  145.7127  141.0101  143.1445 LP  0  0  0  0  0  0  0  0  0  0  0  0  # atno 17321 bound_to 7965
  139.4801  144.5067  151.8988 LP  0  0  0  0  0  0  0  0  0  0  0  0  # atno 17342 bound_to 10162
  140.4153  144.2315  150.5888 LP  0  0  0  0  0  0  0  0  0  0  0  0  # atno 17343 bound_to 10162
  156.0645  130.3694  150.0908 LP  0  0  0  0  0  0  0  0  0  0  0  0  # atno 17370 bound_to 10713
  156.9074  130.9640  151.3568 LP  0  0  0  0  0  0  0  0  0  0  0  0  # atno 17371 bound_to 10713
  141.2187  133.6835  156.7257 LP  0  0  0  0  0  0  0  0  0  0  0  0  # atno 17394 bound_to 11000
  140.2715  134.8388  157.3851 LP  0  0  0  0  0  0  0  0  0  0  0  0  # atno 17395 bound_to 11000

$$$$
