AV-unprocessed.smi:160|AV-procd|sdf|1356|dock5
  -GOLD-   2262019 63D 1   1.00000     0.00000
 Structure written by MMmdl.
 29 30  0  0  0  0  0  0  0  0  1 V2000
  154.7062  138.1419  159.1918 N   0  0  0  0  0  0  0  0  0  0  0  0
  153.4810  137.6246  159.3304 C   0  0  0  0  0  0  0  0  0  0  0  0
  153.2562  136.6473  160.0425 O   0  0  0  0  0  0  0  0  0  0  0  0
  152.3814  138.3053  158.5623 C   0  0  0  0  0  0  0  0  0  0  0  0
  151.0760  137.9371  158.7242 N   0  0  0  0  0  0  0  0  0  0  0  0
  150.5130  138.7831  157.8709 C   0  0  0  0  0  0  0  0  0  0  0  0
  151.3788  139.5994  157.2578 N   0  0  0  0  0  0  0  0  0  0  0  0
  151.1743  140.6617  156.2230 C   0  0  1  0  0  0  0  0  0  0  0  0
  150.6215  140.0604  155.0907 O   0  0  0  0  0  0  0  0  0  0  0  0
  149.2039  140.1809  155.1366 C   0  0  2  0  0  0  0  0  0  0  0  0
  148.5724  139.9065  153.7603 C   0  0  0  0  0  0  0  0  0  0  0  0
  149.1013  138.7173  153.2137 O   0  0  0  0  0  0  0  0  0  0  0  0
  149.0338  141.6068  155.6752 C   0  0  2  0  0  0  0  0  0  0  0  0
  149.1864  142.5541  154.6297 O   0  0  0  0  0  0  0  0  0  0  0  0
  150.1467  141.6981  156.7207 C   0  0  2  0  0  0  0  0  0  0  0  0
  150.6803  143.0035  156.8431 O   0  0  0  0  0  0  0  0  0  0  0  0
  152.6247  139.2887  157.6934 N   0  0  0  0  0  0  0  0  0  0  0  0
  152.1717  141.0553  156.0230 H   0  0  0  0  0  0  0  0  0  0  0  0
  148.8052  139.4840  155.8768 H   0  0  0  0  0  0  0  0  0  0  0  0
  148.0508  141.7539  156.1239 H   0  0  0  0  0  0  0  0  0  0  0  0
  149.7527  141.3879  157.6899 H   0  0  0  0  0  0  0  0  0  0  0  0
  155.4860  137.7273  159.6806 H   0  0  0  0  0  0  0  0  0  0  0  0
  154.8427  138.9451  158.5953 H   0  0  0  0  0  0  0  0  0  0  0  0
  149.4478  138.8068  157.6919 H   0  0  0  0  0  0  0  0  0  0  0  0
  147.4956  139.7683  153.8623 H   0  0  0  0  0  0  0  0  0  0  0  0
  148.7311  140.7398  153.0749 H   0  0  0  0  0  0  0  0  0  0  0  0
  149.4213  138.9034  152.3441 H   0  0  0  0  0  0  0  0  0  0  0  0
  148.7921  143.3674  154.9068 H   0  0  0  0  0  0  0  0  0  0  0  0
  150.0312  143.6211  156.5423 H   0  0  0  0  0  0  0  0  0  0  0  0
  1  2  1  0  0  0  0
  1 22  1  0  0  0  0
  1 23  1  0  0  0  0
  2  3  2  0  0  0  0
  2  4  1  0  0  0  0
  4 17  2  0  0  0  0
  4  5  1  0  0  0  0
  5  6  2  0  0  0  0
  6  7  1  0  0  0  0
  6 24  1  0  0  0  0
  7  8  1  0  0  0  0
  7 17  1  0  0  0  0
  8 18  1  0  0  0  0
  8 15  1  0  0  0  0
  8  9  1  0  0  0  0
  9 10  1  0  0  0  0
 10 19  1  0  0  0  0
 10 11  1  0  0  0  0
 10 13  1  0  0  0  0
 11 12  1  0  0  0  0
 11 25  1  0  0  0  0
 11 26  1  0  0  0  0
 12 27  1  0  0  0  0
 13 20  1  0  0  0  0
 13 14  1  0  0  0  0
 13 15  1  0  0  0  0
 14 28  1  0  0  0  0
 15 21  1  0  0  0  0
 15 16  1  0  0  0  0
 16 29  1  0  0  0  0
M  END
> <s_m_source_file>
AV-unprocessed.smi

> <i_m_source_file_index>
160

> <i_lp_mmshare_version>
43012

> <i_f3d_flags>
0

> <s_epik_input>
W05IMl1DKD1PKWMxbltjSF1uKG4xKVtDQEBIXTJPW0NASF0oW0NIMl1bT0hdKVtDQEBIXShbT0hdKVtDQEhdMltPSF0=

> <s_epik_cmdline>
J2VwaWtfcHl0aG9uJywgJy1waCcsICc3LjAnLCAnLXRuJywgJzgnLCAnLW1hJywgJzIwMCcsICctbWV0YWxfYmluZGluZycsICctaW1hZScsICc8aW5maWxlLm1hZT4nLCAnLW9tYWUnLCAnPG91dGZpbGUubWFlPic=

> <r_lp_tautomer_probability>
1

> <r_epik_Ionization_Penalty>
1.06932e-05

> <r_epik_Ionization_Penalty_Charging>
0

> <r_epik_Ionization_Penalty_Neutral>
1.06932e-05

> <r_epik_State_Penalty>
-0

> <r_epik_Charging_Adjusted_Penalty>
0

> <i_epik_Tot_Q>
0

> <i_epik_Tot_abs_Q>
0

> <r_epik_Metal_State_Penalty>
0.0142097

> <b_epik_Metal_Only>
0

> <s_epik_Chemistry_Notes>
This compound contains an acetal/aminal-like group ( X-CH(R)-Y where X, Y are N, S, or O) that may be acid/base labile, releasing an aldehyde.

> <s_lp_Force_Field>
OPLS_2005

> <r_lp_Energy>
42.1222

> <b_lp_Chiralities_Consistent>
1

> <s_lp_Variant>
AV-unprocessed.smi:160-14

> <Gold.Version>
5.8.1

> <Gold.Id.Protein>
6NUR|6NUR_protein|mol2

> <Gold.PLP.Fitness>
40.2408

> <Gold.PLP.PLP>
-22.5166

> <Gold.PLP.part.hbond>
-7.5411

> <Gold.PLP.part.metal>
0.0000

> <Gold.PLP.part.buried>
-2.1526

> <Gold.PLP.part.nonpolar>
-13.3981

> <Gold.PLP.part.repulsive>
0.1298

> <Gold.PLP.ligand.clash>
0.0000

> <Gold.PLP.ligand.torsion>
0.1551

> <Gold.PLP.Chemscore.Hbond>
6.0018

> <Gold.PLP.Chemscore.CHOScore>
0.0000

> <Gold.PLP.Chemscore.Metal>
0.0000

> <Gold.Chemscore.Hbonds>
donor molecule, donor type, donor heavy atom, donor atom, acceptor molecule, acceptor atom, score
      L1  H    12    27       P1  7957  0.96
      L1  H    14    28       P1  8028  0.99
      L1  H    16    29       P1  8028  1.00
      P1  H  6896  6908       L1     3  1.00
      P1  H  7989  7998       L1     9  0.94
      P1  H  7997  8010       L1    17  0.67
      P1  H  8011  8017       L1    14  0.01

> <Gold.PLP.Chemscore.Internal.Correction>
0.0290

> <Gold.Rescore>
     Score         DG    S(hbond)    S(metal)    S(lipo)     H(rot)  DE(clash)    DE(int)     intcor
     13.51     -14.93       5.05        0.00      25.50       4.06       1.33       0.09       ----

> <Gold.Chemscore.Fitness>
13.5069

> <Gold.Chemscore.DG>
-14.9281

> <Gold.Chemscore.ZeroCoef>
-5.4800

> <Gold.Chemscore.Hbond>
5.0475

> <Gold.Chemscore.Metal>
0.0000

> <Gold.Chemscore.Lipo>
25.4975

> <Gold.Chemscore.Internal_Hbond>
0.0000

> <Gold.Chemscore.DEClash>
1.3295

> <Gold.Chemscore.DEInternal>
0.0917

> <Gold.Chemscore.Rot>
4.0600

> <Gold.Chemscore.Internal.Correction>
   9.000000E+99

> <Gold.Chemscore.Hbonds>
donor molecule, donor type, donor heavy atom, donor atom, acceptor molecule, acceptor atom, score
      L1  H    12    27       P1  7957  0.75
      L1  H    14    28       P1  8028  0.89
      L1  H    16    29       P1  8028  1.00
      P1  H  6896  6908       L1     3  0.96
      P1  H  7989  7998       L1     9  0.43
      P1  H  7997  8010       L1    17  0.66
      P1  H  8011  8017       L1    14  0.02

> <Gold.Chemscore.Hbond.Weighted>
-16.8585

> <Gold.Chemscore.Metal.Weighted>
-0.0000

> <Gold.Chemscore.Lipo.Weighted>
-2.9832

> <Gold.Chemscore.Internal_Hbond.Weighted>
0.0000

> <Gold.Chemscore.DEClash.Weighted>
1.3295

> <Gold.Chemscore.DEInternal.Weighted>
0.0917

> <Gold.Chemscore.Rot.Weighted>
10.3936

> <Gold.Chemscore.Internal.Correction.Weighted>
   9.000000E+99

> <Gold.Protein.RotatedTorsions>
[ 6907 6896 6895 6894 ] final  -80.38 input  -60.11 | X-H torsion
[ 7974 7965 7964 7962 ] final -176.18 input  175.53 | X-H torsion
[ 8008 7997 7996 7995 ] final   50.93 input   59.86 | X-H torsion
[ 10167 10162 10161 10158 ] final  178.34 input  -65.29 | X-H torsion
[ 10718 10713 10712 10709 ] final   59.75 input   66.30 | X-H torsion
[ 10763 10752 10751 10750 ] final -163.63 input  -60.55 | X-H torsion
[ 11005 11000 10999 10996 ] final   36.16 input  -57.11 | X-H torsion

> <Gold.Protein.ActiveResidues>
 VAL166  LYS551  ARG553  GLY616  TRP617  ASP618  TYR619  PRO620  LYS621  CYS622 
 ASP623  PHE694  ASN695  SER759  ASP760  ASP761  ALA762  ILE779  LEU786  VAL792 
 PHE793  MET794  SER795  GLU796  ALA797  LYS798  CYS799  TRP800  GLU811  SER814 

> <Gold.Protein.RotatedAtoms>
  150.6930  134.3978  159.5104 H   0  0  0  0  0  0  0  0  0  0  0  0  # atno 6907 bound_to 6896
  152.1756  134.8794  160.0540 H   0  0  0  0  0  0  0  0  0  0  0  0  # atno 6908 bound_to 6896
  151.9804  133.3721  159.4142 H   0  0  0  0  0  0  0  0  0  0  0  0  # atno 6909 bound_to 6896
  144.7127  140.1209  143.6405 H   0  0  0  0  0  0  0  0  0  0  0  0  # atno 7974 bound_to 7965
  155.4269  140.3449  155.4276 H   0  0  0  0  0  0  0  0  0  0  0  0  # atno 8008 bound_to 7997
  156.1360  140.1528  156.9025 H   0  0  0  0  0  0  0  0  0  0  0  0  # atno 8009 bound_to 7997
  154.4932  140.0835  156.7620 H   0  0  0  0  0  0  0  0  0  0  0  0  # atno 8010 bound_to 7997
  139.5290  144.2691  152.0643 H   0  0  0  0  0  0  0  0  0  0  0  0  # atno 10167 bound_to 10162
  157.5699  130.8900  149.9250 H   0  0  0  0  0  0  0  0  0  0  0  0  # atno 10718 bound_to 10713
  154.7105  135.3005  154.9205 H   0  0  0  0  0  0  0  0  0  0  0  0  # atno 10763 bound_to 10752
  154.0108  135.6695  153.4769 H   0  0  0  0  0  0  0  0  0  0  0  0  # atno 10764 bound_to 10752
  153.0751  135.5039  154.8300 H   0  0  0  0  0  0  0  0  0  0  0  0  # atno 10765 bound_to 10752
  140.2354  134.3478  155.7947 H   0  0  0  0  0  0  0  0  0  0  0  0  # atno 11005 bound_to 11000
  145.9371  139.2644  143.1290 LP  0  0  0  0  0  0  0  0  0  0  0  0  # atno 17320 bound_to 7965
  145.9462  140.8943  143.0282 LP  0  0  0  0  0  0  0  0  0  0  0  0  # atno 17321 bound_to 7965
  140.2152  144.4523  150.6367 LP  0  0  0  0  0  0  0  0  0  0  0  0  # atno 17342 bound_to 10162
  140.6455  143.2212  151.6196 LP  0  0  0  0  0  0  0  0  0  0  0  0  # atno 17343 bound_to 10162
  156.0745  130.3680  150.0706 LP  0  0  0  0  0  0  0  0  0  0  0  0  # atno 17370 bound_to 10713
  156.8860  130.9572  151.3594 LP  0  0  0  0  0  0  0  0  0  0  0  0  # atno 17371 bound_to 10713
  141.2215  133.7269  156.8799 LP  0  0  0  0  0  0  0  0  0  0  0  0  # atno 17394 bound_to 11000
  140.1708  134.9101  157.2830 LP  0  0  0  0  0  0  0  0  0  0  0  0  # atno 17395 bound_to 11000

$$$$
