AV-unprocessed.smi:2323|AV-procd|sdf|9290|dock2
  -GOLD-   2272012513D 1   1.00000     0.00000
 Structure written by MMmdl.
 30 31  0  0  0  0  0  0  0  0  1 V2000
  146.7197  142.0362  154.6662 C   0  0  0  0  0  0  0  0  0  0  0  0
  147.9647  141.7136  155.3460 N   0  0  0  0  0  0  0  0  0  0  0  0
  149.0788  141.2968  154.7251 C   0  0  0  0  0  0  0  0  0  0  0  0
  149.1665  141.1684  153.5035 O   0  0  0  0  0  0  0  0  0  0  0  0
  150.2652  141.0526  155.6133 C   0  0  0  0  0  0  0  0  0  0  0  0
  151.3231  140.2239  155.1802 C   0  0  0  0  0  0  0  0  0  0  0  0
  152.4072  140.0013  156.0502 C   0  0  0  0  0  0  0  0  0  0  0  0
  152.4869  140.5356  157.2863 N   0  0  0  0  0  0  0  0  0  0  0  0
  151.4690  141.3235  157.7117 C   0  0  0  0  0  0  0  0  0  0  0  0
  151.5284  141.8729  158.9773 O   0  0  0  0  0  0  0  0  0  0  0  0
  152.4997  142.8814  159.2641 C   0  0  1  0  0  0  0  0  0  0  0  0
  152.1099  144.2124  158.6329 C   0  0  0  0  0  0  0  0  0  0  0  0
  151.2406  144.8454  159.7090 C   0  0  0  0  0  0  0  0  0  0  0  0
  151.9209  144.5026  160.9038 O   0  0  0  0  0  0  0  0  0  0  0  0
  152.4403  143.1830  160.7694 C   0  0  0  0  0  0  0  0  0  0  0  0
  150.3417  141.6041  156.9132 C   0  0  0  0  0  0  0  0  0  0  0  0
  145.9751  142.3656  155.3907 H   0  0  0  0  0  0  0  0  0  0  0  0
  146.3256  141.1632  154.1446 H   0  0  0  0  0  0  0  0  0  0  0  0
  146.8685  142.8378  153.9417 H   0  0  0  0  0  0  0  0  0  0  0  0
  147.9848  141.8134  156.3507 H   0  0  0  0  0  0  0  0  0  0  0  0
  151.3116  139.7668  154.2011 H   0  0  0  0  0  0  0  0  0  0  0  0
  153.2325  139.3750  155.7454 H   0  0  0  0  0  0  0  0  0  0  0  0
  153.5051  142.5649  158.9811 H   0  0  0  0  0  0  0  0  0  0  0  0
  153.0011  144.8219  158.4780 H   0  0  0  0  0  0  0  0  0  0  0  0
  151.5975  144.1170  157.6755 H   0  0  0  0  0  0  0  0  0  0  0  0
  151.1432  145.9253  159.5950 H   0  0  0  0  0  0  0  0  0  0  0  0
  150.2425  144.4043  159.7147 H   0  0  0  0  0  0  0  0  0  0  0  0
  151.7962  142.4762  161.2946 H   0  0  0  0  0  0  0  0  0  0  0  0
  153.4284  143.1360  161.2284 H   0  0  0  0  0  0  0  0  0  0  0  0
  149.5532  142.2300  157.3052 H   0  0  0  0  0  0  0  0  0  0  0  0
  1  2  1  0  0  0  0
  1 17  1  0  0  0  0
  1 18  1  0  0  0  0
  1 19  1  0  0  0  0
  2  3  1  0  0  0  0
  2 20  1  0  0  0  0
  3  4  2  0  0  0  0
  3  5  1  0  0  0  0
  5 16  1  0  0  0  0
  5  6  2  0  0  0  0
  6  7  1  0  0  0  0
  6 21  1  0  0  0  0
  7  8  2  0  0  0  0
  7 22  1  0  0  0  0
  8  9  1  0  0  0  0
  9 10  1  0  0  0  0
  9 16  2  0  0  0  0
 10 11  1  0  0  0  0
 11 15  1  0  0  0  0
 11 12  1  0  0  0  0
 11 23  1  0  0  0  0
 12 13  1  0  0  0  0
 12 24  1  0  0  0  0
 12 25  1  0  0  0  0
 13 14  1  0  0  0  0
 13 26  1  0  0  0  0
 13 27  1  0  0  0  0
 14 15  1  0  0  0  0
 15 28  1  0  0  0  0
 15 29  1  0  0  0  0
 16 30  1  0  0  0  0
M  END
> <s_m_source_file>
AV-unprocessed.smi

> <i_m_source_file_index>
2323

> <i_lp_mmshare_version>
43012

> <i_f3d_flags>
0

> <s_epik_input>
W0NIM11bTkhdQyg9TyljMVtjSF1bY0hdbmMoW2NIXTEpT1tDQEBIXTJbQ0gyXVtDSDJdT1tDSDJdMg==

> <s_epik_cmdline>
J2VwaWtfcHl0aG9uJywgJy1waCcsICc3LjAnLCAnLXRuJywgJzgnLCAnLW1hJywgJzIwMCcsICctbWV0YWxfYmluZGluZycsICctaW1hZScsICc8aW5maWxlLm1hZT4nLCAnLW9tYWUnLCAnPG91dGZpbGUubWFlPic=

> <r_lp_tautomer_probability>
1

> <r_epik_Ionization_Penalty>
2.2633e-06

> <r_epik_Ionization_Penalty_Charging>
0

> <r_epik_Ionization_Penalty_Neutral>
2.2633e-06

> <r_epik_State_Penalty>
-0

> <r_epik_Charging_Adjusted_Penalty>
0

> <i_epik_Tot_Q>
0

> <i_epik_Tot_abs_Q>
0

> <r_epik_Metal_State_Penalty>
-0

> <b_epik_Metal_Only>
0

> <s_lp_Force_Field>
OPLS_2005

> <r_lp_Energy>
16.8838

> <b_lp_Chiralities_Consistent>
1

> <s_lp_Variant>
AV-unprocessed.smi:2323-2

> <Gold.Version>
5.8.1

> <Gold.Id.Protein>
6NUR|6NUR_protein|mol2

> <Gold.PLP.Fitness>
39.3588

> <Gold.PLP.PLP>
-36.7473

> <Gold.PLP.part.hbond>
-3.4896

> <Gold.PLP.part.metal>
0.0000

> <Gold.PLP.part.buried>
-2.6905

> <Gold.PLP.part.nonpolar>
-34.0312

> <Gold.PLP.part.repulsive>
3.8878

> <Gold.PLP.ligand.clash>
0.0000

> <Gold.PLP.ligand.torsion>
0.3226

> <Gold.PLP.Chemscore.Hbond>
1.0786

> <Gold.PLP.Chemscore.CHOScore>
0.0000

> <Gold.PLP.Chemscore.Metal>
0.0000

> <Gold.Chemscore.Hbonds>
donor molecule, donor type, donor heavy atom, donor atom, acceptor molecule, acceptor atom, score
      P1  H  8011  8017       L1     4  1.00

> <Gold.PLP.Chemscore.Internal.Correction>
0.0209

> <Gold.Rescore>
     Score         DG    S(hbond)    S(metal)    S(lipo)     H(rot)  DE(clash)    DE(int)     intcor
     12.97     -15.05       0.95        0.00      81.99       1.24       1.62       0.45       ----

> <Gold.Chemscore.Fitness>
12.9704

> <Gold.Chemscore.DG>
-15.0478

> <Gold.Chemscore.ZeroCoef>
-5.4800

> <Gold.Chemscore.Hbond>
0.9464

> <Gold.Chemscore.Metal>
0.0000

> <Gold.Chemscore.Lipo>
81.9936

> <Gold.Chemscore.Internal_Hbond>
0.0000

> <Gold.Chemscore.DEClash>
1.6244

> <Gold.Chemscore.DEInternal>
0.4530

> <Gold.Chemscore.Rot>
1.2448

> <Gold.Chemscore.Internal.Correction>
   9.000000E+99

> <Gold.Chemscore.Hbonds>
donor molecule, donor type, donor heavy atom, donor atom, acceptor molecule, acceptor atom, score
      P1  H  8011  8017       L1     4  0.95

> <Gold.Chemscore.Hbond.Weighted>
-3.1611

> <Gold.Chemscore.Metal.Weighted>
-0.0000

> <Gold.Chemscore.Lipo.Weighted>
-9.5933

> <Gold.Chemscore.Internal_Hbond.Weighted>
0.0000

> <Gold.Chemscore.DEClash.Weighted>
1.6244

> <Gold.Chemscore.DEInternal.Weighted>
0.4530

> <Gold.Chemscore.Rot.Weighted>
3.1866

> <Gold.Chemscore.Internal.Correction.Weighted>
   9.000000E+99

> <Gold.Protein.RotatedTorsions>
[ 6907 6896 6895 6894 ] final  -10.29 input  -60.11 | X-H torsion
[ 7974 7965 7964 7962 ] final  -75.90 input  175.53 | X-H torsion
[ 8008 7997 7996 7995 ] final  -70.39 input   59.86 | X-H torsion
[ 10167 10162 10161 10158 ] final -153.66 input  -65.29 | X-H torsion
[ 10718 10713 10712 10709 ] final  -61.55 input   66.30 | X-H torsion
[ 10763 10752 10751 10750 ] final  126.81 input  -60.55 | X-H torsion
[ 11005 11000 10999 10996 ] final   -3.98 input  -57.11 | X-H torsion

> <Gold.Protein.ActiveResidues>
 VAL166  LYS551  ARG553  GLY616  TRP617  ASP618  TYR619  PRO620  LYS621  CYS622 
 ASP623  PHE694  ASN695  SER759  ASP760  ASP761  ALA762  ILE779  LEU786  VAL792 
 PHE793  MET794  SER795  GLU796  ALA797  LYS798  CYS799  TRP800  GLU811  SER814 

> <Gold.Protein.RotatedAtoms>
  151.4043  135.0975  159.9565 H   0  0  0  0  0  0  0  0  0  0  0  0  # atno 6907 bound_to 6896
  152.5040  133.8858  159.7380 H   0  0  0  0  0  0  0  0  0  0  0  0  # atno 6908 bound_to 6896
  150.9339  133.6678  159.2833 H   0  0  0  0  0  0  0  0  0  0  0  0  # atno 6909 bound_to 6896
  145.6199  140.9365  143.1144 H   0  0  0  0  0  0  0  0  0  0  0  0  # atno 7974 bound_to 7965
  154.5009  140.0835  156.7795 H   0  0  0  0  0  0  0  0  0  0  0  0  # atno 8008 bound_to 7997
  155.4006  140.3437  155.4238 H   0  0  0  0  0  0  0  0  0  0  0  0  # atno 8009 bound_to 7997
  156.1455  140.1542  156.8842 H   0  0  0  0  0  0  0  0  0  0  0  0  # atno 8010 bound_to 7997
  139.7078  143.9157  152.2456 H   0  0  0  0  0  0  0  0  0  0  0  0  # atno 10167 bound_to 10162
  156.0914  130.4199  150.1010 H   0  0  0  0  0  0  0  0  0  0  0  0  # atno 10718 bound_to 10713
  153.6993  135.3286  155.3221 H   0  0  0  0  0  0  0  0  0  0  0  0  # atno 10763 bound_to 10752
  154.8417  135.4450  154.1427 H   0  0  0  0  0  0  0  0  0  0  0  0  # atno 10764 bound_to 10752
  153.2490  135.6979  153.7778 H   0  0  0  0  0  0  0  0  0  0  0  0  # atno 10765 bound_to 10752
  140.6753  133.9201  155.8520 H   0  0  0  0  0  0  0  0  0  0  0  0  # atno 11005 bound_to 11000
  144.7235  139.7951  143.7373 LP  0  0  0  0  0  0  0  0  0  0  0  0  # atno 17320 bound_to 7965
  146.1439  139.4503  143.0091 LP  0  0  0  0  0  0  0  0  0  0  0  0  # atno 17321 bound_to 7965
  139.9018  144.6907  150.8657 LP  0  0  0  0  0  0  0  0  0  0  0  0  # atno 17342 bound_to 10162
  140.7726  143.3508  151.2018 LP  0  0  0  0  0  0  0  0  0  0  0  0  # atno 17343 bound_to 10162
  156.9019  130.9623  151.3575 LP  0  0  0  0  0  0  0  0  0  0  0  0  # atno 17370 bound_to 10713
  157.6064  130.8550  149.8882 LP  0  0  0  0  0  0  0  0  0  0  0  0  # atno 17371 bound_to 10713
  141.0360  134.0689  157.3958 LP  0  0  0  0  0  0  0  0  0  0  0  0  # atno 17394 bound_to 11000
  139.8968  135.0148  156.7072 LP  0  0  0  0  0  0  0  0  0  0  0  0  # atno 17395 bound_to 11000

$$$$
