AV-unprocessed.smi:218|AV-procd|sdf|1669|dock9
  -GOLD-   2262020 83D 1   1.00000     0.00000
 Structure written by MMmdl.
 54 57  0  0  0  0  0  0  0  0  1 V2000
  152.4660  143.8151  158.5394 C   0  0  0  0  0  0  0  0  0  0  0  0
  150.9910  144.2257  158.4555 C   0  0  0  0  0  0  0  0  0  0  0  0
  150.6168  145.1925  159.5922 C   0  0  0  0  0  0  0  0  0  0  0  0
  150.2203  143.0256  158.5479 O   0  0  0  0  0  0  0  0  0  0  0  0
  150.0750  142.2071  157.4442 C   0  0  0  0  0  0  0  0  0  0  0  0
  148.7702  141.9043  157.0035 C   0  0  0  0  0  0  0  0  0  0  0  0
  148.6072  141.0644  155.8831 C   0  0  0  0  0  0  0  0  0  0  0  0
  147.2237  140.7173  155.3753 C   0  0  0  0  0  0  0  0  0  0  0  0
  147.2507  139.8033  154.2422 N   0  0  0  0  0  0  0  0  0  0  0  0
  147.1150  138.4752  154.4425 C   0  0  0  0  0  0  0  0  0  0  0  0
  147.6457  137.8746  155.5402 N   0  0  0  0  0  0  0  0  0  0  0  0
  147.4973  136.5583  155.7184 C   0  0  0  0  0  0  0  0  0  0  0  0
  146.8679  135.6772  154.9384 N   0  0  0  0  0  0  0  0  0  0  0  0
  146.3357  136.2754  153.8338 C   0  0  0  0  0  0  0  0  0  0  0  0
  146.4137  137.6597  153.5168 C   0  0  0  0  0  0  0  0  0  0  0  0
  145.7551  137.9054  152.3190 N   0  0  0  0  0  0  0  0  0  0  0  0
  145.3148  136.7310  151.9536 C   0  0  0  0  0  0  0  0  0  0  0  0
  145.6147  135.6950  152.8103 N   0  0  0  0  0  0  0  0  0  0  0  0
  145.2593  134.2473  152.6615 C   0  0  1  0  0  0  0  0  0  0  0  0
  144.3880  134.1386  151.5794 O   0  0  0  0  0  0  0  0  0  0  0  0
  144.7060  132.9644  150.8515 C   0  0  1  0  0  0  0  0  0  0  0  0
  144.1195  133.0175  149.4288 C   0  0  0  0  0  0  0  0  0  0  0  0
  143.8090  134.3349  149.0248 O   0  0  0  0  0  0  0  0  0  0  0  0
  146.2264  132.8221  150.9774 C   0  0  2  0  0  0  0  0  0  0  0  0
  146.6057  131.4652  150.8626 O   0  0  0  0  0  0  0  0  0  0  0  0
  146.4846  133.3372  152.3899 C   0  0  1  0  0  0  0  0  0  0  0  0
  147.7376  133.9927  152.4704 O   0  0  0  0  0  0  0  0  0  0  0  0
  149.7569  140.5610  155.2427 C   0  0  0  0  0  0  0  0  0  0  0  0
  151.0185  140.9181  155.7561 C   0  0  0  0  0  0  0  0  0  0  0  0
  151.1817  141.7191  156.8302 N   0  0  0  0  0  0  0  0  0  0  0  0
  144.7454  133.9919  153.5891 H   0  0  0  0  0  0  0  0  0  0  0  0
  144.2250  132.1447  151.3895 H   0  0  0  0  0  0  0  0  0  0  0  0
  146.7489  133.4331  150.2405 H   0  0  0  0  0  0  0  0  0  0  0  0
  146.4539  132.5226  153.1153 H   0  0  0  0  0  0  0  0  0  0  0  0
  153.1209  144.6840  158.4679 H   0  0  0  0  0  0  0  0  0  0  0  0
  152.7276  143.1361  157.7275 H   0  0  0  0  0  0  0  0  0  0  0  0
  152.6830  143.3083  159.4801 H   0  0  0  0  0  0  0  0  0  0  0  0
  150.8473  144.7119  157.4894 H   0  0  0  0  0  0  0  0  0  0  0  0
  151.2269  146.0952  159.5526 H   0  0  0  0  0  0  0  0  0  0  0  0
  150.7696  144.7304  160.5677 H   0  0  0  0  0  0  0  0  0  0  0  0
  149.5738  145.5024  159.5338 H   0  0  0  0  0  0  0  0  0  0  0  0
  147.9109  142.3089  157.5182 H   0  0  0  0  0  0  0  0  0  0  0  0
  146.6422  140.2743  156.1850 H   0  0  0  0  0  0  0  0  0  0  0  0
  146.7207  141.6407  155.0855 H   0  0  0  0  0  0  0  0  0  0  0  0
  147.4041  140.2197  153.3350 H   0  0  0  0  0  0  0  0  0  0  0  0
  147.9464  136.1517  156.6126 H   0  0  0  0  0  0  0  0  0  0  0  0
  144.7530  136.5880  151.0420 H   0  0  0  0  0  0  0  0  0  0  0  0
  144.8443  132.6163  148.7204 H   0  0  0  0  0  0  0  0  0  0  0  0
  143.2278  132.3942  149.3588 H   0  0  0  0  0  0  0  0  0  0  0  0
  142.9078  134.5126  149.2472 H   0  0  0  0  0  0  0  0  0  0  0  0
  147.4816  131.4309  150.5088 H   0  0  0  0  0  0  0  0  0  0  0  0
  147.6343  134.8697  152.1321 H   0  0  0  0  0  0  0  0  0  0  0  0
  149.6783  139.9177  154.3786 H   0  0  0  0  0  0  0  0  0  0  0  0
  151.9215  140.5509  155.2915 H   0  0  0  0  0  0  0  0  0  0  0  0
  1  2  1  0  0  0  0
  1 35  1  0  0  0  0
  1 36  1  0  0  0  0
  1 37  1  0  0  0  0
  2  3  1  0  0  0  0
  2  4  1  0  0  0  0
  2 38  1  0  0  0  0
  3 39  1  0  0  0  0
  3 40  1  0  0  0  0
  3 41  1  0  0  0  0
  4  5  1  0  0  0  0
  5 30  1  0  0  0  0
  5  6  2  0  0  0  0
  6  7  1  0  0  0  0
  6 42  1  0  0  0  0
  7  8  1  0  0  0  0
  7 28  2  0  0  0  0
  8  9  1  0  0  0  0
  8 43  1  0  0  0  0
  8 44  1  0  0  0  0
  9 10  1  0  0  0  0
  9 45  1  0  0  0  0
 10 15  1  0  0  0  0
 10 11  2  0  0  0  0
 11 12  1  0  0  0  0
 12 13  2  0  0  0  0
 12 46  1  0  0  0  0
 13 14  1  0  0  0  0
 14 18  1  0  0  0  0
 14 15  2  0  0  0  0
 15 16  1  0  0  0  0
 16 17  2  0  0  0  0
 17 18  1  0  0  0  0
 17 47  1  0  0  0  0
 18 19  1  0  0  0  0
 19 31  1  0  0  0  0
 19 26  1  0  0  0  0
 19 20  1  0  0  0  0
 20 21  1  0  0  0  0
 21 32  1  0  0  0  0
 21 22  1  0  0  0  0
 21 24  1  0  0  0  0
 22 23  1  0  0  0  0
 22 48  1  0  0  0  0
 22 49  1  0  0  0  0
 23 50  1  0  0  0  0
 24 33  1  0  0  0  0
 24 25  1  0  0  0  0
 24 26  1  0  0  0  0
 25 51  1  0  0  0  0
 26 34  1  0  0  0  0
 26 27  1  0  0  0  0
 27 52  1  0  0  0  0
 28 29  1  0  0  0  0
 28 53  1  0  0  0  0
 29 30  2  0  0  0  0
 29 54  1  0  0  0  0
M  END
> <s_m_source_file>
AV-unprocessed.smi

> <i_m_source_file_index>
218

> <i_lp_mmshare_version>
43012

> <i_f3d_flags>
0

> <s_epik_input>
W0NIM11bQ0hdKFtDSDNdKU9jMVtjSF1jKFtjSF1bY0hdbjEpW0NIMl1bTkhdYyhuW2NIXW4yKWMoYzIzKW5bY0hdbjNbQ0BASF00T1tDQEhdKFtDSDJdW09IXSlbQ0BASF0oW09IXSlbQ0BIXTRbT0hd

> <s_epik_cmdline>
J2VwaWtfcHl0aG9uJywgJy1waCcsICc3LjAnLCAnLXRuJywgJzgnLCAnLW1hJywgJzIwMCcsICctbWV0YWxfYmluZGluZycsICctaW1hZScsICc8aW5maWxlLm1hZT4nLCAnLW9tYWUnLCAnPG91dGZpbGUubWFlPic=

> <r_lp_tautomer_probability>
1

> <r_epik_Ionization_Penalty>
0.00457014

> <r_epik_Ionization_Penalty_Charging>
0

> <r_epik_Ionization_Penalty_Neutral>
0.00457014

> <r_epik_State_Penalty>
-0

> <r_epik_Charging_Adjusted_Penalty>
0

> <i_epik_Tot_Q>
0

> <i_epik_Tot_abs_Q>
0

> <r_epik_Metal_State_Penalty>
-0

> <b_epik_Metal_Only>
0

> <s_epik_Chemistry_Notes>
This compound contains an acetal/aminal-like group ( X-CH(R)-Y where X, Y are N, S, or O) that may be acid/base labile, releasing an aldehyde.

> <s_lp_Force_Field>
OPLS_2005

> <r_lp_Energy>
42.4644

> <b_lp_Chiralities_Consistent>
1

> <s_lp_Variant>
AV-unprocessed.smi:218-8

> <Gold.Version>
5.8.1

> <Gold.Id.Protein>
6NUR|6NUR_protein|mol2

> <Gold.PLP.Fitness>
49.6660

> <Gold.PLP.PLP>
-41.5489

> <Gold.PLP.part.hbond>
-4.0000

> <Gold.PLP.part.metal>
0.0000

> <Gold.PLP.part.buried>
-6.7807

> <Gold.PLP.part.nonpolar>
-31.2910

> <Gold.PLP.part.repulsive>
0.6441

> <Gold.PLP.ligand.clash>
0.0000

> <Gold.PLP.ligand.torsion>
1.3259

> <Gold.PLP.Chemscore.Hbond>
2.7200

> <Gold.PLP.Chemscore.CHOScore>
0.8315

> <Gold.PLP.Chemscore.Metal>
0.0000

> <Gold.Chemscore.Hbonds>
donor molecule, donor type, donor heavy atom, donor atom, acceptor molecule, acceptor atom, score
      L1  H    23    50       P1 10186  1.00
      L1  H    25    51       P1 10747  1.00
      L1  H    27    52       P1  7948  0.58
      L1  C    17    47       P1 10171  0.80

> <Gold.PLP.Chemscore.Internal.Correction>
0.1143

> <Gold.Rescore>
     Score         DG    S(hbond)    S(metal)    S(lipo)     H(rot)  DE(clash)    DE(int)     intcor
      9.89     -12.44       2.53        0.00      94.58       4.90       0.08       2.48       ----

> <Gold.Chemscore.Fitness>
9.8881

> <Gold.Chemscore.DG>
-12.4439

> <Gold.Chemscore.ZeroCoef>
-5.4800

> <Gold.Chemscore.Hbond>
2.5297

> <Gold.Chemscore.Metal>
0.0000

> <Gold.Chemscore.Lipo>
94.5832

> <Gold.Chemscore.Internal_Hbond>
0.0000

> <Gold.Chemscore.DEClash>
0.0800

> <Gold.Chemscore.DEInternal>
2.4758

> <Gold.Chemscore.Rot>
4.9029

> <Gold.Chemscore.Internal.Correction>
   9.000000E+99

> <Gold.Chemscore.Hbonds>
donor molecule, donor type, donor heavy atom, donor atom, acceptor molecule, acceptor atom, score
      L1  H    23    50       P1 10186  0.99
      L1  H    25    51       P1 10747  0.98
      L1  H    27    52       P1  7948  0.48

> <Gold.Chemscore.Hbond.Weighted>
-8.4492

> <Gold.Chemscore.Metal.Weighted>
-0.0000

> <Gold.Chemscore.Lipo.Weighted>
-11.0662

> <Gold.Chemscore.Internal_Hbond.Weighted>
0.0000

> <Gold.Chemscore.DEClash.Weighted>
0.0800

> <Gold.Chemscore.DEInternal.Weighted>
2.4758

> <Gold.Chemscore.Rot.Weighted>
12.5515

> <Gold.Chemscore.Internal.Correction.Weighted>
   9.000000E+99

> <Gold.Protein.RotatedTorsions>
[ 6907 6896 6895 6894 ] final  -26.29 input  -60.11 | X-H torsion
[ 7974 7965 7964 7962 ] final   36.16 input  175.53 | X-H torsion
[ 8008 7997 7996 7995 ] final   51.88 input   59.86 | X-H torsion
[ 10167 10162 10161 10158 ] final  149.23 input  -65.29 | X-H torsion
[ 10718 10713 10712 10709 ] final  -83.04 input   66.30 | X-H torsion
[ 10763 10752 10751 10750 ] final  110.70 input  -60.55 | X-H torsion
[ 11005 11000 10999 10996 ] final  179.23 input  -57.11 | X-H torsion

> <Gold.Protein.ActiveResidues>
 VAL166  LYS551  ARG553  GLY616  TRP617  ASP618  TYR619  PRO620  LYS621  CYS622 
 ASP623  PHE694  ASN695  SER759  ASP760  ASP761  ALA762  ILE779  LEU786  VAL792 
 PHE793  MET794  SER795  GLU796  ALA797  LYS798  CYS799  TRP800  GLU811  SER814 

> <Gold.Protein.RotatedAtoms>
  151.1631  135.0283  159.8718 H   0  0  0  0  0  0  0  0  0  0  0  0  # atno 6907 bound_to 6896
  152.5451  134.1256  159.8427 H   0  0  0  0  0  0  0  0  0  0  0  0  # atno 6908 bound_to 6896
  151.1354  133.4962  159.2630 H   0  0  0  0  0  0  0  0  0  0  0  0  # atno 6909 bound_to 6896
  146.1231  139.6052  142.9276 H   0  0  0  0  0  0  0  0  0  0  0  0  # atno 7974 bound_to 7965
  155.4426  140.3455  155.4291 H   0  0  0  0  0  0  0  0  0  0  0  0  # atno 8008 bound_to 7997
  156.1270  140.1503  156.9152 H   0  0  0  0  0  0  0  0  0  0  0  0  # atno 8009 bound_to 7997
  154.4865  140.0854  156.7478 H   0  0  0  0  0  0  0  0  0  0  0  0  # atno 8010 bound_to 7997
  139.4864  144.5618  151.7217 H   0  0  0  0  0  0  0  0  0  0  0  0  # atno 10167 bound_to 10162
  156.0024  130.4653  150.4197 H   0  0  0  0  0  0  0  0  0  0  0  0  # atno 10718 bound_to 10713
  153.4527  135.3740  155.2293 H   0  0  0  0  0  0  0  0  0  0  0  0  # atno 10763 bound_to 10752
  154.8756  135.3889  154.4019 H   0  0  0  0  0  0  0  0  0  0  0  0  # atno 10764 bound_to 10752
  153.4581  135.7086  153.6131 H   0  0  0  0  0  0  0  0  0  0  0  0  # atno 10765 bound_to 10752
  140.4039  134.6753  157.4577 H   0  0  0  0  0  0  0  0  0  0  0  0  # atno 11005 bound_to 11000
  145.5423  141.0420  143.2324 LP  0  0  0  0  0  0  0  0  0  0  0  0  # atno 17320 bound_to 7965
  144.7616  139.6943  143.7232 LP  0  0  0  0  0  0  0  0  0  0  0  0  # atno 17321 bound_to 7965
  140.5189  144.0909  150.6016 LP  0  0  0  0  0  0  0  0  0  0  0  0  # atno 17342 bound_to 10162
  140.3861  143.2777  152.0115 LP  0  0  0  0  0  0  0  0  0  0  0  0  # atno 17343 bound_to 10162
  157.2254  131.0492  151.2523 LP  0  0  0  0  0  0  0  0  0  0  0  0  # atno 17370 bound_to 10713
  157.3761  130.7206  149.6598 LP  0  0  0  0  0  0  0  0  0  0  0  0  # atno 17371 bound_to 10713
  140.0316  134.6397  155.9098 LP  0  0  0  0  0  0  0  0  0  0  0  0  # atno 17394 bound_to 11000
  141.1846  133.6553  156.5166 LP  0  0  0  0  0  0  0  0  0  0  0  0  # atno 17395 bound_to 11000

$$$$
