AV-unprocessed.smi:703|AV-procd|sdf|3441|dock5
  -GOLD-   22720 0423D 1   1.00000     0.00000
 Structure written by MMmdl.
 37 38  0  0  0  0  0  0  0  0  3 V2000
  149.3463  133.9537  154.3646 C   0  0  0  0  0  0  0  0  0  0  0  0
  150.2736  135.0321  154.9415 C   0  0  0  0  0  0  0  0  0  0  0  0
  149.9307  136.3897  154.4511 N   0  3  2  0  0  0  0  0  0  0  0  0
  150.9930  137.4058  154.6442 C   0  0  0  0  0  0  0  0  0  0  0  0
  150.2567  138.7214  154.9167 C   0  0  2  0  0  0  0  0  0  0  0  0
  151.1324  139.8293  155.5378 C   0  0  0  0  0  0  0  0  0  0  0  0
  148.9996  138.2726  155.6881 C   0  0  2  0  0  0  0  0  0  0  0  0
  149.2967  138.0233  157.0940 N   0  5  0  0  0  0  0  0  0  0  0  0
  148.1181  137.5405  158.0990 S   0  0  0  0  0  0  0  0  0  0  0  0
  147.4470  138.6628  158.7747 O   0  0  0  0  0  0  0  0  0  0  0  0
  147.2593  136.5164  157.4834 O   0  0  0  0  0  0  0  0  0  0  0  0
  149.1047  136.6668  159.3924 C   0  0  0  0  0  0  0  0  0  0  0  0
  148.2134  136.2044  160.5129 C   0  0  0  0  0  0  0  0  0  0  0  0
  147.9027  134.8705  160.8990 C   0  0  0  0  0  0  0  0  0  0  0  0
  147.0655  135.0329  161.9642 C   0  0  0  0  0  0  0  0  0  0  0  0
  146.8620  136.3512  162.2118 O   0  0  0  0  0  0  0  0  0  0  0  0
  147.5949  137.0914  161.2771 N   0  0  0  0  0  0  0  0  0  0  0  0
  148.6648  136.9361  155.0064 C   0  0  0  0  0  0  0  0  0  0  0  0
  149.5856  132.9766  154.7845 H   0  0  0  0  0  0  0  0  0  0  0  0
  149.4428  133.8758  153.2815 H   0  0  0  0  0  0  0  0  0  0  0  0
  148.3022  134.1668  154.5952 H   0  0  0  0  0  0  0  0  0  0  0  0
  150.1855  135.0210  156.0287 H   0  0  0  0  0  0  0  0  0  0  0  0
  151.3152  134.8050  154.7083 H   0  0  0  0  0  0  0  0  0  0  0  0
  151.6304  137.1391  155.4918 H   0  0  0  0  0  0  0  0  0  0  0  0
  151.6344  137.4701  153.7647 H   0  0  0  0  0  0  0  0  0  0  0  0
  149.9112  139.0987  153.9528 H   0  0  0  0  0  0  0  0  0  0  0  0
  151.5645  139.5338  156.4953 H   0  0  0  0  0  0  0  0  0  0  0  0
  150.5681  140.7499  155.6946 H   0  0  0  0  0  0  0  0  0  0  0  0
  151.9631  140.0728  154.8754 H   0  0  0  0  0  0  0  0  0  0  0  0
  148.1824  138.9823  155.5546 H   0  0  0  0  0  0  0  0  0  0  0  0
  149.5993  135.8204  158.9156 H   0  0  0  0  0  0  0  0  0  0  0  0
  149.8826  137.3397  159.7515 H   0  0  0  0  0  0  0  0  0  0  0  0
  148.2506  133.9437  160.4679 H   0  0  0  0  0  0  0  0  0  0  0  0
  146.5550  134.3420  162.6188 H   0  0  0  0  0  0  0  0  0  0  0  0
  147.9933  137.1149  154.1660 H   0  0  0  0  0  0  0  0  0  0  0  0
  148.1525  136.2386  155.6722 H   0  0  0  0  0  0  0  0  0  0  0  0
  149.7790  136.3122  153.4559 H   0  0  0  0  0  0  0  0  0  0  0  0
  1  2  1  0  0  0  0
  1 19  1  0  0  0  0
  1 20  1  0  0  0  0
  1 21  1  0  0  0  0
  2  3  1  0  0  0  0
  2 22  1  0  0  0  0
  2 23  1  0  0  0  0
  3 18  1  0  0  0  0
  3  4  1  0  0  0  0
  3 37  1  0  0  0  0
  4  5  1  0  0  0  0
  4 24  1  0  0  0  0
  4 25  1  0  0  0  0
  5  6  1  0  0  0  0
  5  7  1  0  0  0  0
  5 26  1  0  0  0  0
  6 27  1  0  0  0  0
  6 28  1  0  0  0  0
  6 29  1  0  0  0  0
  7  8  1  0  0  0  0
  7 18  1  0  0  0  0
  7 30  1  0  0  0  0
  8  9  1  0  0  0  0
  9 10  2  0  0  0  0
  9 11  2  0  0  0  0
  9 12  1  0  0  0  0
 12 13  1  0  0  0  0
 12 31  1  0  0  0  0
 12 32  1  0  0  0  0
 13 17  2  0  0  0  0
 13 14  1  0  0  0  0
 14 15  2  0  0  0  0
 14 33  1  0  0  0  0
 15 16  1  0  0  0  0
 15 34  1  0  0  0  0
 16 17  1  0  0  0  0
 18 35  1  0  0  0  0
 18 36  1  0  0  0  0
M  CHG  1   3   1
M  CHG  1   8  -1
M  END
> <s_m_source_file>
AV-unprocessed.smi

> <i_m_source_file_index>
703

> <i_lp_mmshare_version>
43012

> <i_f3d_flags>
0

> <s_epik_input>
W0NIM11bQ0gyXU4xW0NIMl1bQ0BASF0oW0NIM10pW0NASF0oW0NIMl0xKVtOSF1TKD1PKSg9TylbQ0gyXWMyW2NIXVtjSF1vbjI=

> <s_epik_cmdline>
J2VwaWtfcHl0aG9uJywgJy1waCcsICc3LjAnLCAnLXRuJywgJzgnLCAnLW1hJywgJzIwMCcsICctbWV0YWxfYmluZGluZycsICctaW1hZScsICc8aW5maWxlLm1hZT4nLCAnLW9tYWUnLCAnPG91dGZpbGUubWFlPic=

> <r_epik_Ionization_Penalty>
3.62494

> <r_epik_Ionization_Penalty_Charging>
3.62494

> <r_epik_Ionization_Penalty_Neutral>
2.0321e-10

> <r_epik_State_Penalty>
3.62558

> <r_epik_Charging_Adjusted_Penalty>
7.25052

> <i_epik_Tot_Q>
0

> <i_epik_Tot_abs_Q>
2

> <r_epik_Metal_State_Penalty>
0.530836

> <b_epik_Metal_Only>
1

> <s_lp_Force_Field>
OPLS_2005

> <r_lp_Energy>
19.3254

> <b_lp_Chiralities_Consistent>
1

> <s_lp_Variant>
AV-unprocessed.smi:703-16

> <Gold.Version>
5.8.1

> <Gold.Id.Protein>
6NUR|6NUR_protein|mol2

> <Gold.PLP.Fitness>
39.1197

> <Gold.PLP.PLP>
-28.1910

> <Gold.PLP.part.hbond>
-4.2573

> <Gold.PLP.part.metal>
0.0000

> <Gold.PLP.part.buried>
-3.4487

> <Gold.PLP.part.nonpolar>
-20.5967

> <Gold.PLP.part.repulsive>
0.0462

> <Gold.PLP.ligand.clash>
0.0000

> <Gold.PLP.ligand.torsion>
0.8173

> <Gold.PLP.Chemscore.Hbond>
3.8400

> <Gold.PLP.Chemscore.CHOScore>
0.0000

> <Gold.PLP.Chemscore.Metal>
0.0000

> <Gold.Chemscore.Hbonds>
donor molecule, donor type, donor heavy atom, donor atom, acceptor molecule, acceptor atom, score
      L1  H     3    37       P1  7948  1.90
      P1  H  6931  6943       L1    17  0.98
      P1  H  6934  6947       L1    17  0.90

> <Gold.PLP.Chemscore.Internal.Correction>
1.0432

> <Gold.Rescore>
     Score         DG    S(hbond)    S(metal)    S(lipo)     H(rot)  DE(clash)    DE(int)     intcor
     14.07     -16.32       2.50        0.00      56.95       1.63       0.00       2.24       ----

> <Gold.Chemscore.Fitness>
14.0725

> <Gold.Chemscore.DG>
-16.3222

> <Gold.Chemscore.ZeroCoef>
-5.4800

> <Gold.Chemscore.Hbond>
2.5036

> <Gold.Chemscore.Metal>
0.0000

> <Gold.Chemscore.Lipo>
56.9476

> <Gold.Chemscore.Internal_Hbond>
0.0000

> <Gold.Chemscore.DEClash>
0.0048

> <Gold.Chemscore.DEInternal>
2.2449

> <Gold.Chemscore.Rot>
1.6338

> <Gold.Chemscore.Internal.Correction>
   9.000000E+99

> <Gold.Chemscore.Hbonds>
donor molecule, donor type, donor heavy atom, donor atom, acceptor molecule, acceptor atom, score
      L1  H     3    37       P1  7948  0.22
      P1  H  6931  6943       L1    17  0.40
      P1  H  6934  6947       L1    17  0.83

> <Gold.Chemscore.Hbond.Weighted>
-8.3619

> <Gold.Chemscore.Metal.Weighted>
-0.0000

> <Gold.Chemscore.Lipo.Weighted>
-6.6629

> <Gold.Chemscore.Internal_Hbond.Weighted>
0.0000

> <Gold.Chemscore.DEClash.Weighted>
0.0048

> <Gold.Chemscore.DEInternal.Weighted>
2.2449

> <Gold.Chemscore.Rot.Weighted>
4.1825

> <Gold.Chemscore.Internal.Correction.Weighted>
   9.000000E+99

> <Gold.Protein.RotatedTorsions>
[ 6907 6896 6895 6894 ] final  108.91 input  -60.11 | X-H torsion
[ 7974 7965 7964 7962 ] final  176.56 input  175.53 | X-H torsion
[ 8008 7997 7996 7995 ] final -175.29 input   59.86 | X-H torsion
[ 10167 10162 10161 10158 ] final -164.81 input  -65.29 | X-H torsion
[ 10718 10713 10712 10709 ] final  168.31 input   66.30 | X-H torsion
[ 10763 10752 10751 10750 ] final  103.13 input  -60.55 | X-H torsion
[ 11005 11000 10999 10996 ] final  -80.66 input  -57.11 | X-H torsion

> <Gold.Protein.ActiveResidues>
 VAL166  LYS551  ARG553  GLY616  TRP617  ASP618  TYR619  PRO620  LYS621  CYS622 
 ASP623  PHE694  ASN695  SER759  ASP760  ASP761  ALA762  ILE779  LEU786  VAL792 
 PHE793  MET794  SER795  GLU796  ALA797  LYS798  CYS799  TRP800  GLU811  SER814 

> <Gold.Protein.RotatedAtoms>
  152.5091  133.9020  159.7445 H   0  0  0  0  0  0  0  0  0  0  0  0  # atno 6907 bound_to 6896
  150.9434  133.6622  159.2793 H   0  0  0  0  0  0  0  0  0  0  0  0  # atno 6908 bound_to 6896
  151.3926  135.0963  159.9583 H   0  0  0  0  0  0  0  0  0  0  0  0  # atno 6909 bound_to 6896
  144.7182  140.0115  143.6440 H   0  0  0  0  0  0  0  0  0  0  0  0  # atno 7974 bound_to 7965
  155.9807  140.1181  157.0729 H   0  0  0  0  0  0  0  0  0  0  0  0  # atno 8008 bound_to 7997
  154.4182  140.1145  156.5499 H   0  0  0  0  0  0  0  0  0  0  0  0  # atno 8009 bound_to 7997
  155.6475  140.3473  155.4738 H   0  0  0  0  0  0  0  0  0  0  0  0  # atno 8010 bound_to 7997
  139.6225  144.0597  152.1945 H   0  0  0  0  0  0  0  0  0  0  0  0  # atno 10167 bound_to 10162
  157.0389  131.0281  151.2720 H   0  0  0  0  0  0  0  0  0  0  0  0  # atno 10718 bound_to 10713
  153.3486  135.3987  155.1628 H   0  0  0  0  0  0  0  0  0  0  0  0  # atno 10763 bound_to 10752
  154.8658  135.3651  154.5251 H   0  0  0  0  0  0  0  0  0  0  0  0  # atno 10764 bound_to 10752
  153.5701  135.7079  153.5568 H   0  0  0  0  0  0  0  0  0  0  0  0  # atno 10765 bound_to 10752
  141.1667  133.7160  156.8306 H   0  0  0  0  0  0  0  0  0  0  0  0  # atno 11005 bound_to 11000
  146.0254  139.3288  143.0787 LP  0  0  0  0  0  0  0  0  0  0  0  0  # atno 17320 bound_to 7965
  145.8517  140.9525  143.0746 LP  0  0  0  0  0  0  0  0  0  0  0  0  # atno 17321 bound_to 7965
  140.0243  144.6130  150.7541 LP  0  0  0  0  0  0  0  0  0  0  0  0  # atno 17342 bound_to 10162
  140.7390  143.2786  151.3666 LP  0  0  0  0  0  0  0  0  0  0  0  0  # atno 17343 bound_to 10162
  157.5120  130.7944  149.7715 LP  0  0  0  0  0  0  0  0  0  0  0  0  # atno 17370 bound_to 10713
  156.0044  130.3863  150.2483 LP  0  0  0  0  0  0  0  0  0  0  0  0  # atno 17371 bound_to 10713
  140.2054  134.8866  157.3216 LP  0  0  0  0  0  0  0  0  0  0  0  0  # atno 17394 bound_to 11000
  140.2143  134.4101  155.7597 LP  0  0  0  0  0  0  0  0  0  0  0  0  # atno 17395 bound_to 11000

$$$$
