AV-unprocessed.smi:2314|AV-procd|sdf|9267|dock3
  -GOLD-   2272012493D 1   1.00000     0.00000
 Structure written by MMmdl.
 37 38  0  0  0  0  0  0  0  0  1 V2000
  146.0179  132.5734  150.4032 C   0  0  0  0  0  0  0  0  0  0  0  0
  145.0257  133.0497  151.4794 C   0  0  0  0  0  0  0  0  0  0  0  0
  143.5715  132.7327  151.0969 C   0  0  0  0  0  0  0  0  0  0  0  0
  145.1703  134.4786  151.7921 N   0  0  0  0  0  0  0  0  0  0  0  0
  145.0150  135.5172  150.7862 C   0  0  0  0  0  0  0  0  0  0  0  0
  144.9919  136.8299  151.5754 C   0  0  0  0  0  0  0  0  0  0  0  0
  145.5330  136.5114  152.9786 C   0  0  2  0  0  0  0  0  0  0  0  0
  146.9196  136.9586  153.0901 N   0  0  0  0  0  0  0  0  0  0  0  0
  147.3398  137.9992  153.8241 C   0  0  0  0  0  0  0  0  0  0  0  0
  146.5850  138.7367  154.4579 O   0  0  0  0  0  0  0  0  0  0  0  0
  148.6742  138.1369  153.7588 N   0  0  0  0  0  0  0  0  0  0  0  0
  149.4647  139.1147  154.4155 C   0  0  0  0  0  0  0  0  0  0  0  0
  148.8710  140.3575  154.7186 C   0  0  0  0  0  0  0  0  0  0  0  0
  149.6531  141.3452  155.3500 C   0  0  0  0  0  0  0  0  0  0  0  0
  150.9529  141.1707  155.6695 N   0  0  0  0  0  0  0  0  0  0  0  0
  151.5259  139.9894  155.3542 C   0  0  0  0  0  0  0  0  0  0  0  0
  150.8364  138.9352  154.7213 C   0  0  0  0  0  0  0  0  0  0  0  0
  151.4995  137.8002  154.3938 F   0  0  0  0  0  0  0  0  0  0  0  0
  145.4776  134.9847  152.9944 C   0  0  0  0  0  0  0  0  0  0  0  0
  145.6792  134.3299  154.0168 O   0  0  0  0  0  0  0  0  0  0  0  0
  145.9445  131.4949  150.2602 H   0  0  0  0  0  0  0  0  0  0  0  0
  147.0464  132.7936  150.6904 H   0  0  0  0  0  0  0  0  0  0  0  0
  145.8281  133.0424  149.4374 H   0  0  0  0  0  0  0  0  0  0  0  0
  145.2586  132.4851  152.3840 H   0  0  0  0  0  0  0  0  0  0  0  0
  143.4407  131.6678  150.9028 H   0  0  0  0  0  0  0  0  0  0  0  0
  143.2710  133.2741  150.1996 H   0  0  0  0  0  0  0  0  0  0  0  0
  142.8829  133.0059  151.8975 H   0  0  0  0  0  0  0  0  0  0  0  0
  145.8660  135.4961  150.1039 H   0  0  0  0  0  0  0  0  0  0  0  0
  144.1021  135.3817  150.2049 H   0  0  0  0  0  0  0  0  0  0  0  0
  145.5467  137.6211  151.0687 H   0  0  0  0  0  0  0  0  0  0  0  0
  143.9609  137.1759  151.6626 H   0  0  0  0  0  0  0  0  0  0  0  0
  144.9003  136.9412  153.7572 H   0  0  0  0  0  0  0  0  0  0  0  0
  147.6118  136.4140  152.5968 H   0  0  0  0  0  0  0  0  0  0  0  0
  149.1593  137.5466  153.0993 H   0  0  0  0  0  0  0  0  0  0  0  0
  147.8348  140.5511  154.4830 H   0  0  0  0  0  0  0  0  0  0  0  0
  149.2229  142.3029  155.6027 H   0  0  0  0  0  0  0  0  0  0  0  0
  152.5722  139.8860  155.6007 H   0  0  0  0  0  0  0  0  0  0  0  0
  1  2  1  0  0  0  0
  1 21  1  0  0  0  0
  1 22  1  0  0  0  0
  1 23  1  0  0  0  0
  2  3  1  0  0  0  0
  2  4  1  0  0  0  0
  2 24  1  0  0  0  0
  3 25  1  0  0  0  0
  3 26  1  0  0  0  0
  3 27  1  0  0  0  0
  4 19  1  0  0  0  0
  4  5  1  0  0  0  0
  5  6  1  0  0  0  0
  5 28  1  0  0  0  0
  5 29  1  0  0  0  0
  6  7  1  0  0  0  0
  6 30  1  0  0  0  0
  6 31  1  0  0  0  0
  7  8  1  0  0  0  0
  7 19  1  0  0  0  0
  7 32  1  0  0  0  0
  8  9  1  0  0  0  0
  8 33  1  0  0  0  0
  9 10  2  0  0  0  0
  9 11  1  0  0  0  0
 11 12  1  0  0  0  0
 11 34  1  0  0  0  0
 12 17  1  0  0  0  0
 12 13  2  0  0  0  0
 13 14  1  0  0  0  0
 13 35  1  0  0  0  0
 14 15  2  0  0  0  0
 14 36  1  0  0  0  0
 15 16  1  0  0  0  0
 16 17  2  0  0  0  0
 16 37  1  0  0  0  0
 17 18  1  0  0  0  0
 19 20  2  0  0  0  0
M  END
> <s_m_source_file>
AV-unprocessed.smi

> <i_m_source_file_index>
2314

> <i_lp_mmshare_version>
43012

> <i_f3d_flags>
0

> <s_epik_input>
W0NIM11bQ0hdKFtDSDNdKU4xW0NIMl1bQ0gyXVtDQEhdKEMxPU8pW05IXUMoPU8pW05IXWMyW2NIXVtjSF1uW2NIXWMyRg==

> <s_epik_cmdline>
J2VwaWtfcHl0aG9uJywgJy1waCcsICc3LjAnLCAnLXRuJywgJzgnLCAnLW1hJywgJzIwMCcsICctbWV0YWxfYmluZGluZycsICctaW1hZScsICc8aW5maWxlLm1hZT4nLCAnLW9tYWUnLCAnPG91dGZpbGUubWFlPic=

> <r_epik_Ionization_Penalty>
0.00267735

> <r_epik_Ionization_Penalty_Charging>
0

> <r_epik_Ionization_Penalty_Neutral>
0.00267735

> <r_epik_State_Penalty>
0.00184148

> <r_epik_Charging_Adjusted_Penalty>
0.00184148

> <i_epik_Tot_Q>
0

> <i_epik_Tot_abs_Q>
0

> <r_epik_Metal_State_Penalty>
-0

> <b_epik_Metal_Only>
0

> <s_lp_Force_Field>
OPLS_2005

> <r_lp_Energy>
28.4638

> <b_lp_Chiralities_Consistent>
1

> <s_lp_Variant>
AV-unprocessed.smi:2314-2

> <Gold.Version>
5.8.1

> <Gold.Id.Protein>
6NUR|6NUR_protein|mol2

> <Gold.PLP.Fitness>
41.1511

> <Gold.PLP.PLP>
-32.9145

> <Gold.PLP.part.hbond>
-2.8272

> <Gold.PLP.part.metal>
0.0000

> <Gold.PLP.part.buried>
0.5931

> <Gold.PLP.part.nonpolar>
-31.7966

> <Gold.PLP.part.repulsive>
0.2878

> <Gold.PLP.ligand.clash>
0.0000

> <Gold.PLP.ligand.torsion>
0.3761

> <Gold.PLP.Chemscore.Hbond>
1.9280

> <Gold.PLP.Chemscore.CHOScore>
1.0000

> <Gold.PLP.Chemscore.Metal>
0.0000

> <Gold.Chemscore.Hbonds>
donor molecule, donor type, donor heavy atom, donor atom, acceptor molecule, acceptor atom, score
      L1  H     8    33       P1  7948  1.00
      L1  H    11    34       P1  7948  0.93
      L1  C    14    36       P1  8028  1.00

> <Gold.PLP.Chemscore.Internal.Correction>
0.2047

> <Gold.Rescore>
     Score         DG    S(hbond)    S(metal)    S(lipo)     H(rot)  DE(clash)    DE(int)     intcor
     14.60     -16.29       1.92        0.00      65.29       1.26       0.03       1.66       ----

> <Gold.Chemscore.Fitness>
14.5950

> <Gold.Chemscore.DG>
-16.2880

> <Gold.Chemscore.ZeroCoef>
-5.4800

> <Gold.Chemscore.Hbond>
1.9165

> <Gold.Chemscore.Metal>
0.0000

> <Gold.Chemscore.Lipo>
65.2921

> <Gold.Chemscore.Internal_Hbond>
0.0000

> <Gold.Chemscore.DEClash>
0.0291

> <Gold.Chemscore.DEInternal>
1.6639

> <Gold.Chemscore.Rot>
1.2626

> <Gold.Chemscore.Internal.Correction>
   9.000000E+99

> <Gold.Chemscore.Hbonds>
donor molecule, donor type, donor heavy atom, donor atom, acceptor molecule, acceptor atom, score
      L1  H     8    33       P1  7948  0.91
      L1  H    11    34       P1  7948  0.89

> <Gold.Chemscore.Hbond.Weighted>
-6.4010

> <Gold.Chemscore.Metal.Weighted>
-0.0000

> <Gold.Chemscore.Lipo.Weighted>
-7.6392

> <Gold.Chemscore.Internal_Hbond.Weighted>
0.0000

> <Gold.Chemscore.DEClash.Weighted>
0.0291

> <Gold.Chemscore.DEInternal.Weighted>
1.6639

> <Gold.Chemscore.Rot.Weighted>
3.2322

> <Gold.Chemscore.Internal.Correction.Weighted>
   9.000000E+99

> <Gold.Protein.RotatedTorsions>
[ 6907 6896 6895 6894 ] final   46.76 input  -60.11 | X-H torsion
[ 7974 7965 7964 7962 ] final   62.27 input  175.53 | X-H torsion
[ 8008 7997 7996 7995 ] final  170.08 input   59.86 | X-H torsion
[ 10167 10162 10161 10158 ] final -107.99 input  -65.29 | X-H torsion
[ 10718 10713 10712 10709 ] final   86.39 input   66.30 | X-H torsion
[ 10763 10752 10751 10750 ] final  152.07 input  -60.55 | X-H torsion
[ 11005 11000 10999 10996 ] final  126.65 input  -57.11 | X-H torsion

> <Gold.Protein.ActiveResidues>
 VAL166  LYS551  ARG553  GLY616  TRP617  ASP618  TYR619  PRO620  LYS621  CYS622 
 ASP623  PHE694  ASN695  SER759  ASP760  ASP761  ALA762  ILE779  LEU786  VAL792 
 PHE793  MET794  SER795  GLU796  ALA797  LYS798  CYS799  TRP800  GLU811  SER814 

> <Gold.Protein.RotatedAtoms>
  152.2602  134.8042  160.0431 H   0  0  0  0  0  0  0  0  0  0  0  0  # atno 6907 bound_to 6896
  151.8691  133.3467  159.3737 H   0  0  0  0  0  0  0  0  0  0  0  0  # atno 6908 bound_to 6896
  150.7114  134.5057  159.5627 H   0  0  0  0  0  0  0  0  0  0  0  0  # atno 6909 bound_to 6896
  145.8753  139.3406  143.0738 H   0  0  0  0  0  0  0  0  0  0  0  0  # atno 7974 bound_to 7965
  156.1399  140.1547  156.8937 H   0  0  0  0  0  0  0  0  0  0  0  0  # atno 8008 bound_to 7997
  154.4978  140.0833  156.7773 H   0  0  0  0  0  0  0  0  0  0  0  0  # atno 8009 bound_to 7997
  155.4099  140.3418  155.4265 H   0  0  0  0  0  0  0  0  0  0  0  0  # atno 8010 bound_to 7997
  140.1709  143.4043  152.1355 H   0  0  0  0  0  0  0  0  0  0  0  0  # atno 10167 bound_to 10162
  157.6928  131.0213  150.2965 H   0  0  0  0  0  0  0  0  0  0  0  0  # atno 10718 bound_to 10713
  154.1140  135.2837  155.3224 H   0  0  0  0  0  0  0  0  0  0  0  0  # atno 10763 bound_to 10752
  154.6469  135.5382  153.7859 H   0  0  0  0  0  0  0  0  0  0  0  0  # atno 10764 bound_to 10752
  153.0335  135.6500  154.1298 H   0  0  0  0  0  0  0  0  0  0  0  0  # atno 10765 bound_to 10752
  139.9467  134.9628  156.8739 H   0  0  0  0  0  0  0  0  0  0  0  0  # atno 11005 bound_to 11000
  145.9088  140.9194  143.0464 LP  0  0  0  0  0  0  0  0  0  0  0  0  # atno 17320 bound_to 7965
  144.6726  140.1132  143.7454 LP  0  0  0  0  0  0  0  0  0  0  0  0  # atno 17321 bound_to 7965
  139.5338  144.7188  151.4963 LP  0  0  0  0  0  0  0  0  0  0  0  0  # atno 17342 bound_to 10162
  140.6582  143.8554  150.6859 LP  0  0  0  0  0  0  0  0  0  0  0  0  # atno 17343 bound_to 10162
  156.3488  130.3827  149.7347 LP  0  0  0  0  0  0  0  0  0  0  0  0  # atno 17370 bound_to 10713
  156.4831  130.8050  151.3064 LP  0  0  0  0  0  0  0  0  0  0  0  0  # atno 17371 bound_to 10713
  140.5817  134.0345  155.7466 LP  0  0  0  0  0  0  0  0  0  0  0  0  # atno 17394 bound_to 11000
  141.1119  133.9602  157.2894 LP  0  0  0  0  0  0  0  0  0  0  0  0  # atno 17395 bound_to 11000

$$$$
