AV-unprocessed.smi:2445|AV-procd|sdf|9637|dock8
  -GOLD-   2272013273D 1   1.00000     0.00000
 Structure written by MMmdl.
 40 41  0  0  0  0  0  0  0  0  1 V2000
  153.5621  142.5788  163.7306 C   0  0  0  0  0  0  0  0  0  0  0  0
  153.2710  142.6577  162.2705 C   0  0  0  0  0  0  0  0  0  0  0  0
  153.6311  141.7645  161.2922 C   0  0  0  0  0  0  0  0  0  0  0  0
  153.2066  142.1273  160.0121 N   0  0  0  0  0  0  0  0  0  0  0  0
  152.5317  143.2797  160.0028 C   0  0  0  0  0  0  0  0  0  0  0  0
  151.9695  143.8958  158.7590 C   0  0  2  0  0  0  0  0  0  0  0  0
  152.5072  145.3219  158.5493 C   0  0  0  0  0  0  0  0  0  0  0  0
  150.4280  143.8061  158.7368 C   0  0  0  0  0  0  0  0  0  0  0  0
  149.9260  142.9093  157.7001 N   0  0  0  0  0  0  0  0  0  0  0  0
  150.2257  141.6073  157.5982 C   0  0  0  0  0  0  0  0  0  0  0  0
  150.9708  141.0078  158.3734 O   0  0  0  0  0  0  0  0  0  0  0  0
  149.6098  141.0369  156.5532 N   0  0  0  0  0  0  0  0  0  0  0  0
  149.7284  139.6310  156.1650 C   0  0  2  0  0  0  0  0  0  0  0  0
  151.1906  139.1870  156.2001 C   0  0  0  0  0  0  0  0  0  0  0  0
  151.4127  138.5207  154.8462 C   0  0  0  0  0  0  0  0  0  0  0  0
  150.5117  139.2049  153.9942 O   0  0  0  0  0  0  0  0  0  0  0  0
  149.2926  139.3489  154.7078 C   0  0  2  0  0  0  0  0  0  0  0  0
  148.3954  140.3878  154.0155 C   0  0  0  0  0  0  0  0  0  0  0  0
  152.3736  143.9968  161.6049 S   0  0  0  0  0  0  0  0  0  0  0  0
  154.1936  141.7199  163.9593 H   0  0  0  0  0  0  0  0  0  0  0  0
  152.6401  142.4812  164.3038 H   0  0  0  0  0  0  0  0  0  0  0  0
  154.0789  143.4764  164.0707 H   0  0  0  0  0  0  0  0  0  0  0  0
  154.1897  140.8485  161.4173 H   0  0  0  0  0  0  0  0  0  0  0  0
  152.3399  143.2986  157.9241 H   0  0  0  0  0  0  0  0  0  0  0  0
  153.5976  145.3297  158.5425 H   0  0  0  0  0  0  0  0  0  0  0  0
  152.1749  145.9928  159.3418 H   0  0  0  0  0  0  0  0  0  0  0  0
  152.1753  145.7404  157.5990 H   0  0  0  0  0  0  0  0  0  0  0  0
  150.0551  143.4799  159.7095 H   0  0  0  0  0  0  0  0  0  0  0  0
  149.9983  144.7923  158.5595 H   0  0  0  0  0  0  0  0  0  0  0  0
  149.3016  143.3094  157.0152 H   0  0  0  0  0  0  0  0  0  0  0  0
  149.0111  141.6146  155.9816 H   0  0  0  0  0  0  0  0  0  0  0  0
  149.1435  139.0057  156.8424 H   0  0  0  0  0  0  0  0  0  0  0  0
  151.8584  140.0450  156.2916 H   0  0  0  0  0  0  0  0  0  0  0  0
  151.4060  138.5126  157.0291 H   0  0  0  0  0  0  0  0  0  0  0  0
  152.4422  138.6050  154.4978 H   0  0  0  0  0  0  0  0  0  0  0  0
  151.1478  137.4627  154.8841 H   0  0  0  0  0  0  0  0  0  0  0  0
  148.7862  138.3823  154.6812 H   0  0  0  0  0  0  0  0  0  0  0  0
  147.4557  140.5159  154.5532 H   0  0  0  0  0  0  0  0  0  0  0  0
  148.1533  140.0716  153.0010 H   0  0  0  0  0  0  0  0  0  0  0  0
  148.8830  141.3604  153.9468 H   0  0  0  0  0  0  0  0  0  0  0  0
  1  2  1  0  0  0  0
  1 20  1  0  0  0  0
  1 21  1  0  0  0  0
  1 22  1  0  0  0  0
  2 19  1  0  0  0  0
  2  3  2  0  0  0  0
  3  4  1  0  0  0  0
  3 23  1  0  0  0  0
  4  5  2  0  0  0  0
  5  6  1  0  0  0  0
  5 19  1  0  0  0  0
  6  7  1  0  0  0  0
  6  8  1  0  0  0  0
  6 24  1  0  0  0  0
  7 25  1  0  0  0  0
  7 26  1  0  0  0  0
  7 27  1  0  0  0  0
  8  9  1  0  0  0  0
  8 28  1  0  0  0  0
  8 29  1  0  0  0  0
  9 10  1  0  0  0  0
  9 30  1  0  0  0  0
 10 11  2  0  0  0  0
 10 12  1  0  0  0  0
 12 13  1  0  0  0  0
 12 31  1  0  0  0  0
 13 17  1  0  0  0  0
 13 14  1  0  0  0  0
 13 32  1  0  0  0  0
 14 15  1  0  0  0  0
 14 33  1  0  0  0  0
 14 34  1  0  0  0  0
 15 16  1  0  0  0  0
 15 35  1  0  0  0  0
 15 36  1  0  0  0  0
 16 17  1  0  0  0  0
 17 18  1  0  0  0  0
 17 37  1  0  0  0  0
 18 38  1  0  0  0  0
 18 39  1  0  0  0  0
 18 40  1  0  0  0  0
M  END
> <s_m_source_file>
AV-unprocessed.smi

> <i_m_source_file_index>
2445

> <i_lp_mmshare_version>
43012

> <i_f3d_flags>
0

> <s_epik_input>
W0NIM11jMVtjSF1uYyhzMSlbQ0BIXShbQ0gzXSlbQ0gyXVtOSF1DKD1PKVtOSF1bQ0BASF0yW0NIMl1bQ0gyXU9bQ0BIXTJbQ0gzXQ==

> <s_epik_cmdline>
J2VwaWtfcHl0aG9uJywgJy1waCcsICc3LjAnLCAnLXRuJywgJzgnLCAnLW1hJywgJzIwMCcsICctbWV0YWxfYmluZGluZycsICctaW1hZScsICc8aW5maWxlLm1hZT4nLCAnLW9tYWUnLCAnPG91dGZpbGUubWFlPic=

> <r_epik_Ionization_Penalty>
0.000649483

> <r_epik_Ionization_Penalty_Charging>
0

> <r_epik_Ionization_Penalty_Neutral>
0.000649483

> <r_epik_State_Penalty>
0.000379895

> <r_epik_Charging_Adjusted_Penalty>
0.000379895

> <i_epik_Tot_Q>
0

> <i_epik_Tot_abs_Q>
0

> <r_epik_Metal_State_Penalty>
-0

> <b_epik_Metal_Only>
0

> <s_lp_Force_Field>
OPLS_2005

> <r_lp_Energy>
6.28074

> <b_lp_Chiralities_Consistent>
1

> <s_lp_Variant>
AV-unprocessed.smi:2445-5

> <Gold.Version>
5.8.1

> <Gold.Id.Protein>
6NUR|6NUR_protein|mol2

> <Gold.PLP.Fitness>
44.2842

> <Gold.PLP.PLP>
-40.3593

> <Gold.PLP.part.hbond>
-2.0000

> <Gold.PLP.part.metal>
0.0000

> <Gold.PLP.part.buried>
-4.4174

> <Gold.PLP.part.nonpolar>
-32.9618

> <Gold.PLP.part.repulsive>
1.1147

> <Gold.PLP.ligand.clash>
0.0000

> <Gold.PLP.ligand.torsion>
1.0689

> <Gold.PLP.Chemscore.Hbond>
1.9920

> <Gold.PLP.Chemscore.CHOScore>
0.0000

> <Gold.PLP.Chemscore.Metal>
0.0000

> <Gold.Chemscore.Hbonds>
donor molecule, donor type, donor heavy atom, donor atom, acceptor molecule, acceptor atom, score
      L1  H     9    30       P1  8028  1.00
      P1  H  7989  7998       L1    16  0.94

> <Gold.PLP.Chemscore.Internal.Correction>
0.0869

> <Gold.Rescore>
     Score         DG    S(hbond)    S(metal)    S(lipo)     H(rot)  DE(clash)    DE(int)     intcor
     16.58     -19.93       1.05        0.00     127.02       1.53       0.34       3.01       ----

> <Gold.Chemscore.Fitness>
16.5798

> <Gold.Chemscore.DG>
-19.9293

> <Gold.Chemscore.ZeroCoef>
-5.4800

> <Gold.Chemscore.Hbond>
1.0512

> <Gold.Chemscore.Metal>
0.0000

> <Gold.Chemscore.Lipo>
127.0223

> <Gold.Chemscore.Internal_Hbond>
0.0000

> <Gold.Chemscore.DEClash>
0.3387

> <Gold.Chemscore.DEInternal>
3.0108

> <Gold.Chemscore.Rot>
1.5325

> <Gold.Chemscore.Internal.Correction>
   9.000000E+99

> <Gold.Chemscore.Hbonds>
donor molecule, donor type, donor heavy atom, donor atom, acceptor molecule, acceptor atom, score
      L1  H     9    30       P1  8028  0.85
      P1  H  7989  7998       L1    16  0.26

> <Gold.Chemscore.Hbond.Weighted>
-3.5110

> <Gold.Chemscore.Metal.Weighted>
-0.0000

> <Gold.Chemscore.Lipo.Weighted>
-14.8616

> <Gold.Chemscore.Internal_Hbond.Weighted>
0.0000

> <Gold.Chemscore.DEClash.Weighted>
0.3387

> <Gold.Chemscore.DEInternal.Weighted>
3.0108

> <Gold.Chemscore.Rot.Weighted>
3.9233

> <Gold.Chemscore.Internal.Correction.Weighted>
   9.000000E+99

> <Gold.Protein.RotatedTorsions>
[ 6907 6896 6895 6894 ] final  151.95 input  -60.11 | X-H torsion
[ 7974 7965 7964 7962 ] final   85.67 input  175.53 | X-H torsion
[ 8008 7997 7996 7995 ] final -160.74 input   59.86 | X-H torsion
[ 10167 10162 10161 10158 ] final    6.51 input  -65.29 | X-H torsion
[ 10718 10713 10712 10709 ] final  178.44 input   66.30 | X-H torsion
[ 10763 10752 10751 10750 ] final  -56.60 input  -60.55 | X-H torsion
[ 11005 11000 10999 10996 ] final   20.31 input  -57.11 | X-H torsion

> <Gold.Protein.ActiveResidues>
 VAL166  LYS551  ARG553  GLY616  TRP617  ASP618  TYR619  PRO620  LYS621  CYS622 
 ASP623  PHE694  ASN695  SER759  ASP760  ASP761  ALA762  ILE779  LEU786  VAL792 
 PHE793  MET794  SER795  GLU796  ALA797  LYS798  CYS799  TRP800  GLU811  SER814 

> <Gold.Protein.RotatedAtoms>
  152.0935  133.4213  159.4554 H   0  0  0  0  0  0  0  0  0  0  0  0  # atno 6907 bound_to 6896
  150.6863  134.2844  159.4649 H   0  0  0  0  0  0  0  0  0  0  0  0  # atno 6908 bound_to 6896
  152.0697  134.9541  160.0625 H   0  0  0  0  0  0  0  0  0  0  0  0  # atno 6909 bound_to 6896
  145.5825  139.2327  143.2345 H   0  0  0  0  0  0  0  0  0  0  0  0  # atno 7974 bound_to 7965
  155.7820  140.0866  157.2054 H   0  0  0  0  0  0  0  0  0  0  0  0  # atno 8008 bound_to 7997
  154.3989  140.1506  156.3120 H   0  0  0  0  0  0  0  0  0  0  0  0  # atno 8009 bound_to 7997
  155.8644  140.3428  155.5781 H   0  0  0  0  0  0  0  0  0  0  0  0  # atno 8010 bound_to 7997
  140.6423  143.7744  150.7447 H   0  0  0  0  0  0  0  0  0  0  0  0  # atno 10167 bound_to 10162
  156.8905  130.9846  151.3050 H   0  0  0  0  0  0  0  0  0  0  0  0  # atno 10718 bound_to 10713
  154.2092  135.6397  153.5110 H   0  0  0  0  0  0  0  0  0  0  0  0  # atno 10763 bound_to 10752
  152.9994  135.5470  154.6233 H   0  0  0  0  0  0  0  0  0  0  0  0  # atno 10764 bound_to 10752
  154.5666  135.2913  155.0842 H   0  0  0  0  0  0  0  0  0  0  0  0  # atno 10765 bound_to 10752
  140.4040  134.1688  155.7665 H   0  0  0  0  0  0  0  0  0  0  0  0  # atno 11005 bound_to 11000
  146.1706  140.6651  142.9235 LP  0  0  0  0  0  0  0  0  0  0  0  0  # atno 17320 bound_to 7965
  144.7387  140.4883  143.6884 LP  0  0  0  0  0  0  0  0  0  0  0  0  # atno 17321 bound_to 7965
  140.1378  143.4468  152.2213 LP  0  0  0  0  0  0  0  0  0  0  0  0  # atno 17342 bound_to 10162
  139.5633  144.7419  151.4094 LP  0  0  0  0  0  0  0  0  0  0  0  0  # atno 17343 bound_to 10162
  157.6086  130.8566  149.8915 LP  0  0  0  0  0  0  0  0  0  0  0  0  # atno 17370 bound_to 10713
  156.0631  130.3696  150.0938 LP  0  0  0  0  0  0  0  0  0  0  0  0  # atno 17371 bound_to 10713
  141.1846  133.8340  157.1134 LP  0  0  0  0  0  0  0  0  0  0  0  0  # atno 17394 bound_to 11000
  140.0315  134.9899  157.0790 LP  0  0  0  0  0  0  0  0  0  0  0  0  # atno 17395 bound_to 11000

$$$$
