#       Name:                AV-unprocessed.smi:448
#       Creating user name   scv26
#       Creation time:       Thu Mar 26 23:00:21 2020


#       File generated by GOLD software.
#

@<TRIPOS>MOLECULE
AV-unprocessed.smi:448
    49    50     1
SMALL
NO_CHARGES


@<TRIPOS>ATOM
      1 ****        -4.0410   1.6818   2.9614 C.3            1 S1                 0.0000
      2 ****        -4.4257   0.8925   1.6917 C.3            1 S1                 0.0000
      3 ****        -5.9473   0.6504   1.7171 C.3            1 S1                 0.0000
      4 ****        -4.0871   1.7385   0.4458 C.3            1 S1                 0.0000
      5 ****        -3.7178  -0.4921   1.6353 C.3            1 S1                 0.0000
      6 ****        -2.1836  -0.4524   1.5853 C.2            1 S1                 0.0000
      7 ****        -1.5476  -0.2145   2.6121 O.2            1 S1                 0.0000
      8 ****        -1.6289  -0.7225   0.3884 N.am           1 S1                 0.0000
      9 ****        -0.2539  -0.7071   0.0340 C.ar           1 S1                 0.0000
     10 ****         0.0269  -1.0688  -1.3006 C.ar           1 S1                 0.0000
     11 ****         1.3599  -1.0701  -1.7536 C.ar           1 S1                 0.0000
     12 ****         2.3989  -0.7026  -0.8656 C.ar           1 S1                 0.0000
     13 ****         3.7576  -0.6748  -1.2475 N.3            1 S1                 0.0000
     14 ****         4.1329  -1.2875  -2.5184 C.3            1 S1                 0.0000
     15 ****         5.6615  -1.4327  -2.6117 C.3            1 S1                 0.0000
     16 ****         6.2775  -0.1655  -2.4081 O.3            1 S1                 0.0000
     17 ****         5.9886   0.3612  -1.1174 C.3            1 S1                 0.0000
     18 ****         4.4714   0.5685  -0.9664 C.3            1 S1                 0.0000
     19 ****         2.0151  -0.3633   0.4520 C.ar           1 S1                 0.0000
     20 ****         0.7388  -0.3637   0.8886 N.ar           1 S1                 0.0000
     21 ****        -4.6260   2.5980   3.0492 H              1 S1                 0.0000
     22 ****        -2.9920   1.9773   2.9585 H              1 S1                 0.0000
     23 ****        -4.2172   1.0938   3.8628 H              1 S1                 0.0000
     24 ****        -6.2420   0.0653   2.5889 H              1 S1                 0.0000
     25 ****        -6.2798   0.1089   0.8308 H              1 S1                 0.0000
     26 ****        -6.5008   1.5896   1.7519 H              1 S1                 0.0000
     27 ****        -4.6450   2.6755   0.4410 H              1 S1                 0.0000
     28 ****        -4.3327   1.2061  -0.4736 H              1 S1                 0.0000
     29 ****        -3.0284   1.9968   0.4043 H              1 S1                 0.0000
     30 ****        -4.0009  -1.0813   2.5087 H              1 S1                 0.0000
     31 ****        -4.0828  -1.0549   0.7743 H              1 S1                 0.0000
     32 ****        -2.2689  -0.9417  -0.3608 H              1 S1                 0.0000
     33 ****        -0.7697  -1.3410  -1.9779 H              1 S1                 0.0000
     34 ****         1.5576  -1.3418  -2.7796 H              1 S1                 0.0000
     35 ****         3.6715  -2.2711  -2.6138 H              1 S1                 0.0000
     36 ****         3.7681  -0.6700  -3.3402 H              1 S1                 0.0000
     37 ****         6.0296  -2.1508  -1.8771 H              1 S1                 0.0000
     38 ****         5.9434  -1.8102  -3.5945 H              1 S1                 0.0000
     39 ****         6.3678  -0.3105  -0.3457 H              1 S1                 0.0000
     40 ****         6.5102   1.3106  -0.9968 H              1 S1                 0.0000
     41 ****         4.1298   1.3346  -1.6635 H              1 S1                 0.0000
     42 ****         4.2622   0.9383   0.0363 H              1 S1                 0.0000
     43 ****         2.7510  -0.0956   1.1955 H              1 S1                 0.0000
     44 ****        -2.0303  -0.0486   3.4720 LP             1 S1                 0.0000
     45 ****        -0.5483  -0.1872   2.5862 LP             1 S1                 0.0000
     46 ****         4.1082  -1.3404  -0.5886 LP             1 S1                 0.0000
     47 ****         5.9416   0.4727  -3.1008 LP             1 S1                 0.0000
     48 ****         7.2678  -0.2682  -2.5017 LP             1 S1                 0.0000
     49 ****         0.5279  -0.1131   1.8334 LP             1 S1                 0.0000
@<TRIPOS>BOND
    1    1    2 1     
    2    1   21 1     
    3    1   22 1     
    4    1   23 1     
    5    2    3 1     
    6    2    4 1     
    7    2    5 1     
    8    3   24 1     
    9    3   25 1     
   10    3   26 1     
   11    4   27 1     
   12    4   28 1     
   13    4   29 1     
   14    5    6 1     
   15    5   30 1     
   16    5   31 1     
   17    6    7 2     
   18    6    8 am    
   19    8    9 1     
   20    8   32 1     
   21    9   20 ar    
   22    9   10 ar    
   23   10   11 ar    
   24   10   33 1     
   25   11   12 ar    
   26   11   34 1     
   27   12   13 1     
   28   12   19 ar    
   29   13   18 1     
   30   13   14 1     
   31   14   15 1     
   32   14   35 1     
   33   14   36 1     
   34   15   16 1     
   35   15   37 1     
   36   15   38 1     
   37   16   17 1     
   38   17   18 1     
   39   17   39 1     
   40   17   40 1     
   41   18   41 1     
   42   18   42 1     
   43   19   20 ar    
   44   19   43 1     
   45    7   44 1     
   46    7   45 1     
   47   13   46 1     
   48   16   47 1     
   49   16   48 1     
   50   20   49 1     
@<TRIPOS>SUBSTRUCTURE
      1 S1             1
@<TRIPOS>SET
LONE_PAIRS      STATIC     ATOMS    <user>   **** ""
6 44 45 46 47 48 49
DONOR_HYDROGENS      STATIC     ATOMS    <user>   **** ""
1 32
ATOM$BLUE        STATIC     ATOMS    COLORGROUP SYSTEM
6 44 45 46 47 48 49
ATOM$RED        STATIC     ATOMS    COLORGROUP SYSTEM
1 32
