AV-unprocessed.smi:1667|AV-procd|sdf|6676|dock4
  -GOLD-   22720 7393D 1   1.00000     0.00000
 Structure written by MMmdl.
 45 47  0  0  0  0  0  0  0  0  1 V2000
  150.6431  133.6387  155.7348 C   0  0  0  0  0  0  0  0  0  0  0  0
  150.6893  134.9948  156.4298 C   0  0  0  0  0  0  0  0  0  0  0  0
  150.3081  135.1000  157.5944 O   0  0  0  0  0  0  0  0  0  0  0  0
  151.1602  136.0153  155.6933 N   0  0  0  0  0  0  0  0  0  0  0  0
  151.3077  137.4193  156.0852 C   0  0  2  0  0  0  0  0  0  0  0  0
  151.3898  137.6281  157.6098 C   0  0  0  0  0  0  0  0  0  0  0  0
  150.2528  138.2557  155.3999 C   0  0  0  0  0  0  0  0  0  0  0  0
  149.2983  137.7063  154.6451 N   0  0  0  0  0  0  0  0  0  0  0  0
  148.6130  138.8009  154.1628 C   0  0  0  0  0  0  0  0  0  0  0  0
  147.4919  138.8750  153.3058 C   0  0  0  0  0  0  0  0  0  0  0  0
  146.9613  140.1266  152.9318 C   0  0  0  0  0  0  0  0  0  0  0  0
  147.5447  141.3186  153.4071 C   0  0  0  0  0  0  0  0  0  0  0  0
  148.6629  141.2656  154.2613 C   0  0  0  0  0  0  0  0  0  0  0  0
  149.1867  140.0132  154.6365 C   0  0  0  0  0  0  0  0  0  0  0  0
  150.2525  139.6164  155.4415 N   0  0  0  0  0  0  0  0  0  0  0  0
  151.1731  140.5110  156.1406 C   0  0  0  0  0  0  0  0  0  0  0  0
  150.4778  141.6041  156.9868 C   0  0  1  0  0  0  0  0  0  0  0  0
  149.4573  141.0373  157.7843 O   0  0  0  0  0  0  0  0  0  0  0  0
  151.4563  142.4467  157.7946 C   0  0  0  0  0  0  0  0  0  0  0  0
  151.7058  143.7966  157.4576 C   0  0  0  0  0  0  0  0  0  0  0  0
  152.6012  144.5666  158.2247 C   0  0  0  0  0  0  0  0  0  0  0  0
  153.2498  143.9947  159.3356 C   0  0  0  0  0  0  0  0  0  0  0  0
  153.0050  142.6510  159.6772 C   0  0  0  0  0  0  0  0  0  0  0  0
  153.6252  142.1009  160.7475 F   0  0  0  0  0  0  0  0  0  0  0  0
  152.1130  141.8790  158.9077 C   0  0  0  0  0  0  0  0  0  0  0  0
  152.2815  137.7188  155.7070 H   0  0  0  0  0  0  0  0  0  0  0  0
  151.6508  133.3060  155.4842 H   0  0  0  0  0  0  0  0  0  0  0  0
  150.0597  133.7003  154.8157 H   0  0  0  0  0  0  0  0  0  0  0  0
  150.1852  132.8876  156.3792 H   0  0  0  0  0  0  0  0  0  0  0  0
  151.4413  135.7970  154.7487 H   0  0  0  0  0  0  0  0  0  0  0  0
  151.6046  138.6700  157.8465 H   0  0  0  0  0  0  0  0  0  0  0  0
  152.1852  137.0224  158.0445 H   0  0  0  0  0  0  0  0  0  0  0  0
  150.4603  137.3657  158.1147 H   0  0  0  0  0  0  0  0  0  0  0  0
  147.0416  137.9668  152.9329 H   0  0  0  0  0  0  0  0  0  0  0  0
  146.1047  140.1718  152.2756 H   0  0  0  0  0  0  0  0  0  0  0  0
  147.1336  142.2739  153.1153 H   0  0  0  0  0  0  0  0  0  0  0  0
  149.1107  142.1779  154.6257 H   0  0  0  0  0  0  0  0  0  0  0  0
  151.8544  139.9252  156.7571 H   0  0  0  0  0  0  0  0  0  0  0  0
  151.8070  140.9858  155.3907 H   0  0  0  0  0  0  0  0  0  0  0  0
  149.9676  142.2774  156.2968 H   0  0  0  0  0  0  0  0  0  0  0  0
  148.7527  141.6627  157.8581 H   0  0  0  0  0  0  0  0  0  0  0  0
  151.2038  144.2515  156.6163 H   0  0  0  0  0  0  0  0  0  0  0  0
  152.7853  145.5986  157.9644 H   0  0  0  0  0  0  0  0  0  0  0  0
  153.9333  144.5869  159.9261 H   0  0  0  0  0  0  0  0  0  0  0  0
  151.9277  140.8504  159.1803 H   0  0  0  0  0  0  0  0  0  0  0  0
  1  2  1  0  0  0  0
  1 27  1  0  0  0  0
  1 28  1  0  0  0  0
  1 29  1  0  0  0  0
  2  3  2  0  0  0  0
  2  4  1  0  0  0  0
  4  5  1  0  0  0  0
  4 30  1  0  0  0  0
  5 26  1  0  0  0  0
  5  6  1  0  0  0  0
  5  7  1  0  0  0  0
  6 31  1  0  0  0  0
  6 32  1  0  0  0  0
  6 33  1  0  0  0  0
  7 15  1  0  0  0  0
  7  8  2  0  0  0  0
  8  9  1  0  0  0  0
  9 14  2  0  0  0  0
  9 10  1  0  0  0  0
 10 11  2  0  0  0  0
 10 34  1  0  0  0  0
 11 12  1  0  0  0  0
 11 35  1  0  0  0  0
 12 13  2  0  0  0  0
 12 36  1  0  0  0  0
 13 14  1  0  0  0  0
 13 37  1  0  0  0  0
 14 15  1  0  0  0  0
 15 16  1  0  0  0  0
 16 17  1  0  0  0  0
 16 38  1  0  0  0  0
 16 39  1  0  0  0  0
 17 18  1  0  0  0  0
 17 19  1  0  0  0  0
 17 40  1  0  0  0  0
 18 41  1  0  0  0  0
 19 25  1  0  0  0  0
 19 20  2  0  0  0  0
 20 21  1  0  0  0  0
 20 42  1  0  0  0  0
 21 22  2  0  0  0  0
 21 43  1  0  0  0  0
 22 23  1  0  0  0  0
 22 44  1  0  0  0  0
 23 24  1  0  0  0  0
 23 25  2  0  0  0  0
 25 45  1  0  0  0  0
M  END
> <s_m_source_file>
AV-unprocessed.smi

> <i_m_source_file_index>
1667

> <i_lp_mmshare_version>
43012

> <i_f3d_flags>
0

> <s_epik_input>
W0NIM11DKD1PKVtOSF1bQ0BASF0oW0NIM10pYyhuMSluKGMoYzEyKVtjSF1bY0hdW2NIXVtjSF0yKVtDSDJdW0NASF0oW09IXSljM1tjSF1bY0hdW2NIXWMoRilbY0hdMw==

> <s_epik_cmdline>
J2VwaWtfcHl0aG9uJywgJy1waCcsICc3LjAnLCAnLXRuJywgJzgnLCAnLW1hJywgJzIwMCcsICctbWV0YWxfYmluZGluZycsICctaW1hZScsICc8aW5maWxlLm1hZT4nLCAnLW9tYWUnLCAnPG91dGZpbGUubWFlPic=

> <r_epik_Ionization_Penalty>
0.133011

> <r_epik_Ionization_Penalty_Charging>
0

> <r_epik_Ionization_Penalty_Neutral>
0.133011

> <r_epik_State_Penalty>
0.122384

> <r_epik_Charging_Adjusted_Penalty>
0.122384

> <i_epik_Tot_Q>
0

> <i_epik_Tot_abs_Q>
0

> <r_epik_Metal_State_Penalty>
0.0997374

> <b_epik_Metal_Only>
0

> <s_lp_Force_Field>
OPLS_2005

> <r_lp_Energy>
8.29393

> <b_lp_Chiralities_Consistent>
1

> <s_lp_Variant>
AV-unprocessed.smi:1667-4

> <Gold.Version>
5.8.1

> <Gold.Id.Protein>
6NUR|6NUR_protein|mol2

> <Gold.PLP.Fitness>
49.6783

> <Gold.PLP.PLP>
-48.4064

> <Gold.PLP.part.hbond>
-1.0000

> <Gold.PLP.part.metal>
0.0000

> <Gold.PLP.part.buried>
-5.9444

> <Gold.PLP.part.nonpolar>
-43.1738

> <Gold.PLP.part.repulsive>
0.2961

> <Gold.PLP.ligand.clash>
0.0056

> <Gold.PLP.ligand.torsion>
0.5657

> <Gold.PLP.Chemscore.Hbond>
0.7332

> <Gold.PLP.Chemscore.CHOScore>
0.0000

> <Gold.PLP.Chemscore.Metal>
0.0000

> <Gold.Chemscore.Hbonds>
donor molecule, donor type, donor heavy atom, donor atom, acceptor molecule, acceptor atom, score
      P1  H  6896  6908       L1     3  0.62

> <Gold.PLP.Chemscore.Internal.Correction>
0.2093

> <Gold.Rescore>
     Score         DG    S(hbond)    S(metal)    S(lipo)     H(rot)  DE(clash)    DE(int)     intcor
     15.41     -17.38       0.93        0.00     129.31       2.48       0.01       1.97       ----

> <Gold.Chemscore.Fitness>
15.4110

> <Gold.Chemscore.DG>
-17.3848

> <Gold.Chemscore.ZeroCoef>
-5.4800

> <Gold.Chemscore.Hbond>
0.9323

> <Gold.Chemscore.Metal>
0.0000

> <Gold.Chemscore.Lipo>
129.3117

> <Gold.Chemscore.Internal_Hbond>
0.0000

> <Gold.Chemscore.DEClash>
0.0073

> <Gold.Chemscore.DEInternal>
1.9665

> <Gold.Chemscore.Rot>
2.4760

> <Gold.Chemscore.Internal.Correction>
   9.000000E+99

> <Gold.Chemscore.Hbonds>
donor molecule, donor type, donor heavy atom, donor atom, acceptor molecule, acceptor atom, score
      P1  H  6896  6908       L1     3  0.60

> <Gold.Chemscore.Hbond.Weighted>
-3.1138

> <Gold.Chemscore.Metal.Weighted>
-0.0000

> <Gold.Chemscore.Lipo.Weighted>
-15.1295

> <Gold.Chemscore.Internal_Hbond.Weighted>
0.0000

> <Gold.Chemscore.DEClash.Weighted>
0.0073

> <Gold.Chemscore.DEInternal.Weighted>
1.9665

> <Gold.Chemscore.Rot.Weighted>
6.3385

> <Gold.Chemscore.Internal.Correction.Weighted>
   9.000000E+99

> <Gold.Protein.RotatedTorsions>
[ 6907 6896 6895 6894 ] final  145.61 input  -60.11 | X-H torsion
[ 7974 7965 7964 7962 ] final   83.73 input  175.53 | X-H torsion
[ 8008 7997 7996 7995 ] final  -96.70 input   59.86 | X-H torsion
[ 10167 10162 10161 10158 ] final   60.18 input  -65.29 | X-H torsion
[ 10718 10713 10712 10709 ] final -162.35 input   66.30 | X-H torsion
[ 10763 10752 10751 10750 ] final  -26.70 input  -60.55 | X-H torsion
[ 11005 11000 10999 10996 ] final -172.61 input  -57.11 | X-H torsion

> <Gold.Protein.ActiveResidues>
 VAL166  LYS551  ARG553  GLY616  TRP617  ASP618  TYR619  PRO620  LYS621  CYS622 
 ASP623  PHE694  ASN695  SER759  ASP760  ASP761  ALA762  ILE779  LEU786  VAL792 
 PHE793  MET794  SER795  GLU796  ALA797  LYS798  CYS799  TRP800  GLU811  SER814 

> <Gold.Protein.RotatedAtoms>
  152.1787  133.4692  159.4946 H   0  0  0  0  0  0  0  0  0  0  0  0  # atno 6907 bound_to 6896
  150.6931  134.1861  159.4276 H   0  0  0  0  0  0  0  0  0  0  0  0  # atno 6908 bound_to 6896
  151.9771  135.0047  160.0606 H   0  0  0  0  0  0  0  0  0  0  0  0  # atno 6909 bound_to 6896
  145.6081  139.2363  143.2207 H   0  0  0  0  0  0  0  0  0  0  0  0  # atno 7974 bound_to 7965
  154.7779  140.0469  157.1104 H   0  0  0  0  0  0  0  0  0  0  0  0  # atno 8008 bound_to 7997
  154.9740  140.3093  155.4955 H   0  0  0  0  0  0  0  0  0  0  0  0  # atno 8009 bound_to 7997
  156.2932  140.2248  156.4835 H   0  0  0  0  0  0  0  0  0  0  0  0  # atno 8010 bound_to 7997
  140.1684  144.4302  150.6674 H   0  0  0  0  0  0  0  0  0  0  0  0  # atno 10167 bound_to 10162
  156.6091  130.8843  151.2932 H   0  0  0  0  0  0  0  0  0  0  0  0  # atno 10718 bound_to 10713
  153.7201  135.6945  153.5015 H   0  0  0  0  0  0  0  0  0  0  0  0  # atno 10763 bound_to 10752
  153.2210  135.4370  155.0488 H   0  0  0  0  0  0  0  0  0  0  0  0  # atno 10764 bound_to 10752
  154.8287  135.3460  154.6735 H   0  0  0  0  0  0  0  0  0  0  0  0  # atno 10765 bound_to 10752
  140.4951  134.5948  157.4968 H   0  0  0  0  0  0  0  0  0  0  0  0  # atno 11005 bound_to 11000
  146.1525  140.6905  142.9315 LP  0  0  0  0  0  0  0  0  0  0  0  0  # atno 17320 bound_to 7965
  144.7281  140.4588  143.6958 LP  0  0  0  0  0  0  0  0  0  0  0  0  # atno 17321 bound_to 7965
  140.6598  143.2248  151.5882 LP  0  0  0  0  0  0  0  0  0  0  0  0  # atno 17342 bound_to 10162
  139.5349  144.2809  152.1230 LP  0  0  0  0  0  0  0  0  0  0  0  0  # atno 17343 bound_to 10162
  157.7259  130.9622  150.1633 LP  0  0  0  0  0  0  0  0  0  0  0  0  # atno 17370 bound_to 10713
  156.2404  130.3690  149.8343 LP  0  0  0  0  0  0  0  0  0  0  0  0  # atno 17371 bound_to 10713
  139.9746  134.7236  155.9974 LP  0  0  0  0  0  0  0  0  0  0  0  0  # atno 17394 bound_to 11000
  141.1464  133.6555  156.3881 LP  0  0  0  0  0  0  0  0  0  0  0  0  # atno 17395 bound_to 11000

$$$$
