#       Name:                AV-unprocessed.smi:2826
#       Creating user name   scv26
#       Creation time:       Fri Mar 27 15:34:03 2020


#       File generated by GOLD software.
#

@<TRIPOS>MOLECULE
AV-unprocessed.smi:2826
    57    58     1
SMALL
NO_CHARGES


@<TRIPOS>ATOM
      1 ****        -7.8089   3.4206  -0.2740 C.3            1 S1                 0.0000
      2 ****        -6.5496   4.0213   0.0072 O.3            1 S1                 0.0000
      3 ****        -5.4758   3.1972   0.2752 C.ar           1 S1                 0.0000
      4 ****        -4.2271   3.7853   0.5526 C.ar           1 S1                 0.0000
      5 ****        -3.1280   2.9501   0.8256 C.ar           1 S1                 0.0000
      6 ****        -3.3069   1.5459   0.8039 C.ar           1 S1                 0.0000
      7 ****        -2.2602   0.6247   1.0886 N.am           1 S1                 0.0000
      8 ****        -0.9374   0.7918   0.9202 C.2            1 S1                 0.0000
      9 ****        -0.4014   1.7994   0.4589 O.2            1 S1                 0.0000
     10 ****        -0.2577  -0.3001   1.2989 N.am           1 S1                 0.0000
     11 ****         1.1926  -0.4524   1.2254 C.3            1 S1                 0.0000
     12 ****         1.6602  -1.5209   2.2236 C.3            1 S1                 0.0000
     13 ****         3.1631  -1.7937   2.0564 C.3            1 S1                 0.0000
     14 ****         3.4404  -2.1741   0.7130 O.3            1 S1                 0.0000
     15 ****         3.1425  -1.1529  -0.2365 C.3            1 S1                 0.0000
     16 ****         3.5882  -1.6325  -1.6306 C.3            1 S1                 0.0000
     17 ****         5.1045  -1.8871  -1.7749 C.3            1 S1                 0.0000
     18 ****         5.9342  -0.5967  -1.6631 C.3            1 S1                 0.0000
     19 ****         5.4078  -2.6014  -3.1008 C.3            1 S1                 0.0000
     20 ****         1.6313  -0.8552  -0.1930 C.3            1 S1                 0.0000
     21 ****        -4.6056   1.0529   0.5295 C.ar           1 S1                 0.0000
     22 ****        -4.8986  -0.4370   0.5043 C.3            1 S1                 0.0000
     23 ****        -5.6614   1.8546   0.2676 N.ar           1 S1                 0.0000
     24 ****        -8.5452   4.2004  -0.4675 H              1 S1                 0.0000
     25 ****        -8.1667   2.8303   0.5705 H              1 S1                 0.0000
     26 ****        -7.7596   2.7858  -1.1596 H              1 S1                 0.0000
     27 ****        -4.1146   4.8594   0.5614 H              1 S1                 0.0000
     28 ****        -2.1765   3.4013   1.0610 H              1 S1                 0.0000
     29 ****        -2.5588  -0.2922   1.3868 H              1 S1                 0.0000
     30 ****        -0.7794  -1.0847   1.6612 H              1 S1                 0.0000
     31 ****         1.6682   0.4941   1.4906 H              1 S1                 0.0000
     32 ****         1.4493  -1.2045   3.2459 H              1 S1                 0.0000
     33 ****         1.1086  -2.4484   2.0619 H              1 S1                 0.0000
     34 ****         3.7514  -0.9152   2.3263 H              1 S1                 0.0000
     35 ****         3.4736  -2.5999   2.7212 H              1 S1                 0.0000
     36 ****         3.6850  -0.2445   0.0271 H              1 S1                 0.0000
     37 ****         3.0483  -2.5509  -1.8653 H              1 S1                 0.0000
     38 ****         3.2766  -0.9042  -2.3806 H              1 S1                 0.0000
     39 ****         5.4178  -2.5565  -0.9729 H              1 S1                 0.0000
     40 ****         5.6304   0.1359  -2.4112 H              1 S1                 0.0000
     41 ****         6.9952  -0.8000  -1.8111 H              1 S1                 0.0000
     42 ****         5.8337  -0.1345  -0.6816 H              1 S1                 0.0000
     43 ****         5.1204  -1.9884  -3.9558 H              1 S1                 0.0000
     44 ****         4.8683  -3.5463  -3.1722 H              1 S1                 0.0000
     45 ****         6.4710  -2.8252  -3.1936 H              1 S1                 0.0000
     46 ****         1.0772  -1.7392  -0.5129 H              1 S1                 0.0000
     47 ****         1.3881  -0.0623  -0.9014 H              1 S1                 0.0000
     48 ****        -4.2561  -0.9386  -0.2200 H              1 S1                 0.0000
     49 ****        -5.9352  -0.6377   0.2294 H              1 S1                 0.0000
     50 ****        -4.7195  -0.8745   1.4867 H              1 S1                 0.0000
     51 ****        -6.6750   4.6123   0.8040 LP             1 S1                 0.0000
     52 ****        -6.3040   4.5788  -0.7859 LP             1 S1                 0.0000
     53 ****        -0.9610   2.5780   0.1749 LP             1 S1                 0.0000
     54 ****         0.5937   1.8394   0.3680 LP             1 S1                 0.0000
     55 ****         2.8932  -2.9815   0.4925 LP             1 S1                 0.0000
     56 ****         4.4119  -2.4001   0.6414 LP             1 S1                 0.0000
     57 ****        -6.5614   1.4652   0.0721 LP             1 S1                 0.0000
@<TRIPOS>BOND
    1    1    2 1     
    2    1   24 1     
    3    1   25 1     
    4    1   26 1     
    5    2    3 1     
    6    3   23 ar    
    7    3    4 ar    
    8    4    5 ar    
    9    4   27 1     
   10    5    6 ar    
   11    5   28 1     
   12    6    7 1     
   13    6   21 ar    
   14    7    8 am    
   15    7   29 1     
   16    8    9 2     
   17    8   10 am    
   18   10   11 1     
   19   10   30 1     
   20   11   20 1     
   21   11   12 1     
   22   11   31 1     
   23   12   13 1     
   24   12   32 1     
   25   12   33 1     
   26   13   14 1     
   27   13   34 1     
   28   13   35 1     
   29   14   15 1     
   30   15   16 1     
   31   15   20 1     
   32   15   36 1     
   33   16   17 1     
   34   16   37 1     
   35   16   38 1     
   36   17   18 1     
   37   17   19 1     
   38   17   39 1     
   39   18   40 1     
   40   18   41 1     
   41   18   42 1     
   42   19   43 1     
   43   19   44 1     
   44   19   45 1     
   45   20   46 1     
   46   20   47 1     
   47   21   22 1     
   48   21   23 ar    
   49   22   48 1     
   50   22   49 1     
   51   22   50 1     
   52    2   51 1     
   53    2   52 1     
   54    9   53 1     
   55    9   54 1     
   56   14   55 1     
   57   14   56 1     
   58   23   57 1     
@<TRIPOS>SUBSTRUCTURE
      1 S1             1
@<TRIPOS>SET
LONE_PAIRS      STATIC     ATOMS    <user>   **** ""
7 51 52 53 54 55 56 57
DONOR_HYDROGENS      STATIC     ATOMS    <user>   **** ""
2 29 30
ATOM$BLUE        STATIC     ATOMS    COLORGROUP SYSTEM
7 51 52 53 54 55 56 57
ATOM$RED        STATIC     ATOMS    COLORGROUP SYSTEM
2 29 30
