#       Name:                AV-unprocessed.smi:2706
#       Creating user name   scv26
#       Creation time:       Fri Mar 27 14:49:14 2020


#       File generated by GOLD software.
#

@<TRIPOS>MOLECULE
AV-unprocessed.smi:2706
    46    49     1
SMALL
NO_CHARGES


@<TRIPOS>ATOM
      1 ****        -4.3356   0.0040  -2.5350 C.3            1 S1                 0.0000
      2 ****        -3.6621   0.6852  -3.6352 N.pl3          1 S1                 0.0000
      3 ****        -4.4202   1.1190  -4.8017 C.3            1 S1                 0.0000
      4 ****        -2.2987   1.0298  -3.5187 C.ar           1 S1                 0.0000
      5 ****        -1.5850   1.7224  -4.5258 C.ar           1 S1                 0.0000
      6 ****        -0.2257   2.0335  -4.3274 C.ar           1 S1                 0.0000
      7 ****         0.4083   1.6460  -3.1312 C.ar           1 S1                 0.0000
      8 ****        -0.3309   0.9411  -2.1502 C.ar           1 S1                 0.0000
      9 ****         0.1947   0.5133  -0.9012 N.am           1 S1                 0.0000
     10 ****         1.4774   0.2902  -0.5647 C.2            1 S1                 0.0000
     11 ****         2.4416   0.4186  -1.3191 O.2            1 S1                 0.0000
     12 ****         1.5804  -0.1131   0.7092 N.am           1 S1                 0.0000
     13 ****         2.7945  -0.4487   1.3822 C.3            1 S1                 0.0000
     14 ****         2.8281  -1.5680   2.4164 C.3            1 S1                 0.0000
     15 ****         1.6903  -2.1009   3.2909 C.3            1 S1                 0.0000
     16 ****         2.2494  -2.2595   4.7214 C.3            1 S1                 0.0000
     17 ****         2.4002  -0.7876   5.1844 C.3            1 S1                 0.0000
     18 ****         1.9056  -0.0005   3.9515 C.3            1 S1                 0.0000
     19 ****         0.7565  -0.9130   3.5227 C.3            1 S1                 0.0000
     20 ****         2.9742  -0.1426   2.8646 C.3            1 S1                 0.0000
     21 ****        -1.6372   0.6813  -2.3878 N.pl3          1 S1                 1.0000
     22 ****        -4.3411   0.6312  -1.6432 H              1 S1                 0.0000
     23 ****        -3.8334  -0.9342  -2.2973 H              1 S1                 0.0000
     24 ****        -5.3705  -0.2290  -2.7866 H              1 S1                 0.0000
     25 ****        -4.3999   2.2057  -4.8903 H              1 S1                 0.0000
     26 ****        -5.4637   0.8105  -4.7337 H              1 S1                 0.0000
     27 ****        -4.0047   0.6863  -5.7123 H              1 S1                 0.0000
     28 ****        -2.0594   2.0244  -5.4474 H              1 S1                 0.0000
     29 ****         0.3255   2.5697  -5.0858 H              1 S1                 0.0000
     30 ****         1.4454   1.9075  -2.9867 H              1 S1                 0.0000
     31 ****        -0.4918   0.2907  -0.1956 H              1 S1                 0.0000
     32 ****         0.7333  -0.1940   1.2526 H              1 S1                 0.0000
     33 ****         3.7023  -0.3545   0.7877 H              1 S1                 0.0000
     34 ****         3.7217  -2.1897   2.4061 H              1 S1                 0.0000
     35 ****         1.2219  -2.9959   2.8807 H              1 S1                 0.0000
     36 ****         1.5467  -2.7953   5.3609 H              1 S1                 0.0000
     37 ****         3.1964  -2.8002   4.7395 H              1 S1                 0.0000
     38 ****         1.7723  -0.5903   6.0544 H              1 S1                 0.0000
     39 ****         3.4281  -0.5386   5.4512 H              1 S1                 0.0000
     40 ****         1.6360   1.0371   4.1495 H              1 S1                 0.0000
     41 ****         0.1998  -0.5817   2.6512 H              1 S1                 0.0000
     42 ****         0.0262  -1.0877   4.3158 H              1 S1                 0.0000
     43 ****         3.9665   0.1968   3.1569 H              1 S1                 0.0000
     44 ****        -2.1647   0.1824  -1.6717 H              1 S1                 0.0000
     45 ****         2.3009   0.7103  -2.2652 LP             1 S1                 0.0000
     46 ****         3.3657   0.2311  -0.9859 LP             1 S1                 0.0000
@<TRIPOS>BOND
    1    1    2 1     
    2    1   22 1     
    3    1   23 1     
    4    1   24 1     
    5    2    3 1     
    6    2    4 1     
    7    3   25 1     
    8    3   26 1     
    9    3   27 1     
   10    4   21 ar    
   11    4    5 ar    
   12    5    6 ar    
   13    5   28 1     
   14    6    7 ar    
   15    6   29 1     
   16    7    8 ar    
   17    7   30 1     
   18    8    9 1     
   19    8   21 ar    
   20    9   10 am    
   21    9   31 1     
   22   10   11 2     
   23   10   12 am    
   24   12   13 1     
   25   12   32 1     
   26   13   20 1     
   27   13   14 1     
   28   13   33 1     
   29   14   20 1     
   30   14   15 1     
   31   14   34 1     
   32   15   19 1     
   33   15   16 1     
   34   15   35 1     
   35   16   17 1     
   36   16   36 1     
   37   16   37 1     
   38   17   18 1     
   39   17   38 1     
   40   17   39 1     
   41   18   19 1     
   42   18   20 1     
   43   18   40 1     
   44   19   41 1     
   45   19   42 1     
   46   20   43 1     
   47   21   44 1     
   48   11   45 1     
   49   11   46 1     
@<TRIPOS>SUBSTRUCTURE
      1 S1             1
@<TRIPOS>SET
LONE_PAIRS      STATIC     ATOMS    <user>   **** ""
2 45 46
DONOR_HYDROGENS      STATIC     ATOMS    <user>   **** ""
3 31 32 44
ATOM$BLUE        STATIC     ATOMS    COLORGROUP SYSTEM
2 45 46
ATOM$RED        STATIC     ATOMS    COLORGROUP SYSTEM
3 31 32 44
