#       Name:                AV-unprocessed.smi:1561
#       Creating user name   scv26
#       Creation time:       Fri Mar 27 06:48:28 2020


#       File generated by GOLD software.
#

@<TRIPOS>MOLECULE
AV-unprocessed.smi:1561
    38    39     1
SMALL
NO_CHARGES


@<TRIPOS>ATOM
      1 ****        -2.4309  -1.8476   1.0041 C.3            1 S1                 0.0000
      2 ****        -1.8888  -0.9228  -0.1049 C.3            1 S1                 0.0000
      3 ****        -0.3686  -0.7173  -0.0134 C.2            1 S1                 0.0000
      4 ****         0.3563  -1.5921   0.4619 O.2            1 S1                 0.0000
      5 ****         0.0994   0.4539  -0.4739 N.am           1 S1                 0.0000
      6 ****         1.5012   0.8595  -0.4967 C.3            1 S1                 0.0000
      7 ****         1.8816   1.6894   0.7439 C.3            1 S1                 0.0000
      8 ****         1.8728   0.9313   2.0580 C.3            1 S1                 0.0000
      9 ****         2.7349   1.8211   2.9496 C.3            1 S1                 0.0000
     10 ****         3.6425   2.4916   2.0791 O.3            1 S1                 0.0000
     11 ****         3.3200   2.2031   0.7226 C.3            1 S1                 0.0000
     12 ****        -2.2578  -1.3816  -1.4393 N.pl3          1 S1                 0.0000
     13 ****        -2.7413  -0.6292  -2.4908 C.2            1 S1                 0.0000
     14 ****        -2.9100  -1.4686  -3.5545 C.2            1 S1                 0.0000
     15 ****        -2.4867  -2.7322  -3.0574 C.2            1 S1                 0.0000
     16 ****        -2.0893  -2.6761  -1.7972 N.2            1 S1                 0.0000
     17 ****        -2.1955  -1.4527   1.9931 H              1 S1                 0.0000
     18 ****        -2.0126  -2.8532   0.9430 H              1 S1                 0.0000
     19 ****        -3.5156  -1.9369   0.9387 H              1 S1                 0.0000
     20 ****        -2.3582   0.0520   0.0379 H              1 S1                 0.0000
     21 ****        -0.5682   1.1133  -0.8465 H              1 S1                 0.0000
     22 ****         2.1556  -0.0082  -0.5977 H              1 S1                 0.0000
     23 ****         1.6538   1.4596  -1.3940 H              1 S1                 0.0000
     24 ****         1.2105   2.5460   0.8288 H              1 S1                 0.0000
     25 ****         0.8712   0.7748   2.4595 H              1 S1                 0.0000
     26 ****         2.3469  -0.0439   1.9361 H              1 S1                 0.0000
     27 ****         2.1202   2.5698   3.4504 H              1 S1                 0.0000
     28 ****         3.2639   1.2509   3.7136 H              1 S1                 0.0000
     29 ****         4.0011   1.4302   0.3636 H              1 S1                 0.0000
     30 ****         3.4422   3.0818   0.0888 H              1 S1                 0.0000
     31 ****        -2.9236   0.4312  -2.3957 H              1 S1                 0.0000
     32 ****        -3.2756  -1.2176  -4.5391 H              1 S1                 0.0000
     33 ****        -2.4521  -3.6808  -3.5724 H              1 S1                 0.0000
     34 ****        -0.0431  -2.4469   0.7932 LP             1 S1                 0.0000
     35 ****         1.3443  -1.4476   0.5165 LP             1 S1                 0.0000
     36 ****         4.5742   2.1830   2.2708 LP             1 S1                 0.0000
     37 ****         3.5801   3.4780   2.2317 LP             1 S1                 0.0000
     38 ****        -1.7411  -3.4248  -1.2331 LP             1 S1                 0.0000
@<TRIPOS>BOND
    1    1    2 1     
    2    1   17 1     
    3    1   18 1     
    4    1   19 1     
    5    2    3 1     
    6    2   12 1     
    7    2   20 1     
    8    3    4 2     
    9    3    5 am    
   10    5    6 1     
   11    5   21 1     
   12    6    7 1     
   13    6   22 1     
   14    6   23 1     
   15    7   11 1     
   16    7    8 1     
   17    7   24 1     
   18    8    9 1     
   19    8   25 1     
   20    8   26 1     
   21    9   10 1     
   22    9   27 1     
   23    9   28 1     
   24   10   11 1     
   25   11   29 1     
   26   11   30 1     
   27   12   16 1     
   28   12   13 1     
   29   13   14 2     
   30   13   31 1     
   31   14   15 1     
   32   14   32 1     
   33   15   16 2     
   34   15   33 1     
   35    4   34 1     
   36    4   35 1     
   37   10   36 1     
   38   10   37 1     
   39   16   38 1     
@<TRIPOS>SUBSTRUCTURE
      1 S1             1
@<TRIPOS>SET
LONE_PAIRS      STATIC     ATOMS    <user>   **** ""
5 34 35 36 37 38
DONOR_HYDROGENS      STATIC     ATOMS    <user>   **** ""
1 21
ATOM$BLUE        STATIC     ATOMS    COLORGROUP SYSTEM
5 34 35 36 37 38
ATOM$RED        STATIC     ATOMS    COLORGROUP SYSTEM
1 21
