AV-unprocessed.smi:1966|AV-procd|sdf|7953|dock8
  -GOLD-   2272010123D 1   1.00000     0.00000
 Structure written by MMmdl.
 53 54  0  0  0  0  0  0  0  0  1 V2000
  148.8393  132.8003  153.5185 C   0  0  0  0  0  0  0  0  0  0  0  0
  147.6453  133.6095  154.0122 C   0  0  0  0  0  0  0  0  0  0  0  0
  146.8766  133.1333  154.8471 O   0  0  0  0  0  0  0  0  0  0  0  0
  147.5022  134.8353  153.4847 N   0  0  0  0  0  0  0  0  0  0  0  0
  146.4425  135.7891  153.8214 C   0  0  1  0  0  0  0  0  0  0  0  0
  146.9988  136.8224  154.8213 C   0  0  0  0  0  0  0  0  0  0  0  0
  146.4008  137.0399  155.8758 O   0  0  0  0  0  0  0  0  0  0  0  0
  148.1413  137.4297  154.4495 N   0  0  0  0  0  0  0  0  0  0  0  0
  148.9070  138.4041  155.1457 C   0  0  0  0  0  0  0  0  0  0  0  0
  149.9956  139.1179  154.5927 C   0  0  0  0  0  0  0  0  0  0  0  0
  150.6583  140.0738  155.3864 C   0  0  0  0  0  0  0  0  0  0  0  0
  150.2158  140.3024  156.7102 C   0  0  0  0  0  0  0  0  0  0  0  0
  150.8659  141.2599  157.5173 N   0  0  0  0  0  0  0  0  0  0  0  0
  152.0029  140.8242  158.3227 C   0  0  0  0  0  0  0  0  0  0  0  0
  152.3482  141.8884  159.3795 C   0  0  1  0  0  0  0  0  0  0  0  0
  153.6150  141.5271  160.1619 C   0  0  0  0  0  0  0  0  0  0  0  0
  152.5662  143.1446  158.7383 O   0  0  0  0  0  0  0  0  0  0  0  0
  151.4640  143.6196  157.9614 C   0  0  2  0  0  0  0  0  0  0  0  0
  150.2888  144.0823  158.8411 C   0  0  0  0  0  0  0  0  0  0  0  0
  151.0622  142.5709  156.9053 C   0  0  0  0  0  0  0  0  0  0  0  0
  149.1621  139.6281  157.2318 N   0  0  0  0  0  0  0  0  0  0  0  0
  148.5321  138.7109  156.4688 C   0  0  0  0  0  0  0  0  0  0  0  0
  145.9764  136.5009  152.5168 C   0  0  0  0  0  0  0  0  0  0  0  0
  144.8558  137.5350  152.7541 C   0  0  0  0  0  0  0  0  0  0  0  0
  145.5094  135.4902  151.4505 C   0  0  0  0  0  0  0  0  0  0  0  0
  149.7680  133.3432  153.6965 H   0  0  0  0  0  0  0  0  0  0  0  0
  148.7504  132.6068  152.4493 H   0  0  0  0  0  0  0  0  0  0  0  0
  148.8995  131.8420  154.0358 H   0  0  0  0  0  0  0  0  0  0  0  0
  148.1873  135.1419  152.8096 H   0  0  0  0  0  0  0  0  0  0  0  0
  145.5981  135.2569  154.2648 H   0  0  0  0  0  0  0  0  0  0  0  0
  148.4785  137.1978  153.5263 H   0  0  0  0  0  0  0  0  0  0  0  0
  150.3269  138.9697  153.5773 H   0  0  0  0  0  0  0  0  0  0  0  0
  151.4814  140.6327  154.9667 H   0  0  0  0  0  0  0  0  0  0  0  0
  151.7722  139.8820  158.8217 H   0  0  0  0  0  0  0  0  0  0  0  0
  152.8588  140.6474  157.6696 H   0  0  0  0  0  0  0  0  0  0  0  0
  151.5272  141.9772  160.0911 H   0  0  0  0  0  0  0  0  0  0  0  0
  153.4971  140.5760  160.6819 H   0  0  0  0  0  0  0  0  0  0  0  0
  153.8417  142.2879  160.9091 H   0  0  0  0  0  0  0  0  0  0  0  0
  154.4775  141.4426  159.5001 H   0  0  0  0  0  0  0  0  0  0  0  0
  151.8261  144.5009  157.4313 H   0  0  0  0  0  0  0  0  0  0  0  0
  149.5253  144.5730  158.2371 H   0  0  0  0  0  0  0  0  0  0  0  0
  150.6236  144.7971  159.5930 H   0  0  0  0  0  0  0  0  0  0  0  0
  149.8070  143.2524  159.3574 H   0  0  0  0  0  0  0  0  0  0  0  0
  151.8547  142.4817  156.1610 H   0  0  0  0  0  0  0  0  0  0  0  0
  150.1742  142.9117  156.3740 H   0  0  0  0  0  0  0  0  0  0  0  0
  147.6989  138.2040  156.9337 H   0  0  0  0  0  0  0  0  0  0  0  0
  146.8271  137.0398  152.0953 H   0  0  0  0  0  0  0  0  0  0  0  0
  143.9890  137.0759  153.2302 H   0  0  0  0  0  0  0  0  0  0  0  0
  144.5219  137.9730  151.8131 H   0  0  0  0  0  0  0  0  0  0  0  0
  145.1845  138.3618  153.3837 H   0  0  0  0  0  0  0  0  0  0  0  0
  144.6758  134.8897  151.8156 H   0  0  0  0  0  0  0  0  0  0  0  0
  146.3068  134.8076  151.1562 H   0  0  0  0  0  0  0  0  0  0  0  0
  145.1787  135.9991  150.5447 H   0  0  0  0  0  0  0  0  0  0  0  0
  1  2  1  0  0  0  0
  1 26  1  0  0  0  0
  1 27  1  0  0  0  0
  1 28  1  0  0  0  0
  2  3  2  0  0  0  0
  2  4  1  0  0  0  0
  4  5  1  0  0  0  0
  4 29  1  0  0  0  0
  5  6  1  0  0  0  0
  5 23  1  0  0  0  0
  5 30  1  0  0  0  0
  6  7  2  0  0  0  0
  6  8  1  0  0  0  0
  8  9  1  0  0  0  0
  8 31  1  0  0  0  0
  9 22  1  0  0  0  0
  9 10  2  0  0  0  0
 10 11  1  0  0  0  0
 10 32  1  0  0  0  0
 11 12  2  0  0  0  0
 11 33  1  0  0  0  0
 12 13  1  0  0  0  0
 12 21  1  0  0  0  0
 13 20  1  0  0  0  0
 13 14  1  0  0  0  0
 14 15  1  0  0  0  0
 14 34  1  0  0  0  0
 14 35  1  0  0  0  0
 15 16  1  0  0  0  0
 15 17  1  0  0  0  0
 15 36  1  0  0  0  0
 16 37  1  0  0  0  0
 16 38  1  0  0  0  0
 16 39  1  0  0  0  0
 17 18  1  0  0  0  0
 18 19  1  0  0  0  0
 18 20  1  0  0  0  0
 18 40  1  0  0  0  0
 19 41  1  0  0  0  0
 19 42  1  0  0  0  0
 19 43  1  0  0  0  0
 20 44  1  0  0  0  0
 20 45  1  0  0  0  0
 21 22  2  0  0  0  0
 22 46  1  0  0  0  0
 23 24  1  0  0  0  0
 23 25  1  0  0  0  0
 23 47  1  0  0  0  0
 24 48  1  0  0  0  0
 24 49  1  0  0  0  0
 24 50  1  0  0  0  0
 25 51  1  0  0  0  0
 25 52  1  0  0  0  0
 25 53  1  0  0  0  0
M  END
> <s_m_source_file>
AV-unprocessed.smi

> <i_m_source_file_index>
1966

> <i_lp_mmshare_version>
43012

> <i_f3d_flags>
0

> <s_epik_input>
W0NIM11DKD1PKVtOSF1bQ0BASF0oW0NIXShbQ0gzXSlbQ0gzXSlDKD1PKVtOSF1jMVtjSF1bY0hdYyhuW2NIXTEpTjJbQ0gyXVtDQEBIXShbQ0gzXSlPW0NAQEhdKFtDSDNdKVtDSDJdMg==

> <s_epik_cmdline>
J2VwaWtfcHl0aG9uJywgJy1waCcsICc3LjAnLCAnLXRuJywgJzgnLCAnLW1hJywgJzIwMCcsICctbWV0YWxfYmluZGluZycsICctaW1hZScsICc8aW5maWxlLm1hZT4nLCAnLW9tYWUnLCAnPG91dGZpbGUubWFlPic=

> <r_lp_tautomer_probability>
1

> <r_epik_Ionization_Penalty>
0.000679699

> <r_epik_Ionization_Penalty_Charging>
0

> <r_epik_Ionization_Penalty_Neutral>
0.000679699

> <r_epik_State_Penalty>
0.000430485

> <r_epik_Charging_Adjusted_Penalty>
0.000430485

> <i_epik_Tot_Q>
0

> <i_epik_Tot_abs_Q>
0

> <r_epik_Metal_State_Penalty>
-0

> <b_epik_Metal_Only>
0

> <s_lp_Force_Field>
OPLS_2005

> <r_lp_Energy>
28.3815

> <b_lp_Chiralities_Consistent>
1

> <s_lp_Variant>
AV-unprocessed.smi:1966-6

> <Gold.Version>
5.8.1

> <Gold.Id.Protein>
6NUR|6NUR_protein|mol2

> <Gold.PLP.Fitness>
40.0058

> <Gold.PLP.PLP>
-35.3892

> <Gold.PLP.part.hbond>
-1.9142

> <Gold.PLP.part.metal>
0.0000

> <Gold.PLP.part.buried>
-2.6371

> <Gold.PLP.part.nonpolar>
-31.2111

> <Gold.PLP.part.repulsive>
0.0741

> <Gold.PLP.ligand.clash>
0.0000

> <Gold.PLP.ligand.torsion>
0.8786

> <Gold.PLP.Chemscore.Hbond>
2.0000

> <Gold.PLP.Chemscore.CHOScore>
0.0000

> <Gold.PLP.Chemscore.Metal>
0.0000

> <Gold.Chemscore.Hbonds>
donor molecule, donor type, donor heavy atom, donor atom, acceptor molecule, acceptor atom, score
      L1  H     4    29       P1  7948  1.00
      L1  H     8    31       P1  7948  1.00

> <Gold.PLP.Chemscore.Internal.Correction>
0.3738

> <Gold.Rescore>
     Score         DG    S(hbond)    S(metal)    S(lipo)     H(rot)  DE(clash)    DE(int)     intcor
     16.15     -18.78       1.96        0.00      94.46       1.68       0.27       2.36       ----

> <Gold.Chemscore.Fitness>
16.1466

> <Gold.Chemscore.DG>
-18.7842

> <Gold.Chemscore.ZeroCoef>
-5.4800

> <Gold.Chemscore.Hbond>
1.9588

> <Gold.Chemscore.Metal>
0.0000

> <Gold.Chemscore.Lipo>
94.4607

> <Gold.Chemscore.Internal_Hbond>
0.0000

> <Gold.Chemscore.DEClash>
0.2745

> <Gold.Chemscore.DEInternal>
2.3631

> <Gold.Chemscore.Rot>
1.6759

> <Gold.Chemscore.Internal.Correction>
   9.000000E+99

> <Gold.Chemscore.Hbonds>
donor molecule, donor type, donor heavy atom, donor atom, acceptor molecule, acceptor atom, score
      L1  H     4    29       P1  7948  0.92
      L1  H     8    31       P1  7948  0.98

> <Gold.Chemscore.Hbond.Weighted>
-6.5425

> <Gold.Chemscore.Metal.Weighted>
-0.0000

> <Gold.Chemscore.Lipo.Weighted>
-11.0519

> <Gold.Chemscore.Internal_Hbond.Weighted>
0.0000

> <Gold.Chemscore.DEClash.Weighted>
0.2745

> <Gold.Chemscore.DEInternal.Weighted>
2.3631

> <Gold.Chemscore.Rot.Weighted>
4.2902

> <Gold.Chemscore.Internal.Correction.Weighted>
   9.000000E+99

> <Gold.Protein.RotatedTorsions>
[ 6907 6896 6895 6894 ] final -169.74 input  -60.11 | X-H torsion
[ 7974 7965 7964 7962 ] final  -43.69 input  175.53 | X-H torsion
[ 8008 7997 7996 7995 ] final  134.83 input   59.86 | X-H torsion
[ 10167 10162 10161 10158 ] final -137.77 input  -65.29 | X-H torsion
[ 10718 10713 10712 10709 ] final  -43.81 input   66.30 | X-H torsion
[ 10763 10752 10751 10750 ] final  135.70 input  -60.55 | X-H torsion
[ 11005 11000 10999 10996 ] final -123.97 input  -57.11 | X-H torsion

> <Gold.Protein.ActiveResidues>
 VAL166  LYS551  ARG553  GLY616  TRP617  ASP618  TYR619  PRO620  LYS621  CYS622 
 ASP623  PHE694  ASN695  SER759  ASP760  ASP761  ALA762  ILE779  LEU786  VAL792 
 PHE793  MET794  SER795  GLU796  ALA797  LYS798  CYS799  TRP800  GLU811  SER814 

> <Gold.Protein.RotatedAtoms>
  151.4965  133.3513  159.2861 H   0  0  0  0  0  0  0  0  0  0  0  0  # atno 6907 bound_to 6896
  150.8800  134.8192  159.7229 H   0  0  0  0  0  0  0  0  0  0  0  0  # atno 6908 bound_to 6896
  152.4756  134.4861  159.9733 H   0  0  0  0  0  0  0  0  0  0  0  0  # atno 6909 bound_to 6896
  145.9994  140.7091  142.9278 H   0  0  0  0  0  0  0  0  0  0  0  0  # atno 7974 bound_to 7965
  156.3001  140.2486  156.3481 H   0  0  0  0  0  0  0  0  0  0  0  0  # atno 8008 bound_to 7997
  154.8991  140.0407  157.1902 H   0  0  0  0  0  0  0  0  0  0  0  0  # atno 8009 bound_to 7997
  154.8519  140.2907  155.5597 H   0  0  0  0  0  0  0  0  0  0  0  0  # atno 8010 bound_to 7997
  139.8545  143.7156  152.2655 H   0  0  0  0  0  0  0  0  0  0  0  0  # atno 10167 bound_to 10162
  156.2450  130.4183  149.8715 H   0  0  0  0  0  0  0  0  0  0  0  0  # atno 10718 bound_to 10713
  153.8444  135.3087  155.3428 H   0  0  0  0  0  0  0  0  0  0  0  0  # atno 10763 bound_to 10752
  154.7919  135.4778  154.0074 H   0  0  0  0  0  0  0  0  0  0  0  0  # atno 10764 bound_to 10752
  153.1556  135.6851  153.8909 H   0  0  0  0  0  0  0  0  0  0  0  0  # atno 10765 bound_to 10752
  140.9877  134.0583  157.3691 H   0  0  0  0  0  0  0  0  0  0  0  0  # atno 11005 bound_to 11000
  144.6914  140.3207  143.7233 LP  0  0  0  0  0  0  0  0  0  0  0  0  # atno 17320 bound_to 7965
  145.7510  139.1794  143.2321 LP  0  0  0  0  0  0  0  0  0  0  0  0  # atno 17321 bound_to 7965
  139.7433  144.7554  151.0618 LP  0  0  0  0  0  0  0  0  0  0  0  0  # atno 17342 bound_to 10162
  140.7783  143.4946  150.9849 LP  0  0  0  0  0  0  0  0  0  0  0  0  # atno 17343 bound_to 10162
  156.6283  130.8655  151.3490 LP  0  0  0  0  0  0  0  0  0  0  0  0  # atno 17370 bound_to 10713
  157.7191  130.9535  150.1369 LP  0  0  0  0  0  0  0  0  0  0  0  0  # atno 17371 bound_to 10713
  139.8978  135.0152  156.7118 LP  0  0  0  0  0  0  0  0  0  0  0  0  # atno 17394 bound_to 11000
  140.7088  133.9241  155.8071 LP  0  0  0  0  0  0  0  0  0  0  0  0  # atno 17395 bound_to 11000

$$$$
