AV-unprocessed.smi:1945|AV-procd|sdf|7858|dock1
  -GOLD-   2272010 03D 1   1.00000     0.00000
 Structure written by MMmdl.
 47 48  0  0  0  0  0  0  0  0  1 V2000
  143.5503  132.3516  149.8957 C   0  0  0  0  0  0  0  0  0  0  0  0
  144.5999  133.1006  150.6622 C   0  0  0  0  0  0  0  0  0  0  0  0
  144.7107  134.5087  150.8512 C   0  0  0  0  0  0  0  0  0  0  0  0
  145.8378  134.6214  151.6185 C   0  0  0  0  0  0  0  0  0  0  0  0
  146.4404  135.7476  152.0837 N   0  0  0  0  0  0  0  0  0  0  0  0
  145.8688  136.9204  152.4048 C   0  0  0  0  0  0  0  0  0  0  0  0
  144.6581  137.1094  152.5262 O   0  0  0  0  0  0  0  0  0  0  0  0
  146.7890  137.8819  152.5695 N   0  0  0  0  0  0  0  0  0  0  0  0
  146.4902  139.2984  152.7580 C   0  0  0  0  0  0  0  0  0  0  0  0
  147.0529  139.8077  154.0946 C   0  0  0  0  0  0  0  0  0  0  0  0
  148.3274  139.2190  154.3031 O   0  0  0  0  0  0  0  0  0  0  0  0
  149.4451  140.0591  154.0470 C   0  0  1  0  0  0  0  0  0  0  0  0
  149.2307  141.4569  154.6703 C   0  0  0  0  0  0  0  0  0  0  0  0
  149.1370  141.3927  156.2044 C   0  0  0  0  0  0  0  0  0  0  0  0
  150.3649  140.6987  156.8122 C   0  0  0  0  0  0  0  0  0  0  0  0
  150.5875  139.3093  156.1940 C   0  0  0  0  0  0  0  0  0  0  0  0
  150.6934  139.3827  154.6565 C   0  0  1  0  0  0  0  0  0  0  0  0
  150.9622  138.0025  154.0367 C   0  0  0  0  0  0  0  0  0  0  0  0
  146.3517  133.3637  151.8432 N   0  0  0  0  0  0  0  0  0  0  0  0
  147.5335  132.9681  152.5838 C   0  0  0  0  0  0  0  0  0  0  0  0
  145.5770  132.4251  151.2571 N   0  0  0  0  0  0  0  0  0  0  0  0
  142.8778  133.0356  149.3778 H   0  0  0  0  0  0  0  0  0  0  0  0
  142.9470  131.7323  150.5599 H   0  0  0  0  0  0  0  0  0  0  0  0
  143.9999  131.6994  149.1468 H   0  0  0  0  0  0  0  0  0  0  0  0
  144.0665  135.2882  150.4728 H   0  0  0  0  0  0  0  0  0  0  0  0
  147.4486  135.7158  152.1174 H   0  0  0  0  0  0  0  0  0  0  0  0
  147.7620  137.6327  152.4703 H   0  0  0  0  0  0  0  0  0  0  0  0
  146.8715  139.8931  151.9260 H   0  0  0  0  0  0  0  0  0  0  0  0
  145.4064  139.4150  152.7511 H   0  0  0  0  0  0  0  0  0  0  0  0
  147.1578  140.8930  154.0699 H   0  0  0  0  0  0  0  0  0  0  0  0
  146.3605  139.5671  154.9011 H   0  0  0  0  0  0  0  0  0  0  0  0
  149.5886  140.1554  152.9693 H   0  0  0  0  0  0  0  0  0  0  0  0
  150.0649  142.1019  154.3921 H   0  0  0  0  0  0  0  0  0  0  0  0
  148.3398  141.9356  154.2658 H   0  0  0  0  0  0  0  0  0  0  0  0
  149.0402  142.3987  156.6132 H   0  0  0  0  0  0  0  0  0  0  0  0
  148.2344  140.8566  156.4956 H   0  0  0  0  0  0  0  0  0  0  0  0
  151.2494  141.3154  156.6496 H   0  0  0  0  0  0  0  0  0  0  0  0
  150.2434  140.6094  157.8922 H   0  0  0  0  0  0  0  0  0  0  0  0
  151.4940  138.8684  156.6099 H   0  0  0  0  0  0  0  0  0  0  0  0
  149.7676  138.6488  156.4798 H   0  0  0  0  0  0  0  0  0  0  0  0
  151.5542  140.0091  154.4176 H   0  0  0  0  0  0  0  0  0  0  0  0
  150.1528  137.3039  154.2512 H   0  0  0  0  0  0  0  0  0  0  0  0
  151.8838  137.5703  154.4272 H   0  0  0  0  0  0  0  0  0  0  0  0
  151.0638  138.0717  152.9533 H   0  0  0  0  0  0  0  0  0  0  0  0
  148.3726  133.6084  152.3106 H   0  0  0  0  0  0  0  0  0  0  0  0
  147.7959  131.9329  152.3612 H   0  0  0  0  0  0  0  0  0  0  0  0
  147.3430  133.0648  153.6529 H   0  0  0  0  0  0  0  0  0  0  0  0
  1  2  1  0  0  0  0
  1 22  1  0  0  0  0
  1 23  1  0  0  0  0
  1 24  1  0  0  0  0
  2 21  2  0  0  0  0
  2  3  1  0  0  0  0
  3  4  2  0  0  0  0
  3 25  1  0  0  0  0
  4  5  1  0  0  0  0
  4 19  1  0  0  0  0
  5  6  1  0  0  0  0
  5 26  1  0  0  0  0
  6  7  2  0  0  0  0
  6  8  1  0  0  0  0
  8  9  1  0  0  0  0
  8 27  1  0  0  0  0
  9 10  1  0  0  0  0
  9 28  1  0  0  0  0
  9 29  1  0  0  0  0
 10 11  1  0  0  0  0
 10 30  1  0  0  0  0
 10 31  1  0  0  0  0
 11 12  1  0  0  0  0
 12 17  1  0  0  0  0
 12 13  1  0  0  0  0
 12 32  1  0  0  0  0
 13 14  1  0  0  0  0
 13 33  1  0  0  0  0
 13 34  1  0  0  0  0
 14 15  1  0  0  0  0
 14 35  1  0  0  0  0
 14 36  1  0  0  0  0
 15 16  1  0  0  0  0
 15 37  1  0  0  0  0
 15 38  1  0  0  0  0
 16 17  1  0  0  0  0
 16 39  1  0  0  0  0
 16 40  1  0  0  0  0
 17 18  1  0  0  0  0
 17 41  1  0  0  0  0
 18 42  1  0  0  0  0
 18 43  1  0  0  0  0
 18 44  1  0  0  0  0
 19 20  1  0  0  0  0
 19 21  1  0  0  0  0
 20 45  1  0  0  0  0
 20 46  1  0  0  0  0
 20 47  1  0  0  0  0
M  END
> <s_m_source_file>
AV-unprocessed.smi

> <i_m_source_file_index>
1945

> <i_lp_mmshare_version>
43012

> <i_f3d_flags>
0

> <s_epik_input>
W0NIM11jMVtjSF1jKG4objEpW0NIM10pW05IXUMoPU8pW05IXVtDSDJdW0NIMl1PW0NAQEhdMltDSDJdW0NIMl1bQ0gyXVtDSDJdW0NASF0yW0NIM10=

> <s_epik_cmdline>
J2VwaWtfcHl0aG9uJywgJy1waCcsICc3LjAnLCAnLXRuJywgJzgnLCAnLW1hJywgJzIwMCcsICctbWV0YWxfYmluZGluZycsICctaW1hZScsICc8aW5maWxlLm1hZT4nLCAnLW9tYWUnLCAnPG91dGZpbGUubWFlPic=

> <r_lp_tautomer_probability>
1

> <r_epik_Ionization_Penalty>
9.47735e-05

> <r_epik_Ionization_Penalty_Charging>
0

> <r_epik_Ionization_Penalty_Neutral>
9.47735e-05

> <r_epik_State_Penalty>
-0

> <r_epik_Charging_Adjusted_Penalty>
0

> <i_epik_Tot_Q>
0

> <i_epik_Tot_abs_Q>
0

> <r_epik_Metal_State_Penalty>
-0

> <b_epik_Metal_Only>
0

> <s_lp_Force_Field>
OPLS_2005

> <r_lp_Energy>
11.3834

> <b_lp_Chiralities_Consistent>
1

> <s_lp_Variant>
AV-unprocessed.smi:1945-2

> <Gold.Version>
5.8.1

> <Gold.Id.Protein>
6NUR|6NUR_protein|mol2

> <Gold.PLP.Fitness>
40.3234

> <Gold.PLP.PLP>
-36.0113

> <Gold.PLP.part.hbond>
-1.8284

> <Gold.PLP.part.metal>
0.0000

> <Gold.PLP.part.buried>
-1.2741

> <Gold.PLP.part.nonpolar>
-34.6059

> <Gold.PLP.part.repulsive>
0.8070

> <Gold.PLP.ligand.clash>
0.0000

> <Gold.PLP.ligand.torsion>
0.6836

> <Gold.PLP.Chemscore.Hbond>
1.8393

> <Gold.PLP.Chemscore.CHOScore>
0.0000

> <Gold.PLP.Chemscore.Metal>
0.0000

> <Gold.Chemscore.Hbonds>
donor molecule, donor type, donor heavy atom, donor atom, acceptor molecule, acceptor atom, score
      L1  H     5    26       P1  7948  1.00
      L1  H     8    27       P1  7948  0.88

> <Gold.PLP.Chemscore.Internal.Correction>
0.1617

> <Gold.Rescore>
     Score         DG    S(hbond)    S(metal)    S(lipo)     H(rot)  DE(clash)    DE(int)     intcor
     15.91     -17.25       1.85        0.00      83.40       1.63       0.00       1.34       ----

> <Gold.Chemscore.Fitness>
15.9108

> <Gold.Chemscore.DG>
-17.2485

> <Gold.Chemscore.ZeroCoef>
-5.4800

> <Gold.Chemscore.Hbond>
1.8524

> <Gold.Chemscore.Metal>
0.0000

> <Gold.Chemscore.Lipo>
83.4032

> <Gold.Chemscore.Internal_Hbond>
0.0000

> <Gold.Chemscore.DEClash>
0.0004

> <Gold.Chemscore.DEInternal>
1.3373

> <Gold.Chemscore.Rot>
1.6316

> <Gold.Chemscore.Internal.Correction>
   9.000000E+99

> <Gold.Chemscore.Hbonds>
donor molecule, donor type, donor heavy atom, donor atom, acceptor molecule, acceptor atom, score
      L1  H     5    26       P1  7948  0.97
      L1  H     8    27       P1  7948  0.86

> <Gold.Chemscore.Hbond.Weighted>
-6.1871

> <Gold.Chemscore.Metal.Weighted>
-0.0000

> <Gold.Chemscore.Lipo.Weighted>
-9.7582

> <Gold.Chemscore.Internal_Hbond.Weighted>
0.0000

> <Gold.Chemscore.DEClash.Weighted>
0.0004

> <Gold.Chemscore.DEInternal.Weighted>
1.3373

> <Gold.Chemscore.Rot.Weighted>
4.1768

> <Gold.Chemscore.Internal.Correction.Weighted>
   9.000000E+99

> <Gold.Protein.RotatedTorsions>
[ 6907 6896 6895 6894 ] final  -26.93 input  -60.11 | X-H torsion
[ 7974 7965 7964 7962 ] final  150.61 input  175.53 | X-H torsion
[ 8008 7997 7996 7995 ] final -137.49 input   59.86 | X-H torsion
[ 10167 10162 10161 10158 ] final   74.00 input  -65.29 | X-H torsion
[ 10718 10713 10712 10709 ] final   25.44 input   66.30 | X-H torsion
[ 10763 10752 10751 10750 ] final  -15.29 input  -60.55 | X-H torsion
[ 11005 11000 10999 10996 ] final -102.45 input  -57.11 | X-H torsion

> <Gold.Protein.ActiveResidues>
 VAL166  LYS551  ARG553  GLY616  TRP617  ASP618  TYR619  PRO620  LYS621  CYS622 
 ASP623  PHE694  ASN695  SER759  ASP760  ASP761  ALA762  ILE779  LEU786  VAL792 
 PHE793  MET794  SER795  GLU796  ALA797  LYS798  CYS799  TRP800  GLU811  SER814 

> <Gold.Protein.RotatedAtoms>
  151.1540  135.0241  159.8680 H   0  0  0  0  0  0  0  0  0  0  0  0  # atno 6907 bound_to 6896
  152.5452  134.1356  159.8467 H   0  0  0  0  0  0  0  0  0  0  0  0  # atno 6908 bound_to 6896
  151.1444  133.4903  159.2629 H   0  0  0  0  0  0  0  0  0  0  0  0  # atno 6909 bound_to 6896
  144.8351  139.6431  143.6041 H   0  0  0  0  0  0  0  0  0  0  0  0  # atno 7974 bound_to 7965
  155.4126  140.0513  157.3031 H   0  0  0  0  0  0  0  0  0  0  0  0  # atno 8008 bound_to 7997
  154.4939  140.2131  155.9448 H   0  0  0  0  0  0  0  0  0  0  0  0  # atno 8009 bound_to 7997
  156.1379  140.3160  155.8455 H   0  0  0  0  0  0  0  0  0  0  0  0  # atno 8010 bound_to 7997
  140.0184  144.5559  150.7601 H   0  0  0  0  0  0  0  0  0  0  0  0  # atno 10167 bound_to 10162
  157.1934  130.6857  149.6159 H   0  0  0  0  0  0  0  0  0  0  0  0  # atno 10718 bound_to 10713
  153.5412  135.7013  153.5636 H   0  0  0  0  0  0  0  0  0  0  0  0  # atno 10763 bound_to 10752
  153.3601  135.3972  155.1711 H   0  0  0  0  0  0  0  0  0  0  0  0  # atno 10764 bound_to 10752
  154.8673  135.3786  154.4916 H   0  0  0  0  0  0  0  0  0  0  0  0  # atno 10765 bound_to 10752
  141.1188  133.8559  157.1361 H   0  0  0  0  0  0  0  0  0  0  0  0  # atno 11005 bound_to 11000
  146.2651  139.6500  142.9335 LP  0  0  0  0  0  0  0  0  0  0  0  0  # atno 17320 bound_to 7965
  145.4811  141.0438  143.2645 LP  0  0  0  0  0  0  0  0  0  0  0  0  # atno 17321 bound_to 7965
  140.7352  143.2738  151.3804 LP  0  0  0  0  0  0  0  0  0  0  0  0  # atno 17342 bound_to 10162
  139.6156  144.1009  152.2342 LP  0  0  0  0  0  0  0  0  0  0  0  0  # atno 17343 bound_to 10162
  155.9709  130.4607  150.6082 LP  0  0  0  0  0  0  0  0  0  0  0  0  # atno 17370 bound_to 10713
  157.3838  131.0785  151.1454 LP  0  0  0  0  0  0  0  0  0  0  0  0  # atno 17371 bound_to 10713
  140.0130  134.9980  157.0435 LP  0  0  0  0  0  0  0  0  0  0  0  0  # atno 17394 bound_to 11000
  140.4567  134.1526  155.7187 LP  0  0  0  0  0  0  0  0  0  0  0  0  # atno 17395 bound_to 11000

$$$$
