#       Name:                AV-unprocessed.smi:1005
#       Creating user name   scv26
#       Creation time:       Fri Mar 27 02:29:12 2020


#       File generated by GOLD software.
#

@<TRIPOS>MOLECULE
AV-unprocessed.smi:1005
    62    64     1
SMALL
NO_CHARGES


@<TRIPOS>ATOM
      1 ****         0.9582   6.2668  -0.5706 C.3            1 S1                 0.0000
      2 ****        -0.0155   5.1046  -0.4731 C.ar           1 S1                 0.0000
      3 ****        -0.5794   4.5956  -1.6644 C.ar           1 S1                 0.0000
      4 ****        -1.4620   3.5290  -1.5433 C.ar           1 S1                 0.0000
      5 ****        -2.1681   2.8130  -2.5122 N.pl3          1 S1                 1.0000
      6 ****        -2.9100   1.8431  -1.9100 C.2            1 S1                 0.0000
      7 ****        -2.6874   1.9276  -0.5704 N.pl3          1 S1                 0.0000
      8 ****        -3.2443   1.1161   0.5210 C.3            1 S1                 0.0000
      9 ****        -2.4798  -0.2048   0.7394 C.3            1 S1                 0.0000
     10 ****        -3.1632  -0.9234   1.7446 O.3            1 S1                 0.0000
     11 ****        -1.0181  -0.0023   1.1942 C.3            1 S1                 0.0000
     12 ****        -0.2165  -1.2210   1.3129 N.3            1 S1                 0.0000
     13 ****         1.0373  -0.9460   2.0062 C.3            1 S1                 0.0000
     14 ****         1.9056  -2.2063   2.1449 C.3            1 S1                 0.0000
     15 ****         2.1511  -2.7525   0.8538 O.3            1 S1                 0.0000
     16 ****         0.9559  -3.0936   0.1555 C.3            1 S1                 0.0000
     17 ****         1.3562  -3.6649  -1.2162 C.3            1 S1                 0.0000
     18 ****         2.1519  -4.9137  -1.1012 N.4            1 S1                 1.0000
     19 ****         1.3349  -6.1026  -0.7650 C.3            1 S1                 0.0000
     20 ****         2.9932  -5.1522  -2.2948 C.3            1 S1                 0.0000
     21 ****         0.0840  -1.8280   0.0171 C.3            1 S1                 0.0000
     22 ****        -1.7939   2.9700  -0.2936 C.ar           1 S1                 0.0000
     23 ****        -1.2499   3.4634   0.8904 C.ar           1 S1                 0.0000
     24 ****        -0.3453   4.5443   0.7880 C.ar           1 S1                 0.0000
     25 ****         0.2710   5.0954   2.0626 C.3            1 S1                 0.0000
     26 ****         1.0585   6.6180  -1.5981 H              1 S1                 0.0000
     27 ****         1.9467   5.9661  -0.2225 H              1 S1                 0.0000
     28 ****         0.6173   7.1064   0.0356 H              1 S1                 0.0000
     29 ****        -0.3319   5.0162  -2.6282 H              1 S1                 0.0000
     30 ****        -3.5583   1.1346  -2.4055 H              1 S1                 0.0000
     31 ****        -3.2805   1.7109   1.4340 H              1 S1                 0.0000
     32 ****        -4.2815   0.9038   0.2575 H              1 S1                 0.0000
     33 ****        -2.5241  -0.7826  -0.1831 H              1 S1                 0.0000
     34 ****        -2.7021  -1.7339   1.8990 H              1 S1                 0.0000
     35 ****        -0.5117   0.6771   0.5084 H              1 S1                 0.0000
     36 ****        -1.0370   0.5110   2.1570 H              1 S1                 0.0000
     37 ****         1.5983  -0.1800   1.4680 H              1 S1                 0.0000
     38 ****         0.8318  -0.5415   2.9981 H              1 S1                 0.0000
     39 ****         2.8577  -1.9614   2.6160 H              1 S1                 0.0000
     40 ****         1.4153  -2.9485   2.7768 H              1 S1                 0.0000
     41 ****         0.4032  -3.8385   0.7290 H              1 S1                 0.0000
     42 ****         0.4731  -3.8508  -1.8295 H              1 S1                 0.0000
     43 ****         1.9406  -2.9081  -1.7419 H              1 S1                 0.0000
     44 ****         0.5983  -6.3037  -1.5440 H              1 S1                 0.0000
     45 ****         0.8070  -5.9730   0.1790 H              1 S1                 0.0000
     46 ****         1.9676  -6.9848  -0.6619 H              1 S1                 0.0000
     47 ****         2.3779  -5.3075  -3.1822 H              1 S1                 0.0000
     48 ****         3.6210  -6.0329  -2.1546 H              1 S1                 0.0000
     49 ****         3.6544  -4.3047  -2.4796 H              1 S1                 0.0000
     50 ****        -0.8377  -2.0982  -0.4965 H              1 S1                 0.0000
     51 ****         0.5944  -1.1029  -0.6190 H              1 S1                 0.0000
     52 ****        -1.4970   3.0379   1.8517 H              1 S1                 0.0000
     53 ****        -0.0304   4.5152   2.9352 H              1 S1                 0.0000
     54 ****        -0.0426   6.1271   2.2227 H              1 S1                 0.0000
     55 ****         1.3596   5.0681   2.0070 H              1 S1                 0.0000
     56 ****         2.7940  -4.7712  -0.3339 H              1 S1                 0.0000
     57 ****        -2.1480   2.9732  -3.5114 H              1 S1                 0.0000
     58 ****        -4.0970  -1.1182   1.4446 LP             1 S1                 0.0000
     59 ****        -3.1892  -0.3842   2.5864 LP             1 S1                 0.0000
     60 ****        -0.7688  -1.8682   1.8384 LP             1 S1                 0.0000
     61 ****         2.7060  -3.5779   0.9575 LP             1 S1                 0.0000
     62 ****         2.6544  -2.0783   0.3133 LP             1 S1                 0.0000
@<TRIPOS>BOND
    1    1    2 1     
    2    1   26 1     
    3    1   27 1     
    4    1   28 1     
    5    2   24 ar    
    6    2    3 ar    
    7    3    4 ar    
    8    3   29 1     
    9    4   22 ar    
   10    4    5 1     
   11    5    6 2     
   12    5   57 1     
   13    6    7 1     
   14    6   30 1     
   15    7    8 1     
   16    7   22 1     
   17    8    9 1     
   18    8   31 1     
   19    8   32 1     
   20    9   10 1     
   21    9   11 1     
   22    9   33 1     
   23   10   34 1     
   24   11   12 1     
   25   11   35 1     
   26   11   36 1     
   27   12   21 1     
   28   12   13 1     
   29   13   14 1     
   30   13   37 1     
   31   13   38 1     
   32   14   15 1     
   33   14   39 1     
   34   14   40 1     
   35   15   16 1     
   36   16   17 1     
   37   16   21 1     
   38   16   41 1     
   39   17   18 1     
   40   17   42 1     
   41   17   43 1     
   42   18   19 1     
   43   18   20 1     
   44   18   56 1     
   45   19   44 1     
   46   19   45 1     
   47   19   46 1     
   48   20   47 1     
   49   20   48 1     
   50   20   49 1     
   51   21   50 1     
   52   21   51 1     
   53   22   23 ar    
   54   23   24 ar    
   55   23   52 1     
   56   24   25 1     
   57   25   53 1     
   58   25   54 1     
   59   25   55 1     
   60   10   58 1     
   61   10   59 1     
   62   12   60 1     
   63   15   61 1     
   64   15   62 1     
@<TRIPOS>SUBSTRUCTURE
      1 S1             1
@<TRIPOS>SET
LONE_PAIRS      STATIC     ATOMS    <user>   **** ""
5 58 59 60 61 62
DONOR_HYDROGENS      STATIC     ATOMS    <user>   **** ""
3 57 34 56
ATOM$BLUE        STATIC     ATOMS    COLORGROUP SYSTEM
5 58 59 60 61 62
ATOM$RED        STATIC     ATOMS    COLORGROUP SYSTEM
3 57 34 56
