#       Name:                AV-unprocessed.smi:1565
#       Creating user name   scv26
#       Creation time:       Fri Mar 27 06:50:02 2020


#       File generated by GOLD software.
#

@<TRIPOS>MOLECULE
AV-unprocessed.smi:1565
    46    47     1
SMALL
NO_CHARGES


@<TRIPOS>ATOM
      1 ****        -4.4721  -1.8600   1.9006 C.3            1 S1                 0.0000
      2 ****        -3.7702  -0.8983   0.9360 C.3            1 S1                 0.0000
      3 ****        -2.2591  -0.8099   1.2138 C.3            1 S1                 0.0000
      4 ****        -1.6463   0.2052   0.3635 N.3            1 S1                 0.0000
      5 ****        -0.2382   0.1603   0.2800 C.ar           1 S1                 0.0000
      6 ****         0.4119  -1.0400  -0.0900 C.ar           1 S1                 0.0000
      7 ****         1.8178  -1.0657  -0.1641 C.ar           1 S1                 0.0000
      8 ****         2.5457   0.1114   0.1227 C.ar           1 S1                 0.0000
      9 ****         4.0500   0.1504   0.0936 C.2            1 S1                 0.0000
     10 ****         4.6273   0.8548   0.9293 O.2            1 S1                 0.0000
     11 ****         4.5703  -0.5899  -0.9259 N.pl3          1 S1                -1.0000
     12 ****         6.0025  -0.7096  -1.2096 C.3            1 S1                 0.0000
     13 ****         6.4620   0.3565  -2.2248 C.3            1 S1                 0.0000
     14 ****         7.7588   0.1827  -2.4798 F              1 S1                 0.0000
     15 ****         5.7887   0.2391  -3.3703 F              1 S1                 0.0000
     16 ****         6.2912   1.5875  -1.7402 F              1 S1                 0.0000
     17 ****         1.8078   1.2574   0.4895 C.ar           1 S1                 0.0000
     18 ****         0.4596   1.2879   0.5607 N.ar           1 S1                 0.0000
     19 ****        -2.2858   1.5138   0.4789 C.3            1 S1                 0.0000
     20 ****        -3.8067   1.4082   0.2523 C.3            1 S1                 0.0000
     21 ****        -4.1951   1.2208  -1.2253 C.3            1 S1                 0.0000
     22 ****        -4.3618   0.3913   1.0897 O.3            1 S1                 0.0000
     23 ****        -4.0640  -2.8675   1.8167 H              1 S1                 0.0000
     24 ****        -5.5398  -1.9155   1.6868 H              1 S1                 0.0000
     25 ****        -4.3560  -1.5362   2.9353 H              1 S1                 0.0000
     26 ****        -3.9343  -1.2603  -0.0791 H              1 S1                 0.0000
     27 ****        -2.0834  -0.5424   2.2566 H              1 S1                 0.0000
     28 ****        -1.8100  -1.7902   1.0604 H              1 S1                 0.0000
     29 ****        -0.1470  -1.9330  -0.3271 H              1 S1                 0.0000
     30 ****         2.3195  -1.9828  -0.4371 H              1 S1                 0.0000
     31 ****         6.6101  -0.6294  -0.3066 H              1 S1                 0.0000
     32 ****         6.2294  -1.6963  -1.6150 H              1 S1                 0.0000
     33 ****         2.3074   2.1847   0.7298 H              1 S1                 0.0000
     34 ****        -2.0910   1.9111   1.4762 H              1 S1                 0.0000
     35 ****        -1.8561   2.2158  -0.2369 H              1 S1                 0.0000
     36 ****        -4.2554   2.3473   0.5776 H              1 S1                 0.0000
     37 ****        -3.8763   2.0779  -1.8188 H              1 S1                 0.0000
     38 ****        -5.2757   1.1278  -1.3346 H              1 S1                 0.0000
     39 ****        -3.7357   0.3361  -1.6655 H              1 S1                 0.0000
     40 ****        -1.8648  -0.0571  -0.5764 LP             1 S1                 0.0000
     41 ****         4.0956   1.3760   1.5968 LP             1 S1                 0.0000
     42 ****         5.6261   0.9034   0.9379 LP             1 S1                 0.0000
     43 ****         3.9333  -1.0831  -1.5183 LP             1 S1                 0.0000
     44 ****        -0.0165   2.1292   0.8165 LP             1 S1                 0.0000
     45 ****        -4.2469   0.6750   2.0417 LP             1 S1                 0.0000
     46 ****        -5.3366   0.3135   0.8804 LP             1 S1                 0.0000
@<TRIPOS>BOND
    1    1    2 1     
    2    1   23 1     
    3    1   24 1     
    4    1   25 1     
    5    2   22 1     
    6    2    3 1     
    7    2   26 1     
    8    3    4 1     
    9    3   27 1     
   10    3   28 1     
   11    4    5 1     
   12    4   19 1     
   13    5   18 ar    
   14    5    6 ar    
   15    6    7 ar    
   16    6   29 1     
   17    7    8 ar    
   18    7   30 1     
   19    8    9 1     
   20    8   17 ar    
   21    9   10 2     
   22    9   11 1     
   23   11   12 1     
   24   12   13 1     
   25   12   31 1     
   26   12   32 1     
   27   13   14 1     
   28   13   15 1     
   29   13   16 1     
   30   17   18 ar    
   31   17   33 1     
   32   19   20 1     
   33   19   34 1     
   34   19   35 1     
   35   20   21 1     
   36   20   22 1     
   37   20   36 1     
   38   21   37 1     
   39   21   38 1     
   40   21   39 1     
   41    4   40 1     
   42   10   41 1     
   43   10   42 1     
   44   11   43 1     
   45   18   44 1     
   46   22   45 1     
   47   22   46 1     
@<TRIPOS>SUBSTRUCTURE
      1 S1             1
@<TRIPOS>SET
LONE_PAIRS      STATIC     ATOMS    <user>   **** ""
7 40 41 42 43 44 45 46
ATOM$BLUE        STATIC     ATOMS    COLORGROUP SYSTEM
7 40 41 42 43 44 45 46
