AV-unprocessed.smi:1029|AV-procd|sdf|4474|dock4
  -GOLD-   22720 2453D 1   1.00000     0.00000
 Structure written by MMmdl.
 46 47  0  0  0  0  0  0  0  0  2 V2000
  152.8292  143.0405  159.6411 C   0  0  0  0  0  0  0  0  0  0  0  0
  151.7187  142.6191  158.7246 C   0  0  0  0  0  0  0  0  0  0  0  0
  151.7377  142.5109  157.3062 C   0  0  0  0  0  0  0  0  0  0  0  0
  150.4671  142.0894  157.0172 C   0  0  0  0  0  0  0  0  0  0  0  0
  149.9241  141.8140  155.8027 N   0  0  0  0  0  0  0  0  0  0  0  0
  148.7214  141.2844  155.5172 C   0  0  0  0  0  0  0  0  0  0  0  0
  147.8805  140.9285  156.3429 O   0  0  0  0  0  0  0  0  0  0  0  0
  148.5363  141.1819  154.1944 N   0  0  0  0  0  0  0  0  0  0  0  0
  147.3226  140.6625  153.5772 C   0  0  0  0  0  0  0  0  0  0  0  0
  147.4799  139.1783  153.2044 C   0  0  2  0  0  0  0  0  0  0  0  0
  148.8542  138.9191  152.9912 O   0  0  0  0  0  0  0  0  0  0  0  0
  146.7285  138.8427  151.8998 C   0  0  0  0  0  0  0  0  0  0  0  0
  146.3566  137.4071  151.8049 N   0  3  2  0  0  0  0  0  0  0  0  0
  145.7357  137.0731  150.4971 C   0  0  0  0  0  0  0  0  0  0  0  0
  145.4840  135.5612  150.3685 C   0  0  0  0  0  0  0  0  0  0  0  0
  144.6118  135.0405  151.5225 C   0  0  1  0  0  0  0  0  0  0  0  0
  144.3739  133.5275  151.4192 C   0  0  0  0  0  0  0  0  0  0  0  0
  145.2639  135.4263  152.8605 C   0  0  0  0  0  0  0  0  0  0  0  0
  145.5174  136.9411  152.9412 C   0  0  0  0  0  0  0  0  0  0  0  0
  149.7294  141.9446  158.1446 O   0  0  0  0  0  0  0  0  0  0  0  0
  150.5403  142.2889  159.2325 N   0  0  0  0  0  0  0  0  0  0  0  0
  153.7420  143.2509  159.0835 H   0  0  0  0  0  0  0  0  0  0  0  0
  153.0573  142.2596  160.3671 H   0  0  0  0  0  0  0  0  0  0  0  0
  152.5623  143.9425  160.1925 H   0  0  0  0  0  0  0  0  0  0  0  0
  152.5578  142.7119  156.6335 H   0  0  0  0  0  0  0  0  0  0  0  0
  150.5093  142.0404  155.0121 H   0  0  0  0  0  0  0  0  0  0  0  0
  149.2701  141.4981  153.5770 H   0  0  0  0  0  0  0  0  0  0  0  0
  146.5101  140.7719  154.2976 H   0  0  0  0  0  0  0  0  0  0  0  0
  147.0531  141.2604  152.7045 H   0  0  0  0  0  0  0  0  0  0  0  0
  147.1192  138.5580  154.0248 H   0  0  0  0  0  0  0  0  0  0  0  0
  149.2029  139.5841  152.4169 H   0  0  0  0  0  0  0  0  0  0  0  0
  145.8264  139.4497  151.8085 H   0  0  0  0  0  0  0  0  0  0  0  0
  147.3629  139.1195  151.0558 H   0  0  0  0  0  0  0  0  0  0  0  0
  144.7993  137.6224  150.3861 H   0  0  0  0  0  0  0  0  0  0  0  0
  146.3903  137.3935  149.6857 H   0  0  0  0  0  0  0  0  0  0  0  0
  145.0034  135.3503  149.4124 H   0  0  0  0  0  0  0  0  0  0  0  0
  146.4385  135.0328  150.3572 H   0  0  0  0  0  0  0  0  0  0  0  0
  143.6401  135.5330  151.4629 H   0  0  0  0  0  0  0  0  0  0  0  0
  145.3112  132.9724  151.4727 H   0  0  0  0  0  0  0  0  0  0  0  0
  143.8879  133.2701  150.4776 H   0  0  0  0  0  0  0  0  0  0  0  0
  143.7317  133.1752  152.2270 H   0  0  0  0  0  0  0  0  0  0  0  0
  144.6256  135.1173  153.6892 H   0  0  0  0  0  0  0  0  0  0  0  0
  146.2075  134.8921  152.9821 H   0  0  0  0  0  0  0  0  0  0  0  0
  146.0023  137.1664  153.8902 H   0  0  0  0  0  0  0  0  0  0  0  0
  144.5678  137.4786  152.9383 H   0  0  0  0  0  0  0  0  0  0  0  0
  147.2229  136.8887  151.8439 H   0  0  0  0  0  0  0  0  0  0  0  0
  1  2  1  0  0  0  0
  1 22  1  0  0  0  0
  1 23  1  0  0  0  0
  1 24  1  0  0  0  0
  2 21  2  0  0  0  0
  2  3  1  0  0  0  0
  3  4  2  0  0  0  0
  3 25  1  0  0  0  0
  4  5  1  0  0  0  0
  4 20  1  0  0  0  0
  5  6  1  0  0  0  0
  5 26  1  0  0  0  0
  6  7  2  0  0  0  0
  6  8  1  0  0  0  0
  8  9  1  0  0  0  0
  8 27  1  0  0  0  0
  9 10  1  0  0  0  0
  9 28  1  0  0  0  0
  9 29  1  0  0  0  0
 10 11  1  0  0  0  0
 10 12  1  0  0  0  0
 10 30  1  0  0  0  0
 11 31  1  0  0  0  0
 12 13  1  0  0  0  0
 12 32  1  0  0  0  0
 12 33  1  0  0  0  0
 13 19  1  0  0  0  0
 13 14  1  0  0  0  0
 13 46  1  0  0  0  0
 14 15  1  0  0  0  0
 14 34  1  0  0  0  0
 14 35  1  0  0  0  0
 15 16  1  0  0  0  0
 15 36  1  0  0  0  0
 15 37  1  0  0  0  0
 16 17  1  0  0  0  0
 16 18  1  0  0  0  0
 16 38  1  0  0  0  0
 17 39  1  0  0  0  0
 17 40  1  0  0  0  0
 17 41  1  0  0  0  0
 18 19  1  0  0  0  0
 18 42  1  0  0  0  0
 18 43  1  0  0  0  0
 19 44  1  0  0  0  0
 19 45  1  0  0  0  0
 20 21  1  0  0  0  0
M  CHG  1  13   1
M  END
> <s_m_source_file>
AV-unprocessed.smi

> <i_m_source_file_index>
1029

> <i_lp_mmshare_version>
43012

> <i_f3d_flags>
0

> <s_epik_input>
W0NIM11jMVtjSF1jKG9uMSlbTkhdQyg9TylbTkhdW0NIMl1bQ0BIXShbT0hdKVtDSDJdTjJbQ0gyXVtDSDJdW0NIXShbQ0gzXSlbQ0gyXVtDSDJdMg==

> <s_epik_cmdline>
J2VwaWtfcHl0aG9uJywgJy1waCcsICc3LjAnLCAnLXRuJywgJzgnLCAnLW1hJywgJzIwMCcsICctbWV0YWxfYmluZGluZycsICctaW1hZScsICc8aW5maWxlLm1hZT4nLCAnLW9tYWUnLCAnPG91dGZpbGUubWFlPic=

> <r_lp_tautomer_probability>
1

> <r_epik_Ionization_Penalty>
0.00211787

> <r_epik_Ionization_Penalty_Charging>
0.00153238

> <r_epik_Ionization_Penalty_Neutral>
0.000585488

> <r_epik_State_Penalty>
-0

> <r_epik_Charging_Adjusted_Penalty>
0.00153238

> <i_epik_Tot_Q>
1

> <i_epik_Tot_abs_Q>
1

> <r_epik_Metal_State_Penalty>
-0

> <b_epik_Metal_Only>
0

> <s_lp_Force_Field>
OPLS_2005

> <r_lp_Energy>
21.4534

> <b_lp_Chiralities_Consistent>
1

> <s_lp_Variant>
AV-unprocessed.smi:1029-1

> <Gold.Version>
5.8.1

> <Gold.Id.Protein>
6NUR|6NUR_protein|mol2

> <Gold.PLP.Fitness>
43.1456

> <Gold.PLP.PLP>
-35.9444

> <Gold.PLP.part.hbond>
-4.9503

> <Gold.PLP.part.metal>
0.0000

> <Gold.PLP.part.buried>
1.4824

> <Gold.PLP.part.nonpolar>
-32.4889

> <Gold.PLP.part.repulsive>
0.6394

> <Gold.PLP.ligand.clash>
0.0000

> <Gold.PLP.ligand.torsion>
0.9224

> <Gold.PLP.Chemscore.Hbond>
3.0000

> <Gold.PLP.Chemscore.CHOScore>
0.0000

> <Gold.PLP.Chemscore.Metal>
0.0000

> <Gold.Chemscore.Hbonds>
donor molecule, donor type, donor heavy atom, donor atom, acceptor molecule, acceptor atom, score
      L1  H    11    31       P1  7957  0.65
      L1  H    13    46       P1  7948  2.00

> <Gold.PLP.Chemscore.Internal.Correction>
0.0461

> <Gold.Rescore>
     Score         DG    S(hbond)    S(metal)    S(lipo)     H(rot)  DE(clash)    DE(int)     intcor
     11.97     -15.93       1.96        0.00      87.18       2.46       1.71       2.24       ----

> <Gold.Chemscore.Fitness>
11.9695

> <Gold.Chemscore.DG>
-15.9255

> <Gold.Chemscore.ZeroCoef>
-5.4800

> <Gold.Chemscore.Hbond>
1.9607

> <Gold.Chemscore.Metal>
0.0000

> <Gold.Chemscore.Lipo>
87.1821

> <Gold.Chemscore.Internal_Hbond>
0.0000

> <Gold.Chemscore.DEClash>
1.7130

> <Gold.Chemscore.DEInternal>
2.2430

> <Gold.Chemscore.Rot>
2.4624

> <Gold.Chemscore.Internal.Correction>
   9.000000E+99

> <Gold.Chemscore.Hbonds>
donor molecule, donor type, donor heavy atom, donor atom, acceptor molecule, acceptor atom, score
      L1  H    11    31       P1  7957  0.62
      L1  H    13    46       P1  7948  1.00

> <Gold.Chemscore.Hbond.Weighted>
-6.5489

> <Gold.Chemscore.Metal.Weighted>
-0.0000

> <Gold.Chemscore.Lipo.Weighted>
-10.2003

> <Gold.Chemscore.Internal_Hbond.Weighted>
0.0000

> <Gold.Chemscore.DEClash.Weighted>
1.7130

> <Gold.Chemscore.DEInternal.Weighted>
2.2430

> <Gold.Chemscore.Rot.Weighted>
6.3037

> <Gold.Chemscore.Internal.Correction.Weighted>
   9.000000E+99

> <Gold.Protein.RotatedTorsions>
[ 6907 6896 6895 6894 ] final  -13.32 input  -60.11 | X-H torsion
[ 7974 7965 7964 7962 ] final  -78.71 input  175.53 | X-H torsion
[ 8008 7997 7996 7995 ] final   38.81 input   59.86 | X-H torsion
[ 10167 10162 10161 10158 ] final -137.56 input  -65.29 | X-H torsion
[ 10718 10713 10712 10709 ] final -130.74 input   66.30 | X-H torsion
[ 10763 10752 10751 10750 ] final   -0.40 input  -60.55 | X-H torsion
[ 11005 11000 10999 10996 ] final   94.72 input  -57.11 | X-H torsion

> <Gold.Protein.ActiveResidues>
 VAL166  LYS551  ARG553  GLY616  TRP617  ASP618  TYR619  PRO620  LYS621  CYS622 
 ASP623  PHE694  ASN695  SER759  ASP760  ASP761  ALA762  ILE779  LEU786  VAL792 
 PHE793  MET794  SER795  GLU796  ALA797  LYS798  CYS799  TRP800  GLU811  SER814 

> <Gold.Protein.RotatedAtoms>
  151.3568  135.0896  159.9420 H   0  0  0  0  0  0  0  0  0  0  0  0  # atno 6907 bound_to 6896
  152.5172  133.9298  159.7585 H   0  0  0  0  0  0  0  0  0  0  0  0  # atno 6908 bound_to 6896
  150.9684  133.6316  159.2771 H   0  0  0  0  0  0  0  0  0  0  0  0  # atno 6909 bound_to 6896
  145.5829  140.9445  143.1334 H   0  0  0  0  0  0  0  0  0  0  0  0  # atno 7974 bound_to 7965
  155.2263  140.3335  155.4309 H   0  0  0  0  0  0  0  0  0  0  0  0  # atno 8008 bound_to 7997
  156.2313  140.1852  156.7282 H   0  0  0  0  0  0  0  0  0  0  0  0  # atno 8009 bound_to 7997
  154.5982  140.0627  156.9318 H   0  0  0  0  0  0  0  0  0  0  0  0  # atno 8010 bound_to 7997
  139.8565  143.7131  152.2654 H   0  0  0  0  0  0  0  0  0  0  0  0  # atno 10167 bound_to 10162
  156.2174  130.6957  151.0718 H   0  0  0  0  0  0  0  0  0  0  0  0  # atno 10718 bound_to 10713
  153.3314  135.6975  153.6944 H   0  0  0  0  0  0  0  0  0  0  0  0  # atno 10763 bound_to 10752
  153.5745  135.3510  155.2851 H   0  0  0  0  0  0  0  0  0  0  0  0  # atno 10764 bound_to 10752
  154.8619  135.4280  154.2504 H   0  0  0  0  0  0  0  0  0  0  0  0  # atno 10765 bound_to 10752
  139.8796  134.8860  156.3906 H   0  0  0  0  0  0  0  0  0  0  0  0  # atno 11005 bound_to 11000
  144.7386  139.7514  143.7320 LP  0  0  0  0  0  0  0  0  0  0  0  0  # atno 17320 bound_to 7965
  146.1703  139.4851  142.9932 LP  0  0  0  0  0  0  0  0  0  0  0  0  # atno 17321 bound_to 7965
  139.7414  144.7558  151.0646 LP  0  0  0  0  0  0  0  0  0  0  0  0  # atno 17342 bound_to 10162
  140.7781  143.4968  150.9823 LP  0  0  0  0  0  0  0  0  0  0  0  0  # atno 17343 bound_to 10162
  157.7070  131.0752  150.6632 LP  0  0  0  0  0  0  0  0  0  0  0  0  # atno 17370 bound_to 10713
  156.6694  130.4535  149.5662 LP  0  0  0  0  0  0  0  0  0  0  0  0  # atno 17371 bound_to 10713
  140.9336  133.7562  156.0056 LP  0  0  0  0  0  0  0  0  0  0  0  0  # atno 17394 bound_to 11000
  140.8302  134.3187  157.5351 LP  0  0  0  0  0  0  0  0  0  0  0  0  # atno 17395 bound_to 11000

$$$$
