AV-unprocessed.smi:3260|AV-procd|sdf|12476|dock6
  -GOLD-   2272018373D 1   1.00000     0.00000
 Structure written by MMmdl.
 38 39  0  0  0  0  0  0  0  0  1 V2000
  151.1616  142.4231  156.1272 C   0  0  0  0  0  0  0  0  0  0  0  0
  150.3768  141.4949  155.3418 N   0  0  0  0  0  0  0  0  0  0  0  0
  149.0707  141.6160  154.9206 C   0  0  0  0  0  0  0  0  0  0  0  0
  148.7585  140.4850  154.2198 C   0  0  0  0  0  0  0  0  0  0  0  0
  147.4484  140.1173  153.5716 C   0  0  0  0  0  0  0  0  0  0  0  0
  146.8983  138.7536  154.0436 C   0  0  0  0  0  0  0  0  0  0  0  0
  146.8737  137.7405  152.9914 N   0  0  0  0  0  0  0  0  0  0  0  0
  145.7685  137.2374  152.4254 C   0  0  0  0  0  0  0  0  0  0  0  0
  144.6260  137.6189  152.6790 O   0  0  0  0  0  0  0  0  0  0  0  0
  146.0574  136.2342  151.5859 N   0  0  0  0  0  0  0  0  0  0  0  0
  145.0681  135.3754  150.9455 C   0  0  0  0  0  0  0  0  0  0  0  0
  145.1508  133.9307  151.4704 C   0  0  2  0  0  0  0  0  0  0  0  0
  146.2702  133.0920  150.8559 C   0  0  0  0  0  0  0  0  0  0  0  0
  145.7769  131.6907  151.1325 C   0  0  0  0  0  0  0  0  0  0  0  0
  144.2679  131.8358  150.9375 C   0  0  0  0  0  0  0  0  0  0  0  0
  143.9631  133.2123  151.1569 O   0  0  0  0  0  0  0  0  0  0  0  0
  149.9631  139.7272  154.2621 C   0  0  0  0  0  0  0  0  0  0  0  0
  150.9278  140.3322  154.9366 N   0  0  0  0  0  0  0  0  0  0  0  0
  150.6285  143.3685  156.2303 H   0  0  0  0  0  0  0  0  0  0  0  0
  152.1186  142.6078  155.6382 H   0  0  0  0  0  0  0  0  0  0  0  0
  151.3392  142.0061  157.1190 H   0  0  0  0  0  0  0  0  0  0  0  0
  148.4717  142.4820  155.1617 H   0  0  0  0  0  0  0  0  0  0  0  0
  146.7027  140.8865  153.7758 H   0  0  0  0  0  0  0  0  0  0  0  0
  147.5484  140.1002  152.4860 H   0  0  0  0  0  0  0  0  0  0  0  0
  147.4607  138.3902  154.9048 H   0  0  0  0  0  0  0  0  0  0  0  0
  145.8688  138.8820  154.3791 H   0  0  0  0  0  0  0  0  0  0  0  0
  147.7643  137.3537  152.7156 H   0  0  0  0  0  0  0  0  0  0  0  0
  147.0280  135.9986  151.4398 H   0  0  0  0  0  0  0  0  0  0  0  0
  144.0652  135.7776  151.0966 H   0  0  0  0  0  0  0  0  0  0  0  0
  145.2498  135.3915  149.8707 H   0  0  0  0  0  0  0  0  0  0  0  0
  145.2586  133.9303  152.5566 H   0  0  0  0  0  0  0  0  0  0  0  0
  146.3333  133.2621  149.7803 H   0  0  0  0  0  0  0  0  0  0  0  0
  147.2469  133.2968  151.2937 H   0  0  0  0  0  0  0  0  0  0  0  0
  146.2230  130.9411  150.4785 H   0  0  0  0  0  0  0  0  0  0  0  0
  145.9974  131.4175  152.1655 H   0  0  0  0  0  0  0  0  0  0  0  0
  143.9847  131.5774  149.9165 H   0  0  0  0  0  0  0  0  0  0  0  0
  143.7058  131.1945  151.6166 H   0  0  0  0  0  0  0  0  0  0  0  0
  150.1604  138.7565  153.8317 H   0  0  0  0  0  0  0  0  0  0  0  0
  1  2  1  0  0  0  0
  1 19  1  0  0  0  0
  1 20  1  0  0  0  0
  1 21  1  0  0  0  0
  2 18  1  0  0  0  0
  2  3  1  0  0  0  0
  3  4  2  0  0  0  0
  3 22  1  0  0  0  0
  4  5  1  0  0  0  0
  4 17  1  0  0  0  0
  5  6  1  0  0  0  0
  5 23  1  0  0  0  0
  5 24  1  0  0  0  0
  6  7  1  0  0  0  0
  6 25  1  0  0  0  0
  6 26  1  0  0  0  0
  7  8  1  0  0  0  0
  7 27  1  0  0  0  0
  8  9  2  0  0  0  0
  8 10  1  0  0  0  0
 10 11  1  0  0  0  0
 10 28  1  0  0  0  0
 11 12  1  0  0  0  0
 11 29  1  0  0  0  0
 11 30  1  0  0  0  0
 12 16  1  0  0  0  0
 12 13  1  0  0  0  0
 12 31  1  0  0  0  0
 13 14  1  0  0  0  0
 13 32  1  0  0  0  0
 13 33  1  0  0  0  0
 14 15  1  0  0  0  0
 14 34  1  0  0  0  0
 14 35  1  0  0  0  0
 15 16  1  0  0  0  0
 15 36  1  0  0  0  0
 15 37  1  0  0  0  0
 17 18  2  0  0  0  0
 17 38  1  0  0  0  0
M  END
> <s_m_source_file>
AV-unprocessed.smi

> <i_m_source_file_index>
3260

> <i_lp_mmshare_version>
43012

> <i_f3d_flags>
0

> <s_epik_input>
W0NIM11uMVtjSF1jKFtjSF1uMSlbQ0gyXVtDSDJdW05IXUMoPU8pW05IXVtDSDJdW0NAQEhdMltDSDJdW0NIMl1bQ0gyXU8y

> <s_epik_cmdline>
J2VwaWtfcHl0aG9uJywgJy1waCcsICc3LjAnLCAnLXRuJywgJzgnLCAnLW1hJywgJzIwMCcsICctbWV0YWxfYmluZGluZycsICctaW1hZScsICc8aW5maWxlLm1hZT4nLCAnLW9tYWUnLCAnPG91dGZpbGUubWFlPic=

> <r_lp_tautomer_probability>
1

> <r_epik_Ionization_Penalty>
0.000550106

> <r_epik_Ionization_Penalty_Charging>
0

> <r_epik_Ionization_Penalty_Neutral>
0.000550106

> <r_epik_State_Penalty>
-0

> <r_epik_Charging_Adjusted_Penalty>
0

> <i_epik_Tot_Q>
0

> <i_epik_Tot_abs_Q>
0

> <r_epik_Metal_State_Penalty>
-0

> <b_epik_Metal_Only>
0

> <s_lp_Force_Field>
OPLS_2005

> <r_lp_Energy>
10.4749

> <b_lp_Chiralities_Consistent>
1

> <s_lp_Variant>
AV-unprocessed.smi:3260-1

> <Gold.Version>
5.8.1

> <Gold.Id.Protein>
6NUR|6NUR_protein|mol2

> <Gold.PLP.Fitness>
45.1251

> <Gold.PLP.PLP>
-35.6840

> <Gold.PLP.part.hbond>
-3.0000

> <Gold.PLP.part.metal>
0.0000

> <Gold.PLP.part.buried>
-6.5234

> <Gold.PLP.part.nonpolar>
-27.4874

> <Gold.PLP.part.repulsive>
1.1296

> <Gold.PLP.ligand.clash>
0.0000

> <Gold.PLP.ligand.torsion>
0.6237

> <Gold.PLP.Chemscore.Hbond>
2.5500

> <Gold.PLP.Chemscore.CHOScore>
1.0000

> <Gold.PLP.Chemscore.Metal>
0.0000

> <Gold.Chemscore.Hbonds>
donor molecule, donor type, donor heavy atom, donor atom, acceptor molecule, acceptor atom, score
      L1  H     7    27       P1  7948  1.00
      L1  H    10    28       P1  7948  1.00
      P1  H  7989  7998       L1    18  0.49
      L1  C     3    22       P1  8028  1.00

> <Gold.PLP.Chemscore.Internal.Correction>
0.0386

> <Gold.Rescore>
     Score         DG    S(hbond)    S(metal)    S(lipo)     H(rot)  DE(clash)    DE(int)     intcor
     15.40     -15.98       1.97        0.00      74.07       1.85       0.03       0.55       ----

> <Gold.Chemscore.Fitness>
15.3950

> <Gold.Chemscore.DG>
-15.9757

> <Gold.Chemscore.ZeroCoef>
-5.4800

> <Gold.Chemscore.Hbond>
1.9679

> <Gold.Chemscore.Metal>
0.0000

> <Gold.Chemscore.Lipo>
74.0697

> <Gold.Chemscore.Internal_Hbond>
0.0000

> <Gold.Chemscore.DEClash>
0.0308

> <Gold.Chemscore.DEInternal>
0.5499

> <Gold.Chemscore.Rot>
1.8528

> <Gold.Chemscore.Internal.Correction>
   9.000000E+99

> <Gold.Chemscore.Hbonds>
donor molecule, donor type, donor heavy atom, donor atom, acceptor molecule, acceptor atom, score
      L1  H     7    27       P1  7948  0.99
      L1  H    10    28       P1  7948  0.96
      P1  H  7989  7998       L1    18  0.01

> <Gold.Chemscore.Hbond.Weighted>
-6.5728

> <Gold.Chemscore.Metal.Weighted>
-0.0000

> <Gold.Chemscore.Lipo.Weighted>
-8.6662

> <Gold.Chemscore.Internal_Hbond.Weighted>
0.0000

> <Gold.Chemscore.DEClash.Weighted>
0.0308

> <Gold.Chemscore.DEInternal.Weighted>
0.5499

> <Gold.Chemscore.Rot.Weighted>
4.7433

> <Gold.Chemscore.Internal.Correction.Weighted>
   9.000000E+99

> <Gold.Protein.RotatedTorsions>
[ 6907 6896 6895 6894 ] final   58.14 input  -60.11 | X-H torsion
[ 7974 7965 7964 7962 ] final -178.64 input  175.53 | X-H torsion
[ 8008 7997 7996 7995 ] final   53.47 input   59.86 | X-H torsion
[ 10167 10162 10161 10158 ] final -130.67 input  -65.29 | X-H torsion
[ 10718 10713 10712 10709 ] final -178.28 input   66.30 | X-H torsion
[ 10763 10752 10751 10750 ] final  -58.47 input  -60.55 | X-H torsion
[ 11005 11000 10999 10996 ] final   35.15 input  -57.11 | X-H torsion

> <Gold.Protein.ActiveResidues>
 VAL166  LYS551  ARG553  GLY616  TRP617  ASP618  TYR619  PRO620  LYS621  CYS622 
 ASP623  PHE694  ASN695  SER759  ASP760  ASP761  ALA762  ILE779  LEU786  VAL792 
 PHE793  MET794  SER795  GLU796  ALA797  LYS798  CYS799  TRP800  GLU811  SER814 

> <Gold.Protein.RotatedAtoms>
  152.3796  134.6610  160.0147 H   0  0  0  0  0  0  0  0  0  0  0  0  # atno 6907 bound_to 6896
  151.6878  133.3306  159.3243 H   0  0  0  0  0  0  0  0  0  0  0  0  # atno 6908 bound_to 6896
  150.7737  134.6661  159.6411 H   0  0  0  0  0  0  0  0  0  0  0  0  # atno 6909 bound_to 6896
  144.7132  140.0839  143.6424 H   0  0  0  0  0  0  0  0  0  0  0  0  # atno 7974 bound_to 7965
  155.4688  140.3464  155.4323 H   0  0  0  0  0  0  0  0  0  0  0  0  # atno 8008 bound_to 7997
  156.1114  140.1462  156.9362 H   0  0  0  0  0  0  0  0  0  0  0  0  # atno 8009 bound_to 7997
  154.4759  140.0885  156.7239 H   0  0  0  0  0  0  0  0  0  0  0  0  # atno 8010 bound_to 7997
  139.9268  143.6318  152.2540 H   0  0  0  0  0  0  0  0  0  0  0  0  # atno 10167 bound_to 10162
  156.8420  130.9689  151.3099 H   0  0  0  0  0  0  0  0  0  0  0  0  # atno 10718 bound_to 10713
  154.2386  135.6347  153.5199 H   0  0  0  0  0  0  0  0  0  0  0  0  # atno 10763 bound_to 10752
  152.9934  135.5537  154.5934 H   0  0  0  0  0  0  0  0  0  0  0  0  # atno 10764 bound_to 10752
  154.5435  135.2896  155.1049 H   0  0  0  0  0  0  0  0  0  0  0  0  # atno 10765 bound_to 10752
  140.2456  134.3363  155.7909 H   0  0  0  0  0  0  0  0  0  0  0  0  # atno 11005 bound_to 11000
  145.9679  139.2848  143.1116 LP  0  0  0  0  0  0  0  0  0  0  0  0  # atno 17320 bound_to 7965
  145.9149  140.9155  143.0435 LP  0  0  0  0  0  0  0  0  0  0  0  0  # atno 17321 bound_to 7965
  139.6815  144.7655  151.1600 LP  0  0  0  0  0  0  0  0  0  0  0  0  # atno 17342 bound_to 10162
  140.7648  143.5718  150.8988 LP  0  0  0  0  0  0  0  0  0  0  0  0  # atno 17343 bound_to 10162
  157.6350  130.8760  149.9343 LP  0  0  0  0  0  0  0  0  0  0  0  0  # atno 17370 bound_to 10713
  156.0875  130.3666  150.0458 LP  0  0  0  0  0  0  0  0  0  0  0  0  # atno 17371 bound_to 10713
  141.2206  133.7324  156.8955 LP  0  0  0  0  0  0  0  0  0  0  0  0  # atno 17394 bound_to 11000
  140.1609  134.9166  157.2713 LP  0  0  0  0  0  0  0  0  0  0  0  0  # atno 17395 bound_to 11000

$$$$
