AV-unprocessed.smi:1554|AV-procd|sdf|6254|dock3
  -GOLD-   22720 6433D 1   1.00000     0.00000
 Structure written by MMmdl.
 48 50  0  0  0  0  0  0  0  0  2 V2000
  152.2618  145.1246  160.5849 C   0  0  0  0  0  0  0  0  0  0  0  0
  152.0123  143.8918  159.7328 C   0  0  0  0  0  0  0  0  0  0  0  0
  151.2097  144.0221  158.5772 C   0  0  0  0  0  0  0  0  0  0  0  0
  150.9989  142.8767  157.8187 C   0  0  0  0  0  0  0  0  0  0  0  0
  150.2674  142.6798  156.6456 N   0  3  0  0  0  0  0  0  0  0  0  0
  150.3507  141.3731  156.2721 C   0  0  0  0  0  0  0  0  0  0  0  0
  151.1246  140.7321  157.1894 N   0  0  0  0  0  0  0  0  0  0  0  0
  151.5194  139.3175  157.2533 C   0  0  0  0  0  0  0  0  0  0  0  0
  150.3734  138.3998  157.7273 C   0  0  2  0  0  0  0  0  0  0  0  0
  149.4102  139.1643  158.4238 O   0  0  0  0  0  0  0  0  0  0  0  0
  150.8579  137.2840  158.6744 C   0  0  0  0  0  0  0  0  0  0  0  0
  149.8801  136.2359  158.9680 N   0  0  0  0  0  0  0  0  0  0  0  0
  149.0054  135.9477  157.8336 C   0  0  0  0  0  0  0  0  0  0  0  0
  147.9635  134.8681  158.1721 C   0  0  0  0  0  0  0  0  0  0  0  0
  147.2095  135.2689  159.3112 O   0  0  0  0  0  0  0  0  0  0  0  0
  148.0208  135.5112  160.4570 C   0  0  2  0  0  0  0  0  0  0  0  0
  147.1070  135.9246  161.6153 C   0  0  0  0  0  0  0  0  0  0  0  0
  149.0574  136.5995  160.1170 C   0  0  0  0  0  0  0  0  0  0  0  0
  151.5543  141.6315  158.1729 C   0  0  0  0  0  0  0  0  0  0  0  0
  152.3479  141.4866  159.3086 C   0  0  0  0  0  0  0  0  0  0  0  0
  152.5754  142.6401  160.0928 C   0  0  0  0  0  0  0  0  0  0  0  0
  153.4383  142.5115  161.3366 C   0  0  0  0  0  0  0  0  0  0  0  0
  151.7180  145.9897  160.2041 H   0  0  0  0  0  0  0  0  0  0  0  0
  153.3229  145.3745  160.5930 H   0  0  0  0  0  0  0  0  0  0  0  0
  151.9373  144.9551  161.6118 H   0  0  0  0  0  0  0  0  0  0  0  0
  150.7778  144.9717  158.2969 H   0  0  0  0  0  0  0  0  0  0  0  0
  149.8857  140.9251  155.4056 H   0  0  0  0  0  0  0  0  0  0  0  0
  151.8311  139.0326  156.2475 H   0  0  0  0  0  0  0  0  0  0  0  0
  152.4020  139.2139  157.8846 H   0  0  0  0  0  0  0  0  0  0  0  0
  149.8667  137.9711  156.8630 H   0  0  0  0  0  0  0  0  0  0  0  0
  149.1694  138.6993  159.2101 H   0  0  0  0  0  0  0  0  0  0  0  0
  151.7426  136.8277  158.2274 H   0  0  0  0  0  0  0  0  0  0  0  0
  151.1966  137.7290  159.6118 H   0  0  0  0  0  0  0  0  0  0  0  0
  148.4925  136.8583  157.5204 H   0  0  0  0  0  0  0  0  0  0  0  0
  149.5894  135.6073  156.9795 H   0  0  0  0  0  0  0  0  0  0  0  0
  147.2856  134.7181  157.3316 H   0  0  0  0  0  0  0  0  0  0  0  0
  148.4493  133.9107  158.3671 H   0  0  0  0  0  0  0  0  0  0  0  0
  148.5355  134.5877  160.7285 H   0  0  0  0  0  0  0  0  0  0  0  0
  147.6826  136.1129  162.5219 H   0  0  0  0  0  0  0  0  0  0  0  0
  146.3827  135.1411  161.8386 H   0  0  0  0  0  0  0  0  0  0  0  0
  146.5527  136.8325  161.3753 H   0  0  0  0  0  0  0  0  0  0  0  0
  149.6942  136.7721  160.9855 H   0  0  0  0  0  0  0  0  0  0  0  0
  148.5422  137.5408  159.9177 H   0  0  0  0  0  0  0  0  0  0  0  0
  152.7730  140.5342  159.5877 H   0  0  0  0  0  0  0  0  0  0  0  0
  153.8225  141.4975  161.4528 H   0  0  0  0  0  0  0  0  0  0  0  0
  152.8608  142.7533  162.2291 H   0  0  0  0  0  0  0  0  0  0  0  0
  154.2933  143.1859  161.2824 H   0  0  0  0  0  0  0  0  0  0  0  0
  149.7475  143.3831  156.1363 H   0  0  0  0  0  0  0  0  0  0  0  0
  1  2  1  0  0  0  0
  1 23  1  0  0  0  0
  1 24  1  0  0  0  0
  1 25  1  0  0  0  0
  2 21  1  0  0  0  0
  2  3  2  0  0  0  0
  3  4  1  0  0  0  0
  3 26  1  0  0  0  0
  4 19  2  0  0  0  0
  4  5  1  0  0  0  0
  5  6  2  0  0  0  0
  5 48  1  0  0  0  0
  6  7  1  0  0  0  0
  6 27  1  0  0  0  0
  7  8  1  0  0  0  0
  7 19  1  0  0  0  0
  8  9  1  0  0  0  0
  8 28  1  0  0  0  0
  8 29  1  0  0  0  0
  9 10  1  0  0  0  0
  9 11  1  0  0  0  0
  9 30  1  0  0  0  0
 10 31  1  0  0  0  0
 11 12  1  0  0  0  0
 11 32  1  0  0  0  0
 11 33  1  0  0  0  0
 12 18  1  0  0  0  0
 12 13  1  0  0  0  0
 13 14  1  0  0  0  0
 13 34  1  0  0  0  0
 13 35  1  0  0  0  0
 14 15  1  0  0  0  0
 14 36  1  0  0  0  0
 14 37  1  0  0  0  0
 15 16  1  0  0  0  0
 16 17  1  0  0  0  0
 16 18  1  0  0  0  0
 16 38  1  0  0  0  0
 17 39  1  0  0  0  0
 17 40  1  0  0  0  0
 17 41  1  0  0  0  0
 18 42  1  0  0  0  0
 18 43  1  0  0  0  0
 19 20  1  0  0  0  0
 20 21  2  0  0  0  0
 20 44  1  0  0  0  0
 21 22  1  0  0  0  0
 22 45  1  0  0  0  0
 22 46  1  0  0  0  0
 22 47  1  0  0  0  0
M  CHG  1   5   1
M  END
> <s_m_source_file>
AV-unprocessed.smi

> <i_m_source_file_index>
1554

> <i_lp_mmshare_version>
43012

> <i_f3d_flags>
0

> <s_epik_input>
W0NIM11jKFtjSF0xKWMoW0NIM10pW2NIXWMoYzEyKW4oW2NIXW4yKVtDSDJdW0NASF0oW09IXSlbQ0gyXU4zW0NIMl1bQ0gyXU9bQ0BASF0oW0NIM10pW0NIMl0z

> <s_epik_cmdline>
J2VwaWtfcHl0aG9uJywgJy1waCcsICc3LjAnLCAnLXRuJywgJzgnLCAnLW1hJywgJzIwMCcsICctbWV0YWxfYmluZGluZycsICctaW1hZScsICc8aW5maWxlLm1hZT4nLCAnLW9tYWUnLCAnPG91dGZpbGUubWFlPic=

> <r_epik_Ionization_Penalty>
1.42504

> <r_epik_Ionization_Penalty_Charging>
1.21068

> <r_epik_Ionization_Penalty_Neutral>
0.214359

> <r_epik_State_Penalty>
1.46962

> <r_epik_Charging_Adjusted_Penalty>
2.6803

> <i_epik_Tot_Q>
1

> <i_epik_Tot_abs_Q>
1

> <r_epik_Metal_State_Penalty>
5.48754

> <b_epik_Metal_Only>
0

> <s_lp_Force_Field>
OPLS_2005

> <r_lp_Energy>
32.4448

> <b_lp_Chiralities_Consistent>
1

> <s_lp_Variant>
AV-unprocessed.smi:1554-15

> <Gold.Version>
5.8.1

> <Gold.Id.Protein>
6NUR|6NUR_protein|mol2

> <Gold.PLP.Fitness>
49.7888

> <Gold.PLP.PLP>
-42.9694

> <Gold.PLP.part.hbond>
-2.0000

> <Gold.PLP.part.metal>
0.0000

> <Gold.PLP.part.buried>
-5.8479

> <Gold.PLP.part.nonpolar>
-36.1795

> <Gold.PLP.part.repulsive>
0.0835

> <Gold.PLP.ligand.clash>
0.0000

> <Gold.PLP.ligand.torsion>
1.1149

> <Gold.PLP.Chemscore.Hbond>
3.0000

> <Gold.PLP.Chemscore.CHOScore>
0.0000

> <Gold.PLP.Chemscore.Metal>
0.0000

> <Gold.Chemscore.Hbonds>
donor molecule, donor type, donor heavy atom, donor atom, acceptor molecule, acceptor atom, score
      L1  H     5    48       P1  8028  2.00
      P1  H  6896  6907       L1    12  1.00

> <Gold.PLP.Chemscore.Internal.Correction>
0.0493

> <Gold.Rescore>
     Score         DG    S(hbond)    S(metal)    S(lipo)     H(rot)  DE(clash)    DE(int)     intcor
     16.86     -18.14       1.26        0.00     116.88       2.04       0.07       1.22       ----

> <Gold.Chemscore.Fitness>
16.8563

> <Gold.Chemscore.DG>
-18.1421

> <Gold.Chemscore.ZeroCoef>
-5.4800

> <Gold.Chemscore.Hbond>
1.2626

> <Gold.Chemscore.Metal>
0.0000

> <Gold.Chemscore.Lipo>
116.8766

> <Gold.Chemscore.Internal_Hbond>
0.0000

> <Gold.Chemscore.DEClash>
0.0673

> <Gold.Chemscore.DEInternal>
1.2185

> <Gold.Chemscore.Rot>
2.0427

> <Gold.Chemscore.Internal.Correction>
   9.000000E+99

> <Gold.Chemscore.Hbonds>
donor molecule, donor type, donor heavy atom, donor atom, acceptor molecule, acceptor atom, score
      L1  H     5    48       P1  8028  1.00
      P1  H  6896  6907       L1    12  0.21

> <Gold.Chemscore.Hbond.Weighted>
-4.2169

> <Gold.Chemscore.Metal.Weighted>
-0.0000

> <Gold.Chemscore.Lipo.Weighted>
-13.6746

> <Gold.Chemscore.Internal_Hbond.Weighted>
0.0000

> <Gold.Chemscore.DEClash.Weighted>
0.0673

> <Gold.Chemscore.DEInternal.Weighted>
1.2185

> <Gold.Chemscore.Rot.Weighted>
5.2294

> <Gold.Chemscore.Internal.Correction.Weighted>
   9.000000E+99

> <Gold.Protein.RotatedTorsions>
[ 6907 6896 6895 6894 ] final  -65.81 input  -60.11 | X-H torsion
[ 7974 7965 7964 7962 ] final  -93.48 input  175.53 | X-H torsion
[ 8008 7997 7996 7995 ] final   30.76 input   59.86 | X-H torsion
[ 10167 10162 10161 10158 ] final  136.44 input  -65.29 | X-H torsion
[ 10718 10713 10712 10709 ] final -167.59 input   66.30 | X-H torsion
[ 10763 10752 10751 10750 ] final  -23.87 input  -60.55 | X-H torsion
[ 11005 11000 10999 10996 ] final  -24.23 input  -57.11 | X-H torsion

> <Gold.Protein.ActiveResidues>
 VAL166  LYS551  ARG553  GLY616  TRP617  ASP618  TYR619  PRO620  LYS621  CYS622 
 ASP623  PHE694  ASN695  SER759  ASP760  ASP761  ALA762  ILE779  LEU786  VAL792 
 PHE793  MET794  SER795  GLU796  ALA797  LYS798  CYS799  TRP800  GLU811  SER814 

> <Gold.Protein.RotatedAtoms>
  150.7502  134.6108  159.6084 H   0  0  0  0  0  0  0  0  0  0  0  0  # atno 6907 bound_to 6896
  152.3443  134.7090  160.0264 H   0  0  0  0  0  0  0  0  0  0  0  0  # atno 6908 bound_to 6896
  151.7532  133.3292  159.3433 H   0  0  0  0  0  0  0  0  0  0  0  0  # atno 6909 bound_to 6896
  145.3859  140.9523  143.2367 H   0  0  0  0  0  0  0  0  0  0  0  0  # atno 7974 bound_to 7965
  155.0955  140.3224  155.4561 H   0  0  0  0  0  0  0  0  0  0  0  0  # atno 8008 bound_to 7997
  156.2731  140.2070  156.6029 H   0  0  0  0  0  0  0  0  0  0  0  0  # atno 8009 bound_to 7997
  154.6870  140.0520  157.0311 H   0  0  0  0  0  0  0  0  0  0  0  0  # atno 8010 bound_to 7997
  139.5180  144.6464  151.5427 H   0  0  0  0  0  0  0  0  0  0  0  0  # atno 10167 bound_to 10162
  156.6846  130.9135  151.3061 H   0  0  0  0  0  0  0  0  0  0  0  0  # atno 10718 bound_to 10713
  153.6748  135.6970  153.5136 H   0  0  0  0  0  0  0  0  0  0  0  0  # atno 10763 bound_to 10752
  153.2530  135.4269  155.0816 H   0  0  0  0  0  0  0  0  0  0  0  0  # atno 10764 bound_to 10752
  154.8416  135.3536  154.6292 H   0  0  0  0  0  0  0  0  0  0  0  0  # atno 10765 bound_to 10752
  140.8826  133.7643  156.0320 H   0  0  0  0  0  0  0  0  0  0  0  0  # atno 11005 bound_to 11000
  144.8474  139.5375  143.6872 LP  0  0  0  0  0  0  0  0  0  0  0  0  # atno 17320 bound_to 7965
  146.2820  139.6903  142.9222 LP  0  0  0  0  0  0  0  0  0  0  0  0  # atno 17321 bound_to 7965
  140.6251  143.9185  150.6558 LP  0  0  0  0  0  0  0  0  0  0  0  0  # atno 17342 bound_to 10162
  140.2471  143.3621  152.1438 LP  0  0  0  0  0  0  0  0  0  0  0  0  # atno 17343 bound_to 10162
  157.7031  130.9355  150.0846 LP  0  0  0  0  0  0  0  0  0  0  0  0  # atno 17370 bound_to 10713
  156.1842  130.3651  149.8995 LP  0  0  0  0  0  0  0  0  0  0  0  0  # atno 17371 bound_to 10713
  140.8443  134.3029  157.5301 LP  0  0  0  0  0  0  0  0  0  0  0  0  # atno 17394 bound_to 11000
  139.8721  134.9433  156.3850 LP  0  0  0  0  0  0  0  0  0  0  0  0  # atno 17395 bound_to 11000

$$$$
