AV-unprocessed.smi:1427|AV-procd|sdf|5811|dock8
  -GOLD-   22720 5463D 1   1.00000     0.00000
 Structure written by MMmdl.
 33 34  0  0  0  0  0  0  0  0  1 V2000
  151.3787  144.7902  158.5261 C   0  0  0  0  0  0  0  0  0  0  0  0
  151.0205  143.2998  158.4546 C   0  0  2  0  0  0  0  0  0  0  0  0
  152.2424  142.4119  158.7696 C   0  0  0  0  0  0  0  0  0  0  0  0
  152.6468  142.4925  160.1624 N   0  0  0  0  0  0  0  0  0  0  0  0
  152.2010  143.3646  161.1333 C   0  0  0  0  0  0  0  0  0  0  0  0
  152.8567  143.0541  162.2900 C   0  0  0  0  0  0  0  0  0  0  0  0
  153.6956  141.9656  161.9211 C   0  0  0  0  0  0  0  0  0  0  0  0
  153.5700  141.6332  160.6464 N   0  0  0  0  0  0  0  0  0  0  0  0
  150.4936  143.0023  157.1236 N   0  0  0  0  0  0  0  0  0  0  0  0
  150.3483  141.7784  156.5853 C   0  0  0  0  0  0  0  0  0  0  0  0
  150.6463  140.7454  157.1845 O   0  0  0  0  0  0  0  0  0  0  0  0
  149.8061  141.6780  155.1478 C   0  0  1  0  0  0  0  0  0  0  0  0
  149.5776  140.2091  154.7237 C   0  0  0  0  0  0  0  0  0  0  0  0
  148.1717  140.1449  154.1106 C   0  0  0  0  0  0  0  0  0  0  0  0
  147.5883  141.5117  154.4178 C   0  0  0  0  0  0  0  0  0  0  0  0
  146.4247  141.8220  154.1747 O   0  0  0  0  0  0  0  0  0  0  0  0
  148.5030  142.3041  154.9727 N   0  0  0  0  0  0  0  0  0  0  0  0
  151.7592  145.0549  159.5130 H   0  0  0  0  0  0  0  0  0  0  0  0
  150.5053  145.4139  158.3331 H   0  0  0  0  0  0  0  0  0  0  0  0
  152.1436  145.0514  157.7936 H   0  0  0  0  0  0  0  0  0  0  0  0
  150.2533  143.1178  159.2094 H   0  0  0  0  0  0  0  0  0  0  0  0
  152.0378  141.3710  158.5125 H   0  0  0  0  0  0  0  0  0  0  0  0
  153.0934  142.7192  158.1610 H   0  0  0  0  0  0  0  0  0  0  0  0
  151.4589  144.1206  160.9230 H   0  0  0  0  0  0  0  0  0  0  0  0
  152.7516  143.5310  163.2533 H   0  0  0  0  0  0  0  0  0  0  0  0
  154.3882  141.4113  162.5373 H   0  0  0  0  0  0  0  0  0  0  0  0
  150.2248  143.7945  156.5579 H   0  0  0  0  0  0  0  0  0  0  0  0
  150.5088  142.1631  154.4690 H   0  0  0  0  0  0  0  0  0  0  0  0
  150.3337  139.8895  154.0058 H   0  0  0  0  0  0  0  0  0  0  0  0
  149.6356  139.5237  155.5714 H   0  0  0  0  0  0  0  0  0  0  0  0
  148.2116  139.9963  153.0310 H   0  0  0  0  0  0  0  0  0  0  0  0
  147.5674  139.3520  154.5527 H   0  0  0  0  0  0  0  0  0  0  0  0
  148.3251  143.2596  155.2468 H   0  0  0  0  0  0  0  0  0  0  0  0
  1  2  1  0  0  0  0
  1 18  1  0  0  0  0
  1 19  1  0  0  0  0
  1 20  1  0  0  0  0
  2  3  1  0  0  0  0
  2  9  1  0  0  0  0
  2 21  1  0  0  0  0
  3  4  1  0  0  0  0
  3 22  1  0  0  0  0
  3 23  1  0  0  0  0
  4  8  1  0  0  0  0
  4  5  1  0  0  0  0
  5  6  2  0  0  0  0
  5 24  1  0  0  0  0
  6  7  1  0  0  0  0
  6 25  1  0  0  0  0
  7  8  2  0  0  0  0
  7 26  1  0  0  0  0
  9 10  1  0  0  0  0
  9 27  1  0  0  0  0
 10 11  2  0  0  0  0
 10 12  1  0  0  0  0
 12 17  1  0  0  0  0
 12 13  1  0  0  0  0
 12 28  1  0  0  0  0
 13 14  1  0  0  0  0
 13 29  1  0  0  0  0
 13 30  1  0  0  0  0
 14 15  1  0  0  0  0
 14 31  1  0  0  0  0
 14 32  1  0  0  0  0
 15 16  2  0  0  0  0
 15 17  1  0  0  0  0
 17 33  1  0  0  0  0
M  END
> <s_m_source_file>
AV-unprocessed.smi

> <i_m_source_file_index>
1427

> <i_lp_mmshare_version>
43012

> <i_f3d_flags>
0

> <s_epik_input>
bjFbY0hdW2NIXVtjSF1uMVtDSDJdW0NAQEhdKFtDSDNdKVtOSF1DKD1PKVtDQEBIXTJbQ0gyXVtDSDJdQyg9TylbTkhdMg==

> <s_epik_cmdline>
J2VwaWtfcHl0aG9uJywgJy1waCcsICc3LjAnLCAnLXRuJywgJzgnLCAnLW1hJywgJzIwMCcsICctbWV0YWxfYmluZGluZycsICctaW1hZScsICc8aW5maWxlLm1hZT4nLCAnLW9tYWUnLCAnPG91dGZpbGUubWFlPic=

> <r_lp_tautomer_probability>
1

> <r_epik_Ionization_Penalty>
0.000310707

> <r_epik_Ionization_Penalty_Charging>
0

> <r_epik_Ionization_Penalty_Neutral>
0.000310707

> <r_epik_State_Penalty>
-0

> <r_epik_Charging_Adjusted_Penalty>
0

> <i_epik_Tot_Q>
0

> <i_epik_Tot_abs_Q>
0

> <r_epik_Metal_State_Penalty>
-0

> <b_epik_Metal_Only>
0

> <s_lp_Force_Field>
OPLS_2005

> <r_lp_Energy>
14.9883

> <b_lp_Chiralities_Consistent>
1

> <s_lp_Variant>
AV-unprocessed.smi:1427-3

> <Gold.Version>
5.8.1

> <Gold.Id.Protein>
6NUR|6NUR_protein|mol2

> <Gold.PLP.Fitness>
46.4379

> <Gold.PLP.PLP>
-41.2225

> <Gold.PLP.part.hbond>
-2.0000

> <Gold.PLP.part.metal>
0.0000

> <Gold.PLP.part.buried>
-5.8274

> <Gold.PLP.part.nonpolar>
-33.5813

> <Gold.PLP.part.repulsive>
0.3949

> <Gold.PLP.ligand.clash>
0.0000

> <Gold.PLP.ligand.torsion>
0.4012

> <Gold.PLP.Chemscore.Hbond>
2.0000

> <Gold.PLP.Chemscore.CHOScore>
0.0000

> <Gold.PLP.Chemscore.Metal>
0.0000

> <Gold.Chemscore.Hbonds>
donor molecule, donor type, donor heavy atom, donor atom, acceptor molecule, acceptor atom, score
      L1  H     9    27       P1  8028  0.99
      L1  H    17    33       P1  8028  1.00

> <Gold.PLP.Chemscore.Internal.Correction>
0.0178

> <Gold.Rescore>
     Score         DG    S(hbond)    S(metal)    S(lipo)     H(rot)  DE(clash)    DE(int)     intcor
     15.84     -17.54       1.94        0.00      88.89       1.88       0.01       1.68       ----

> <Gold.Chemscore.Fitness>
15.8434

> <Gold.Chemscore.DG>
-17.5425

> <Gold.Chemscore.ZeroCoef>
-5.4800

> <Gold.Chemscore.Hbond>
1.9403

> <Gold.Chemscore.Metal>
0.0000

> <Gold.Chemscore.Lipo>
88.8887

> <Gold.Chemscore.Internal_Hbond>
0.0000

> <Gold.Chemscore.DEClash>
0.0147

> <Gold.Chemscore.DEInternal>
1.6844

> <Gold.Chemscore.Rot>
1.8821

> <Gold.Chemscore.Internal.Correction>
   9.000000E+99

> <Gold.Chemscore.Hbonds>
donor molecule, donor type, donor heavy atom, donor atom, acceptor molecule, acceptor atom, score
      L1  H     9    27       P1  8028  0.94
      L1  H    17    33       P1  8028  0.92

> <Gold.Chemscore.Hbond.Weighted>
-6.4806

> <Gold.Chemscore.Metal.Weighted>
-0.0000

> <Gold.Chemscore.Lipo.Weighted>
-10.4000

> <Gold.Chemscore.Internal_Hbond.Weighted>
0.0000

> <Gold.Chemscore.DEClash.Weighted>
0.0147

> <Gold.Chemscore.DEInternal.Weighted>
1.6844

> <Gold.Chemscore.Rot.Weighted>
4.8181

> <Gold.Chemscore.Internal.Correction.Weighted>
   9.000000E+99

> <Gold.Protein.RotatedTorsions>
[ 6907 6896 6895 6894 ] final  113.16 input  -60.11 | X-H torsion
[ 7974 7965 7964 7962 ] final  148.46 input  175.53 | X-H torsion
[ 8008 7997 7996 7995 ] final  103.74 input   59.86 | X-H torsion
[ 10167 10162 10161 10158 ] final  110.15 input  -65.29 | X-H torsion
[ 10718 10713 10712 10709 ] final -178.46 input   66.30 | X-H torsion
[ 10763 10752 10751 10750 ] final  128.58 input  -60.55 | X-H torsion
[ 11005 11000 10999 10996 ] final   28.96 input  -57.11 | X-H torsion

> <Gold.Protein.ActiveResidues>
 VAL166  LYS551  ARG553  GLY616  TRP617  ASP618  TYR619  PRO620  LYS621  CYS622 
 ASP623  PHE694  ASN695  SER759  ASP760  ASP761  ALA762  ILE779  LEU786  VAL792 
 PHE793  MET794  SER795  GLU796  ALA797  LYS798  CYS799  TRP800  GLU811  SER814 

> <Gold.Protein.RotatedAtoms>
  152.4876  133.8415  159.7154 H   0  0  0  0  0  0  0  0  0  0  0  0  # atno 6907 bound_to 6896
  150.8977  133.7150  159.2894 H   0  0  0  0  0  0  0  0  0  0  0  0  # atno 6908 bound_to 6896
  151.4602  135.1041  159.9775 H   0  0  0  0  0  0  0  0  0  0  0  0  # atno 6909 bound_to 6896
  144.8512  139.6156  143.5973 H   0  0  0  0  0  0  0  0  0  0  0  0  # atno 7974 bound_to 7965
  156.1511  140.3159  155.8649 H   0  0  0  0  0  0  0  0  0  0  0  0  # atno 8008 bound_to 7997
  155.3969  140.0497  157.3055 H   0  0  0  0  0  0  0  0  0  0  0  0  # atno 8009 bound_to 7997
  154.5059  140.2147  155.9263 H   0  0  0  0  0  0  0  0  0  0  0  0  # atno 8010 bound_to 7997
  139.6711  144.7125  151.1686 H   0  0  0  0  0  0  0  0  0  0  0  0  # atno 10167 bound_to 10162
  156.8446  130.9698  151.3097 H   0  0  0  0  0  0  0  0  0  0  0  0  # atno 10718 bound_to 10713
  153.7279  135.3243  155.3280 H   0  0  0  0  0  0  0  0  0  0  0  0  # atno 10763 bound_to 10752
  154.8335  135.4515  154.1151 H   0  0  0  0  0  0  0  0  0  0  0  0  # atno 10764 bound_to 10752
  153.2290  135.6957  153.7992 H   0  0  0  0  0  0  0  0  0  0  0  0  # atno 10765 bound_to 10752
  140.3100  134.2661  155.7736 H   0  0  0  0  0  0  0  0  0  0  0  0  # atno 11005 bound_to 11000
  146.2786  139.6818  142.9245 LP  0  0  0  0  0  0  0  0  0  0  0  0  # atno 17320 bound_to 7965
  145.4496  141.0427  143.2812 LP  0  0  0  0  0  0  0  0  0  0  0  0  # atno 17321 bound_to 7965
  140.7618  143.5843  150.8862 LP  0  0  0  0  0  0  0  0  0  0  0  0  # atno 17342 bound_to 10162
  139.9508  143.6274  152.3029 LP  0  0  0  0  0  0  0  0  0  0  0  0  # atno 17343 bound_to 10162
  157.6337  130.8749  149.9320 LP  0  0  0  0  0  0  0  0  0  0  0  0  # atno 17370 bound_to 10713
  156.0861  130.3668  150.0484 LP  0  0  0  0  0  0  0  0  0  0  0  0  # atno 17371 bound_to 10713
  141.2110  133.7702  156.9893 LP  0  0  0  0  0  0  0  0  0  0  0  0  # atno 17394 bound_to 11000
  140.1033  134.9522  157.1956 LP  0  0  0  0  0  0  0  0  0  0  0  0  # atno 17395 bound_to 11000

$$$$
