AV-unprocessed.smi:1914|AV-procd|sdf|7757|dock4
  -GOLD-   22720 9493D 1   1.00000     0.00000
 Structure written by MMmdl.
 44 45  0  0  0  0  0  0  0  0  2 V2000
  143.8942  138.5798  154.6889 C   0  0  0  0  0  0  0  0  0  0  0  0
  145.3334  138.1190  154.9815 C   0  0  1  0  0  0  0  0  0  0  0  0
  145.8177  137.0236  154.0136 C   0  0  0  0  0  0  0  0  0  0  0  0
  146.1270  137.6040  152.6267 C   0  0  0  0  0  0  0  0  0  0  0  0
  147.1021  138.7874  152.7282 C   0  0  0  0  0  0  0  0  0  0  0  0
  146.5807  139.8371  153.6415 N   0  3  2  0  0  0  0  0  0  0  0  0
  147.4353  141.0508  153.6402 C   0  0  0  0  0  0  0  0  0  0  0  0
  148.8552  140.7779  154.1757 C   0  0  0  0  0  0  0  0  0  0  0  0
  148.9655  141.1260  155.5870 N   0  0  0  0  0  0  0  0  0  0  0  0
  149.9923  140.7880  156.3816 C   0  0  0  0  0  0  0  0  0  0  0  0
  150.9466  140.1116  155.9958 O   0  0  0  0  0  0  0  0  0  0  0  0
  149.9184  141.2809  157.8330 C   0  0  0  0  0  0  0  0  0  0  0  0
  151.0368  142.1684  158.1923 N   0  0  0  0  0  0  0  0  0  0  0  0
  151.1958  143.3444  157.4323 C   0  0  0  0  0  0  0  0  0  0  0  0
  152.1811  144.2217  157.6802 C   0  0  0  0  0  0  0  0  0  0  0  0
  153.0952  143.9350  158.7604 C   0  0  0  0  0  0  0  0  0  0  0  0
  152.9500  142.8151  159.4962 C   0  0  0  0  0  0  0  0  0  0  0  0
  151.8719  141.8553  159.2313 C   0  0  0  0  0  0  0  0  0  0  0  0
  151.7261  140.8334  159.9034 O   0  0  0  0  0  0  0  0  0  0  0  0
  146.3297  139.2969  155.0060 C   0  0  0  0  0  0  0  0  0  0  0  0
  143.8086  139.0576  153.7129 H   0  0  0  0  0  0  0  0  0  0  0  0
  143.5539  139.2969  155.4365 H   0  0  0  0  0  0  0  0  0  0  0  0
  143.2020  137.7374  154.7068 H   0  0  0  0  0  0  0  0  0  0  0  0
  145.3180  137.6834  155.9815 H   0  0  0  0  0  0  0  0  0  0  0  0
  146.7216  136.5642  154.4160 H   0  0  0  0  0  0  0  0  0  0  0  0
  145.0789  136.2252  153.9353 H   0  0  0  0  0  0  0  0  0  0  0  0
  146.5511  136.8288  151.9880 H   0  0  0  0  0  0  0  0  0  0  0  0
  145.2049  137.9268  152.1424 H   0  0  0  0  0  0  0  0  0  0  0  0
  148.0756  138.4454  153.0838 H   0  0  0  0  0  0  0  0  0  0  0  0
  147.2570  139.2049  151.7328 H   0  0  0  0  0  0  0  0  0  0  0  0
  147.4654  141.4708  152.6335 H   0  0  0  0  0  0  0  0  0  0  0  0
  146.9798  141.8116  154.2760 H   0  0  0  0  0  0  0  0  0  0  0  0
  149.0965  139.7200  154.0679 H   0  0  0  0  0  0  0  0  0  0  0  0
  149.6115  141.3283  153.6157 H   0  0  0  0  0  0  0  0  0  0  0  0
  148.2172  141.6755  155.9851 H   0  0  0  0  0  0  0  0  0  0  0  0
  148.9691  141.7936  158.0018 H   0  0  0  0  0  0  0  0  0  0  0  0
  149.8926  140.4076  158.4859 H   0  0  0  0  0  0  0  0  0  0  0  0
  150.4673  143.4888  156.6480 H   0  0  0  0  0  0  0  0  0  0  0  0
  152.2856  145.1201  157.0900 H   0  0  0  0  0  0  0  0  0  0  0  0
  153.8984  144.6225  158.9808 H   0  0  0  0  0  0  0  0  0  0  0  0
  153.6431  142.6182  160.3008 H   0  0  0  0  0  0  0  0  0  0  0  0
  145.9469  140.0741  155.6661 H   0  0  0  0  0  0  0  0  0  0  0  0
  147.2773  138.9682  155.4364 H   0  0  0  0  0  0  0  0  0  0  0  0
  145.6862  140.1169  153.2656 H   0  0  0  0  0  0  0  0  0  0  0  0
  1  2  1  0  0  0  0
  1 21  1  0  0  0  0
  1 22  1  0  0  0  0
  1 23  1  0  0  0  0
  2 20  1  0  0  0  0
  2  3  1  0  0  0  0
  2 24  1  0  0  0  0
  3  4  1  0  0  0  0
  3 25  1  0  0  0  0
  3 26  1  0  0  0  0
  4  5  1  0  0  0  0
  4 27  1  0  0  0  0
  4 28  1  0  0  0  0
  5  6  1  0  0  0  0
  5 29  1  0  0  0  0
  5 30  1  0  0  0  0
  6  7  1  0  0  0  0
  6 20  1  0  0  0  0
  6 44  1  0  0  0  0
  7  8  1  0  0  0  0
  7 31  1  0  0  0  0
  7 32  1  0  0  0  0
  8  9  1  0  0  0  0
  8 33  1  0  0  0  0
  8 34  1  0  0  0  0
  9 10  1  0  0  0  0
  9 35  1  0  0  0  0
 10 11  2  0  0  0  0
 10 12  1  0  0  0  0
 12 13  1  0  0  0  0
 12 36  1  0  0  0  0
 12 37  1  0  0  0  0
 13 18  1  0  0  0  0
 13 14  1  0  0  0  0
 14 15  2  0  0  0  0
 14 38  1  0  0  0  0
 15 16  1  0  0  0  0
 15 39  1  0  0  0  0
 16 17  2  0  0  0  0
 16 40  1  0  0  0  0
 17 18  1  0  0  0  0
 17 41  1  0  0  0  0
 18 19  2  0  0  0  0
 20 42  1  0  0  0  0
 20 43  1  0  0  0  0
M  CHG  1   6   1
M  END
> <s_m_source_file>
AV-unprocessed.smi

> <i_m_source_file_index>
1914

> <i_lp_mmshare_version>
43012

> <i_f3d_flags>
0

> <s_epik_input>
W0NIM11bQ0BASF0xW0NIMl1bQ0gyXVtDSDJdTihbQ0gyXTEpW0NIMl1bQ0gyXVtOSF1DKD1PKVtDSDJdbjJbY0hdW2NIXVtjSF1bY0hdYzI9Tw==

> <s_epik_cmdline>
J2VwaWtfcHl0aG9uJywgJy1waCcsICc3LjAnLCAnLXRuJywgJzgnLCAnLW1hJywgJzIwMCcsICctbWV0YWxfYmluZGluZycsICctaW1hZScsICc8aW5maWxlLm1hZT4nLCAnLW9tYWUnLCAnPG91dGZpbGUubWFlPic=

> <r_lp_tautomer_probability>
1

> <r_epik_Ionization_Penalty>
0.00192477

> <r_epik_Ionization_Penalty_Charging>
0.00192469

> <r_epik_Ionization_Penalty_Neutral>
8.16761e-08

> <r_epik_State_Penalty>
0.00131115

> <r_epik_Charging_Adjusted_Penalty>
0.00323584

> <i_epik_Tot_Q>
1

> <i_epik_Tot_abs_Q>
1

> <r_epik_Metal_State_Penalty>
-0

> <b_epik_Metal_Only>
0

> <s_lp_Force_Field>
OPLS_2005

> <r_lp_Energy>
26.9479

> <b_lp_Chiralities_Consistent>
1

> <s_lp_Variant>
AV-unprocessed.smi:1914-2

> <Gold.Version>
5.8.1

> <Gold.Id.Protein>
6NUR|6NUR_protein|mol2

> <Gold.PLP.Fitness>
48.8677

> <Gold.PLP.PLP>
-37.5953

> <Gold.PLP.part.hbond>
-2.0000

> <Gold.PLP.part.metal>
0.0000

> <Gold.PLP.part.buried>
-0.9602

> <Gold.PLP.part.nonpolar>
-34.8999

> <Gold.PLP.part.repulsive>
0.1219

> <Gold.PLP.ligand.clash>
0.0000

> <Gold.PLP.ligand.torsion>
0.3272

> <Gold.PLP.Chemscore.Hbond>
2.9440

> <Gold.PLP.Chemscore.CHOScore>
1.0000

> <Gold.PLP.Chemscore.Metal>
0.0000

> <Gold.Chemscore.Hbonds>
donor molecule, donor type, donor heavy atom, donor atom, acceptor molecule, acceptor atom, score
      L1  H     6    44       P1 10175  1.24
      L1  C    14    38       P1  8028  1.00

> <Gold.PLP.Chemscore.Internal.Correction>
0.0948

> <Gold.Rescore>
     Score         DG    S(hbond)    S(metal)    S(lipo)     H(rot)  DE(clash)    DE(int)     intcor
     16.88     -17.20       1.93        0.00      85.67       1.86       0.01       0.30       ----

> <Gold.Chemscore.Fitness>
16.8845

> <Gold.Chemscore.DG>
-17.1961

> <Gold.Chemscore.ZeroCoef>
-5.4800

> <Gold.Chemscore.Hbond>
1.9315

> <Gold.Chemscore.Metal>
0.0000

> <Gold.Chemscore.Lipo>
85.6666

> <Gold.Chemscore.Internal_Hbond>
0.0000

> <Gold.Chemscore.DEClash>
0.0149

> <Gold.Chemscore.DEInternal>
0.2966

> <Gold.Chemscore.Rot>
1.8586

> <Gold.Chemscore.Internal.Correction>
   9.000000E+99

> <Gold.Chemscore.Hbonds>
donor molecule, donor type, donor heavy atom, donor atom, acceptor molecule, acceptor atom, score
      L1  H     6    44       P1 10175  0.62

> <Gold.Chemscore.Hbond.Weighted>
-6.4512

> <Gold.Chemscore.Metal.Weighted>
-0.0000

> <Gold.Chemscore.Lipo.Weighted>
-10.0230

> <Gold.Chemscore.Internal_Hbond.Weighted>
0.0000

> <Gold.Chemscore.DEClash.Weighted>
0.0149

> <Gold.Chemscore.DEInternal.Weighted>
0.2966

> <Gold.Chemscore.Rot.Weighted>
4.7581

> <Gold.Chemscore.Internal.Correction.Weighted>
   9.000000E+99

> <Gold.Protein.RotatedTorsions>
[ 6907 6896 6895 6894 ] final -116.72 input  -60.11 | X-H torsion
[ 7974 7965 7964 7962 ] final -147.51 input  175.53 | X-H torsion
[ 8008 7997 7996 7995 ] final  135.13 input   59.86 | X-H torsion
[ 10167 10162 10161 10158 ] final   10.74 input  -65.29 | X-H torsion
[ 10718 10713 10712 10709 ] final  101.27 input   66.30 | X-H torsion
[ 10763 10752 10751 10750 ] final -142.12 input  -60.55 | X-H torsion
[ 11005 11000 10999 10996 ] final  164.98 input  -57.11 | X-H torsion

> <Gold.Protein.ActiveResidues>
 VAL166  LYS551  ARG553  GLY616  TRP617  ASP618  TYR619  PRO620  LYS621  CYS622 
 ASP623  PHE694  ASN695  SER759  ASP760  ASP761  ALA762  ILE779  LEU786  VAL792 
 PHE793  MET794  SER795  GLU796  ALA797  LYS798  CYS799  TRP800  GLU811  SER814 

> <Gold.Protein.RotatedAtoms>
  150.8078  133.8477  159.3196 H   0  0  0  0  0  0  0  0  0  0  0  0  # atno 6907 bound_to 6896
  151.6271  135.1025  160.0123 H   0  0  0  0  0  0  0  0  0  0  0  0  # atno 6908 bound_to 6896
  152.4169  133.7013  159.6482 H   0  0  0  0  0  0  0  0  0  0  0  0  # atno 6909 bound_to 6896
  144.8088  140.5317  143.5656 H   0  0  0  0  0  0  0  0  0  0  0  0  # atno 7974 bound_to 7965
  156.3002  140.2478  156.3530 H   0  0  0  0  0  0  0  0  0  0  0  0  # atno 8008 bound_to 7997
  154.8948  140.0408  157.1878 H   0  0  0  0  0  0  0  0  0  0  0  0  # atno 8009 bound_to 7997
  154.8561  140.2913  155.5572 H   0  0  0  0  0  0  0  0  0  0  0  0  # atno 8010 bound_to 7997
  140.6176  143.8275  150.7136 H   0  0  0  0  0  0  0  0  0  0  0  0  # atno 10167 bound_to 10162
  157.6833  131.0721  150.5226 H   0  0  0  0  0  0  0  0  0  0  0  0  # atno 10718 bound_to 10713
  154.8520  135.3505  154.5978 H   0  0  0  0  0  0  0  0  0  0  0  0  # atno 10763 bound_to 10752
  153.6587  135.6990  153.5189 H   0  0  0  0  0  0  0  0  0  0  0  0  # atno 10764 bound_to 10752
  153.2835  135.4256  155.1059 H   0  0  0  0  0  0  0  0  0  0  0  0  # atno 10765 bound_to 10752
  140.2515  134.7973  157.3506 H   0  0  0  0  0  0  0  0  0  0  0  0  # atno 11005 bound_to 11000
  145.5372  139.1475  143.3467 LP  0  0  0  0  0  0  0  0  0  0  0  0  # atno 17320 bound_to 7965
  146.2384  140.5513  142.8945 LP  0  0  0  0  0  0  0  0  0  0  0  0  # atno 17321 bound_to 7965
  140.1858  143.4077  152.1900 LP  0  0  0  0  0  0  0  0  0  0  0  0  # atno 17342 bound_to 10162
  139.5411  144.7257  151.4731 LP  0  0  0  0  0  0  0  0  0  0  0  0  # atno 17343 bound_to 10162
  156.5539  130.4238  149.6094 LP  0  0  0  0  0  0  0  0  0  0  0  0  # atno 17370 bound_to 10713
  156.2879  130.7107  151.1949 LP  0  0  0  0  0  0  0  0  0  0  0  0  # atno 17371 bound_to 10713
  140.1554  134.4797  155.7932 LP  0  0  0  0  0  0  0  0  0  0  0  0  # atno 17394 bound_to 11000
  141.2201  133.6879  156.7451 LP  0  0  0  0  0  0  0  0  0  0  0  0  # atno 17395 bound_to 11000

$$$$
