AV-unprocessed.smi:2820|AV-procd|sdf|10854|dock3
  -GOLD-   2272015293D 1   1.00000     0.00000
 Structure written by MMmdl.
 29 30  0  0  0  0  0  0  0  0  1 V2000
  152.0720  144.9625  159.5892 C   0  0  0  0  0  0  0  0  0  0  0  0
  152.7287  143.6785  159.7697 N   0  0  0  0  0  0  0  0  0  0  0  0
  152.3864  142.5762  158.9738 C   0  0  0  0  0  0  0  0  0  0  0  0
  151.2022  142.5122  158.2033 C   0  0  0  0  0  0  0  0  0  0  0  0
  150.9485  141.3595  157.4350 C   0  0  0  0  0  0  0  0  0  0  0  0
  151.8852  140.3058  157.4604 C   0  0  0  0  0  0  0  0  0  0  0  0
  151.6383  139.1569  156.6955 N   0  0  0  0  0  0  0  0  0  0  0  0
  151.7047  139.3928  155.2585 C   0  0  0  0  0  0  0  0  0  0  0  0
  151.2988  138.1191  154.4969 C   0  0  0  0  0  0  0  0  0  0  0  0
  152.1256  137.0330  154.9061 O   0  0  0  0  0  0  0  0  0  0  0  0
  152.0028  136.7622  156.2997 C   0  0  0  0  0  0  0  0  0  0  0  0
  152.4278  138.0019  157.1056 C   0  0  0  0  0  0  0  0  0  0  0  0
  153.0211  140.3589  158.1952 N   0  0  0  0  0  0  0  0  0  0  0  0
  153.2572  141.4671  158.9285 C   0  0  0  0  0  0  0  0  0  0  0  0
  152.4721  145.6862  160.2994 H   0  0  0  0  0  0  0  0  0  0  0  0
  150.9985  144.8769  159.7603 H   0  0  0  0  0  0  0  0  0  0  0  0
  152.2401  145.3464  158.5825 H   0  0  0  0  0  0  0  0  0  0  0  0
  153.4376  143.5860  160.4834 H   0  0  0  0  0  0  0  0  0  0  0  0
  150.4898  143.3236  158.1895 H   0  0  0  0  0  0  0  0  0  0  0  0
  150.0509  141.2880  156.8383 H   0  0  0  0  0  0  0  0  0  0  0  0
  151.0455  140.2185  154.9877 H   0  0  0  0  0  0  0  0  0  0  0  0
  152.7184  139.6829  154.9785 H   0  0  0  0  0  0  0  0  0  0  0  0
  150.2496  137.8776  154.6740 H   0  0  0  0  0  0  0  0  0  0  0  0
  151.4148  138.2693  153.4236 H   0  0  0  0  0  0  0  0  0  0  0  0
  150.9765  136.4771  156.5363 H   0  0  0  0  0  0  0  0  0  0  0  0
  152.6365  135.9126  156.5539 H   0  0  0  0  0  0  0  0  0  0  0  0
  153.4877  138.2017  156.9429 H   0  0  0  0  0  0  0  0  0  0  0  0
  152.2923  137.8211  158.1725 H   0  0  0  0  0  0  0  0  0  0  0  0
  154.1748  141.4664  159.4987 H   0  0  0  0  0  0  0  0  0  0  0  0
  1  2  1  0  0  0  0
  1 15  1  0  0  0  0
  1 16  1  0  0  0  0
  1 17  1  0  0  0  0
  2  3  1  0  0  0  0
  2 18  1  0  0  0  0
  3 14  1  0  0  0  0
  3  4  2  0  0  0  0
  4  5  1  0  0  0  0
  4 19  1  0  0  0  0
  5  6  2  0  0  0  0
  5 20  1  0  0  0  0
  6  7  1  0  0  0  0
  6 13  1  0  0  0  0
  7 12  1  0  0  0  0
  7  8  1  0  0  0  0
  8  9  1  0  0  0  0
  8 21  1  0  0  0  0
  8 22  1  0  0  0  0
  9 10  1  0  0  0  0
  9 23  1  0  0  0  0
  9 24  1  0  0  0  0
 10 11  1  0  0  0  0
 11 12  1  0  0  0  0
 11 25  1  0  0  0  0
 11 26  1  0  0  0  0
 12 27  1  0  0  0  0
 12 28  1  0  0  0  0
 13 14  2  0  0  0  0
 14 29  1  0  0  0  0
M  END
> <s_m_source_file>
AV-unprocessed.smi

> <i_m_source_file_index>
2820

> <i_lp_mmshare_version>
43012

> <i_f3d_flags>
0

> <s_epik_input>
W0NIM11bTkhdYzFbY0hdW2NIXWMobltjSF0xKU4yW0NIMl1bQ0gyXU9bQ0gyXVtDSDJdMg==

> <s_epik_cmdline>
J2VwaWtfcHl0aG9uJywgJy1waCcsICc3LjAnLCAnLXRuJywgJzgnLCAnLW1hJywgJzIwMCcsICctbWV0YWxfYmluZGluZycsICctaW1hZScsICc8aW5maWxlLm1hZT4nLCAnLW9tYWUnLCAnPG91dGZpbGUubWFlPic=

> <r_lp_tautomer_probability>
1

> <r_epik_Ionization_Penalty>
0.0411205

> <r_epik_Ionization_Penalty_Charging>
0

> <r_epik_Ionization_Penalty_Neutral>
0.0411205

> <r_epik_State_Penalty>
0.0346301

> <r_epik_Charging_Adjusted_Penalty>
0.0346301

> <i_epik_Tot_Q>
0

> <i_epik_Tot_abs_Q>
0

> <r_epik_Metal_State_Penalty>
3.56611e-05

> <b_epik_Metal_Only>
0

> <s_lp_Force_Field>
OPLS_2005

> <r_lp_Energy>
22.0638

> <b_lp_Chiralities_Consistent>
1

> <s_lp_Variant>
AV-unprocessed.smi:2820-1

> <Gold.Version>
5.8.1

> <Gold.Id.Protein>
6NUR|6NUR_protein|mol2

> <Gold.PLP.Fitness>
30.3507

> <Gold.PLP.PLP>
-25.6622

> <Gold.PLP.part.hbond>
-2.0000

> <Gold.PLP.part.metal>
0.0000

> <Gold.PLP.part.buried>
-3.7299

> <Gold.PLP.part.nonpolar>
-19.8829

> <Gold.PLP.part.repulsive>
0.1051

> <Gold.PLP.ligand.clash>
0.0000

> <Gold.PLP.ligand.torsion>
0.3669

> <Gold.PLP.Chemscore.Hbond>
1.7743

> <Gold.PLP.Chemscore.CHOScore>
0.0000

> <Gold.PLP.Chemscore.Metal>
0.0000

> <Gold.Chemscore.Hbonds>
donor molecule, donor type, donor heavy atom, donor atom, acceptor molecule, acceptor atom, score
      P1  H  7997  8008       L1    13  0.88
      P1  H 10752 10764       L1    10  0.53

> <Gold.PLP.Chemscore.Internal.Correction>
0.0992

> <Gold.Rescore>
     Score         DG    S(hbond)    S(metal)    S(lipo)     H(rot)  DE(clash)    DE(int)     intcor
     14.63     -15.29       1.18        0.00      72.13       1.00       0.25       0.42       ----

> <Gold.Chemscore.Fitness>
14.6289

> <Gold.Chemscore.DG>
-15.2919

> <Gold.Chemscore.ZeroCoef>
-5.4800

> <Gold.Chemscore.Hbond>
1.1774

> <Gold.Chemscore.Metal>
0.0000

> <Gold.Chemscore.Lipo>
72.1310

> <Gold.Chemscore.Internal_Hbond>
0.0000

> <Gold.Chemscore.DEClash>
0.2459

> <Gold.Chemscore.DEInternal>
0.4171

> <Gold.Chemscore.Rot>
1.0000

> <Gold.Chemscore.Internal.Correction>
   9.000000E+99

> <Gold.Chemscore.Hbonds>
donor molecule, donor type, donor heavy atom, donor atom, acceptor molecule, acceptor atom, score
      P1  H  7997  8008       L1    13  0.36
      P1  H 10752 10764       L1    10  0.04

> <Gold.Chemscore.Hbond.Weighted>
-3.9326

> <Gold.Chemscore.Metal.Weighted>
-0.0000

> <Gold.Chemscore.Lipo.Weighted>
-8.4393

> <Gold.Chemscore.Internal_Hbond.Weighted>
0.0000

> <Gold.Chemscore.DEClash.Weighted>
0.2459

> <Gold.Chemscore.DEInternal.Weighted>
0.4171

> <Gold.Chemscore.Rot.Weighted>
2.5600

> <Gold.Chemscore.Internal.Correction.Weighted>
   9.000000E+99

> <Gold.Protein.RotatedTorsions>
[ 6907 6896 6895 6894 ] final  129.51 input  -60.11 | X-H torsion
[ 7974 7965 7964 7962 ] final -160.93 input  175.53 | X-H torsion
[ 8008 7997 7996 7995 ] final  -80.30 input   59.86 | X-H torsion
[ 10167 10162 10161 10158 ] final   60.61 input  -65.29 | X-H torsion
[ 10718 10713 10712 10709 ] final   56.62 input   66.30 | X-H torsion
[ 10763 10752 10751 10750 ] final  -56.93 input  -60.55 | X-H torsion
[ 11005 11000 10999 10996 ] final   22.78 input  -57.11 | X-H torsion

> <Gold.Protein.ActiveResidues>
 VAL166  LYS551  ARG553  GLY616  TRP617  ASP618  TYR619  PRO620  LYS621  CYS622 
 ASP623  PHE694  ASN695  SER759  ASP760  ASP761  ALA762  ILE779  LEU786  VAL792 
 PHE793  MET794  SER795  GLU796  ALA797  LYS798  CYS799  TRP800  GLU811  SER814 

> <Gold.Protein.RotatedAtoms>
  152.3617  133.6305  159.6019 H   0  0  0  0  0  0  0  0  0  0  0  0  # atno 6907 bound_to 6896
  150.7606  133.9413  159.3466 H   0  0  0  0  0  0  0  0  0  0  0  0  # atno 6908 bound_to 6896
  151.7250  135.0887  160.0341 H   0  0  0  0  0  0  0  0  0  0  0  0  # atno 6909 bound_to 6896
  144.7409  140.3471  143.6123 H   0  0  0  0  0  0  0  0  0  0  0  0  # atno 7974 bound_to 7965
  154.5870  140.0665  156.9185 H   0  0  0  0  0  0  0  0  0  0  0  0  # atno 8008 bound_to 7997
  155.2362  140.3341  155.4279 H   0  0  0  0  0  0  0  0  0  0  0  0  # atno 8009 bound_to 7997
  156.2229  140.1806  156.7417 H   0  0  0  0  0  0  0  0  0  0  0  0  # atno 8010 bound_to 7997
  140.1637  144.4345  150.6696 H   0  0  0  0  0  0  0  0  0  0  0  0  # atno 10167 bound_to 10162
  157.5446  130.8722  149.8873 H   0  0  0  0  0  0  0  0  0  0  0  0  # atno 10718 bound_to 10713
  154.2144  135.6389  153.5125 H   0  0  0  0  0  0  0  0  0  0  0  0  # atno 10763 bound_to 10752
  152.9983  135.5481  154.6181 H   0  0  0  0  0  0  0  0  0  0  0  0  # atno 10764 bound_to 10752
  154.5626  135.2910  155.0878 H   0  0  0  0  0  0  0  0  0  0  0  0  # atno 10765 bound_to 10752
  140.3768  134.1963  155.7665 H   0  0  0  0  0  0  0  0  0  0  0  0  # atno 11005 bound_to 11000
  145.7314  139.1737  143.2428 LP  0  0  0  0  0  0  0  0  0  0  0  0  # atno 17320 bound_to 7965
  146.1203  140.7317  142.9461 LP  0  0  0  0  0  0  0  0  0  0  0  0  # atno 17321 bound_to 7965
  140.6627  143.2257  151.5818 LP  0  0  0  0  0  0  0  0  0  0  0  0  # atno 17342 bound_to 10162
  139.5369  144.2755  152.1271 LP  0  0  0  0  0  0  0  0  0  0  0  0  # atno 17343 bound_to 10162
  156.0525  130.3715  150.1167 LP  0  0  0  0  0  0  0  0  0  0  0  0  # atno 17370 bound_to 10713
  156.9345  130.9724  151.3527 LP  0  0  0  0  0  0  0  0  0  0  0  0  # atno 17371 bound_to 10713
  141.1936  133.8146  157.0790 LP  0  0  0  0  0  0  0  0  0  0  0  0  # atno 17394 bound_to 11000
  140.0509  134.9806  157.1134 LP  0  0  0  0  0  0  0  0  0  0  0  0  # atno 17395 bound_to 11000

$$$$
