#       Name:                AV-unprocessed.smi:283
#       Creating user name   scv26
#       Creation time:       Thu Mar 26 21:48:05 2020


#       File generated by GOLD software.
#

@<TRIPOS>MOLECULE
AV-unprocessed.smi:283
    59    62     1
SMALL
NO_CHARGES


@<TRIPOS>ATOM
      1 ****        -5.1660   0.1814   0.5508 C.3            1 S1                 0.0000
      2 ****        -3.6359   0.2893   0.5891 C.3            1 S1                 0.0000
      3 ****        -3.2362   1.6955   0.5419 N.pl3          1 S1                 0.0000
      4 ****        -1.9273   2.0272   0.4908 C.ar           1 S1                 0.0000
      5 ****        -1.6292   3.1577  -0.1927 N.ar           1 S1                 0.0000
      6 ****        -0.3563   3.5366  -0.3364 C.ar           1 S1                 0.0000
      7 ****         0.7482   2.9347   0.1084 N.ar           1 S1                 0.0000
      8 ****         0.4554   1.8009   0.8090 C.ar           1 S1                 0.0000
      9 ****        -0.8495   1.2935   1.0664 C.ar           1 S1                 0.0000
     10 ****        -0.7513   0.1564   1.8581 N.2            1 S1                 0.0000
     11 ****         0.5306  -0.0056   2.0337 C.2            1 S1                 0.0000
     12 ****         1.3352   0.9073   1.3862 N.pl3          1 S1                 0.0000
     13 ****         2.8330   0.9967   1.3748 C.3            1 S1                 0.0000
     14 ****         3.3478  -0.1993   1.8879 O.3            1 S1                 0.0000
     15 ****         3.7845  -1.0543   0.8347 C.3            1 S1                 0.0000
     16 ****         2.6231  -1.9599   0.3623 C.3            1 S1                 0.0000
     17 ****         3.1117  -3.0634  -0.3717 O.3            1 S1                 0.0000
     18 ****         4.3244  -0.0493  -0.1916 C.3            1 S1                 0.0000
     19 ****         4.3420  -0.5597  -1.5106 O.3            1 S1                 0.0000
     20 ****         3.3792   1.1404  -0.0629 C.3            1 S1                 0.0000
     21 ****         4.0989   2.3457  -0.2311 O.3            1 S1                 0.0000
     22 ****        -3.0117  -0.5928  -0.4979 C.ar           1 S1                 0.0000
     23 ****        -2.8437  -0.0833  -1.8069 C.ar           1 S1                 0.0000
     24 ****        -2.2519  -0.8685  -2.8137 C.ar           1 S1                 0.0000
     25 ****        -1.8312  -2.1791  -2.5261 C.ar           1 S1                 0.0000
     26 ****        -2.0115  -2.7043  -1.2336 C.ar           1 S1                 0.0000
     27 ****        -2.6029  -1.9223  -0.2210 C.ar           1 S1                 0.0000
     28 ****        -2.8110  -2.6279   1.3439 Cl             1 S1                 0.0000
     29 ****         3.0559   1.8368   2.0339 H              1 S1                 0.0000
     30 ****         4.5888  -1.6828   1.2197 H              1 S1                 0.0000
     31 ****         5.3376   0.2339   0.0993 H              1 S1                 0.0000
     32 ****         2.5676   1.0719  -0.7889 H              1 S1                 0.0000
     33 ****        -5.4879  -0.8533   0.6727 H              1 S1                 0.0000
     34 ****        -5.5672   0.5453  -0.3957 H              1 S1                 0.0000
     35 ****        -5.6220   0.7632   1.3525 H              1 S1                 0.0000
     36 ****        -3.3222  -0.0749   1.5655 H              1 S1                 0.0000
     37 ****        -3.9514   2.3209   0.2008 H              1 S1                 0.0000
     38 ****        -0.1991   4.4455  -0.8982 H              1 S1                 0.0000
     39 ****         0.9205  -0.8139   2.6345 H              1 S1                 0.0000
     40 ****         2.0939  -2.3646   1.2246 H              1 S1                 0.0000
     41 ****         1.8947  -1.4103  -0.2349 H              1 S1                 0.0000
     42 ****         2.3772  -3.5947  -0.6391 H              1 S1                 0.0000
     43 ****         4.8691  -1.3442  -1.5215 H              1 S1                 0.0000
     44 ****         4.8007   2.3683   0.4011 H              1 S1                 0.0000
     45 ****        -3.1611   0.9214  -2.0448 H              1 S1                 0.0000
     46 ****        -2.1203  -0.4641  -3.8064 H              1 S1                 0.0000
     47 ****        -1.3761  -2.7829  -3.2973 H              1 S1                 0.0000
     48 ****        -1.6950  -3.7144  -1.0185 H              1 S1                 0.0000
     49 ****        -2.3626   3.7093  -0.5902 LP             1 S1                 0.0000
     50 ****         1.6756   3.2726  -0.0518 LP             1 S1                 0.0000
     51 ****        -1.4953  -0.4098   2.2130 LP             1 S1                 0.0000
     52 ****         2.6354  -0.6642   2.4137 LP             1 S1                 0.0000
     53 ****         4.1225   0.0068   2.4856 LP             1 S1                 0.0000
     54 ****         3.7278  -3.6036   0.2015 LP             1 S1                 0.0000
     55 ****         3.6054  -2.7397  -1.1788 LP             1 S1                 0.0000
     56 ****         4.7354   0.1197  -2.1300 LP             1 S1                 0.0000
     57 ****         3.4098  -0.7755  -1.8013 LP             1 S1                 0.0000
     58 ****         3.4894   3.1251  -0.0860 LP             1 S1                 0.0000
     59 ****         4.4771   2.3860  -1.1560 LP             1 S1                 0.0000
@<TRIPOS>BOND
    1    1    2 1     
    2    1   33 1     
    3    1   34 1     
    4    1   35 1     
    5    2    3 1     
    6    2   22 1     
    7    2   36 1     
    8    3    4 1     
    9    3   37 1     
   10    4    9 ar    
   11    4    5 ar    
   12    5    6 ar    
   13    6    7 ar    
   14    6   38 1     
   15    7    8 ar    
   16    8   12 1     
   17    8    9 ar    
   18    9   10 1     
   19   10   11 2     
   20   11   12 1     
   21   11   39 1     
   22   12   13 1     
   23   13   29 1     
   24   13   20 1     
   25   13   14 1     
   26   14   15 1     
   27   15   30 1     
   28   15   16 1     
   29   15   18 1     
   30   16   17 1     
   31   16   40 1     
   32   16   41 1     
   33   17   42 1     
   34   18   31 1     
   35   18   19 1     
   36   18   20 1     
   37   19   43 1     
   38   20   32 1     
   39   20   21 1     
   40   21   44 1     
   41   22   27 ar    
   42   22   23 ar    
   43   23   24 ar    
   44   23   45 1     
   45   24   25 ar    
   46   24   46 1     
   47   25   26 ar    
   48   25   47 1     
   49   26   27 ar    
   50   26   48 1     
   51   27   28 1     
   52    5   49 1     
   53    7   50 1     
   54   10   51 1     
   55   14   52 1     
   56   14   53 1     
   57   17   54 1     
   58   17   55 1     
   59   19   56 1     
   60   19   57 1     
   61   21   58 1     
   62   21   59 1     
@<TRIPOS>SUBSTRUCTURE
      1 S1             1
@<TRIPOS>SET
LONE_PAIRS      STATIC     ATOMS    <user>   **** ""
11 49 50 51 52 53 54 55 56 57 58 59
DONOR_HYDROGENS      STATIC     ATOMS    <user>   **** ""
4 37 42 43 44
ATOM$BLUE        STATIC     ATOMS    COLORGROUP SYSTEM
11 49 50 51 52 53 54 55 56 57 58 59
ATOM$RED        STATIC     ATOMS    COLORGROUP SYSTEM
4 37 42 43 44
