AV-unprocessed.smi:1360|AV-procd|sdf|5552|dock1
  -GOLD-   22720 5143D 1   1.00000     0.00000
 Structure written by MMmdl.
 36 37  0  0  0  0  0  0  0  0  1 V2000
  151.9618  138.7792  155.4213 C   0  0  0  0  0  0  0  0  0  0  0  0
  150.9833  139.9584  155.2943 C   0  0  1  0  0  0  0  0  0  0  0  0
  149.5224  139.5749  155.6165 C   0  0  0  0  0  0  0  0  0  0  0  0
  148.5597  140.3172  154.8226 N   0  0  0  0  0  0  0  0  0  0  0  0
  148.4053  141.6841  154.7269 C   0  0  0  0  0  0  0  0  0  0  0  0
  147.3747  141.9170  153.8619 C   0  0  0  0  0  0  0  0  0  0  0  0
  146.9544  140.6128  153.4782 C   0  0  0  0  0  0  0  0  0  0  0  0
  147.6648  139.6571  154.0553 N   0  0  0  0  0  0  0  0  0  0  0  0
  151.4238  141.0404  156.1700 N   0  0  0  0  0  0  0  0  0  0  0  0
  151.6002  140.9471  157.4975 C   0  0  0  0  0  0  0  0  0  0  0  0
  151.4071  139.9101  158.1332 O   0  0  0  0  0  0  0  0  0  0  0  0
  152.0664  142.2206  158.2157 C   0  0  2  0  0  0  0  0  0  0  0  0
  152.2640  141.9731  159.7294 C   0  0  0  0  0  0  0  0  0  0  0  0
  152.4765  143.2657  160.4978 C   0  0  0  0  0  0  0  0  0  0  0  0
  152.1903  144.4795  159.9964 C   0  0  0  0  0  0  0  0  0  0  0  0
  151.6164  144.6957  158.6072 C   0  0  0  0  0  0  0  0  0  0  0  0
  151.0878  143.3894  157.9846 C   0  0  0  0  0  0  0  0  0  0  0  0
  151.7243  137.9842  154.7143 H   0  0  0  0  0  0  0  0  0  0  0  0
  151.9386  138.3514  156.4240 H   0  0  0  0  0  0  0  0  0  0  0  0
  152.9853  139.0961  155.2179 H   0  0  0  0  0  0  0  0  0  0  0  0
  151.0300  140.3078  154.2610 H   0  0  0  0  0  0  0  0  0  0  0  0
  149.3666  138.5068  155.4543 H   0  0  0  0  0  0  0  0  0  0  0  0
  149.3031  139.7632  156.6684 H   0  0  0  0  0  0  0  0  0  0  0  0
  149.0367  142.3683  155.2745 H   0  0  0  0  0  0  0  0  0  0  0  0
  146.9804  142.8730  153.5510 H   0  0  0  0  0  0  0  0  0  0  0  0
  146.1592  140.3340  152.8024 H   0  0  0  0  0  0  0  0  0  0  0  0
  151.6062  141.9319  155.7324 H   0  0  0  0  0  0  0  0  0  0  0  0
  153.0309  142.5127  157.7955 H   0  0  0  0  0  0  0  0  0  0  0  0
  151.4043  141.4619  160.1653 H   0  0  0  0  0  0  0  0  0  0  0  0
  153.1294  141.3286  159.8874 H   0  0  0  0  0  0  0  0  0  0  0  0
  152.8672  143.1775  161.5009 H   0  0  0  0  0  0  0  0  0  0  0  0
  152.3774  145.3630  160.5888 H   0  0  0  0  0  0  0  0  0  0  0  0
  150.8154  145.4334  158.6590 H   0  0  0  0  0  0  0  0  0  0  0  0
  152.4005  145.1217  157.9806 H   0  0  0  0  0  0  0  0  0  0  0  0
  150.9073  143.5391  156.9192 H   0  0  0  0  0  0  0  0  0  0  0  0
  150.1209  143.1480  158.4293 H   0  0  0  0  0  0  0  0  0  0  0  0
  1  2  1  0  0  0  0
  1 18  1  0  0  0  0
  1 19  1  0  0  0  0
  1 20  1  0  0  0  0
  2  3  1  0  0  0  0
  2  9  1  0  0  0  0
  2 21  1  0  0  0  0
  3  4  1  0  0  0  0
  3 22  1  0  0  0  0
  3 23  1  0  0  0  0
  4  8  1  0  0  0  0
  4  5  1  0  0  0  0
  5  6  2  0  0  0  0
  5 24  1  0  0  0  0
  6  7  1  0  0  0  0
  6 25  1  0  0  0  0
  7  8  2  0  0  0  0
  7 26  1  0  0  0  0
  9 10  1  0  0  0  0
  9 27  1  0  0  0  0
 10 11  2  0  0  0  0
 10 12  1  0  0  0  0
 12 17  1  0  0  0  0
 12 13  1  0  0  0  0
 12 28  1  0  0  0  0
 13 14  1  0  0  0  0
 13 29  1  0  0  0  0
 13 30  1  0  0  0  0
 14 15  2  0  0  0  0
 14 31  1  0  0  0  0
 15 16  1  0  0  0  0
 15 32  1  0  0  0  0
 16 17  1  0  0  0  0
 16 33  1  0  0  0  0
 16 34  1  0  0  0  0
 17 35  1  0  0  0  0
 17 36  1  0  0  0  0
M  END
> <s_m_source_file>
AV-unprocessed.smi

> <i_m_source_file_index>
1360

> <i_lp_mmshare_version>
43012

> <i_f3d_flags>
0

> <s_epik_input>
bjFbY0hdW2NIXVtjSF1uMVtDSDJdW0NAQEhdKFtDSDNdKVtOSF1DKD1PKVtDQEBIXTJbQ0gyXVtDSF09W0NIXVtDSDJdW0NIMl0y

> <s_epik_cmdline>
J2VwaWtfcHl0aG9uJywgJy1waCcsICc3LjAnLCAnLXRuJywgJzgnLCAnLW1hJywgJzIwMCcsICctbWV0YWxfYmluZGluZycsICctaW1hZScsICc8aW5maWxlLm1hZT4nLCAnLW9tYWUnLCAnPG91dGZpbGUubWFlPic=

> <r_lp_tautomer_probability>
1

> <r_epik_Ionization_Penalty>
0.000315076

> <r_epik_Ionization_Penalty_Charging>
0

> <r_epik_Ionization_Penalty_Neutral>
0.000315076

> <r_epik_State_Penalty>
-0

> <r_epik_Charging_Adjusted_Penalty>
0

> <i_epik_Tot_Q>
0

> <i_epik_Tot_abs_Q>
0

> <r_epik_Metal_State_Penalty>
-0

> <b_epik_Metal_Only>
0

> <s_lp_Force_Field>
OPLS_2005

> <r_lp_Energy>
7.97441

> <b_lp_Chiralities_Consistent>
1

> <s_lp_Variant>
AV-unprocessed.smi:1360-2

> <Gold.Version>
5.8.1

> <Gold.Id.Protein>
6NUR|6NUR_protein|mol2

> <Gold.PLP.Fitness>
41.9051

> <Gold.PLP.PLP>
-36.7931

> <Gold.PLP.part.hbond>
0.0000

> <Gold.PLP.part.metal>
0.0000

> <Gold.PLP.part.buried>
-3.2726

> <Gold.PLP.part.nonpolar>
-33.5423

> <Gold.PLP.part.repulsive>
0.2987

> <Gold.PLP.ligand.clash>
0.0000

> <Gold.PLP.ligand.torsion>
0.4620

> <Gold.PLP.Chemscore.Hbond>
0.0000

> <Gold.PLP.Chemscore.CHOScore>
1.9991

> <Gold.PLP.Chemscore.Metal>
0.0000

> <Gold.Chemscore.Hbonds>
donor molecule, donor type, donor heavy atom, donor atom, acceptor molecule, acceptor atom, score
      L1  C     5    24       P1  8028  1.00
      L1  C     7    26       P1 10175  1.00

> <Gold.PLP.Chemscore.Internal.Correction>
0.0389

> <Gold.Rescore>
     Score         DG    S(hbond)    S(metal)    S(lipo)     H(rot)  DE(clash)    DE(int)     intcor
     12.80     -14.34       0.00        0.00     108.71       1.51       0.15       1.39       ----

> <Gold.Chemscore.Fitness>
12.8038

> <Gold.Chemscore.DG>
-14.3444

> <Gold.Chemscore.ZeroCoef>
-5.4800

> <Gold.Chemscore.Hbond>
0.0000

> <Gold.Chemscore.Metal>
0.0000

> <Gold.Chemscore.Lipo>
108.7099

> <Gold.Chemscore.Internal_Hbond>
0.0000

> <Gold.Chemscore.DEClash>
0.1473

> <Gold.Chemscore.DEInternal>
1.3933

> <Gold.Chemscore.Rot>
1.5057

> <Gold.Chemscore.Internal.Correction>
   9.000000E+99

> <Gold.Chemscore.Hbond.Weighted>
-0.0000

> <Gold.Chemscore.Metal.Weighted>
-0.0000

> <Gold.Chemscore.Lipo.Weighted>
-12.7191

> <Gold.Chemscore.Internal_Hbond.Weighted>
0.0000

> <Gold.Chemscore.DEClash.Weighted>
0.1473

> <Gold.Chemscore.DEInternal.Weighted>
1.3933

> <Gold.Chemscore.Rot.Weighted>
3.8546

> <Gold.Chemscore.Internal.Correction.Weighted>
   9.000000E+99

> <Gold.Protein.RotatedTorsions>
[ 6907 6896 6895 6894 ] final  138.31 input  -60.11 | X-H torsion
[ 7974 7965 7964 7962 ] final  132.30 input  175.53 | X-H torsion
[ 8008 7997 7996 7995 ] final   66.78 input   59.86 | X-H torsion
[ 10167 10162 10161 10158 ] final  -22.17 input  -65.29 | X-H torsion
[ 10718 10713 10712 10709 ] final -156.90 input   66.30 | X-H torsion
[ 10763 10752 10751 10750 ] final -135.67 input  -60.55 | X-H torsion
[ 11005 11000 10999 10996 ] final  107.81 input  -57.11 | X-H torsion

> <Gold.Protein.ActiveResidues>
 VAL166  LYS551  ARG553  GLY616  TRP617  ASP618  TYR619  PRO620  LYS621  CYS622 
 ASP623  PHE694  ASN695  SER759  ASP760  ASP761  ALA762  ILE779  LEU786  VAL792 
 PHE793  MET794  SER795  GLU796  ALA797  LYS798  CYS799  TRP800  GLU811  SER814 

> <Gold.Protein.RotatedAtoms>
  152.2681  133.5357  159.5422 H   0  0  0  0  0  0  0  0  0  0  0  0  # atno 6907 bound_to 6896
  150.7149  134.0736  159.3882 H   0  0  0  0  0  0  0  0  0  0  0  0  # atno 6908 bound_to 6896
  151.8652  135.0510  160.0524 H   0  0  0  0  0  0  0  0  0  0  0  0  # atno 6909 bound_to 6896
  144.9983  139.4338  143.5305 H   0  0  0  0  0  0  0  0  0  0  0  0  # atno 7974 bound_to 7965
  155.6827  140.3496  155.4862 H   0  0  0  0  0  0  0  0  0  0  0  0  # atno 8008 bound_to 7997
  155.9592  140.1134  157.0933 H   0  0  0  0  0  0  0  0  0  0  0  0  # atno 8009 bound_to 7997
  154.4139  140.1179  156.5143 H   0  0  0  0  0  0  0  0  0  0  0  0  # atno 8010 bound_to 7997
  140.7285  143.4559  151.0448 H   0  0  0  0  0  0  0  0  0  0  0  0  # atno 10167 bound_to 10162
  156.5328  130.8528  151.2722 H   0  0  0  0  0  0  0  0  0  0  0  0  # atno 10718 bound_to 10713
  154.8699  135.3696  154.4936 H   0  0  0  0  0  0  0  0  0  0  0  0  # atno 10763 bound_to 10752
  153.5581  135.7023  153.5565 H   0  0  0  0  0  0  0  0  0  0  0  0  # atno 10764 bound_to 10752
  153.3653  135.4035  155.1712 H   0  0  0  0  0  0  0  0  0  0  0  0  # atno 10765 bound_to 10752
  139.8834  134.9412  156.5876 H   0  0  0  0  0  0  0  0  0  0  0  0  # atno 11005 bound_to 11000
  146.3446  139.9355  142.8748 LP  0  0  0  0  0  0  0  0  0  0  0  0  # atno 17320 bound_to 7965
  145.2189  140.9927  143.4057 LP  0  0  0  0  0  0  0  0  0  0  0  0  # atno 17321 bound_to 7965
  139.8240  143.7781  152.3178 LP  0  0  0  0  0  0  0  0  0  0  0  0  # atno 17342 bound_to 10162
  139.7874  144.7423  151.0003 LP  0  0  0  0  0  0  0  0  0  0  0  0  # atno 17343 bound_to 10162
  157.7419  130.9879  150.2476 LP  0  0  0  0  0  0  0  0  0  0  0  0  # atno 17370 bound_to 10713
  156.3043  130.3763  149.7720 LP  0  0  0  0  0  0  0  0  0  0  0  0  # atno 17371 bound_to 10713
  140.7980  133.8528  155.8702 LP  0  0  0  0  0  0  0  0  0  0  0  0  # atno 17394 bound_to 11000
  140.9618  134.1646  157.4648 LP  0  0  0  0  0  0  0  0  0  0  0  0  # atno 17395 bound_to 11000

$$$$
