#       Name:                AV-unprocessed.smi:241
#       Creating user name   scv26
#       Creation time:       Thu Mar 26 20:45:18 2020


#       File generated by GOLD software.
#

@<TRIPOS>MOLECULE
AV-unprocessed.smi:241
    66    69     1
SMALL
NO_CHARGES


@<TRIPOS>ATOM
      1 ****        -3.6490  -2.0087   0.1568 C.3            1 S1                 0.0000
      2 ****        -3.5777  -0.6420   0.5204 O.3            1 S1                 0.0000
      3 ****        -2.9633  -0.4465   1.7843 C.3            1 S1                 0.0000
      4 ****        -2.8561   1.0594   2.0905 C.3            1 S1                 0.0000
      5 ****        -4.2052   1.7886   2.1640 C.3            1 S1                 0.0000
      6 ****        -3.9161   3.2040   1.6428 C.3            1 S1                 0.0000
      7 ****        -4.2804   4.1747   2.6138 O.3            1 S1                 0.0000
      8 ****        -4.2416   5.5059   2.1254 C.3            1 S1                 0.0000
      9 ****        -2.4081   3.2032   1.3568 C.3            1 S1                 0.0000
     10 ****        -2.0646   1.8088   1.1230 N.3            1 S1                 0.0000
     11 ****        -0.7460   1.5051   1.0847 C.ar           1 S1                 0.0000
     12 ****         0.1071   2.0087   2.0156 N.ar           1 S1                 0.0000
     13 ****         1.4034   1.6850   1.9788 C.ar           1 S1                 0.0000
     14 ****         2.0417   0.8888   1.1178 N.ar           1 S1                 0.0000
     15 ****         1.1868   0.3800   0.1842 C.ar           1 S1                 0.0000
     16 ****        -0.2105   0.6343   0.0990 C.ar           1 S1                 0.0000
     17 ****        -0.7573  -0.0623  -0.9700 N.2            1 S1                 0.0000
     18 ****         0.2579  -0.7010  -1.4838 C.2            1 S1                 0.0000
     19 ****         1.4693  -0.4790  -0.8651 N.pl3          1 S1                 0.0000
     20 ****         2.7374  -1.0606  -1.2056 C.3            1 S1                 0.0000
     21 ****         3.1255  -1.3793  -2.6526 C.3            1 S1                 0.0000
     22 ****         3.9369  -2.5974  -2.1557 C.3            1 S1                 0.0000
     23 ****         3.7996  -3.8703  -3.0082 C.3            1 S1                 0.0000
     24 ****         4.3299  -3.6831  -4.3049 O.3            1 S1                 0.0000
     25 ****         5.4318  -2.3243  -1.8911 C.3            1 S1                 0.0000
     26 ****         6.0051  -3.3278  -1.0778 O.3            1 S1                 0.0000
     27 ****         3.0237  -2.5320  -0.9090 C.3            1 S1                 0.0000
     28 ****        -2.3681   1.1695   3.0607 H              1 S1                 0.0000
     29 ****        -4.4760   3.3554   0.7181 H              1 S1                 0.0000
     30 ****        -4.1333  -2.1039  -0.8149 H              1 S1                 0.0000
     31 ****        -4.2304  -2.5802   0.8814 H              1 S1                 0.0000
     32 ****        -2.6532  -2.4472   0.0800 H              1 S1                 0.0000
     33 ****        -3.5555  -0.9364   2.5583 H              1 S1                 0.0000
     34 ****        -1.9753  -0.9091   1.8011 H              1 S1                 0.0000
     35 ****        -4.9514   1.3127   1.5267 H              1 S1                 0.0000
     36 ****        -4.5979   1.7870   3.1815 H              1 S1                 0.0000
     37 ****        -4.5560   6.1914   2.9122 H              1 S1                 0.0000
     38 ****        -4.9171   5.6357   1.2792 H              1 S1                 0.0000
     39 ****        -3.2355   5.7915   1.8170 H              1 S1                 0.0000
     40 ****        -2.1593   3.8242   0.4959 H              1 S1                 0.0000
     41 ****        -1.8694   3.5925   2.2221 H              1 S1                 0.0000
     42 ****         2.0166   2.1254   2.7512 H              1 S1                 0.0000
     43 ****         0.1426  -1.3563  -2.3344 H              1 S1                 0.0000
     44 ****         3.5013  -0.4270  -0.7517 H              1 S1                 0.0000
     45 ****         2.2777  -1.6670  -3.2757 H              1 S1                 0.0000
     46 ****         3.7182  -0.6047  -3.1401 H              1 S1                 0.0000
     47 ****         4.2968  -4.7213  -2.5424 H              1 S1                 0.0000
     48 ****         2.7519  -4.1523  -3.1162 H              1 S1                 0.0000
     49 ****         3.8440  -2.9948  -4.7326 H              1 S1                 0.0000
     50 ****         5.9969  -2.2623  -2.8214 H              1 S1                 0.0000
     51 ****         5.5751  -1.3676  -1.3885 H              1 S1                 0.0000
     52 ****         6.9188  -3.1240  -0.9486 H              1 S1                 0.0000
     53 ****         3.5254  -2.7073   0.0432 H              1 S1                 0.0000
     54 ****         2.1319  -3.1552  -0.9983 H              1 S1                 0.0000
     55 ****        -4.5055  -0.2705   0.5541 LP             1 S1                 0.0000
     56 ****        -3.0478  -0.1532  -0.1726 LP             1 S1                 0.0000
     57 ****        -3.6491   4.1023   3.3860 LP             1 S1                 0.0000
     58 ****        -5.2105   3.9784   2.9242 LP             1 S1                 0.0000
     59 ****        -2.2943   1.5498   0.1849 LP             1 S1                 0.0000
     60 ****        -0.2352   2.6214   2.7280 LP             1 S1                 0.0000
     61 ****         3.0213   0.6907   1.1528 LP             1 S1                 0.0000
     62 ****        -1.7094  -0.0723  -1.2757 LP             1 S1                 0.0000
     63 ****         4.2458  -4.5307  -4.8289 LP             1 S1                 0.0000
     64 ****         5.2940  -3.4252  -4.2406 LP             1 S1                 0.0000
     65 ****         5.9182  -4.2168  -1.5274 LP             1 S1                 0.0000
     66 ****         5.5373  -3.3540  -0.1943 LP             1 S1                 0.0000
@<TRIPOS>BOND
    1    1    2 1     
    2    1   30 1     
    3    1   31 1     
    4    1   32 1     
    5    2    3 1     
    6    3    4 1     
    7    3   33 1     
    8    3   34 1     
    9    4   28 1     
   10    4   10 1     
   11    4    5 1     
   12    5    6 1     
   13    5   35 1     
   14    5   36 1     
   15    6   29 1     
   16    6    7 1     
   17    6    9 1     
   18    7    8 1     
   19    8   37 1     
   20    8   38 1     
   21    8   39 1     
   22    9   10 1     
   23    9   40 1     
   24    9   41 1     
   25   10   11 1     
   26   11   16 ar    
   27   11   12 ar    
   28   12   13 ar    
   29   13   14 ar    
   30   13   42 1     
   31   14   15 ar    
   32   15   19 1     
   33   15   16 ar    
   34   16   17 1     
   35   17   18 2     
   36   18   19 1     
   37   18   43 1     
   38   19   20 1     
   39   20   27 1     
   40   20   21 1     
   41   20   44 1     
   42   21   22 1     
   43   21   45 1     
   44   21   46 1     
   45   22   23 1     
   46   22   25 1     
   47   22   27 1     
   48   23   24 1     
   49   23   47 1     
   50   23   48 1     
   51   24   49 1     
   52   25   26 1     
   53   25   50 1     
   54   25   51 1     
   55   26   52 1     
   56   27   53 1     
   57   27   54 1     
   58    2   55 1     
   59    2   56 1     
   60    7   57 1     
   61    7   58 1     
   62   10   59 1     
   63   12   60 1     
   64   14   61 1     
   65   17   62 1     
   66   24   63 1     
   67   24   64 1     
   68   26   65 1     
   69   26   66 1     
@<TRIPOS>SUBSTRUCTURE
      1 S1             1
@<TRIPOS>SET
LONE_PAIRS      STATIC     ATOMS    <user>   **** ""
12 55 56 57 58 59 60 61 62 63 64 65 66
DONOR_HYDROGENS      STATIC     ATOMS    <user>   **** ""
2 49 52
ATOM$BLUE        STATIC     ATOMS    COLORGROUP SYSTEM
12 55 56 57 58 59 60 61 62 63 64 65 66
ATOM$RED        STATIC     ATOMS    COLORGROUP SYSTEM
2 49 52
