AV-unprocessed.smi:2810|AV-procd|sdf|10828|dock1
  -GOLD-   2272015263D 1   1.00000     0.00000
 Structure written by MMmdl.
 39 40  0  0  0  0  0  0  0  0  1 V2000
  153.2520  140.1713  161.4191 C   0  0  0  0  0  0  0  0  0  0  0  0
  152.7203  140.9086  160.2086 C   0  0  0  0  0  0  0  0  0  0  0  0
  152.1616  140.2194  159.1122 C   0  0  0  0  0  0  0  0  0  0  0  0
  151.6986  141.0086  158.0353 C   0  0  0  0  0  0  0  0  0  0  0  0
  151.1236  140.3904  156.9043 N   0  0  0  0  0  0  0  0  0  0  0  0
  150.4470  141.3846  156.0722 C   0  0  0  0  0  0  0  0  0  0  0  0
  149.6873  140.7138  154.9199 C   0  0  0  0  0  0  0  0  0  0  0  0
  150.5951  139.9236  154.1670 O   0  0  0  0  0  0  0  0  0  0  0  0
  151.1396  138.8702  154.9514 C   0  0  0  0  0  0  0  0  0  0  0  0
  151.9494  139.4309  156.1455 C   0  0  2  0  0  0  0  0  0  0  0  0
  152.5044  138.2258  156.9360 C   0  0  0  0  0  0  0  0  0  0  0  0
  151.6420  137.3246  157.4184 N   0  0  0  0  0  0  0  0  0  0  0  0
  153.7151  138.1189  157.1183 O   0  0  0  0  0  0  0  0  0  0  0  0
  151.7863  142.3596  158.0822 N   0  0  0  0  0  0  0  0  0  0  0  0
  152.3379  142.9112  159.1673 C   0  0  0  0  0  0  0  0  0  0  0  0
  152.4484  144.4300  159.1853 C   0  0  0  0  0  0  0  0  0  0  0  0
  151.1351  145.0965  159.6232 C   0  0  0  0  0  0  0  0  0  0  0  0
  152.9865  144.9796  157.8548 C   0  0  0  0  0  0  0  0  0  0  0  0
  152.8090  142.2559  160.2327 N   0  0  0  0  0  0  0  0  0  0  0  0
  153.2304  139.0924  161.2639 H   0  0  0  0  0  0  0  0  0  0  0  0
  152.6487  140.4019  162.2974 H   0  0  0  0  0  0  0  0  0  0  0  0
  154.2824  140.4649  161.6216 H   0  0  0  0  0  0  0  0  0  0  0  0
  152.0964  139.1413  159.0948 H   0  0  0  0  0  0  0  0  0  0  0  0
  149.7439  141.9737  156.6624 H   0  0  0  0  0  0  0  0  0  0  0  0
  151.1860  142.0805  155.6710 H   0  0  0  0  0  0  0  0  0  0  0  0
  148.8654  140.1005  155.2936 H   0  0  0  0  0  0  0  0  0  0  0  0
  149.2502  141.4700  154.2677 H   0  0  0  0  0  0  0  0  0  0  0  0
  150.3336  138.2170  155.2925 H   0  0  0  0  0  0  0  0  0  0  0  0
  151.7793  138.2664  154.3064 H   0  0  0  0  0  0  0  0  0  0  0  0
  152.8024  139.9755  155.7358 H   0  0  0  0  0  0  0  0  0  0  0  0
  151.9854  136.5280  157.9349 H   0  0  0  0  0  0  0  0  0  0  0  0
  150.6518  137.4431  157.2611 H   0  0  0  0  0  0  0  0  0  0  0  0
  153.1889  144.6895  159.9440 H   0  0  0  0  0  0  0  0  0  0  0  0
  150.8206  144.7344  160.6024 H   0  0  0  0  0  0  0  0  0  0  0  0
  150.3292  144.8921  158.9176 H   0  0  0  0  0  0  0  0  0  0  0  0
  151.2482  146.1787  159.6918 H   0  0  0  0  0  0  0  0  0  0  0  0
  153.9530  144.5374  157.6116 H   0  0  0  0  0  0  0  0  0  0  0  0
  153.1198  146.0606  157.9019 H   0  0  0  0  0  0  0  0  0  0  0  0
  152.3055  144.7656  157.0303 H   0  0  0  0  0  0  0  0  0  0  0  0
  1  2  1  0  0  0  0
  1 20  1  0  0  0  0
  1 21  1  0  0  0  0
  1 22  1  0  0  0  0
  2 19  1  0  0  0  0
  2  3  2  0  0  0  0
  3  4  1  0  0  0  0
  3 23  1  0  0  0  0
  4  5  1  0  0  0  0
  4 14  2  0  0  0  0
  5 10  1  0  0  0  0
  5  6  1  0  0  0  0
  6  7  1  0  0  0  0
  6 24  1  0  0  0  0
  6 25  1  0  0  0  0
  7  8  1  0  0  0  0
  7 26  1  0  0  0  0
  7 27  1  0  0  0  0
  8  9  1  0  0  0  0
  9 10  1  0  0  0  0
  9 28  1  0  0  0  0
  9 29  1  0  0  0  0
 10 11  1  0  0  0  0
 10 30  1  0  0  0  0
 11 12  1  0  0  0  0
 11 13  2  0  0  0  0
 12 31  1  0  0  0  0
 12 32  1  0  0  0  0
 14 15  1  0  0  0  0
 15 16  1  0  0  0  0
 15 19  2  0  0  0  0
 16 17  1  0  0  0  0
 16 18  1  0  0  0  0
 16 33  1  0  0  0  0
 17 34  1  0  0  0  0
 17 35  1  0  0  0  0
 17 36  1  0  0  0  0
 18 37  1  0  0  0  0
 18 38  1  0  0  0  0
 18 39  1  0  0  0  0
M  END
> <s_m_source_file>
AV-unprocessed.smi

> <i_m_source_file_index>
2810

> <i_lp_mmshare_version>
43012

> <i_f3d_flags>
0

> <s_epik_input>
W0NIM11bQ0hdKFtDSDNdKWMobjEpbmMoW2NIXWMxW0NIM10pTjJbQ0gyXVtDSDJdT1tDSDJdW0NASF0yQyg9TylbTkgyXQ==

> <s_epik_cmdline>
J2VwaWtfcHl0aG9uJywgJy1waCcsICc3LjAnLCAnLXRuJywgJzgnLCAnLW1hJywgJzIwMCcsICctbWV0YWxfYmluZGluZycsICctaW1hZScsICc8aW5maWxlLm1hZT4nLCAnLW9tYWUnLCAnPG91dGZpbGUubWFlPic=

> <r_lp_tautomer_probability>
1

> <r_epik_Ionization_Penalty>
0.00607782

> <r_epik_Ionization_Penalty_Charging>
0

> <r_epik_Ionization_Penalty_Neutral>
0.00607782

> <r_epik_State_Penalty>
0.00441345

> <r_epik_Charging_Adjusted_Penalty>
0.00441345

> <i_epik_Tot_Q>
0

> <i_epik_Tot_abs_Q>
0

> <r_epik_Metal_State_Penalty>
-0

> <b_epik_Metal_Only>
0

> <s_lp_Force_Field>
OPLS_2005

> <r_lp_Energy>
6.30102

> <b_lp_Chiralities_Consistent>
1

> <s_lp_Variant>
AV-unprocessed.smi:2810-2

> <Gold.Version>
5.8.1

> <Gold.Id.Protein>
6NUR|6NUR_protein|mol2

> <Gold.PLP.Fitness>
42.4729

> <Gold.PLP.PLP>
-39.8675

> <Gold.PLP.part.hbond>
-1.7646

> <Gold.PLP.part.metal>
0.0000

> <Gold.PLP.part.buried>
-5.6245

> <Gold.PLP.part.nonpolar>
-32.2485

> <Gold.PLP.part.repulsive>
0.8402

> <Gold.PLP.ligand.clash>
0.9562

> <Gold.PLP.ligand.torsion>
0.6666

> <Gold.PLP.Chemscore.Hbond>
1.5440

> <Gold.PLP.Chemscore.CHOScore>
0.0000

> <Gold.PLP.Chemscore.Metal>
0.0000

> <Gold.Chemscore.Hbonds>
donor molecule, donor type, donor heavy atom, donor atom, acceptor molecule, acceptor atom, score
      P1  H  7989  7998       L1     8  1.00
      P1  H  7997  8008       L1    13  0.54

> <Gold.PLP.Chemscore.Internal.Correction>
0.2629

> <Gold.Rescore>
     Score         DG    S(hbond)    S(metal)    S(lipo)     H(rot)  DE(clash)    DE(int)     intcor
     12.41     -14.02       0.85        0.00      86.08       1.71       0.07       1.54       ----

> <Gold.Chemscore.Fitness>
12.4072

> <Gold.Chemscore.DG>
-14.0157

> <Gold.Chemscore.ZeroCoef>
-5.4800

> <Gold.Chemscore.Hbond>
0.8521

> <Gold.Chemscore.Metal>
0.0000

> <Gold.Chemscore.Lipo>
86.0832

> <Gold.Chemscore.Internal_Hbond>
0.0000

> <Gold.Chemscore.DEClash>
0.0677

> <Gold.Chemscore.DEInternal>
1.5408

> <Gold.Chemscore.Rot>
1.7117

> <Gold.Chemscore.Internal.Correction>
   9.000000E+99

> <Gold.Chemscore.Hbonds>
donor molecule, donor type, donor heavy atom, donor atom, acceptor molecule, acceptor atom, score
      P1  H  7989  7998       L1     8  0.62
      P1  H  7997  8008       L1    13  0.18

> <Gold.Chemscore.Hbond.Weighted>
-2.8460

> <Gold.Chemscore.Metal.Weighted>
-0.0000

> <Gold.Chemscore.Lipo.Weighted>
-10.0717

> <Gold.Chemscore.Internal_Hbond.Weighted>
0.0000

> <Gold.Chemscore.DEClash.Weighted>
0.0677

> <Gold.Chemscore.DEInternal.Weighted>
1.5408

> <Gold.Chemscore.Rot.Weighted>
4.3820

> <Gold.Chemscore.Internal.Correction.Weighted>
   9.000000E+99

> <Gold.Protein.RotatedTorsions>
[ 6907 6896 6895 6894 ] final -124.85 input  -60.11 | X-H torsion
[ 7974 7965 7964 7962 ] final  -26.71 input  175.53 | X-H torsion
[ 8008 7997 7996 7995 ] final  -56.07 input   59.86 | X-H torsion
[ 10167 10162 10161 10158 ] final  167.49 input  -65.29 | X-H torsion
[ 10718 10713 10712 10709 ] final  137.87 input   66.30 | X-H torsion
[ 10763 10752 10751 10750 ] final  -37.36 input  -60.55 | X-H torsion
[ 11005 11000 10999 10996 ] final -114.84 input  -57.11 | X-H torsion

> <Gold.Protein.ActiveResidues>
 VAL166  LYS551  ARG553  GLY616  TRP617  ASP618  TYR619  PRO620  LYS621  CYS622 
 ASP623  PHE694  ASN695  SER759  ASP760  ASP761  ALA762  ILE779  LEU786  VAL792 
 PHE793  MET794  SER795  GLU796  ALA797  LYS798  CYS799  TRP800  GLU811  SER814 

> <Gold.Protein.RotatedAtoms>
  150.8809  133.7374  159.2932 H   0  0  0  0  0  0  0  0  0  0  0  0  # atno 6907 bound_to 6896
  151.4955  135.1058  159.9824 H   0  0  0  0  0  0  0  0  0  0  0  0  # atno 6908 bound_to 6896
  152.4759  133.8091  159.7049 H   0  0  0  0  0  0  0  0  0  0  0  0  # atno 6909 bound_to 6896
  146.1407  140.5055  142.8653 H   0  0  0  0  0  0  0  0  0  0  0  0  # atno 7974 bound_to 7965
  154.4217  140.1138  156.5578 H   0  0  0  0  0  0  0  0  0  0  0  0  # atno 8008 bound_to 7997
  155.6343  140.3496  155.4674 H   0  0  0  0  0  0  0  0  0  0  0  0  # atno 8009 bound_to 7997
  155.9923  140.1182  157.0616 H   0  0  0  0  0  0  0  0  0  0  0  0  # atno 8010 bound_to 7997
  139.4946  144.3916  151.9510 H   0  0  0  0  0  0  0  0  0  0  0  0  # atno 10167 bound_to 10162
  157.4314  131.1049  151.0245 H   0  0  0  0  0  0  0  0  0  0  0  0  # atno 10718 bound_to 10713
  153.8950  135.6808  153.4758 H   0  0  0  0  0  0  0  0  0  0  0  0  # atno 10763 bound_to 10752
  153.1160  135.4761  154.9114 H   0  0  0  0  0  0  0  0  0  0  0  0  # atno 10764 bound_to 10752
  154.7604  135.3209  154.8343 H   0  0  0  0  0  0  0  0  0  0  0  0  # atno 10765 bound_to 10752
  141.0526  133.9663  157.2809 H   0  0  0  0  0  0  0  0  0  0  0  0  # atno 11005 bound_to 11000
  144.7789  140.5799  143.6619 LP  0  0  0  0  0  0  0  0  0  0  0  0  # atno 17320 bound_to 7965
  145.5053  139.1481  143.3635 LP  0  0  0  0  0  0  0  0  0  0  0  0  # atno 17321 bound_to 7965
  140.3354  144.3267  150.5978 LP  0  0  0  0  0  0  0  0  0  0  0  0  # atno 17342 bound_to 10162
  140.5610  143.2192  151.7765 LP  0  0  0  0  0  0  0  0  0  0  0  0  # atno 17343 bound_to 10162
  157.1140  130.6033  149.5489 LP  0  0  0  0  0  0  0  0  0  0  0  0  # atno 17370 bound_to 10713
  155.9915  130.4969  150.7300 LP  0  0  0  0  0  0  0  0  0  0  0  0  # atno 17371 bound_to 10713
  139.9363  135.0196  156.8567 LP  0  0  0  0  0  0  0  0  0  0  0  0  # atno 17394 bound_to 11000
  140.6025  134.0158  155.7543 LP  0  0  0  0  0  0  0  0  0  0  0  0  # atno 17395 bound_to 11000

$$$$
