AV-unprocessed.smi:86|AV-procd|sdf|816|dock6
  -GOLD-   2262017213D 1   1.00000     0.00000
 Structure written by MMmdl.
 51 55  0  0  0  0  0  0  0  0  1 V2000
  149.4128  141.0100  153.6393 O   0  0  0  0  0  0  0  0  0  0  0  0
  148.7198  140.1804  154.5498 C   0  0  0  0  0  0  0  0  0  0  0  0
  149.6733  139.2019  155.2587 C   0  0  0  0  0  0  0  0  0  0  0  0
  148.8987  138.2670  156.2116 C   0  0  0  0  0  0  0  0  0  0  0  0
  148.0988  137.2539  155.5395 N   0  0  0  0  0  0  0  0  0  0  0  0
  146.7460  137.3085  155.2955 C   0  0  0  0  0  0  0  0  0  0  0  0
  146.2517  136.2730  154.6760 N   0  0  0  0  0  0  0  0  0  0  0  0
  147.3458  135.4415  154.4595 C   0  0  0  0  0  0  0  0  0  0  0  0
  147.5320  134.1676  153.8420 C   0  0  0  0  0  0  0  0  0  0  0  0
  146.5414  133.4249  153.2822 N   0  0  0  0  0  0  0  0  0  0  0  0
  146.7516  132.0456  152.8484 C   0  0  0  0  0  0  0  0  0  0  0  0
  145.7247  131.7999  151.7322 C   0  0  2  0  0  0  0  0  0  0  0  0
  146.3451  132.0497  150.3396 C   0  0  0  0  0  0  0  0  0  0  0  0
  145.2788  132.1939  149.2461 C   0  0  0  0  0  0  0  0  0  0  0  0
  144.3174  133.3428  149.5857 C   0  0  1  0  0  0  0  0  0  0  0  0
  143.3453  133.4598  148.5686 O   0  0  0  0  0  0  0  0  0  0  0  0
  143.6203  133.0920  150.9330 C   0  0  0  0  0  0  0  0  0  0  0  0
  144.6136  132.8062  152.0764 C   0  0  2  0  0  0  0  0  0  0  0  0
  145.3886  134.0099  152.6155 C   0  0  0  0  0  0  0  0  0  0  0  0
  148.7943  133.6639  153.8304 N   0  0  0  0  0  0  0  0  0  0  0  0
  149.8063  134.3492  154.3685 C   0  0  0  0  0  0  0  0  0  0  0  0
  149.7801  135.5395  154.9677 N   0  0  0  0  0  0  0  0  0  0  0  0
  148.5177  136.0520  154.9952 C   0  0  0  0  0  0  0  0  0  0  0  0
  150.6912  138.5157  154.3371 C   0  0  0  0  0  0  0  0  0  0  0  0
  151.7392  139.4304  154.7204 O   0  0  0  0  0  0  0  0  0  0  0  0
  150.9342  139.8592  155.8385 C   0  0  0  0  0  0  0  0  0  0  0  0
  150.3177  140.7379  153.6150 H   0  0  0  0  0  0  0  0  0  0  0  0
  148.2252  140.8257  155.2766 H   0  0  0  0  0  0  0  0  0  0  0  0
  147.9215  139.6568  154.0234 H   0  0  0  0  0  0  0  0  0  0  0  0
  149.5887  137.7606  156.8875 H   0  0  0  0  0  0  0  0  0  0  0  0
  148.2331  138.8422  156.8564 H   0  0  0  0  0  0  0  0  0  0  0  0
  146.1315  138.1429  155.6009 H   0  0  0  0  0  0  0  0  0  0  0  0
  147.7693  131.8642  152.5001 H   0  0  0  0  0  0  0  0  0  0  0  0
  146.5637  131.3845  153.6950 H   0  0  0  0  0  0  0  0  0  0  0  0
  145.3418  130.7794  151.7706 H   0  0  0  0  0  0  0  0  0  0  0  0
  146.9505  132.9570  150.3584 H   0  0  0  0  0  0  0  0  0  0  0  0
  147.0273  131.2369  150.0884 H   0  0  0  0  0  0  0  0  0  0  0  0
  145.7615  132.3810  148.2861 H   0  0  0  0  0  0  0  0  0  0  0  0
  144.7281  131.2578  149.1425 H   0  0  0  0  0  0  0  0  0  0  0  0
  144.8702  134.2818  149.6259 H   0  0  0  0  0  0  0  0  0  0  0  0
  142.5507  133.8001  148.9502 H   0  0  0  0  0  0  0  0  0  0  0  0
  142.9831  133.9375  151.1952 H   0  0  0  0  0  0  0  0  0  0  0  0
  142.9569  132.2316  150.8328 H   0  0  0  0  0  0  0  0  0  0  0  0
  144.0442  132.3977  152.9131 H   0  0  0  0  0  0  0  0  0  0  0  0
  144.7787  134.5949  153.3043 H   0  0  0  0  0  0  0  0  0  0  0  0
  145.7260  134.6610  151.8086 H   0  0  0  0  0  0  0  0  0  0  0  0
  150.7750  133.8752  154.3113 H   0  0  0  0  0  0  0  0  0  0  0  0
  150.9255  137.4888  154.6228 H   0  0  0  0  0  0  0  0  0  0  0  0
  150.4462  138.5775  153.2762 H   0  0  0  0  0  0  0  0  0  0  0  0
  150.8718  140.9447  155.9225 H   0  0  0  0  0  0  0  0  0  0  0  0
  151.2829  139.4159  156.7720 H   0  0  0  0  0  0  0  0  0  0  0  0
  1  2  1  0  0  0  0
  1 27  1  0  0  0  0
  2  3  1  0  0  0  0
  2 28  1  0  0  0  0
  2 29  1  0  0  0  0
  3 26  1  0  0  0  0
  3  4  1  0  0  0  0
  3 24  1  0  0  0  0
  4  5  1  0  0  0  0
  4 30  1  0  0  0  0
  4 31  1  0  0  0  0
  5 23  1  0  0  0  0
  5  6  1  0  0  0  0
  6  7  2  0  0  0  0
  6 32  1  0  0  0  0
  7  8  1  0  0  0  0
  8 23  2  0  0  0  0
  8  9  1  0  0  0  0
  9 10  1  0  0  0  0
  9 20  2  0  0  0  0
 10 19  1  0  0  0  0
 10 11  1  0  0  0  0
 11 12  1  0  0  0  0
 11 33  1  0  0  0  0
 11 34  1  0  0  0  0
 12 18  1  0  0  0  0
 12 13  1  0  0  0  0
 12 35  1  0  0  0  0
 13 14  1  0  0  0  0
 13 36  1  0  0  0  0
 13 37  1  0  0  0  0
 14 15  1  0  0  0  0
 14 38  1  0  0  0  0
 14 39  1  0  0  0  0
 15 16  1  0  0  0  0
 15 17  1  0  0  0  0
 15 40  1  0  0  0  0
 16 41  1  0  0  0  0
 17 18  1  0  0  0  0
 17 42  1  0  0  0  0
 17 43  1  0  0  0  0
 18 19  1  0  0  0  0
 18 44  1  0  0  0  0
 19 45  1  0  0  0  0
 19 46  1  0  0  0  0
 20 21  1  0  0  0  0
 21 22  2  0  0  0  0
 21 47  1  0  0  0  0
 22 23  1  0  0  0  0
 24 25  1  0  0  0  0
 24 48  1  0  0  0  0
 24 49  1  0  0  0  0
 25 26  1  0  0  0  0
 26 50  1  0  0  0  0
 26 51  1  0  0  0  0
M  END
> <s_m_source_file>
AV-unprocessed.smi

> <i_m_source_file_index>
86

> <i_lp_mmshare_version>
43012

> <i_f3d_flags>
0

> <s_epik_input>
W0NIMl0xT1tDSDJdQzEoW0NIMl1bT0hdKVtDSDJdbihbY0hdbjIpYyhjMjMpbltjSF1uYzNOKFtDSDJdNClbQ0gyXVtDQEBIXShbQ0BIXTQ1KVtDSDJdW0NASF0oW09IXSlbQ0gyXVtDSDJdNQ==

> <s_epik_cmdline>
J2VwaWtfcHl0aG9uJywgJy1waCcsICc3LjAnLCAnLXRuJywgJzgnLCAnLW1hJywgJzIwMCcsICctbWV0YWxfYmluZGluZycsICctaW1hZScsICc8aW5maWxlLm1hZT4nLCAnLW9tYWUnLCAnPG91dGZpbGUubWFlPic=

> <r_lp_tautomer_probability>
1

> <r_epik_Ionization_Penalty>
0.00425795

> <r_epik_Ionization_Penalty_Charging>
0

> <r_epik_Ionization_Penalty_Neutral>
0.00425795

> <r_epik_State_Penalty>
0.00299946

> <r_epik_Charging_Adjusted_Penalty>
0.00299946

> <i_epik_Tot_Q>
0

> <i_epik_Tot_abs_Q>
0

> <r_epik_Metal_State_Penalty>
-0

> <b_epik_Metal_Only>
0

> <s_lp_Force_Field>
OPLS_2005

> <r_lp_Energy>
53.5956

> <b_lp_Chiralities_Consistent>
1

> <s_lp_Variant>
AV-unprocessed.smi:86-5

> <Gold.Version>
5.8.1

> <Gold.Id.Protein>
6NUR|6NUR_protein|mol2

> <Gold.PLP.Fitness>
44.8087

> <Gold.PLP.PLP>
-37.2325

> <Gold.PLP.part.hbond>
-5.5890

> <Gold.PLP.part.metal>
0.0000

> <Gold.PLP.part.buried>
-0.0442

> <Gold.PLP.part.nonpolar>
-30.3642

> <Gold.PLP.part.repulsive>
0.4304

> <Gold.PLP.ligand.clash>
0.0000

> <Gold.PLP.ligand.torsion>
0.7957

> <Gold.PLP.Chemscore.Hbond>
2.9000

> <Gold.PLP.Chemscore.CHOScore>
0.0000

> <Gold.PLP.Chemscore.Metal>
0.0000

> <Gold.Chemscore.Hbonds>
donor molecule, donor type, donor heavy atom, donor atom, acceptor molecule, acceptor atom, score
      L1  H    16    41       P1 10186  1.00
      P1  H  7989  7998       L1    25  1.00
      P1  H  8011  8017       L1     1  0.50

> <Gold.PLP.Chemscore.Internal.Correction>
0.4677

> <Gold.Rescore>
     Score         DG    S(hbond)    S(metal)    S(lipo)     H(rot)  DE(clash)    DE(int)     intcor
     12.14     -14.95       1.78        0.00      90.50       2.76       1.13       1.67       ----

> <Gold.Chemscore.Fitness>
12.1448

> <Gold.Chemscore.DG>
-14.9500

> <Gold.Chemscore.ZeroCoef>
-5.4800

> <Gold.Chemscore.Hbond>
1.7827

> <Gold.Chemscore.Metal>
0.0000

> <Gold.Chemscore.Lipo>
90.5049

> <Gold.Chemscore.Internal_Hbond>
0.0000

> <Gold.Chemscore.DEClash>
1.1305

> <Gold.Chemscore.DEInternal>
1.6748

> <Gold.Chemscore.Rot>
2.7630

> <Gold.Chemscore.Internal.Correction>
   9.000000E+99

> <Gold.Chemscore.Hbonds>
donor molecule, donor type, donor heavy atom, donor atom, acceptor molecule, acceptor atom, score
      L1  H    16    41       P1 10186  1.00
      P1  H  7989  7998       L1    25  0.27
      P1  H  8011  8017       L1     1  0.02

> <Gold.Chemscore.Hbond.Weighted>
-5.9543

> <Gold.Chemscore.Metal.Weighted>
-0.0000

> <Gold.Chemscore.Lipo.Weighted>
-10.5891

> <Gold.Chemscore.Internal_Hbond.Weighted>
0.0000

> <Gold.Chemscore.DEClash.Weighted>
1.1305

> <Gold.Chemscore.DEInternal.Weighted>
1.6748

> <Gold.Chemscore.Rot.Weighted>
7.0734

> <Gold.Chemscore.Internal.Correction.Weighted>
   9.000000E+99

> <Gold.Protein.RotatedTorsions>
[ 6907 6896 6895 6894 ] final    9.42 input  -60.11 | X-H torsion
[ 7974 7965 7964 7962 ] final  146.51 input  175.53 | X-H torsion
[ 8008 7997 7996 7995 ] final  -99.12 input   59.86 | X-H torsion
[ 10167 10162 10161 10158 ] final -140.18 input  -65.29 | X-H torsion
[ 10718 10713 10712 10709 ] final  -75.74 input   66.30 | X-H torsion
[ 10763 10752 10751 10750 ] final   65.56 input  -60.55 | X-H torsion
[ 11005 11000 10999 10996 ] final  -31.04 input  -57.11 | X-H torsion

> <Gold.Protein.ActiveResidues>
 VAL166  LYS551  ARG553  GLY616  TRP617  ASP618  TYR619  PRO620  LYS621  CYS622 
 ASP623  PHE694  ASN695  SER759  ASP760  ASP761  ALA762  ILE779  LEU786  VAL792 
 PHE793  MET794  SER795  GLU796  ALA797  LYS798  CYS799  TRP800  GLU811  SER814 

> <Gold.Protein.RotatedAtoms>
  151.7219  135.0892  160.0285 H   0  0  0  0  0  0  0  0  0  0  0  0  # atno 6907 bound_to 6896
  152.3596  133.6276  159.6014 H   0  0  0  0  0  0  0  0  0  0  0  0  # atno 6908 bound_to 6896
  150.7595  133.9360  159.3483 H   0  0  0  0  0  0  0  0  0  0  0  0  # atno 6909 bound_to 6896
  144.8665  139.5914  143.5906 H   0  0  0  0  0  0  0  0  0  0  0  0  # atno 7974 bound_to 7965
  154.8105  140.0450  157.1339 H   0  0  0  0  0  0  0  0  0  0  0  0  # atno 8008 bound_to 7997
  154.9374  140.3048  155.5117 H   0  0  0  0  0  0  0  0  0  0  0  0  # atno 8009 bound_to 7997
  156.2971  140.2312  156.4440 H   0  0  0  0  0  0  0  0  0  0  0  0  # atno 8010 bound_to 7997
  139.8307  143.7451  152.2666 H   0  0  0  0  0  0  0  0  0  0  0  0  # atno 10167 bound_to 10162
  156.0197  130.4448  150.3088 H   0  0  0  0  0  0  0  0  0  0  0  0  # atno 10718 bound_to 10713
  153.0102  135.5352  154.6687 H   0  0  0  0  0  0  0  0  0  0  0  0  # atno 10763 bound_to 10752
  154.5877  135.2856  155.0670 H   0  0  0  0  0  0  0  0  0  0  0  0  # atno 10764 bound_to 10752
  154.1775  135.6522  153.5078 H   0  0  0  0  0  0  0  0  0  0  0  0  # atno 10765 bound_to 10752
  140.9434  133.7264  156.1111 H   0  0  0  0  0  0  0  0  0  0  0  0  # atno 11005 bound_to 11000
  146.2900  139.7111  142.9168 LP  0  0  0  0  0  0  0  0  0  0  0  0  # atno 17320 bound_to 7965
  145.4211  141.0406  143.2963 LP  0  0  0  0  0  0  0  0  0  0  0  0  # atno 17321 bound_to 7965
  139.7658  144.7492  151.0297 LP  0  0  0  0  0  0  0  0  0  0  0  0  # atno 17342 bound_to 10162
  140.7807  143.4700  151.0159 LP  0  0  0  0  0  0  0  0  0  0  0  0  # atno 17343 bound_to 10162
  157.1190  131.0242  151.3017 LP  0  0  0  0  0  0  0  0  0  0  0  0  # atno 17370 bound_to 10713
  157.4643  130.7671  149.7264 LP  0  0  0  0  0  0  0  0  0  0  0  0  # atno 17371 bound_to 10713
  140.7702  134.3841  157.5509 LP  0  0  0  0  0  0  0  0  0  0  0  0  # atno 17394 bound_to 11000
  139.8827  134.9017  156.2817 LP  0  0  0  0  0  0  0  0  0  0  0  0  # atno 17395 bound_to 11000

$$$$
