AV-unprocessed.smi:370|AV-procd|sdf|2438|dock6
  -GOLD-   2262022373D 1   1.00000     0.00000
 Structure written by MMmdl.
 41 42  0  0  0  0  0  0  0  0  2 V2000
  145.6988  133.8319  162.8848 C   0  0  0  0  0  0  0  0  0  0  0  0
  146.6249  134.6135  162.0172 C   0  0  0  0  0  0  0  0  0  0  0  0
  147.5395  135.5928  162.2829 C   0  0  0  0  0  0  0  0  0  0  0  0
  148.0806  135.8887  161.0019 C   0  0  0  0  0  0  0  0  0  0  0  0
  149.0257  136.8033  160.7358 N   0  5  0  0  0  0  0  0  0  0  0  0
  149.6862  136.7739  159.5551 C   0  0  0  0  0  0  0  0  0  0  0  0
  149.6892  135.8469  158.7416 O   0  0  0  0  0  0  0  0  0  0  0  0
  150.3871  137.8858  159.2981 N   0  0  0  0  0  0  0  0  0  0  0  0
  151.1855  138.1189  158.0978 C   0  0  0  0  0  0  0  0  0  0  0  0
  151.1008  139.5919  157.6049 C   0  0  0  0  0  0  0  0  0  0  0  0
  151.8603  139.6659  156.2581 C   0  0  0  0  0  0  0  0  0  0  0  0
  149.6044  139.8649  157.3064 C   0  0  0  0  0  0  0  0  0  0  0  0
  151.6248  140.5464  158.6221 N   0  0  0  0  0  0  0  0  0  0  0  0
  151.4826  141.9641  158.2714 C   0  0  0  0  0  0  0  0  0  0  0  0
  151.9303  142.8907  159.4145 C   0  0  0  0  0  0  0  0  0  0  0  0
  153.2750  142.5961  159.7727 O   0  0  0  0  0  0  0  0  0  0  0  0
  153.4416  141.2438  160.1808 C   0  0  0  0  0  0  0  0  0  0  0  0
  153.0092  140.3027  159.0438 C   0  0  0  0  0  0  0  0  0  0  0  0
  147.5280  135.1669  160.0410 N   0  0  0  0  0  0  0  0  0  0  0  0
  146.5988  134.3412  160.6847 O   0  0  0  0  0  0  0  0  0  0  0  0
  145.0361  134.4971  163.4383 H   0  0  0  0  0  0  0  0  0  0  0  0
  146.2586  133.2350  163.6049 H   0  0  0  0  0  0  0  0  0  0  0  0
  145.0813  133.1555  162.2932 H   0  0  0  0  0  0  0  0  0  0  0  0
  147.7879  136.0247  163.2408 H   0  0  0  0  0  0  0  0  0  0  0  0
  150.3671  138.6247  159.9858 H   0  0  0  0  0  0  0  0  0  0  0  0
  152.2184  137.8253  158.2879 H   0  0  0  0  0  0  0  0  0  0  0  0
  150.8350  137.4415  157.3170 H   0  0  0  0  0  0  0  0  0  0  0  0
  151.4486  138.9572  155.5385 H   0  0  0  0  0  0  0  0  0  0  0  0
  152.9167  139.4227  156.3682 H   0  0  0  0  0  0  0  0  0  0  0  0
  151.7924  140.6519  155.7990 H   0  0  0  0  0  0  0  0  0  0  0  0
  149.1666  139.0720  156.6988 H   0  0  0  0  0  0  0  0  0  0  0  0
  149.4549  140.7901  156.7505 H   0  0  0  0  0  0  0  0  0  0  0  0
  149.0170  139.9324  158.2230 H   0  0  0  0  0  0  0  0  0  0  0  0
  152.0712  142.1942  157.3834 H   0  0  0  0  0  0  0  0  0  0  0  0
  150.4471  142.2047  158.0372 H   0  0  0  0  0  0  0  0  0  0  0  0
  151.8647  143.9336  159.1040 H   0  0  0  0  0  0  0  0  0  0  0  0
  151.2802  142.7736  160.2830 H   0  0  0  0  0  0  0  0  0  0  0  0
  154.4880  141.0746  160.4351 H   0  0  0  0  0  0  0  0  0  0  0  0
  152.8580  141.0528  161.0827 H   0  0  0  0  0  0  0  0  0  0  0  0
  153.1341  139.2810  159.3974 H   0  0  0  0  0  0  0  0  0  0  0  0
  153.6888  140.4327  158.2016 H   0  0  0  0  0  0  0  0  0  0  0  0
  1  2  1  0  0  0  0
  1 21  1  0  0  0  0
  1 22  1  0  0  0  0
  1 23  1  0  0  0  0
  2 20  1  0  0  0  0
  2  3  2  0  0  0  0
  3  4  1  0  0  0  0
  3 24  1  0  0  0  0
  4  5  1  0  0  0  0
  4 19  2  0  0  0  0
  5  6  1  0  0  0  0
  6  7  2  0  0  0  0
  6  8  1  0  0  0  0
  8  9  1  0  0  0  0
  8 25  1  0  0  0  0
  9 10  1  0  0  0  0
  9 26  1  0  0  0  0
  9 27  1  0  0  0  0
 10 11  1  0  0  0  0
 10 12  1  0  0  0  0
 10 13  1  0  0  0  0
 11 28  1  0  0  0  0
 11 29  1  0  0  0  0
 11 30  1  0  0  0  0
 12 31  1  0  0  0  0
 12 32  1  0  0  0  0
 12 33  1  0  0  0  0
 13 18  1  0  0  0  0
 13 14  1  0  0  0  0
 14 15  1  0  0  0  0
 14 34  1  0  0  0  0
 14 35  1  0  0  0  0
 15 16  1  0  0  0  0
 15 36  1  0  0  0  0
 15 37  1  0  0  0  0
 16 17  1  0  0  0  0
 17 18  1  0  0  0  0
 17 38  1  0  0  0  0
 17 39  1  0  0  0  0
 18 40  1  0  0  0  0
 18 41  1  0  0  0  0
 19 20  1  0  0  0  0
M  CHG  1   5  -1
M  END
> <s_m_source_file>
AV-unprocessed.smi

> <i_m_source_file_index>
370

> <i_lp_mmshare_version>
43012

> <i_f3d_flags>
0

> <s_epik_input>
W0NIM11jMVtjSF1jKG5vMSlbTkhdQyg9TylbTkhdW0NIMl1DKFtDSDNdKShbQ0gzXSlOMltDSDJdW0NIMl1PW0NIMl1bQ0gyXTI=

> <s_epik_cmdline>
J2VwaWtfcHl0aG9uJywgJy1waCcsICc3LjAnLCAnLXRuJywgJzgnLCAnLW1hJywgJzIwMCcsICctbWV0YWxfYmluZGluZycsICctaW1hZScsICc8aW5maWxlLm1hZT4nLCAnLW9tYWUnLCAnPG91dGZpbGUubWFlPic=

> <r_epik_Ionization_Penalty>
6.88367

> <r_epik_Ionization_Penalty_Charging>
6.57198

> <r_epik_Ionization_Penalty_Neutral>
0.311685

> <r_epik_State_Penalty>
6.77619

> <r_epik_Charging_Adjusted_Penalty>
13.3482

> <i_epik_Tot_Q>
-1

> <i_epik_Tot_abs_Q>
1

> <r_epik_Metal_State_Penalty>
2.70533

> <b_epik_Metal_Only>
1

> <s_lp_Force_Field>
OPLS_2005

> <r_lp_Energy>
34.5841

> <b_lp_Chiralities_Consistent>
1

> <s_lp_Variant>
AV-unprocessed.smi:370-3

> <Gold.Version>
5.8.1

> <Gold.Id.Protein>
6NUR|6NUR_protein|mol2

> <Gold.PLP.Fitness>
40.1496

> <Gold.PLP.PLP>
-32.6496

> <Gold.PLP.part.hbond>
-2.0000

> <Gold.PLP.part.metal>
0.0000

> <Gold.PLP.part.buried>
-6.2429

> <Gold.PLP.part.nonpolar>
-26.2411

> <Gold.PLP.part.repulsive>
0.5434

> <Gold.PLP.ligand.clash>
0.0000

> <Gold.PLP.ligand.torsion>
0.2921

> <Gold.PLP.Chemscore.Hbond>
2.6640

> <Gold.PLP.Chemscore.CHOScore>
0.0000

> <Gold.PLP.Chemscore.Metal>
0.0000

> <Gold.Chemscore.Hbonds>
donor molecule, donor type, donor heavy atom, donor atom, acceptor molecule, acceptor atom, score
      P1  H  6896  6909       L1     7  1.00
      P1  H  6931  6943       L1     5  1.70

> <Gold.PLP.Chemscore.Internal.Correction>
0.0922

> <Gold.Rescore>
     Score         DG    S(hbond)    S(metal)    S(lipo)     H(rot)  DE(clash)    DE(int)     intcor
     14.22     -16.25       1.75        0.00      75.44       1.53       0.05       1.98       ----

> <Gold.Chemscore.Fitness>
14.2240

> <Gold.Chemscore.DG>
-16.2522

> <Gold.Chemscore.ZeroCoef>
-5.4800

> <Gold.Chemscore.Hbond>
1.7528

> <Gold.Chemscore.Metal>
0.0000

> <Gold.Chemscore.Lipo>
75.4435

> <Gold.Chemscore.Internal_Hbond>
0.0000

> <Gold.Chemscore.DEClash>
0.0480

> <Gold.Chemscore.DEInternal>
1.9803

> <Gold.Chemscore.Rot>
1.5269

> <Gold.Chemscore.Internal.Correction>
   9.000000E+99

> <Gold.Chemscore.Hbonds>
donor molecule, donor type, donor heavy atom, donor atom, acceptor molecule, acceptor atom, score
      P1  H  6896  6909       L1     7  0.49
      P1  H  6931  6943       L1     5  0.75

> <Gold.Chemscore.Hbond.Weighted>
-5.8543

> <Gold.Chemscore.Metal.Weighted>
-0.0000

> <Gold.Chemscore.Lipo.Weighted>
-8.8269

> <Gold.Chemscore.Internal_Hbond.Weighted>
0.0000

> <Gold.Chemscore.DEClash.Weighted>
0.0480

> <Gold.Chemscore.DEInternal.Weighted>
1.9803

> <Gold.Chemscore.Rot.Weighted>
3.9090

> <Gold.Chemscore.Internal.Correction.Weighted>
   9.000000E+99

> <Gold.Protein.RotatedTorsions>
[ 6907 6896 6895 6894 ] final   45.01 input  -60.11 | X-H torsion
[ 7974 7965 7964 7962 ] final    8.42 input  175.53 | X-H torsion
[ 8008 7997 7996 7995 ] final -116.49 input   59.86 | X-H torsion
[ 10167 10162 10161 10158 ] final -159.21 input  -65.29 | X-H torsion
[ 10718 10713 10712 10709 ] final   -4.18 input   66.30 | X-H torsion
[ 10763 10752 10751 10750 ] final    4.77 input  -60.55 | X-H torsion
[ 11005 11000 10999 10996 ] final   -7.91 input  -57.11 | X-H torsion

> <Gold.Protein.ActiveResidues>
 VAL166  LYS551  ARG553  GLY616  TRP617  ASP618  TYR619  PRO620  LYS621  CYS622 
 ASP623  PHE694  ASN695  SER759  ASP760  ASP761  ALA762  ILE779  LEU786  VAL792 
 PHE793  MET794  SER795  GLU796  ALA797  LYS798  CYS799  TRP800  GLU811  SER814 

> <Gold.Protein.RotatedAtoms>
  152.2394  134.8243  160.0462 H   0  0  0  0  0  0  0  0  0  0  0  0  # atno 6907 bound_to 6896
  151.8963  133.3522  159.3823 H   0  0  0  0  0  0  0  0  0  0  0  0  # atno 6908 bound_to 6896
  150.7049  134.4799  159.5509 H   0  0  0  0  0  0  0  0  0  0  0  0  # atno 6909 bound_to 6896
  146.2416  139.9937  142.8423 H   0  0  0  0  0  0  0  0  0  0  0  0  # atno 7974 bound_to 7965
  155.0687  140.0393  157.2601 H   0  0  0  0  0  0  0  0  0  0  0  0  # atno 8008 bound_to 7997
  154.7000  140.2671  155.6704 H   0  0  0  0  0  0  0  0  0  0  0  0  # atno 8009 bound_to 7997
  156.2757  140.2742  156.1607 H   0  0  0  0  0  0  0  0  0  0  0  0  # atno 8010 bound_to 7997
  139.6633  143.9875  152.2239 H   0  0  0  0  0  0  0  0  0  0  0  0  # atno 10167 bound_to 10162
  156.7651  130.5282  149.5778 H   0  0  0  0  0  0  0  0  0  0  0  0  # atno 10718 bound_to 10713
  153.2673  135.6929  153.7517 H   0  0  0  0  0  0  0  0  0  0  0  0  # atno 10763 bound_to 10752
  153.6554  135.3369  155.3112 H   0  0  0  0  0  0  0  0  0  0  0  0  # atno 10764 bound_to 10752
  154.8451  135.4464  154.1683 H   0  0  0  0  0  0  0  0  0  0  0  0  # atno 10765 bound_to 10752
  140.7178  133.8854  155.8798 H   0  0  0  0  0  0  0  0  0  0  0  0  # atno 11005 bound_to 11000
  145.1480  140.9607  143.4450 LP  0  0  0  0  0  0  0  0  0  0  0  0  # atno 17320 bound_to 7965
  145.0232  139.3405  143.6061 LP  0  0  0  0  0  0  0  0  0  0  0  0  # atno 17321 bound_to 7965
  139.9619  144.6552  150.8071 LP  0  0  0  0  0  0  0  0  0  0  0  0  # atno 17342 bound_to 10162
  140.7589  143.3117  151.2830 LP  0  0  0  0  0  0  0  0  0  0  0  0  # atno 17343 bound_to 10162
  156.1314  130.6181  151.0339 LP  0  0  0  0  0  0  0  0  0  0  0  0  # atno 17370 bound_to 10713
  157.6717  131.0860  150.7596 LP  0  0  0  0  0  0  0  0  0  0  0  0  # atno 17371 bound_to 10713
  141.0029  134.1125  157.4299 LP  0  0  0  0  0  0  0  0  0  0  0  0  # atno 17394 bound_to 11000
  139.8855  135.0073  156.6442 LP  0  0  0  0  0  0  0  0  0  0  0  0  # atno 17395 bound_to 11000

$$$$
