#       Name:                AV-unprocessed.smi:2883
#       Creating user name   scv26
#       Creation time:       Fri Mar 27 15:55:08 2020


#       File generated by GOLD software.
#

@<TRIPOS>MOLECULE
AV-unprocessed.smi:2883
    43    45     1
SMALL
NO_CHARGES


@<TRIPOS>ATOM
      1 ****        -1.9966   2.0091   0.5451 C.3            1 S1                 0.0000
      2 ****        -2.8782   0.8611   0.0001 C.3            1 S1                 0.0000
      3 ****        -4.1569   0.8458   0.8683 C.3            1 S1                 0.0000
      4 ****        -3.2535   1.1442  -1.4659 C.3            1 S1                 0.0000
      5 ****        -2.1414  -0.4831   0.0875 C.ar           1 S1                 0.0000
      6 ****        -2.8544  -1.6180   0.2044 N.pl3          1 S1                 1.0000
      7 ****        -2.2312  -2.8209   0.1671 C.ar           1 S1                 0.0000
      8 ****        -0.8405  -2.8965  -0.0285 C.ar           1 S1                 0.0000
      9 ****        -0.1561  -1.6808  -0.1888 C.ar           1 S1                 0.0000
     10 ****         1.2291  -1.6872  -0.4029 N.pl3          1 S1                 0.0000
     11 ****         2.0002  -0.4484  -0.3812 C.3            1 S1                 0.0000
     12 ****         2.1691   0.1314   1.0297 C.3            1 S1                 0.0000
     13 ****         3.6947   0.2313   1.1505 C.3            1 S1                 0.0000
     14 ****         4.2827   1.3088   0.2292 C.3            1 S1                 0.0000
     15 ****         4.1488   0.6525  -1.1445 C.3            1 S1                 0.0000
     16 ****         3.4639  -0.6757  -0.7948 C.3            1 S1                 0.0000
     17 ****         4.0738  -0.9441   0.4573 O.3            1 S1                 0.0000
     18 ****        -0.8204  -0.5055  -0.1480 N.ar           1 S1                 0.0000
     19 ****        -2.5272   2.9615   0.5233 H              1 S1                 0.0000
     20 ****        -1.0876   2.1420  -0.0430 H              1 S1                 0.0000
     21 ****        -1.6973   1.8253   1.5778 H              1 S1                 0.0000
     22 ****        -3.9270   0.6262   1.9118 H              1 S1                 0.0000
     23 ****        -4.8772   0.1031   0.5234 H              1 S1                 0.0000
     24 ****        -4.6642   1.8111   0.8423 H              1 S1                 0.0000
     25 ****        -3.7775   2.0954  -1.5662 H              1 S1                 0.0000
     26 ****        -3.9046   0.3662  -1.8662 H              1 S1                 0.0000
     27 ****        -2.3678   1.1891  -2.1007 H              1 S1                 0.0000
     28 ****        -2.8688  -3.6849   0.2852 H              1 S1                 0.0000
     29 ****        -0.3290  -3.8476  -0.0635 H              1 S1                 0.0000
     30 ****         1.7317  -2.5631  -0.3932 H              1 S1                 0.0000
     31 ****         1.5365   0.2729  -1.0556 H              1 S1                 0.0000
     32 ****         1.6767   1.0972   1.1483 H              1 S1                 0.0000
     33 ****         1.7771  -0.5428   1.7929 H              1 S1                 0.0000
     34 ****         4.0542   0.2820   2.1786 H              1 S1                 0.0000
     35 ****         3.7439   2.2540   0.3029 H              1 S1                 0.0000
     36 ****         5.3317   1.4929   0.4639 H              1 S1                 0.0000
     37 ****         3.5675   1.2513  -1.8465 H              1 S1                 0.0000
     38 ****         5.1326   0.4759  -1.5807 H              1 S1                 0.0000
     39 ****         3.6083  -1.4515  -1.5479 H              1 S1                 0.0000
     40 ****        -3.8666  -1.5810   0.3267 H              1 S1                 0.0000
     41 ****         3.7020  -1.7676   0.8858 LP             1 S1                 0.0000
     42 ****         5.0672  -1.0285   0.3793 LP             1 S1                 0.0000
     43 ****        -0.3259   0.3514  -0.2938 LP             1 S1                 0.0000
@<TRIPOS>BOND
    1    1    2 1     
    2    1   19 1     
    3    1   20 1     
    4    1   21 1     
    5    2    3 1     
    6    2    4 1     
    7    2    5 1     
    8    3   22 1     
    9    3   23 1     
   10    3   24 1     
   11    4   25 1     
   12    4   26 1     
   13    4   27 1     
   14    5   18 ar    
   15    5    6 ar    
   16    6    7 ar    
   17    6   40 1     
   18    7    8 ar    
   19    7   28 1     
   20    8    9 ar    
   21    8   29 1     
   22    9   10 1     
   23    9   18 ar    
   24   10   11 1     
   25   10   30 1     
   26   11   16 1     
   27   11   12 1     
   28   11   31 1     
   29   12   13 1     
   30   12   32 1     
   31   12   33 1     
   32   13   17 1     
   33   13   14 1     
   34   13   34 1     
   35   14   15 1     
   36   14   35 1     
   37   14   36 1     
   38   15   16 1     
   39   15   37 1     
   40   15   38 1     
   41   16   17 1     
   42   16   39 1     
   43   17   41 1     
   44   17   42 1     
   45   18   43 1     
@<TRIPOS>SUBSTRUCTURE
      1 S1             1
@<TRIPOS>SET
LONE_PAIRS      STATIC     ATOMS    <user>   **** ""
3 41 42 43
DONOR_HYDROGENS      STATIC     ATOMS    <user>   **** ""
2 40 30
ATOM$BLUE        STATIC     ATOMS    COLORGROUP SYSTEM
3 41 42 43
ATOM$RED        STATIC     ATOMS    COLORGROUP SYSTEM
2 40 30
