AV-unprocessed.smi:3056|AV-procd|sdf|11658|dock5
  -GOLD-   2272017 63D 1   1.00000     0.00000
 Structure written by MMmdl.
 47 48  0  0  0  0  0  0  0  0  1 V2000
  145.1598  143.7953  154.5555 C   0  0  0  0  0  0  0  0  0  0  0  0
  145.8039  142.5080  154.9823 C   0  0  0  0  0  0  0  0  0  0  0  0
  145.5172  141.7269  156.1370 C   0  0  0  0  0  0  0  0  0  0  0  0
  146.2649  140.6391  156.2194 N   0  0  0  0  0  0  0  0  0  0  0  0
  147.0626  140.6868  155.1281 N   0  0  0  0  0  0  0  0  0  0  0  0
  148.0246  139.6206  154.8562 C   0  0  1  0  0  0  0  0  0  0  0  0
  147.6689  138.8246  153.5848 C   0  0  0  0  0  0  0  0  0  0  0  0
  149.5020  140.0994  154.8847 C   0  0  2  0  0  0  0  0  0  0  0  0
  150.4704  139.0508  154.2997 C   0  0  0  0  0  0  0  0  0  0  0  0
  149.8930  140.4300  156.2531 N   0  0  0  0  0  0  0  0  0  0  0  0
  151.2020  141.0903  156.3361 C   0  0  0  0  0  0  0  0  0  0  0  0
  152.0631  140.4907  157.4535 C   0  0  0  0  0  0  0  0  0  0  0  0
  152.7146  139.4787  157.1934 O   0  0  0  0  0  0  0  0  0  0  0  0
  152.0838  141.0742  158.6770 N   0  0  0  0  0  0  0  0  0  0  0  0
  152.8800  140.6467  159.8318 C   0  0  0  0  0  0  0  0  0  0  0  0
  153.8831  141.7634  160.1680 C   0  0  0  0  0  0  0  0  0  0  0  0
  153.1820  142.9784  160.4229 O   0  0  0  0  0  0  0  0  0  0  0  0
  152.3767  143.4086  159.3265 C   0  0  2  0  0  0  0  0  0  0  0  0
  151.7012  144.7276  159.7165 C   0  0  0  0  0  0  0  0  0  0  0  0
  151.3533  142.3061  158.9880 C   0  0  0  0  0  0  0  0  0  0  0  0
  146.7974  141.8043  154.3630 C   0  0  0  0  0  0  0  0  0  0  0  0
  144.1537  143.8984  154.9628 H   0  0  0  0  0  0  0  0  0  0  0  0
  145.0747  143.8642  153.4709 H   0  0  0  0  0  0  0  0  0  0  0  0
  145.7329  144.6602  154.8894 H   0  0  0  0  0  0  0  0  0  0  0  0
  144.7891  141.9158  156.9119 H   0  0  0  0  0  0  0  0  0  0  0  0
  147.9190  138.9132  155.6802 H   0  0  0  0  0  0  0  0  0  0  0  0
  148.3388  137.9740  153.4577 H   0  0  0  0  0  0  0  0  0  0  0  0
  147.7387  139.4356  152.6844 H   0  0  0  0  0  0  0  0  0  0  0  0
  146.6521  138.4353  153.6409 H   0  0  0  0  0  0  0  0  0  0  0  0
  149.5572  141.0030  154.2752 H   0  0  0  0  0  0  0  0  0  0  0  0
  150.1311  138.7157  153.3192 H   0  0  0  0  0  0  0  0  0  0  0  0
  150.5486  138.1714  154.9401 H   0  0  0  0  0  0  0  0  0  0  0  0
  151.4749  139.4507  154.1659 H   0  0  0  0  0  0  0  0  0  0  0  0
  149.1733  141.0090  156.6623 H   0  0  0  0  0  0  0  0  0  0  0  0
  151.7417  141.0284  155.3920 H   0  0  0  0  0  0  0  0  0  0  0  0
  151.0551  142.1527  156.5369 H   0  0  0  0  0  0  0  0  0  0  0  0
  152.2160  140.4723  160.6793 H   0  0  0  0  0  0  0  0  0  0  0  0
  153.4152  139.7116  159.6801 H   0  0  0  0  0  0  0  0  0  0  0  0
  154.4607  141.4974  161.0533 H   0  0  0  0  0  0  0  0  0  0  0  0
  154.5941  141.9056  159.3525 H   0  0  0  0  0  0  0  0  0  0  0  0
  153.0201  143.5886  158.4632 H   0  0  0  0  0  0  0  0  0  0  0  0
  151.0833  145.1075  158.9026 H   0  0  0  0  0  0  0  0  0  0  0  0
  152.4434  145.4902  159.9533 H   0  0  0  0  0  0  0  0  0  0  0  0
  151.0626  144.6008  160.5911 H   0  0  0  0  0  0  0  0  0  0  0  0
  150.7127  142.6356  158.1689 H   0  0  0  0  0  0  0  0  0  0  0  0
  150.6902  142.1276  159.8360 H   0  0  0  0  0  0  0  0  0  0  0  0
  147.3318  142.0033  153.4457 H   0  0  0  0  0  0  0  0  0  0  0  0
  1  2  1  0  0  0  0
  1 22  1  0  0  0  0
  1 23  1  0  0  0  0
  1 24  1  0  0  0  0
  2 21  2  0  0  0  0
  2  3  1  0  0  0  0
  3  4  2  0  0  0  0
  3 25  1  0  0  0  0
  4  5  1  0  0  0  0
  5  6  1  0  0  0  0
  5 21  1  0  0  0  0
  6  7  1  0  0  0  0
  6  8  1  0  0  0  0
  6 26  1  0  0  0  0
  7 27  1  0  0  0  0
  7 28  1  0  0  0  0
  7 29  1  0  0  0  0
  8  9  1  0  0  0  0
  8 10  1  0  0  0  0
  8 30  1  0  0  0  0
  9 31  1  0  0  0  0
  9 32  1  0  0  0  0
  9 33  1  0  0  0  0
 10 11  1  0  0  0  0
 10 34  1  0  0  0  0
 11 12  1  0  0  0  0
 11 35  1  0  0  0  0
 11 36  1  0  0  0  0
 12 13  2  0  0  0  0
 12 14  1  0  0  0  0
 14 20  1  0  0  0  0
 14 15  1  0  0  0  0
 15 16  1  0  0  0  0
 15 37  1  0  0  0  0
 15 38  1  0  0  0  0
 16 17  1  0  0  0  0
 16 39  1  0  0  0  0
 16 40  1  0  0  0  0
 17 18  1  0  0  0  0
 18 19  1  0  0  0  0
 18 20  1  0  0  0  0
 18 41  1  0  0  0  0
 19 42  1  0  0  0  0
 19 43  1  0  0  0  0
 19 44  1  0  0  0  0
 20 45  1  0  0  0  0
 20 46  1  0  0  0  0
 21 47  1  0  0  0  0
M  END
> <s_m_source_file>
AV-unprocessed.smi

> <i_m_source_file_index>
3056

> <i_lp_mmshare_version>
43012

> <i_f3d_flags>
0

> <s_epik_input>
W0NIM11jMVtjSF1ubihbY0hdMSlbQ0BIXShbQ0gzXSlbQ0BIXShbQ0gzXSlbTkhdW0NIMl1DKD1PKU4yW0NIMl1bQ0gyXU9bQ0BASF0oW0NIM10pW0NIMl0y

> <s_epik_cmdline>
J2VwaWtfcHl0aG9uJywgJy1waCcsICc3LjAnLCAnLXRuJywgJzgnLCAnLW1hJywgJzIwMCcsICctbWV0YWxfYmluZGluZycsICctaW1hZScsICc8aW5maWxlLm1hZT4nLCAnLW9tYWUnLCAnPG91dGZpbGUubWFlPic=

> <r_lp_tautomer_probability>
1

> <r_epik_Ionization_Penalty>
0.667689

> <r_epik_Ionization_Penalty_Charging>
0

> <r_epik_Ionization_Penalty_Neutral>
0.667689

> <r_epik_State_Penalty>
0.684601

> <r_epik_Charging_Adjusted_Penalty>
0.684601

> <i_epik_Tot_Q>
0

> <i_epik_Tot_abs_Q>
0

> <r_epik_Metal_State_Penalty>
0.681448

> <b_epik_Metal_Only>
0

> <s_lp_Force_Field>
OPLS_2005

> <r_lp_Energy>
30.4655

> <b_lp_Chiralities_Consistent>
1

> <s_lp_Variant>
AV-unprocessed.smi:3056-14

> <Gold.Version>
5.8.1

> <Gold.Id.Protein>
6NUR|6NUR_protein|mol2

> <Gold.PLP.Fitness>
46.1117

> <Gold.PLP.PLP>
-44.9495

> <Gold.PLP.part.hbond>
-1.0000

> <Gold.PLP.part.metal>
0.0000

> <Gold.PLP.part.buried>
-5.9641

> <Gold.PLP.part.nonpolar>
-37.4081

> <Gold.PLP.part.repulsive>
0.0671

> <Gold.PLP.ligand.clash>
0.0000

> <Gold.PLP.ligand.torsion>
1.0082

> <Gold.PLP.Chemscore.Hbond>
1.0000

> <Gold.PLP.Chemscore.CHOScore>
0.0000

> <Gold.PLP.Chemscore.Metal>
0.0000

> <Gold.Chemscore.Hbonds>
donor molecule, donor type, donor heavy atom, donor atom, acceptor molecule, acceptor atom, score
      P1  H  7997  8009       L1    13  1.00

> <Gold.PLP.Chemscore.Internal.Correction>
0.1787

> <Gold.Rescore>
     Score         DG    S(hbond)    S(metal)    S(lipo)     H(rot)  DE(clash)    DE(int)     intcor
     15.24     -16.21       0.94        0.00     101.57       1.68       0.02       0.94       ----

> <Gold.Chemscore.Fitness>
15.2446

> <Gold.Chemscore.DG>
-16.2053

> <Gold.Chemscore.ZeroCoef>
-5.4800

> <Gold.Chemscore.Hbond>
0.9403

> <Gold.Chemscore.Metal>
0.0000

> <Gold.Chemscore.Lipo>
101.5689

> <Gold.Chemscore.Internal_Hbond>
0.0000

> <Gold.Chemscore.DEClash>
0.0178

> <Gold.Chemscore.DEInternal>
0.9429

> <Gold.Chemscore.Rot>
1.6793

> <Gold.Chemscore.Internal.Correction>
   9.000000E+99

> <Gold.Chemscore.Hbonds>
donor molecule, donor type, donor heavy atom, donor atom, acceptor molecule, acceptor atom, score
      P1  H  7997  8009       L1    13  0.58

> <Gold.Chemscore.Hbond.Weighted>
-3.1407

> <Gold.Chemscore.Metal.Weighted>
-0.0000

> <Gold.Chemscore.Lipo.Weighted>
-11.8836

> <Gold.Chemscore.Internal_Hbond.Weighted>
0.0000

> <Gold.Chemscore.DEClash.Weighted>
0.0178

> <Gold.Chemscore.DEInternal.Weighted>
0.9429

> <Gold.Chemscore.Rot.Weighted>
4.2990

> <Gold.Chemscore.Internal.Correction.Weighted>
   9.000000E+99

> <Gold.Protein.RotatedTorsions>
[ 6907 6896 6895 6894 ] final   19.96 input  -60.11 | X-H torsion
[ 7974 7965 7964 7962 ] final    1.67 input  175.53 | X-H torsion
[ 8008 7997 7996 7995 ] final  159.30 input   59.86 | X-H torsion
[ 10167 10162 10161 10158 ] final -163.80 input  -65.29 | X-H torsion
[ 10718 10713 10712 10709 ] final -106.54 input   66.30 | X-H torsion
[ 10763 10752 10751 10750 ] final -100.22 input  -60.55 | X-H torsion
[ 11005 11000 10999 10996 ] final  -26.11 input  -57.11 | X-H torsion

> <Gold.Protein.ActiveResidues>
 VAL166  LYS551  ARG553  GLY616  TRP617  ASP618  TYR619  PRO620  LYS621  CYS622 
 ASP623  PHE694  ASN695  SER759  ASP760  ASP761  ALA762  ILE779  LEU786  VAL792 
 PHE793  MET794  SER795  GLU796  ALA797  LYS798  CYS799  TRP800  GLU811  SER814 

> <Gold.Protein.RotatedAtoms>
  151.8890  135.0424  160.0495 H   0  0  0  0  0  0  0  0  0  0  0  0  # atno 6907 bound_to 6896
  152.2452  133.5164  159.5301 H   0  0  0  0  0  0  0  0  0  0  0  0  # atno 6908 bound_to 6896
  150.7066  134.0952  159.3988 H   0  0  0  0  0  0  0  0  0  0  0  0  # atno 6909 bound_to 6896
  146.2441  140.0952  142.8350 H   0  0  0  0  0  0  0  0  0  0  0  0  # atno 7974 bound_to 7965
  156.2248  140.1835  156.7391 H   0  0  0  0  0  0  0  0  0  0  0  0  # atno 8008 bound_to 7997
  154.5922  140.0649  156.9283 H   0  0  0  0  0  0  0  0  0  0  0  0  # atno 8009 bound_to 7997
  155.2316  140.3315  155.4305 H   0  0  0  0  0  0  0  0  0  0  0  0  # atno 8010 bound_to 7997
  139.6295  144.0467  152.2004 H   0  0  0  0  0  0  0  0  0  0  0  0  # atno 10167 bound_to 10162
  156.0395  130.5618  150.7695 H   0  0  0  0  0  0  0  0  0  0  0  0  # atno 10718 bound_to 10713
  154.7561  135.4943  153.9378 H   0  0  0  0  0  0  0  0  0  0  0  0  # atno 10763 bound_to 10752
  153.1198  135.6729  153.9363 H   0  0  0  0  0  0  0  0  0  0  0  0  # atno 10764 bound_to 10752
  153.9099  135.3100  155.3427 H   0  0  0  0  0  0  0  0  0  0  0  0  # atno 10765 bound_to 10752
  140.9000  133.7531  156.0531 H   0  0  0  0  0  0  0  0  0  0  0  0  # atno 11005 bound_to 11000
  145.0616  140.9091  143.4935 LP  0  0  0  0  0  0  0  0  0  0  0  0  # atno 17320 bound_to 7965
  145.1069  139.2784  143.5657 LP  0  0  0  0  0  0  0  0  0  0  0  0  # atno 17321 bound_to 7965
  140.0129  144.6211  150.7632 LP  0  0  0  0  0  0  0  0  0  0  0  0  # atno 17342 bound_to 10162
  140.7431  143.2841  151.3514 LP  0  0  0  0  0  0  0  0  0  0  0  0  # atno 17343 bound_to 10162
  157.5193  131.0930  151.0099 LP  0  0  0  0  0  0  0  0  0  0  0  0  # atno 17370 bound_to 10713
  157.0434  130.5758  149.5359 LP  0  0  0  0  0  0  0  0  0  0  0  0  # atno 17371 bound_to 10713
  140.8242  134.3254  157.5371 LP  0  0  0  0  0  0  0  0  0  0  0  0  # atno 17394 bound_to 11000
  139.8741  134.9326  156.3560 LP  0  0  0  0  0  0  0  0  0  0  0  0  # atno 17395 bound_to 11000

$$$$
