#       Name:                AV-unprocessed.smi:153
#       Creating user name   scv26
#       Creation time:       Thu Mar 26 18:49:50 2020


#       File generated by GOLD software.
#

@<TRIPOS>MOLECULE
AV-unprocessed.smi:153
    71    74     1
SMALL
NO_CHARGES


@<TRIPOS>ATOM
      1 ****        -3.4471   0.6237   3.7502 C.3            1 S1                 0.0000
      2 ****        -3.5685  -0.8982   3.9296 C.3            1 S1                 0.0000
      3 ****        -4.7913  -1.0858   4.6457 O.3            1 S1                 0.0000
      4 ****        -5.5867  -2.0865   4.0301 C.3            1 S1                 0.0000
      5 ****        -5.1962  -2.0065   2.5617 C.3            1 S1                 0.0000
      6 ****        -3.6992  -1.7435   2.6317 C.3            1 S1                 0.0000
      7 ****        -3.0643  -2.9911   2.8576 O.3            1 S1                 0.0000
      8 ****        -3.1384  -1.1557   1.3068 C.3            1 S1                 0.0000
      9 ****        -1.7382  -0.7421   1.3361 N.pl3          1 S1                 0.0000
     10 ****        -0.6332  -1.5106   1.6314 C.2            1 S1                 0.0000
     11 ****         0.5125  -0.8923   1.5549 N.2            1 S1                 0.0000
     12 ****         0.1865   0.3984   1.1557 C.ar           1 S1                 0.0000
     13 ****         0.9375   1.5777   0.8636 C.ar           1 S1                 0.0000
     14 ****         2.2927   1.6780   0.9534 N.pl3          1 S1                 0.0000
     15 ****         3.0246   0.7675   1.8247 C.3            1 S1                 0.0000
     16 ****         3.0393   2.4648  -0.0343 C.3            1 S1                 0.0000
     17 ****         3.4622   1.6657  -1.2889 C.3            1 S1                 0.0000
     18 ****         4.5765   0.8553  -0.9728 O.3            1 S1                 0.0000
     19 ****         2.3423   0.8111  -1.9215 C.3            1 S1                 0.0000
     20 ****         2.7334   0.2362  -3.2328 N.4            1 S1                 1.0000
     21 ****         1.9824  -1.0006  -3.5557 C.3            1 S1                 0.0000
     22 ****         2.4622  -1.5881  -4.8935 C.3            1 S1                 0.0000
     23 ****         2.3202  -0.6148  -5.9205 O.3            1 S1                 0.0000
     24 ****         3.1054   0.5436  -5.6673 C.3            1 S1                 0.0000
     25 ****         2.6461   1.2026  -4.3558 C.3            1 S1                 0.0000
     26 ****         0.2385   2.6657   0.4457 N.ar           1 S1                 0.0000
     27 ****        -1.0910   2.6207   0.3314 C.ar           1 S1                 0.0000
     28 ****        -1.9126   1.6002   0.5750 N.ar           1 S1                 0.0000
     29 ****        -1.2253   0.4980   0.9895 C.ar           1 S1                 0.0000
     30 ****        -2.4745   0.9089   3.3561 H              1 S1                 0.0000
     31 ****        -3.5542   1.1317   4.7089 H              1 S1                 0.0000
     32 ****        -4.2176   1.0128   3.0843 H              1 S1                 0.0000
     33 ****        -2.7363  -1.2474   4.5432 H              1 S1                 0.0000
     34 ****        -5.3312  -3.0605   4.4495 H              1 S1                 0.0000
     35 ****        -6.6498  -1.9106   4.1947 H              1 S1                 0.0000
     36 ****        -5.4603  -2.9030   1.9992 H              1 S1                 0.0000
     37 ****        -5.7079  -1.1605   2.1003 H              1 S1                 0.0000
     38 ****        -3.2698  -3.5669   2.1371 H              1 S1                 0.0000
     39 ****        -3.2518  -1.8819   0.5011 H              1 S1                 0.0000
     40 ****        -3.7407  -0.2962   1.0114 H              1 S1                 0.0000
     41 ****        -0.6892  -2.5536   1.9034 H              1 S1                 0.0000
     42 ****         2.5127   0.6442   2.7799 H              1 S1                 0.0000
     43 ****         4.0217   1.1560   2.0330 H              1 S1                 0.0000
     44 ****         3.1359  -0.2105   1.3559 H              1 S1                 0.0000
     45 ****         2.4593   3.3316  -0.3499 H              1 S1                 0.0000
     46 ****         3.9227   2.8852   0.4479 H              1 S1                 0.0000
     47 ****         3.8170   2.3951  -2.0161 H              1 S1                 0.0000
     48 ****         4.3383   0.2809  -0.2606 H              1 S1                 0.0000
     49 ****         2.0934  -0.0002  -1.2358 H              1 S1                 0.0000
     50 ****         1.4315   1.3995  -2.0438 H              1 S1                 0.0000
     51 ****         2.1220  -1.7375  -2.7638 H              1 S1                 0.0000
     52 ****         0.9150  -0.7793  -3.6038 H              1 S1                 0.0000
     53 ****         3.5011  -1.9149  -4.8259 H              1 S1                 0.0000
     54 ****         1.8689  -2.4651  -5.1528 H              1 S1                 0.0000
     55 ****         4.1632   0.2793  -5.6215 H              1 S1                 0.0000
     56 ****         2.9868   1.2388  -6.4986 H              1 S1                 0.0000
     57 ****         1.6182   1.5541  -4.4586 H              1 S1                 0.0000
     58 ****         3.2636   2.0779  -4.1572 H              1 S1                 0.0000
     59 ****        -1.5640   3.5329  -0.0011 H              1 S1                 0.0000
     60 ****         3.7029  -0.0355  -3.1470 H              1 S1                 0.0000
     61 ****        -5.2994  -0.2246   4.6582 LP             1 S1                 0.0000
     62 ****        -4.5828  -1.3634   5.5835 LP             1 S1                 0.0000
     63 ****        -3.3968  -3.3888   3.7127 LP             1 S1                 0.0000
     64 ****        -2.0744  -2.8606   2.9134 LP             1 S1                 0.0000
     65 ****         1.4220  -1.2637   1.7416 LP             1 S1                 0.0000
     66 ****         5.3457   1.4322  -0.6979 LP             1 S1                 0.0000
     67 ****         4.8359   0.3124  -1.7715 LP             1 S1                 0.0000
     68 ****         1.3588  -0.3465  -5.9807 LP             1 S1                 0.0000
     69 ****         2.6090  -1.0173  -6.7892 LP             1 S1                 0.0000
     70 ****         0.7256   3.5097   0.2212 LP             1 S1                 0.0000
     71 ****        -2.9060   1.6380   0.4675 LP             1 S1                 0.0000
@<TRIPOS>BOND
    1    1    2 1     
    2    1   30 1     
    3    1   31 1     
    4    1   32 1     
    5    2    6 1     
    6    2    3 1     
    7    2   33 1     
    8    3    4 1     
    9    4    5 1     
   10    4   34 1     
   11    4   35 1     
   12    5    6 1     
   13    5   36 1     
   14    5   37 1     
   15    6    7 1     
   16    6    8 1     
   17    7   38 1     
   18    8    9 1     
   19    8   39 1     
   20    8   40 1     
   21    9   29 1     
   22    9   10 1     
   23   10   11 2     
   24   10   41 1     
   25   11   12 1     
   26   12   29 ar    
   27   12   13 ar    
   28   13   14 1     
   29   13   26 ar    
   30   14   15 1     
   31   14   16 1     
   32   15   42 1     
   33   15   43 1     
   34   15   44 1     
   35   16   17 1     
   36   16   45 1     
   37   16   46 1     
   38   17   18 1     
   39   17   19 1     
   40   17   47 1     
   41   18   48 1     
   42   19   20 1     
   43   19   49 1     
   44   19   50 1     
   45   20   25 1     
   46   20   21 1     
   47   20   60 1     
   48   21   22 1     
   49   21   51 1     
   50   21   52 1     
   51   22   23 1     
   52   22   53 1     
   53   22   54 1     
   54   23   24 1     
   55   24   25 1     
   56   24   55 1     
   57   24   56 1     
   58   25   57 1     
   59   25   58 1     
   60   26   27 ar    
   61   27   28 ar    
   62   27   59 1     
   63   28   29 ar    
   64    3   61 1     
   65    3   62 1     
   66    7   63 1     
   67    7   64 1     
   68   11   65 1     
   69   18   66 1     
   70   18   67 1     
   71   23   68 1     
   72   23   69 1     
   73   26   70 1     
   74   28   71 1     
@<TRIPOS>SUBSTRUCTURE
      1 S1             1
@<TRIPOS>SET
LONE_PAIRS      STATIC     ATOMS    <user>   **** ""
11 61 62 63 64 65 66 67 68 69 70 71
DONOR_HYDROGENS      STATIC     ATOMS    <user>   **** ""
3 38 48 60
ATOM$BLUE        STATIC     ATOMS    COLORGROUP SYSTEM
11 61 62 63 64 65 66 67 68 69 70 71
ATOM$RED        STATIC     ATOMS    COLORGROUP SYSTEM
3 38 48 60
