AV-unprocessed.smi:1921|AV-procd|sdf|7785|dock3
  -GOLD-   22720 9533D 1   1.00000     0.00000
 Structure written by MMmdl.
 27 28  0  0  0  0  0  0  0  0  1 V2000
  151.0266  145.3145  158.9983 C   0  0  0  0  0  0  0  0  0  0  0  0
  151.7075  144.0290  158.5092 C   0  0  2  0  0  0  0  0  0  0  0  0
  150.9359  143.4868  157.3953 N   0  0  0  0  0  0  0  0  0  0  0  0
  150.9908  142.2211  156.9550 C   0  0  0  0  0  0  0  0  0  0  0  0
  151.7183  141.3592  157.4492 O   0  0  0  0  0  0  0  0  0  0  0  0
  150.1560  142.0313  155.9181 N   0  0  0  0  0  0  0  0  0  0  0  0
  149.9250  140.8385  155.1837 C   0  0  0  0  0  0  0  0  0  0  0  0
  150.8793  139.9640  154.8441 N   0  0  0  0  0  0  0  0  0  0  0  0
  150.3669  138.8819  154.1239 C   0  0  0  0  0  0  0  0  0  0  0  0
  149.0106  138.9488  153.9235 C   0  0  0  0  0  0  0  0  0  0  0  0
  148.3185  140.3815  154.6363 S   0  0  0  0  0  0  0  0  0  0  0  0
  151.8915  143.0451  159.6528 C   0  0  0  0  0  0  0  0  0  0  0  0
  152.4041  143.5047  160.9974 C   0  0  0  0  0  0  0  0  0  0  0  0
  153.2661  142.6270  160.1196 C   0  0  0  0  0  0  0  0  0  0  0  0
  151.6020  145.7841  159.7966 H   0  0  0  0  0  0  0  0  0  0  0  0
  150.0269  145.1127  159.3848 H   0  0  0  0  0  0  0  0  0  0  0  0
  150.9325  146.0424  158.1917 H   0  0  0  0  0  0  0  0  0  0  0  0
  152.6971  144.3081  158.1414 H   0  0  0  0  0  0  0  0  0  0  0  0
  150.3094  144.1247  156.9268 H   0  0  0  0  0  0  0  0  0  0  0  0
  149.6232  142.8343  155.6183 H   0  0  0  0  0  0  0  0  0  0  0  0
  151.0408  138.1064  153.7913 H   0  0  0  0  0  0  0  0  0  0  0  0
  148.3794  138.2447  153.4022 H   0  0  0  0  0  0  0  0  0  0  0  0
  151.1248  142.2730  159.6868 H   0  0  0  0  0  0  0  0  0  0  0  0
  152.6952  144.5482  161.1011 H   0  0  0  0  0  0  0  0  0  0  0  0
  151.9633  143.0529  161.8837 H   0  0  0  0  0  0  0  0  0  0  0  0
  153.3995  141.5895  160.4182 H   0  0  0  0  0  0  0  0  0  0  0  0
  154.1286  143.0892  159.6435 H   0  0  0  0  0  0  0  0  0  0  0  0
  1  2  1  0  0  0  0
  1 15  1  0  0  0  0
  1 16  1  0  0  0  0
  1 17  1  0  0  0  0
  2  3  1  0  0  0  0
  2 12  1  0  0  0  0
  2 18  1  0  0  0  0
  3  4  1  0  0  0  0
  3 19  1  0  0  0  0
  4  5  2  0  0  0  0
  4  6  1  0  0  0  0
  6  7  1  0  0  0  0
  6 20  1  0  0  0  0
  7 11  1  0  0  0  0
  7  8  2  0  0  0  0
  8  9  1  0  0  0  0
  9 10  2  0  0  0  0
  9 21  1  0  0  0  0
 10 11  1  0  0  0  0
 10 22  1  0  0  0  0
 12 14  1  0  0  0  0
 12 13  1  0  0  0  0
 12 23  1  0  0  0  0
 13 14  1  0  0  0  0
 13 24  1  0  0  0  0
 13 25  1  0  0  0  0
 14 26  1  0  0  0  0
 14 27  1  0  0  0  0
M  END
> <s_m_source_file>
AV-unprocessed.smi

> <i_m_source_file_index>
1921

> <i_lp_mmshare_version>
43012

> <i_f3d_flags>
0

> <s_epik_input>
W0NIMl0xW0NIMl1bQ0hdMVtDQEhdKFtDSDNdKVtOSF1DKD1PKVtOSF1jMm5bY0hdW2NIXXMy

> <s_epik_cmdline>
J2VwaWtfcHl0aG9uJywgJy1waCcsICc3LjAnLCAnLXRuJywgJzgnLCAnLW1hJywgJzIwMCcsICctbWV0YWxfYmluZGluZycsICctaW1hZScsICc8aW5maWxlLm1hZT4nLCAnLW9tYWUnLCAnPG91dGZpbGUubWFlPic=

> <r_lp_tautomer_probability>
0.999

> <r_epik_Ionization_Penalty>
0.000426276

> <r_epik_Ionization_Penalty_Charging>
0

> <r_epik_Ionization_Penalty_Neutral>
0.000426276

> <r_epik_State_Penalty>
0.000177984

> <r_epik_Charging_Adjusted_Penalty>
0.000177984

> <i_epik_Tot_Q>
0

> <i_epik_Tot_abs_Q>
0

> <r_epik_Metal_State_Penalty>
-0

> <b_epik_Metal_Only>
0

> <s_lp_Force_Field>
OPLS_2005

> <r_lp_Energy>
11.4039

> <b_lp_Chiralities_Consistent>
1

> <s_lp_Variant>
AV-unprocessed.smi:1921-1

> <Gold.Version>
5.8.1

> <Gold.Id.Protein>
6NUR|6NUR_protein|mol2

> <Gold.PLP.Fitness>
43.9155

> <Gold.PLP.PLP>
-34.1104

> <Gold.PLP.part.hbond>
-3.0000

> <Gold.PLP.part.metal>
0.0000

> <Gold.PLP.part.buried>
-1.9618

> <Gold.PLP.part.nonpolar>
-28.5114

> <Gold.PLP.part.repulsive>
0.1988

> <Gold.PLP.ligand.clash>
0.0000

> <Gold.PLP.ligand.torsion>
1.4439

> <Gold.PLP.Chemscore.Hbond>
3.0000

> <Gold.PLP.Chemscore.CHOScore>
0.8765

> <Gold.PLP.Chemscore.Metal>
0.0000

> <Gold.Chemscore.Hbonds>
donor molecule, donor type, donor heavy atom, donor atom, acceptor molecule, acceptor atom, score
      L1  H     3    19       P1  8028  1.00
      L1  H     6    20       P1  8028  1.00
      P1  H  7989  7998       L1     8  0.90
      L1  C    10    22       P1  7948  0.87

> <Gold.PLP.Chemscore.Internal.Correction>
1.0634

> <Gold.Rescore>
     Score         DG    S(hbond)    S(metal)    S(lipo)     H(rot)  DE(clash)    DE(int)     intcor
     17.45     -20.41       2.70        0.00      78.06       1.26       0.21       2.75       ----

> <Gold.Chemscore.Fitness>
17.4527

> <Gold.Chemscore.DG>
-20.4125

> <Gold.Chemscore.ZeroCoef>
-5.4800

> <Gold.Chemscore.Hbond>
2.7014

> <Gold.Chemscore.Metal>
0.0000

> <Gold.Chemscore.Lipo>
78.0609

> <Gold.Chemscore.Internal_Hbond>
0.0000

> <Gold.Chemscore.DEClash>
0.2087

> <Gold.Chemscore.DEInternal>
2.7511

> <Gold.Chemscore.Rot>
1.2591

> <Gold.Chemscore.Internal.Correction>
   9.000000E+99

> <Gold.Chemscore.Hbonds>
donor molecule, donor type, donor heavy atom, donor atom, acceptor molecule, acceptor atom, score
      L1  H     3    19       P1  8028  0.94
      L1  H     6    20       P1  8028  0.93
      P1  H  7989  7998       L1     8  0.05

> <Gold.Chemscore.Hbond.Weighted>
-9.0227

> <Gold.Chemscore.Metal.Weighted>
-0.0000

> <Gold.Chemscore.Lipo.Weighted>
-9.1331

> <Gold.Chemscore.Internal_Hbond.Weighted>
0.0000

> <Gold.Chemscore.DEClash.Weighted>
0.2087

> <Gold.Chemscore.DEInternal.Weighted>
2.7511

> <Gold.Chemscore.Rot.Weighted>
3.2233

> <Gold.Chemscore.Internal.Correction.Weighted>
   9.000000E+99

> <Gold.Protein.RotatedTorsions>
[ 6907 6896 6895 6894 ] final   68.26 input  -60.11 | X-H torsion
[ 7974 7965 7964 7962 ] final  -93.44 input  175.53 | X-H torsion
[ 8008 7997 7996 7995 ] final   68.73 input   59.86 | X-H torsion
[ 10167 10162 10161 10158 ] final  124.84 input  -65.29 | X-H torsion
[ 10718 10713 10712 10709 ] final  133.71 input   66.30 | X-H torsion
[ 10763 10752 10751 10750 ] final -124.17 input  -60.55 | X-H torsion
[ 11005 11000 10999 10996 ] final  -63.02 input  -57.11 | X-H torsion

> <Gold.Protein.ActiveResidues>
 VAL166  LYS551  ARG553  GLY616  TRP617  ASP618  TYR619  PRO620  LYS621  CYS622 
 ASP623  PHE694  ASN695  SER759  ASP760  ASP761  ALA762  ILE779  LEU786  VAL792 
 PHE793  MET794  SER795  GLU796  ALA797  LYS798  CYS799  TRP800  GLU811  SER814 

> <Gold.Protein.RotatedAtoms>
  152.4608  134.5189  159.9776 H   0  0  0  0  0  0  0  0  0  0  0  0  # atno 6907 bound_to 6896
  151.5238  133.3455  159.2914 H   0  0  0  0  0  0  0  0  0  0  0  0  # atno 6908 bound_to 6896
  150.8570  134.7941  159.7116 H   0  0  0  0  0  0  0  0  0  0  0  0  # atno 6909 bound_to 6896
  145.3866  140.9523  143.2364 H   0  0  0  0  0  0  0  0  0  0  0  0  # atno 7974 bound_to 7965
  155.7128  140.3494  155.4981 H   0  0  0  0  0  0  0  0  0  0  0  0  # atno 8008 bound_to 7997
  155.9340  140.1089  157.1131 H   0  0  0  0  0  0  0  0  0  0  0  0  # atno 8009 bound_to 7997
  154.4090  140.1225  156.4827 H   0  0  0  0  0  0  0  0  0  0  0  0  # atno 8010 bound_to 7997
  139.5719  144.6943  151.3757 H   0  0  0  0  0  0  0  0  0  0  0  0  # atno 10167 bound_to 10162
  157.4746  131.1082  150.9760 H   0  0  0  0  0  0  0  0  0  0  0  0  # atno 10718 bound_to 10713
  154.8719  135.4073  154.3062 H   0  0  0  0  0  0  0  0  0  0  0  0  # atno 10763 bound_to 10752
  153.3913  135.7015  153.6498 H   0  0  0  0  0  0  0  0  0  0  0  0  # atno 10764 bound_to 10752
  153.5279  135.3673  155.2633 H   0  0  0  0  0  0  0  0  0  0  0  0  # atno 10765 bound_to 10752
  141.1379  133.6647  156.5617 H   0  0  0  0  0  0  0  0  0  0  0  0  # atno 11005 bound_to 11000
  144.8470  139.5381  143.6874 LP  0  0  0  0  0  0  0  0  0  0  0  0  # atno 17320 bound_to 7965
  146.2817  139.6896  142.9224 LP  0  0  0  0  0  0  0  0  0  0  0  0  # atno 17321 bound_to 7965
  140.7003  143.7648  150.7392 LP  0  0  0  0  0  0  0  0  0  0  0  0  # atno 17342 bound_to 10162
  140.1157  143.4658  152.2343 LP  0  0  0  0  0  0  0  0  0  0  0  0  # atno 17343 bound_to 10162
  157.0513  130.5788  149.5371 LP  0  0  0  0  0  0  0  0  0  0  0  0  # atno 17370 bound_to 10713
  156.0090  130.5180  150.7926 LP  0  0  0  0  0  0  0  0  0  0  0  0  # atno 17371 bound_to 10713
  140.3983  134.7379  157.4764 LP  0  0  0  0  0  0  0  0  0  0  0  0  # atno 17394 bound_to 11000
  140.0515  134.6124  155.8856 LP  0  0  0  0  0  0  0  0  0  0  0  0  # atno 17395 bound_to 11000

$$$$
