AV-unprocessed.smi:2931|AV-procd|sdf|11242|dock1
  -GOLD-   2272016133D 1   1.00000     0.00000
 Structure written by MMmdl.
 42 43  0  0  0  0  0  0  0  0  2 V2000
  142.2845  134.4534  152.9396 C   0  0  0  0  0  0  0  0  0  0  0  0
  143.4794  133.6392  152.6309 N   0  3  1  0  0  0  0  0  0  0  0  0
  143.5155  133.2003  151.2134 C   0  0  0  0  0  0  0  0  0  0  0  0
  144.6949  132.2459  150.9634 C   0  0  0  0  0  0  0  0  0  0  0  0
  146.0251  132.8907  151.3769 C   0  0  0  0  0  0  0  0  0  0  0  0
  145.9506  133.3777  152.8357 C   0  0  1  0  0  0  0  0  0  0  0  0
  147.1782  134.0758  153.2041 N   0  0  0  0  0  0  0  0  0  0  0  0
  147.5950  134.2918  154.4592 C   0  0  0  0  0  0  0  0  0  0  0  0
  146.9674  133.9545  155.4627 O   0  0  0  0  0  0  0  0  0  0  0  0
  148.7879  134.9010  154.4876 N   0  0  0  0  0  0  0  0  0  0  0  0
  149.5364  135.2249  155.6987 C   0  0  0  0  0  0  0  0  0  0  0  0
  150.9593  135.7456  155.4091 C   0  0  0  0  0  0  0  0  0  0  0  0
  151.0346  137.2545  155.2464 C   0  0  0  0  0  0  0  0  0  0  0  0
  152.0540  137.9990  155.8763 C   0  0  0  0  0  0  0  0  0  0  0  0
  152.0837  139.3945  155.6838 C   0  0  0  0  0  0  0  0  0  0  0  0
  151.1853  140.0577  154.9244 N   0  0  0  0  0  0  0  0  0  0  0  0
  150.2115  139.3388  154.3259 C   0  0  0  0  0  0  0  0  0  0  0  0
  150.0916  137.9403  154.4537 C   0  0  0  0  0  0  0  0  0  0  0  0
  144.7404  134.3094  153.0356 C   0  0  0  0  0  0  0  0  0  0  0  0
  142.2913  135.3877  152.3769 H   0  0  0  0  0  0  0  0  0  0  0  0
  142.2470  134.6937  154.0027 H   0  0  0  0  0  0  0  0  0  0  0  0
  141.3727  133.9096  152.6903 H   0  0  0  0  0  0  0  0  0  0  0  0
  142.5810  132.6971  150.9623 H   0  0  0  0  0  0  0  0  0  0  0  0
  143.5923  134.0723  150.5619 H   0  0  0  0  0  0  0  0  0  0  0  0
  144.5450  131.3237  151.5263 H   0  0  0  0  0  0  0  0  0  0  0  0
  144.7296  131.9632  149.9106 H   0  0  0  0  0  0  0  0  0  0  0  0
  146.8391  132.1748  151.2547 H   0  0  0  0  0  0  0  0  0  0  0  0
  146.2452  133.7290  150.7141 H   0  0  0  0  0  0  0  0  0  0  0  0
  145.8188  132.5128  153.4893 H   0  0  0  0  0  0  0  0  0  0  0  0
  147.7707  134.3888  152.4491 H   0  0  0  0  0  0  0  0  0  0  0  0
  149.2257  135.1349  153.6083 H   0  0  0  0  0  0  0  0  0  0  0  0
  148.9729  135.9930  156.2288 H   0  0  0  0  0  0  0  0  0  0  0  0
  149.5743  134.3591  156.3613 H   0  0  0  0  0  0  0  0  0  0  0  0
  151.6305  135.4453  156.2143 H   0  0  0  0  0  0  0  0  0  0  0  0
  151.3468  135.2723  154.5062 H   0  0  0  0  0  0  0  0  0  0  0  0
  152.7996  137.5146  156.4899 H   0  0  0  0  0  0  0  0  0  0  0  0
  152.8512  139.9935  156.1510 H   0  0  0  0  0  0  0  0  0  0  0  0
  149.5072  139.8942  153.7249 H   0  0  0  0  0  0  0  0  0  0  0  0
  149.2962  137.4089  153.9521 H   0  0  0  0  0  0  0  0  0  0  0  0
  144.8652  135.2276  152.4588 H   0  0  0  0  0  0  0  0  0  0  0  0
  144.6727  134.6001  154.0851 H   0  0  0  0  0  0  0  0  0  0  0  0
  143.4062  132.8011  153.1901 H   0  0  0  0  0  0  0  0  0  0  0  0
  1  2  1  0  0  0  0
  1 20  1  0  0  0  0
  1 21  1  0  0  0  0
  1 22  1  0  0  0  0
  2 19  1  0  0  0  0
  2  3  1  0  0  0  0
  2 42  1  0  0  0  0
  3  4  1  0  0  0  0
  3 23  1  0  0  0  0
  3 24  1  0  0  0  0
  4  5  1  0  0  0  0
  4 25  1  0  0  0  0
  4 26  1  0  0  0  0
  5  6  1  0  0  0  0
  5 27  1  0  0  0  0
  5 28  1  0  0  0  0
  6  7  1  0  0  0  0
  6 19  1  0  0  0  0
  6 29  1  0  0  0  0
  7  8  1  0  0  0  0
  7 30  1  0  0  0  0
  8  9  2  0  0  0  0
  8 10  1  0  0  0  0
 10 11  1  0  0  0  0
 10 31  1  0  0  0  0
 11 12  1  0  0  0  0
 11 32  1  0  0  0  0
 11 33  1  0  0  0  0
 12 13  1  0  0  0  0
 12 34  1  0  0  0  0
 12 35  1  0  0  0  0
 13 18  1  0  0  0  0
 13 14  2  0  0  0  0
 14 15  1  0  0  0  0
 14 36  1  0  0  0  0
 15 16  2  0  0  0  0
 15 37  1  0  0  0  0
 16 17  1  0  0  0  0
 17 18  2  0  0  0  0
 17 38  1  0  0  0  0
 18 39  1  0  0  0  0
 19 40  1  0  0  0  0
 19 41  1  0  0  0  0
M  CHG  1   2   1
M  END
> <s_m_source_file>
AV-unprocessed.smi

> <i_m_source_file_index>
2931

> <i_lp_mmshare_version>
43012

> <i_f3d_flags>
0

> <s_epik_input>
W0NIM11OMVtDSDJdW0NIMl1bQ0gyXVtDQEhdKFtDSDJdMSlbTkhdQyg9TylbTkhdW0NIMl1bQ0gyXWMyW2NIXVtjSF1uW2NIXVtjSF0y

> <s_epik_cmdline>
J2VwaWtfcHl0aG9uJywgJy1waCcsICc3LjAnLCAnLXRuJywgJzgnLCAnLW1hJywgJzIwMCcsICctbWV0YWxfYmluZGluZycsICctaW1hZScsICc8aW5maWxlLm1hZT4nLCAnLW9tYWUnLCAnPG91dGZpbGUubWFlPic=

> <r_epik_Ionization_Penalty>
0.0573876

> <r_epik_Ionization_Penalty_Charging>
0.00229982

> <r_epik_Ionization_Penalty_Neutral>
0.0550878

> <r_epik_State_Penalty>
0.0473925

> <r_epik_Charging_Adjusted_Penalty>
0.0496923

> <i_epik_Tot_Q>
1

> <i_epik_Tot_abs_Q>
1

> <r_epik_Metal_State_Penalty>
0.0433388

> <b_epik_Metal_Only>
0

> <s_lp_Force_Field>
OPLS_2005

> <r_lp_Energy>
13.6108

> <b_lp_Chiralities_Consistent>
1

> <s_lp_Variant>
AV-unprocessed.smi:2931-1

> <Gold.Version>
5.8.1

> <Gold.Id.Protein>
6NUR|6NUR_protein|mol2

> <Gold.PLP.Fitness>
43.8179

> <Gold.PLP.PLP>
-29.7038

> <Gold.PLP.part.hbond>
-3.9284

> <Gold.PLP.part.metal>
0.0000

> <Gold.PLP.part.buried>
-2.0618

> <Gold.PLP.part.nonpolar>
-24.2442

> <Gold.PLP.part.repulsive>
0.0917

> <Gold.PLP.ligand.clash>
0.0000

> <Gold.PLP.ligand.torsion>
0.6524

> <Gold.PLP.Chemscore.Hbond>
4.2910

> <Gold.PLP.Chemscore.CHOScore>
0.8414

> <Gold.PLP.Chemscore.Metal>
0.0000

> <Gold.Chemscore.Hbonds>
donor molecule, donor type, donor heavy atom, donor atom, acceptor molecule, acceptor atom, score
      L1  H     2    42       P1 10957  2.00
      L1  H     7    30       P1  7948  0.42
      L1  H    10    31       P1  7948  0.87
      P1  H  7989  7998       L1    16  0.75
      L1  C    17    38       P1  7957  0.79

> <Gold.PLP.Chemscore.Internal.Correction>
0.0217

> <Gold.Rescore>
     Score         DG    S(hbond)    S(metal)    S(lipo)     H(rot)  DE(clash)    DE(int)     intcor
     18.34     -19.16       2.85        0.00      69.78       1.56       0.00       0.82       ----

> <Gold.Chemscore.Fitness>
18.3374

> <Gold.Chemscore.DG>
-19.1613

> <Gold.Chemscore.ZeroCoef>
-5.4800

> <Gold.Chemscore.Hbond>
2.8468

> <Gold.Chemscore.Metal>
0.0000

> <Gold.Chemscore.Lipo>
69.7810

> <Gold.Chemscore.Internal_Hbond>
0.0000

> <Gold.Chemscore.DEClash>
0.0038

> <Gold.Chemscore.DEInternal>
0.8202

> <Gold.Chemscore.Rot>
1.5592

> <Gold.Chemscore.Internal.Correction>
   9.000000E+99

> <Gold.Chemscore.Hbonds>
donor molecule, donor type, donor heavy atom, donor atom, acceptor molecule, acceptor atom, score
      L1  H     2    42       P1 10957  0.40
      L1  H     7    30       P1  7948  0.23
      L1  H    10    31       P1  7948  0.20
      P1  H  7989  7998       L1    16  0.09

> <Gold.Chemscore.Hbond.Weighted>
-9.5084

> <Gold.Chemscore.Metal.Weighted>
-0.0000

> <Gold.Chemscore.Lipo.Weighted>
-8.1644

> <Gold.Chemscore.Internal_Hbond.Weighted>
0.0000

> <Gold.Chemscore.DEClash.Weighted>
0.0038

> <Gold.Chemscore.DEInternal.Weighted>
0.8202

> <Gold.Chemscore.Rot.Weighted>
3.9915

> <Gold.Chemscore.Internal.Correction.Weighted>
   9.000000E+99

> <Gold.Protein.RotatedTorsions>
[ 6907 6896 6895 6894 ] final  -78.09 input  -60.11 | X-H torsion
[ 7974 7965 7964 7962 ] final  -77.95 input  175.53 | X-H torsion
[ 8008 7997 7996 7995 ] final   -8.47 input   59.86 | X-H torsion
[ 10167 10162 10161 10158 ] final   20.57 input  -65.29 | X-H torsion
[ 10718 10713 10712 10709 ] final  115.06 input   66.30 | X-H torsion
[ 10763 10752 10751 10750 ] final  -64.66 input  -60.55 | X-H torsion
[ 11005 11000 10999 10996 ] final   78.86 input  -57.11 | X-H torsion

> <Gold.Protein.ActiveResidues>
 VAL166  LYS551  ARG553  GLY616  TRP617  ASP618  TYR619  PRO620  LYS621  CYS622 
 ASP623  PHE694  ASN695  SER759  ASP760  ASP761  ALA762  ILE779  LEU786  VAL792 
 PHE793  MET794  SER795  GLU796  ALA797  LYS798  CYS799  TRP800  GLU811  SER814 

> <Gold.Protein.RotatedAtoms>
  150.6981  134.4324  159.5254 H   0  0  0  0  0  0  0  0  0  0  0  0  # atno 6907 bound_to 6896
  152.2048  134.8552  160.0513 H   0  0  0  0  0  0  0  0  0  0  0  0  # atno 6908 bound_to 6896
  151.9459  133.3616  159.4019 H   0  0  0  0  0  0  0  0  0  0  0  0  # atno 6909 bound_to 6896
  145.5929  140.9425  143.1282 H   0  0  0  0  0  0  0  0  0  0  0  0  # atno 7974 bound_to 7965
  154.5738  140.2380  155.8152 H   0  0  0  0  0  0  0  0  0  0  0  0  # atno 8008 bound_to 7997
  156.2127  140.3021  155.9727 H   0  0  0  0  0  0  0  0  0  0  0  0  # atno 8009 bound_to 7997
  155.2663  140.0416  157.2993 H   0  0  0  0  0  0  0  0  0  0  0  0  # atno 8010 bound_to 7997
  140.5493  143.9537  150.6568 H   0  0  0  0  0  0  0  0  0  0  0  0  # atno 10167 bound_to 10162
  157.6244  131.1007  150.7276 H   0  0  0  0  0  0  0  0  0  0  0  0  # atno 10718 bound_to 10713
  154.3334  135.6172  153.5562 H   0  0  0  0  0  0  0  0  0  0  0  0  # atno 10763 bound_to 10752
  152.9809  135.5752  154.4936 H   0  0  0  0  0  0  0  0  0  0  0  0  # atno 10764 bound_to 10752
  154.4626  135.2856  155.1678 H   0  0  0  0  0  0  0  0  0  0  0  0  # atno 10765 bound_to 10752
  139.9195  134.7797  156.1704 H   0  0  0  0  0  0  0  0  0  0  0  0  # atno 11005 bound_to 11000
  144.7343  139.7631  143.7335 LP  0  0  0  0  0  0  0  0  0  0  0  0  # atno 17320 bound_to 7965
  146.1634  139.4756  142.9974 LP  0  0  0  0  0  0  0  0  0  0  0  0  # atno 17321 bound_to 7965
  140.2959  143.3293  152.1018 LP  0  0  0  0  0  0  0  0  0  0  0  0  # atno 17342 bound_to 10162
  139.5021  144.6727  151.6204 LP  0  0  0  0  0  0  0  0  0  0  0  0  # atno 17343 bound_to 10162
  156.7627  130.4803  149.5434 LP  0  0  0  0  0  0  0  0  0  0  0  0  # atno 17370 bound_to 10713
  156.1408  130.6243  151.0464 LP  0  0  0  0  0  0  0  0  0  0  0  0  # atno 17371 bound_to 10713
  141.0704  133.6799  156.2128 LP  0  0  0  0  0  0  0  0  0  0  0  0  # atno 17394 bound_to 11000
  140.6517  134.5060  157.5578 LP  0  0  0  0  0  0  0  0  0  0  0  0  # atno 17395 bound_to 11000

$$$$
