#       Name:                AV-unprocessed.smi:469
#       Creating user name   scv26
#       Creation time:       Thu Mar 26 23:06:30 2020


#       File generated by GOLD software.
#

@<TRIPOS>MOLECULE
AV-unprocessed.smi:469
    42    43     1
SMALL
NO_CHARGES


@<TRIPOS>ATOM
      1 ****        -4.9189   3.6094  -0.5404 C.3            1 S1                 0.0000
      2 ****        -4.2616   2.3329  -0.7754 N.am           1 S1                 0.0000
      3 ****        -2.9431   2.1869  -0.9682 C.2            1 S1                 0.0000
      4 ****        -2.1544   3.1332  -0.9598 O.2            1 S1                 0.0000
      5 ****        -2.4549   0.7478  -1.1906 C.3            1 S1                 0.0000
      6 ****        -1.0320   0.6563  -1.5578 N.am           1 S1                 0.0000
      7 ****        -0.1167   0.4431  -0.5091 C.2            1 S1                 0.0000
      8 ****         1.2000   0.3065  -0.7354 C.2            1 S1                 0.0000
      9 ****         2.3592   0.1828   0.6513 S.o2           1 S1                 0.0000
     10 ****         3.6671   0.6708   0.1867 O.2            1 S1                 0.0000
     11 ****         1.7242   0.8001   1.8266 O.2            1 S1                 0.0000
     12 ****         2.5225  -1.5077   0.9778 N.3            1 S1                 0.0000
     13 ****         3.5876  -1.9335   1.8956 C.3            1 S1                 0.0000
     14 ****         2.8967  -2.7752   2.9676 C.3            1 S1                 0.0000
     15 ****         1.7264  -3.3930   2.2174 C.3            1 S1                 0.0000
     16 ****         1.3035  -2.2807   1.2583 C.3            1 S1                 0.0000
     17 ****         1.6830   0.4620  -2.0881 C.2            1 S1                 0.0000
     18 ****         0.8167   0.6960  -3.0940 C.2            1 S1                 0.0000
     19 ****        -0.6286   0.7979  -2.8583 C.2            1 S1                 0.0000
     20 ****        -1.4272   0.9999  -3.7734 O.2            1 S1                 0.0000
     21 ****        -5.9853   3.4540  -0.3758 H              1 S1                 0.0000
     22 ****        -4.7983   4.2712  -1.3991 H              1 S1                 0.0000
     23 ****        -4.5067   4.1031   0.3410 H              1 S1                 0.0000
     24 ****        -4.8446   1.5085  -0.7922 H              1 S1                 0.0000
     25 ****        -2.6439   0.1778  -0.2796 H              1 S1                 0.0000
     26 ****        -3.0752   0.2754  -1.9546 H              1 S1                 0.0000
     27 ****        -0.5528   0.4122   0.4790 H              1 S1                 0.0000
     28 ****         4.3103  -2.5313   1.3396 H              1 S1                 0.0000
     29 ****         4.1127  -1.0795   2.3249 H              1 S1                 0.0000
     30 ****         3.5570  -3.5200   3.4125 H              1 S1                 0.0000
     31 ****         2.5270  -2.1301   3.7661 H              1 S1                 0.0000
     32 ****         2.0651  -4.2626   1.6526 H              1 S1                 0.0000
     33 ****         0.9194  -3.7114   2.8779 H              1 S1                 0.0000
     34 ****         0.5660  -1.6369   1.7395 H              1 S1                 0.0000
     35 ****         0.8674  -2.6657   0.3362 H              1 S1                 0.0000
     36 ****         2.7401   0.3913  -2.2974 H              1 S1                 0.0000
     37 ****         1.1940   0.8100  -4.0997 H              1 S1                 0.0000
     38 ****        -2.4899   4.0622  -0.8040 LP             1 S1                 0.0000
     39 ****        -1.1788   2.9722  -1.1088 LP             1 S1                 0.0000
     40 ****         2.8155  -1.7469   0.0521 LP             1 S1                 0.0000
     41 ****        -2.4057   1.0654  -3.5778 LP             1 S1                 0.0000
     42 ****        -1.0974   1.0984  -4.7123 LP             1 S1                 0.0000
@<TRIPOS>BOND
    1    1    2 1     
    2    1   21 1     
    3    1   22 1     
    4    1   23 1     
    5    2    3 am    
    6    2   24 1     
    7    3    4 2     
    8    3    5 1     
    9    5    6 1     
   10    5   25 1     
   11    5   26 1     
   12    6   19 am    
   13    6    7 1     
   14    7    8 2     
   15    7   27 1     
   16    8    9 1     
   17    8   17 1     
   18    9   10 2     
   19    9   11 2     
   20    9   12 1     
   21   12   16 1     
   22   12   13 1     
   23   13   14 1     
   24   13   28 1     
   25   13   29 1     
   26   14   15 1     
   27   14   30 1     
   28   14   31 1     
   29   15   16 1     
   30   15   32 1     
   31   15   33 1     
   32   16   34 1     
   33   16   35 1     
   34   17   18 2     
   35   17   36 1     
   36   18   19 1     
   37   18   37 1     
   38   19   20 2     
   39    4   38 1     
   40    4   39 1     
   41   12   40 1     
   42   20   41 1     
   43   20   42 1     
@<TRIPOS>SUBSTRUCTURE
      1 S1             1
@<TRIPOS>SET
LONE_PAIRS      STATIC     ATOMS    <user>   **** ""
7 38 39 10 11 40 41 42
DONOR_HYDROGENS      STATIC     ATOMS    <user>   **** ""
1 24
ATOM$BLUE        STATIC     ATOMS    COLORGROUP SYSTEM
7 38 39 10 11 40 41 42
ATOM$RED        STATIC     ATOMS    COLORGROUP SYSTEM
1 24
