AV-unprocessed.smi:3112|AV-procd|sdf|11847|dock6
  -GOLD-   2272017223D 1   1.00000     0.00000
 Structure written by MMmdl.
 36 36  0  0  0  0  0  0  0  0  1 V2000
  152.2796  143.7891  159.6748 C   0  0  0  0  0  0  0  0  0  0  0  0
  151.9490  142.5662  158.8039 C   0  0  0  0  0  0  0  0  0  0  0  0
  150.8826  142.8161  157.7187 C   0  0  1  0  0  0  0  0  0  0  0  0
  151.2622  143.9428  156.9547 O   0  0  0  0  0  0  0  0  0  0  0  0
  150.6837  141.6171  156.7756 C   0  0  0  0  0  0  0  0  0  0  0  0
  149.8736  141.9906  155.6166 N   0  0  0  0  0  0  0  0  0  0  0  0
  148.7450  141.1028  155.3134 C   0  0  1  0  0  0  0  0  0  0  0  0
  147.5281  141.9712  154.9509 C   0  0  0  0  0  0  0  0  0  0  0  0
  149.0483  140.0606  154.1938 C   0  0  2  0  0  0  0  0  0  0  0  0
  147.8418  139.2357  153.7071 C   0  0  0  0  0  0  0  0  0  0  0  0
  150.2034  139.2164  154.4891 N   0  0  0  0  0  0  0  0  0  0  0  0
  150.2936  137.8414  154.4065 C   0  0  0  0  0  0  0  0  0  0  0  0
  151.5671  137.4904  154.7514 C   0  0  0  0  0  0  0  0  0  0  0  0
  152.1966  138.7355  155.0275 C   0  0  0  0  0  0  0  0  0  0  0  0
  151.3821  139.7646  154.8652 N   0  0  0  0  0  0  0  0  0  0  0  0
  153.0275  143.5344  160.4258 H   0  0  0  0  0  0  0  0  0  0  0  0
  151.3981  144.1554  160.2011 H   0  0  0  0  0  0  0  0  0  0  0  0
  152.6808  144.6093  159.0795 H   0  0  0  0  0  0  0  0  0  0  0  0
  152.8657  142.2160  158.3281 H   0  0  0  0  0  0  0  0  0  0  0  0
  151.6198  141.7506  159.4489 H   0  0  0  0  0  0  0  0  0  0  0  0
  149.9420  143.0484  158.2205 H   0  0  0  0  0  0  0  0  0  0  0  0
  150.4900  144.2892  156.5330 H   0  0  0  0  0  0  0  0  0  0  0  0
  151.6473  141.2039  156.4898 H   0  0  0  0  0  0  0  0  0  0  0  0
  150.1652  140.8258  157.3181 H   0  0  0  0  0  0  0  0  0  0  0  0
  149.5339  142.9388  155.7415 H   0  0  0  0  0  0  0  0  0  0  0  0
  148.4716  140.5567  156.2172 H   0  0  0  0  0  0  0  0  0  0  0  0
  146.6579  141.3552  154.7228 H   0  0  0  0  0  0  0  0  0  0  0  0
  147.7239  142.6050  154.0853 H   0  0  0  0  0  0  0  0  0  0  0  0
  147.2544  142.6248  155.7796 H   0  0  0  0  0  0  0  0  0  0  0  0
  149.3355  140.6525  153.3232 H   0  0  0  0  0  0  0  0  0  0  0  0
  146.9800  139.8740  153.5116 H   0  0  0  0  0  0  0  0  0  0  0  0
  147.5430  138.4716  154.4235 H   0  0  0  0  0  0  0  0  0  0  0  0
  148.0830  138.7182  152.7783 H   0  0  0  0  0  0  0  0  0  0  0  0
  149.4521  137.2333  154.1088 H   0  0  0  0  0  0  0  0  0  0  0  0
  151.9861  136.4964  154.7964 H   0  0  0  0  0  0  0  0  0  0  0  0
  153.2145  138.9210  155.3365 H   0  0  0  0  0  0  0  0  0  0  0  0
  1  2  1  0  0  0  0
  1 16  1  0  0  0  0
  1 17  1  0  0  0  0
  1 18  1  0  0  0  0
  2  3  1  0  0  0  0
  2 19  1  0  0  0  0
  2 20  1  0  0  0  0
  3  4  1  0  0  0  0
  3  5  1  0  0  0  0
  3 21  1  0  0  0  0
  4 22  1  0  0  0  0
  5  6  1  0  0  0  0
  5 23  1  0  0  0  0
  5 24  1  0  0  0  0
  6  7  1  0  0  0  0
  6 25  1  0  0  0  0
  7  8  1  0  0  0  0
  7  9  1  0  0  0  0
  7 26  1  0  0  0  0
  8 27  1  0  0  0  0
  8 28  1  0  0  0  0
  8 29  1  0  0  0  0
  9 10  1  0  0  0  0
  9 11  1  0  0  0  0
  9 30  1  0  0  0  0
 10 31  1  0  0  0  0
 10 32  1  0  0  0  0
 10 33  1  0  0  0  0
 11 15  1  0  0  0  0
 11 12  1  0  0  0  0
 12 13  2  0  0  0  0
 12 34  1  0  0  0  0
 13 14  1  0  0  0  0
 13 35  1  0  0  0  0
 14 15  2  0  0  0  0
 14 36  1  0  0  0  0
M  END
> <s_m_source_file>
AV-unprocessed.smi

> <i_m_source_file_index>
3112

> <i_lp_mmshare_version>
43012

> <i_f3d_flags>
0

> <s_epik_input>
W0NIM11bQ0gyXVtDQEhdKFtPSF0pW0NIMl1bTkhdW0NASF0oW0NIM10pW0NASF0oW0NIM10pbjFbY0hdW2NIXVtjSF1uMQ==

> <s_epik_cmdline>
J2VwaWtfcHl0aG9uJywgJy1waCcsICc3LjAnLCAnLXRuJywgJzgnLCAnLW1hJywgJzIwMCcsICctbWV0YWxfYmluZGluZycsICctaW1hZScsICc8aW5maWxlLm1hZT4nLCAnLW9tYWUnLCAnPG91dGZpbGUubWFlPic=

> <r_lp_tautomer_probability>
1

> <r_epik_Ionization_Penalty>
2.16876

> <r_epik_Ionization_Penalty_Charging>
0

> <r_epik_Ionization_Penalty_Neutral>
2.16876

> <r_epik_State_Penalty>
2.30854

> <r_epik_Charging_Adjusted_Penalty>
2.30854

> <i_epik_Tot_Q>
0

> <i_epik_Tot_abs_Q>
0

> <r_epik_Metal_State_Penalty>
2.3073

> <b_epik_Metal_Only>
0

> <s_lp_Force_Field>
OPLS_2005

> <r_lp_Energy>
21.8482

> <b_lp_Chiralities_Consistent>
1

> <s_lp_Variant>
AV-unprocessed.smi:3112-12

> <Gold.Version>
5.8.1

> <Gold.Id.Protein>
6NUR|6NUR_protein|mol2

> <Gold.PLP.Fitness>
45.4071

> <Gold.PLP.PLP>
-35.3993

> <Gold.PLP.part.hbond>
-2.9368

> <Gold.PLP.part.metal>
0.0000

> <Gold.PLP.part.buried>
-1.1522

> <Gold.PLP.part.nonpolar>
-31.4169

> <Gold.PLP.part.repulsive>
0.0720

> <Gold.PLP.ligand.clash>
0.0000

> <Gold.PLP.ligand.torsion>
1.1642

> <Gold.PLP.Chemscore.Hbond>
3.0000

> <Gold.PLP.Chemscore.CHOScore>
0.9958

> <Gold.PLP.Chemscore.Metal>
0.0000

> <Gold.Chemscore.Hbonds>
donor molecule, donor type, donor heavy atom, donor atom, acceptor molecule, acceptor atom, score
      L1  H     4    22       P1  8028  1.00
      L1  H     6    25       P1  8028  1.00
      P1  H  7989  7998       L1    15  1.00
      L1  C    12    34       P1  7948  0.95

> <Gold.PLP.Chemscore.Internal.Correction>
0.3490

> <Gold.Rescore>
     Score         DG    S(hbond)    S(metal)    S(lipo)     H(rot)  DE(clash)    DE(int)     intcor
     16.55     -19.29       2.97        0.00      83.74       2.31       0.10       2.64       ----

> <Gold.Chemscore.Fitness>
16.5544

> <Gold.Chemscore.DG>
-19.2938

> <Gold.Chemscore.ZeroCoef>
-5.4800

> <Gold.Chemscore.Hbond>
2.9737

> <Gold.Chemscore.Metal>
0.0000

> <Gold.Chemscore.Lipo>
83.7396

> <Gold.Chemscore.Internal_Hbond>
0.0000

> <Gold.Chemscore.DEClash>
0.1002

> <Gold.Chemscore.DEInternal>
2.6393

> <Gold.Chemscore.Rot>
2.3108

> <Gold.Chemscore.Internal.Correction>
   9.000000E+99

> <Gold.Chemscore.Hbonds>
donor molecule, donor type, donor heavy atom, donor atom, acceptor molecule, acceptor atom, score
      L1  H     4    22       P1  8028  1.00
      L1  H     6    25       P1  8028  1.00
      P1  H  7989  7998       L1    15  0.25

> <Gold.Chemscore.Hbond.Weighted>
-9.9320

> <Gold.Chemscore.Metal.Weighted>
-0.0000

> <Gold.Chemscore.Lipo.Weighted>
-9.7975

> <Gold.Chemscore.Internal_Hbond.Weighted>
0.0000

> <Gold.Chemscore.DEClash.Weighted>
0.1002

> <Gold.Chemscore.DEInternal.Weighted>
2.6393

> <Gold.Chemscore.Rot.Weighted>
5.9157

> <Gold.Chemscore.Internal.Correction.Weighted>
   9.000000E+99

> <Gold.Protein.RotatedTorsions>
[ 6907 6896 6895 6894 ] final  -72.65 input  -60.11 | X-H torsion
[ 7974 7965 7964 7962 ] final   74.83 input  175.53 | X-H torsion
[ 8008 7997 7996 7995 ] final   69.49 input   59.86 | X-H torsion
[ 10167 10162 10161 10158 ] final -143.59 input  -65.29 | X-H torsion
[ 10718 10713 10712 10709 ] final -110.85 input   66.30 | X-H torsion
[ 10763 10752 10751 10750 ] final  -21.03 input  -60.55 | X-H torsion
[ 11005 11000 10999 10996 ] final   66.73 input  -57.11 | X-H torsion

> <Gold.Protein.ActiveResidues>
 VAL166  LYS551  ARG553  GLY616  TRP617  ASP618  TYR619  PRO620  LYS621  CYS622 
 ASP623  PHE694  ASN695  SER759  ASP760  ASP761  ALA762  ILE779  LEU786  VAL792 
 PHE793  MET794  SER795  GLU796  ALA797  LYS798  CYS799  TRP800  GLU811  SER814 

> <Gold.Protein.RotatedAtoms>
  150.7161  134.5132  159.5617 H   0  0  0  0  0  0  0  0  0  0  0  0  # atno 6907 bound_to 6896
  152.2704  134.7936  160.0424 H   0  0  0  0  0  0  0  0  0  0  0  0  # atno 6908 bound_to 6896
  151.8618  133.3423  159.3743 H   0  0  0  0  0  0  0  0  0  0  0  0  # atno 6909 bound_to 6896
  145.7233  139.2656  143.1583 H   0  0  0  0  0  0  0  0  0  0  0  0  # atno 7974 bound_to 7965
  155.7245  140.3493  155.5031 H   0  0  0  0  0  0  0  0  0  0  0  0  # atno 8008 bound_to 7997
  155.9239  140.1072  157.1207 H   0  0  0  0  0  0  0  0  0  0  0  0  # atno 8009 bound_to 7997
  154.4074  140.1244  156.4702 H   0  0  0  0  0  0  0  0  0  0  0  0  # atno 8010 bound_to 7997
  139.7978  143.7875  152.2656 H   0  0  0  0  0  0  0  0  0  0  0  0  # atno 10167 bound_to 10162
  156.0614  130.5837  150.8294 H   0  0  0  0  0  0  0  0  0  0  0  0  # atno 10718 bound_to 10713
  153.6297  135.6989  153.5280 H   0  0  0  0  0  0  0  0  0  0  0  0  # atno 10763 bound_to 10752
  153.2869  135.4168  155.1131 H   0  0  0  0  0  0  0  0  0  0  0  0  # atno 10764 bound_to 10752
  154.8525  135.3616  154.5840 H   0  0  0  0  0  0  0  0  0  0  0  0  # atno 10765 bound_to 10752
  139.9814  134.6738  156.0256 H   0  0  0  0  0  0  0  0  0  0  0  0  # atno 11005 bound_to 11000
  146.0606  140.7975  142.9737 LP  0  0  0  0  0  0  0  0  0  0  0  0  # atno 17320 bound_to 7965
  144.6911  140.3190  143.7235 LP  0  0  0  0  0  0  0  0  0  0  0  0  # atno 17321 bound_to 7965
  139.7986  144.7383  150.9856 LP  0  0  0  0  0  0  0  0  0  0  0  0  # atno 17342 bound_to 10162
  140.7820  143.4368  151.0611 LP  0  0  0  0  0  0  0  0  0  0  0  0  # atno 17343 bound_to 10162
  157.5625  131.0946  150.9538 LP  0  0  0  0  0  0  0  0  0  0  0  0  # atno 17370 bound_to 10713
  156.9773  130.5513  149.5294 LP  0  0  0  0  0  0  0  0  0  0  0  0  # atno 17371 bound_to 10713
  141.1485  133.6552  156.3941 LP  0  0  0  0  0  0  0  0  0  0  0  0  # atno 17394 bound_to 11000
  140.5090  134.6414  157.5277 LP  0  0  0  0  0  0  0  0  0  0  0  0  # atno 17395 bound_to 11000

$$$$
