AV-unprocessed.smi:3030|AV-procd|sdf|11540|dock5
  -GOLD-   2272016483D 1   1.00000     0.00000
 Structure written by MMmdl.
 52 53  0  0  0  0  0  0  0  0  1 V2000
  151.8627  144.5867  160.7729 C   0  0  0  0  0  0  0  0  0  0  0  0
  152.3882  143.4216  161.6188 C   0  0  0  0  0  0  0  0  0  0  0  0
  152.6975  142.2577  160.8010 N   0  0  0  0  0  0  0  0  0  0  0  0
  153.9424  141.6408  160.8644 C   0  0  0  0  0  0  0  0  0  0  0  0
  154.3094  140.6009  160.0911 C   0  0  0  0  0  0  0  0  0  0  0  0
  153.3542  140.0625  159.1014 C   0  0  0  0  0  0  0  0  0  0  0  0
  153.6568  139.1128  158.3790 O   0  0  0  0  0  0  0  0  0  0  0  0
  152.0248  140.7252  159.0295 C   0  0  0  0  0  0  0  0  0  0  0  0
  151.1209  140.2009  158.0905 N   0  0  0  0  0  0  0  0  0  0  0  0
  150.1222  140.8142  157.4294 C   0  0  0  0  0  0  0  0  0  0  0  0
  149.8207  142.0041  157.5162 O   0  0  0  0  0  0  0  0  0  0  0  0
  149.4777  139.9483  156.6347 N   0  0  0  0  0  0  0  0  0  0  0  0
  148.3341  140.2661  155.7813 C   0  0  1  0  0  0  0  0  0  0  0  0
  148.7220  141.4160  154.8259 C   0  0  0  0  0  0  0  0  0  0  0  0
  147.6018  141.7790  153.8332 C   0  0  2  0  0  0  0  0  0  0  0  0
  146.4412  142.5380  154.5004 C   0  0  0  0  0  0  0  0  0  0  0  0
  147.1345  140.5245  153.0733 C   0  0  0  0  0  0  0  0  0  0  0  0
  146.7291  139.3827  154.0194 C   0  0  0  0  0  0  0  0  0  0  0  0
  147.8677  139.0083  154.9977 C   0  0  2  0  0  0  0  0  0  0  0  0
  147.5203  137.7912  155.9076 C   0  0  0  0  0  0  0  0  0  0  0  0
  147.2233  136.5180  155.0966 C   0  0  0  0  0  0  0  0  0  0  0  0
  146.3939  138.0641  156.9216 C   0  0  0  0  0  0  0  0  0  0  0  0
  151.7848  141.7632  159.8714 C   0  0  0  0  0  0  0  0  0  0  0  0
  151.6436  145.4514  161.3992 H   0  0  0  0  0  0  0  0  0  0  0  0
  150.9457  144.3122  160.2509 H   0  0  0  0  0  0  0  0  0  0  0  0
  152.5955  144.8937  160.0262 H   0  0  0  0  0  0  0  0  0  0  0  0
  153.2815  143.7318  162.1624 H   0  0  0  0  0  0  0  0  0  0  0  0
  151.6501  143.1504  162.3745 H   0  0  0  0  0  0  0  0  0  0  0  0
  154.6106  142.0612  161.6021 H   0  0  0  0  0  0  0  0  0  0  0  0
  155.2872  140.1503  160.1785 H   0  0  0  0  0  0  0  0  0  0  0  0
  151.2574  139.2218  157.8843 H   0  0  0  0  0  0  0  0  0  0  0  0
  149.7955  138.9902  156.6236 H   0  0  0  0  0  0  0  0  0  0  0  0
  147.5075  140.6067  156.4058 H   0  0  0  0  0  0  0  0  0  0  0  0
  149.0075  142.3006  155.3971 H   0  0  0  0  0  0  0  0  0  0  0  0
  149.6092  141.1257  154.2609 H   0  0  0  0  0  0  0  0  0  0  0  0
  148.0298  142.4621  153.0983 H   0  0  0  0  0  0  0  0  0  0  0  0
  145.9417  141.9402  155.2622 H   0  0  0  0  0  0  0  0  0  0  0  0
  145.6902  142.8276  153.7650 H   0  0  0  0  0  0  0  0  0  0  0  0
  146.7970  143.4502  154.9800 H   0  0  0  0  0  0  0  0  0  0  0  0
  146.3045  140.7719  152.4108 H   0  0  0  0  0  0  0  0  0  0  0  0
  147.9422  140.1773  152.4277 H   0  0  0  0  0  0  0  0  0  0  0  0
  145.8354  139.6722  154.5715 H   0  0  0  0  0  0  0  0  0  0  0  0
  146.4471  138.5212  153.4155 H   0  0  0  0  0  0  0  0  0  0  0  0
  148.7156  138.6987  154.3839 H   0  0  0  0  0  0  0  0  0  0  0  0
  148.4094  137.5531  156.4912 H   0  0  0  0  0  0  0  0  0  0  0  0
  146.2852  136.5943  154.5471 H   0  0  0  0  0  0  0  0  0  0  0  0
  147.1439  135.6503  155.7519 H   0  0  0  0  0  0  0  0  0  0  0  0
  148.0177  136.3115  154.3789 H   0  0  0  0  0  0  0  0  0  0  0  0
  145.4431  138.2632  156.4279 H   0  0  0  0  0  0  0  0  0  0  0  0
  146.6237  138.9128  157.5651 H   0  0  0  0  0  0  0  0  0  0  0  0
  146.2453  137.2029  157.5735 H   0  0  0  0  0  0  0  0  0  0  0  0
  150.8461  142.2923  159.9009 H   0  0  0  0  0  0  0  0  0  0  0  0
  1  2  1  0  0  0  0
  1 24  1  0  0  0  0
  1 25  1  0  0  0  0
  1 26  1  0  0  0  0
  2  3  1  0  0  0  0
  2 27  1  0  0  0  0
  2 28  1  0  0  0  0
  3 23  1  0  0  0  0
  3  4  1  0  0  0  0
  4  5  2  0  0  0  0
  4 29  1  0  0  0  0
  5  6  1  0  0  0  0
  5 30  1  0  0  0  0
  6  7  2  0  0  0  0
  6  8  1  0  0  0  0
  8  9  1  0  0  0  0
  8 23  2  0  0  0  0
  9 10  1  0  0  0  0
  9 31  1  0  0  0  0
 10 11  2  0  0  0  0
 10 12  1  0  0  0  0
 12 13  1  0  0  0  0
 12 32  1  0  0  0  0
 13 19  1  0  0  0  0
 13 14  1  0  0  0  0
 13 33  1  0  0  0  0
 14 15  1  0  0  0  0
 14 34  1  0  0  0  0
 14 35  1  0  0  0  0
 15 16  1  0  0  0  0
 15 17  1  0  0  0  0
 15 36  1  0  0  0  0
 16 37  1  0  0  0  0
 16 38  1  0  0  0  0
 16 39  1  0  0  0  0
 17 18  1  0  0  0  0
 17 40  1  0  0  0  0
 17 41  1  0  0  0  0
 18 19  1  0  0  0  0
 18 42  1  0  0  0  0
 18 43  1  0  0  0  0
 19 20  1  0  0  0  0
 19 44  1  0  0  0  0
 20 21  1  0  0  0  0
 20 22  1  0  0  0  0
 20 45  1  0  0  0  0
 21 46  1  0  0  0  0
 21 47  1  0  0  0  0
 21 48  1  0  0  0  0
 22 49  1  0  0  0  0
 22 50  1  0  0  0  0
 22 51  1  0  0  0  0
 23 52  1  0  0  0  0
M  END
> <s_m_source_file>
AV-unprocessed.smi

> <i_m_source_file_index>
3030

> <i_lp_mmshare_version>
43012

> <i_f3d_flags>
0

> <s_epik_input>
W0NIM11bQ0gyXW4xW2NIXVtjSF1jKD1PKWMoW2NIXTEpW05IXUMoPU8pW05IXVtDQEBIXTJbQ0gyXVtDQEBIXShbQ0gzXSlbQ0gyXVtDSDJdW0NASF0yW0NIXShbQ0gzXSlbQ0gzXQ==

> <s_epik_cmdline>
J2VwaWtfcHl0aG9uJywgJy1waCcsICc3LjAnLCAnLXRuJywgJzgnLCAnLW1hJywgJzIwMCcsICctbWV0YWxfYmluZGluZycsICctaW1hZScsICc8aW5maWxlLm1hZT4nLCAnLW9tYWUnLCAnPG91dGZpbGUubWFlPic=

> <r_lp_tautomer_probability>
1

> <r_epik_Ionization_Penalty>
0.00147933

> <r_epik_Ionization_Penalty_Charging>
0.00145753

> <r_epik_Ionization_Penalty_Neutral>
2.17987e-05

> <r_epik_State_Penalty>
0.00097457

> <r_epik_Charging_Adjusted_Penalty>
0.0024321

> <i_epik_Tot_Q>
0

> <i_epik_Tot_abs_Q>
0

> <r_epik_Metal_State_Penalty>
-0

> <b_epik_Metal_Only>
0

> <s_lp_Force_Field>
OPLS_2005

> <r_lp_Energy>
11.4945

> <b_lp_Chiralities_Consistent>
1

> <s_lp_Variant>
AV-unprocessed.smi:3030-8

> <Gold.Version>
5.8.1

> <Gold.Id.Protein>
6NUR|6NUR_protein|mol2

> <Gold.PLP.Fitness>
42.3372

> <Gold.PLP.PLP>
-39.8186

> <Gold.PLP.part.hbond>
-1.0000

> <Gold.PLP.part.metal>
0.0000

> <Gold.PLP.part.buried>
-5.1437

> <Gold.PLP.part.nonpolar>
-34.0003

> <Gold.PLP.part.repulsive>
0.2324

> <Gold.PLP.ligand.clash>
0.0000

> <Gold.PLP.ligand.torsion>
0.2792

> <Gold.PLP.Chemscore.Hbond>
1.0000

> <Gold.PLP.Chemscore.CHOScore>
0.0000

> <Gold.PLP.Chemscore.Metal>
0.0000

> <Gold.Chemscore.Hbonds>
donor molecule, donor type, donor heavy atom, donor atom, acceptor molecule, acceptor atom, score
      P1  H  7997  8010       L1     7  1.00

> <Gold.PLP.Chemscore.Internal.Correction>
0.0771

> <Gold.Rescore>
     Score         DG    S(hbond)    S(metal)    S(lipo)     H(rot)  DE(clash)    DE(int)     intcor
     14.63     -16.47       0.86        0.00      97.02       1.27       0.22       1.62       ----

> <Gold.Chemscore.Fitness>
14.6321

> <Gold.Chemscore.DG>
-16.4695

> <Gold.Chemscore.ZeroCoef>
-5.4800

> <Gold.Chemscore.Hbond>
0.8638

> <Gold.Chemscore.Metal>
0.0000

> <Gold.Chemscore.Lipo>
97.0231

> <Gold.Chemscore.Internal_Hbond>
0.0000

> <Gold.Chemscore.DEClash>
0.2184

> <Gold.Chemscore.DEInternal>
1.6190

> <Gold.Chemscore.Rot>
1.2685

> <Gold.Chemscore.Internal.Correction>
   9.000000E+99

> <Gold.Chemscore.Hbonds>
donor molecule, donor type, donor heavy atom, donor atom, acceptor molecule, acceptor atom, score
      P1  H  7997  8010       L1     7  0.28

> <Gold.Chemscore.Hbond.Weighted>
-2.8852

> <Gold.Chemscore.Metal.Weighted>
-0.0000

> <Gold.Chemscore.Lipo.Weighted>
-11.3517

> <Gold.Chemscore.Internal_Hbond.Weighted>
0.0000

> <Gold.Chemscore.DEClash.Weighted>
0.2184

> <Gold.Chemscore.DEInternal.Weighted>
1.6190

> <Gold.Chemscore.Rot.Weighted>
3.2474

> <Gold.Chemscore.Internal.Correction.Weighted>
   9.000000E+99

> <Gold.Protein.RotatedTorsions>
[ 6907 6896 6895 6894 ] final   24.75 input  -60.11 | X-H torsion
[ 7974 7965 7964 7962 ] final  -32.89 input  175.53 | X-H torsion
[ 8008 7997 7996 7995 ] final   45.98 input   59.86 | X-H torsion
[ 10167 10162 10161 10158 ] final  -16.86 input  -65.29 | X-H torsion
[ 10718 10713 10712 10709 ] final  -28.96 input   66.30 | X-H torsion
[ 10763 10752 10751 10750 ] final  122.48 input  -60.55 | X-H torsion
[ 11005 11000 10999 10996 ] final -100.67 input  -57.11 | X-H torsion

> <Gold.Protein.ActiveResidues>
 VAL166  LYS551  ARG553  GLY616  TRP617  ASP618  TYR619  PRO620  LYS621  CYS622 
 ASP623  PHE694  ASN695  SER759  ASP760  ASP761  ALA762  ILE779  LEU786  VAL792 
 PHE793  MET794  SER795  GLU796  ALA797  LYS798  CYS799  TRP800  GLU811  SER814 

> <Gold.Protein.RotatedAtoms>
  151.9621  135.0118  160.0547 H   0  0  0  0  0  0  0  0  0  0  0  0  # atno 6907 bound_to 6896
  152.1859  133.4734  159.4990 H   0  0  0  0  0  0  0  0  0  0  0  0  # atno 6908 bound_to 6896
  150.6926  134.1692  159.4248 H   0  0  0  0  0  0  0  0  0  0  0  0  # atno 6909 bound_to 6896
  146.0954  140.5848  142.8845 H   0  0  0  0  0  0  0  0  0  0  0  0  # atno 7974 bound_to 7965
  155.3449  140.3410  155.4239 H   0  0  0  0  0  0  0  0  0  0  0  0  # atno 8008 bound_to 7997
  156.1794  140.1659  156.8338 H   0  0  0  0  0  0  0  0  0  0  0  0  # atno 8009 bound_to 7997
  154.5317  140.0744  156.8339 H   0  0  0  0  0  0  0  0  0  0  0  0  # atno 8010 bound_to 7997
  140.7239  143.5073  150.9794 H   0  0  0  0  0  0  0  0  0  0  0  0  # atno 10167 bound_to 10162
  156.4186  130.4422  149.7200 H   0  0  0  0  0  0  0  0  0  0  0  0  # atno 10718 bound_to 10713
  153.6305  135.3397  155.3040 H   0  0  0  0  0  0  0  0  0  0  0  0  # atno 10763 bound_to 10752
  154.8581  135.4294  154.2111 H   0  0  0  0  0  0  0  0  0  0  0  0  # atno 10764 bound_to 10752
  153.3005  135.7024  153.7281 H   0  0  0  0  0  0  0  0  0  0  0  0  # atno 10765 bound_to 10752
  141.1262  133.8417  157.1132 H   0  0  0  0  0  0  0  0  0  0  0  0  # atno 11005 bound_to 11000
  144.7392  140.4894  143.6882 LP  0  0  0  0  0  0  0  0  0  0  0  0  # atno 17320 bound_to 7965
  145.5957  139.1499  143.3157 LP  0  0  0  0  0  0  0  0  0  0  0  0  # atno 17321 bound_to 7965
  139.8785  143.7102  152.3159 LP  0  0  0  0  0  0  0  0  0  0  0  0  # atno 17342 bound_to 10162
  139.7376  144.7567  151.0703 LP  0  0  0  0  0  0  0  0  0  0  0  0  # atno 17343 bound_to 10162
  156.4150  130.7741  151.2756 LP  0  0  0  0  0  0  0  0  0  0  0  0  # atno 17370 bound_to 10713
  157.7508  131.0200  150.3690 LP  0  0  0  0  0  0  0  0  0  0  0  0  # atno 17371 bound_to 10713
  140.0262  134.9923  157.0691 LP  0  0  0  0  0  0  0  0  0  0  0  0  # atno 17394 bound_to 11000
  140.4359  134.1732  155.7170 LP  0  0  0  0  0  0  0  0  0  0  0  0  # atno 17395 bound_to 11000

$$$$
