AV-unprocessed.smi:2140|AV-procd|sdf|8714|dock6
  -GOLD-   2272011483D 1   1.00000     0.00000
 Structure written by MMmdl.
 39 40  0  0  0  0  0  0  0  0  1 V2000
  147.1753  140.2059  153.4528 C   0  0  0  0  0  0  0  0  0  0  0  0
  147.9525  141.4981  153.8119 C   0  0  2  0  0  0  0  0  0  0  0  0
  149.2110  141.1202  154.6440 C   0  0  0  0  0  0  0  0  0  0  0  0
  149.5746  142.1405  155.6253 N   0  0  0  0  0  0  0  0  0  0  0  0
  150.1712  141.9147  156.8049 C   0  0  0  0  0  0  0  0  0  0  0  0
  150.4955  140.7961  157.2021 O   0  0  0  0  0  0  0  0  0  0  0  0
  150.3469  143.0607  157.4847 N   0  0  0  0  0  0  0  0  0  0  0  0
  150.9491  143.2470  158.7580 C   0  0  0  0  0  0  0  0  0  0  0  0
  151.0614  144.5631  159.2510 C   0  0  0  0  0  0  0  0  0  0  0  0
  151.6697  144.7780  160.5021 C   0  0  0  0  0  0  0  0  0  0  0  0
  152.1544  143.6621  161.2113 C   0  0  0  0  0  0  0  0  0  0  0  0
  152.0702  142.3975  160.7478 N   0  0  0  0  0  0  0  0  0  0  0  0
  151.4831  142.1982  159.5477 C   0  0  0  0  0  0  0  0  0  0  0  0
  147.0989  142.5143  154.4729 N   0  0  0  0  0  0  0  0  0  0  0  0
  146.0526  143.0400  153.5877 C   0  0  0  0  0  0  0  0  0  0  0  0
  145.1416  144.0690  154.2792 C   0  0  0  0  0  0  0  0  0  0  0  0
  144.5566  143.4901  155.4370 O   0  0  0  0  0  0  0  0  0  0  0  0
  145.5381  143.0423  156.3612 C   0  0  0  0  0  0  0  0  0  0  0  0
  146.4496  142.0030  155.6859 C   0  0  0  0  0  0  0  0  0  0  0  0
  147.8135  139.4487  153.0000 H   0  0  0  0  0  0  0  0  0  0  0  0
  146.3912  140.3845  152.7187 H   0  0  0  0  0  0  0  0  0  0  0  0
  146.7172  139.7622  154.3373 H   0  0  0  0  0  0  0  0  0  0  0  0
  148.3100  141.9224  152.8722 H   0  0  0  0  0  0  0  0  0  0  0  0
  149.0381  140.2254  155.2382 H   0  0  0  0  0  0  0  0  0  0  0  0
  150.0438  140.8882  153.9782 H   0  0  0  0  0  0  0  0  0  0  0  0
  149.3460  143.0944  155.3874 H   0  0  0  0  0  0  0  0  0  0  0  0
  149.9515  143.8903  157.0673 H   0  0  0  0  0  0  0  0  0  0  0  0
  150.6820  145.3994  158.6819 H   0  0  0  0  0  0  0  0  0  0  0  0
  151.7634  145.7743  160.9082 H   0  0  0  0  0  0  0  0  0  0  0  0
  152.6267  143.7894  162.1742 H   0  0  0  0  0  0  0  0  0  0  0  0
  151.4688  141.1709  159.2185 H   0  0  0  0  0  0  0  0  0  0  0  0
  146.4907  143.5392  152.7258 H   0  0  0  0  0  0  0  0  0  0  0  0
  145.4446  142.2186  153.2056 H   0  0  0  0  0  0  0  0  0  0  0  0
  145.7049  144.9624  154.5530 H   0  0  0  0  0  0  0  0  0  0  0  0
  144.3488  144.3863  153.6019 H   0  0  0  0  0  0  0  0  0  0  0  0
  146.1208  143.8899  156.7255 H   0  0  0  0  0  0  0  0  0  0  0  0
  145.0388  142.6028  157.2249 H   0  0  0  0  0  0  0  0  0  0  0  0
  145.8670  141.1123  155.4464 H   0  0  0  0  0  0  0  0  0  0  0  0
  147.1930  141.7072  156.4239 H   0  0  0  0  0  0  0  0  0  0  0  0
  1  2  1  0  0  0  0
  1 20  1  0  0  0  0
  1 21  1  0  0  0  0
  1 22  1  0  0  0  0
  2  3  1  0  0  0  0
  2 14  1  0  0  0  0
  2 23  1  0  0  0  0
  3  4  1  0  0  0  0
  3 24  1  0  0  0  0
  3 25  1  0  0  0  0
  4  5  1  0  0  0  0
  4 26  1  0  0  0  0
  5  6  2  0  0  0  0
  5  7  1  0  0  0  0
  7  8  1  0  0  0  0
  7 27  1  0  0  0  0
  8 13  1  0  0  0  0
  8  9  2  0  0  0  0
  9 10  1  0  0  0  0
  9 28  1  0  0  0  0
 10 11  2  0  0  0  0
 10 29  1  0  0  0  0
 11 12  1  0  0  0  0
 11 30  1  0  0  0  0
 12 13  2  0  0  0  0
 13 31  1  0  0  0  0
 14 19  1  0  0  0  0
 14 15  1  0  0  0  0
 15 16  1  0  0  0  0
 15 32  1  0  0  0  0
 15 33  1  0  0  0  0
 16 17  1  0  0  0  0
 16 34  1  0  0  0  0
 16 35  1  0  0  0  0
 17 18  1  0  0  0  0
 18 19  1  0  0  0  0
 18 36  1  0  0  0  0
 18 37  1  0  0  0  0
 19 38  1  0  0  0  0
 19 39  1  0  0  0  0
M  END
> <s_m_source_file>
AV-unprocessed.smi

> <i_m_source_file_index>
2140

> <i_lp_mmshare_version>
43012

> <i_f3d_flags>
0

> <s_epik_input>
W0NIMl0xW0NIMl1PW0NIMl1bQ0gyXU4xW0NASF0oW0NIM10pW0NIMl1bTkhdQyg9TylbTkhdYzJbY0hdW2NIXVtjSF1uW2NIXTI=

> <s_epik_cmdline>
J2VwaWtfcHl0aG9uJywgJy1waCcsICc3LjAnLCAnLXRuJywgJzgnLCAnLW1hJywgJzIwMCcsICctbWV0YWxfYmluZGluZycsICctaW1hZScsICc8aW5maWxlLm1hZT4nLCAnLW9tYWUnLCAnPG91dGZpbGUubWFlPic=

> <r_epik_Ionization_Penalty>
0.270748

> <r_epik_Ionization_Penalty_Charging>
0

> <r_epik_Ionization_Penalty_Neutral>
0.270748

> <r_epik_State_Penalty>
0.268258

> <r_epik_Charging_Adjusted_Penalty>
0.268258

> <i_epik_Tot_Q>
0

> <i_epik_Tot_abs_Q>
0

> <r_epik_Metal_State_Penalty>
0.264828

> <b_epik_Metal_Only>
0

> <s_lp_Force_Field>
OPLS_2005

> <r_lp_Energy>
32.9676

> <b_lp_Chiralities_Consistent>
1

> <s_lp_Variant>
AV-unprocessed.smi:2140-1

> <Gold.Version>
5.8.1

> <Gold.Id.Protein>
6NUR|6NUR_protein|mol2

> <Gold.PLP.Fitness>
44.1060

> <Gold.PLP.PLP>
-39.5252

> <Gold.PLP.part.hbond>
-2.0000

> <Gold.PLP.part.metal>
0.0000

> <Gold.PLP.part.buried>
-7.4626

> <Gold.PLP.part.nonpolar>
-30.9301

> <Gold.PLP.part.repulsive>
0.7959

> <Gold.PLP.ligand.clash>
0.0000

> <Gold.PLP.ligand.torsion>
0.7221

> <Gold.PLP.Chemscore.Hbond>
2.0000

> <Gold.PLP.Chemscore.CHOScore>
0.0000

> <Gold.PLP.Chemscore.Metal>
0.0000

> <Gold.Chemscore.Hbonds>
donor molecule, donor type, donor heavy atom, donor atom, acceptor molecule, acceptor atom, score
      L1  H     4    26       P1  8028  1.00
      L1  H     7    27       P1  8028  1.00

> <Gold.PLP.Chemscore.Internal.Correction>
0.0251

> <Gold.Rescore>
     Score         DG    S(hbond)    S(metal)    S(lipo)     H(rot)  DE(clash)    DE(int)     intcor
     17.57     -19.61       1.92        0.00      98.13       1.47       0.02       2.02       ----

> <Gold.Chemscore.Fitness>
17.5730

> <Gold.Chemscore.DG>
-19.6137

> <Gold.Chemscore.ZeroCoef>
-5.4800

> <Gold.Chemscore.Hbond>
1.9222

> <Gold.Chemscore.Metal>
0.0000

> <Gold.Chemscore.Lipo>
98.1342

> <Gold.Chemscore.Internal_Hbond>
0.0000

> <Gold.Chemscore.DEClash>
0.0195

> <Gold.Chemscore.DEInternal>
2.0211

> <Gold.Chemscore.Rot>
1.4719

> <Gold.Chemscore.Internal.Correction>
   9.000000E+99

> <Gold.Chemscore.Hbonds>
donor molecule, donor type, donor heavy atom, donor atom, acceptor molecule, acceptor atom, score
      L1  H     4    26       P1  8028  0.99
      L1  H     7    27       P1  8028  0.88

> <Gold.Chemscore.Hbond.Weighted>
-6.4201

> <Gold.Chemscore.Metal.Weighted>
-0.0000

> <Gold.Chemscore.Lipo.Weighted>
-11.4817

> <Gold.Chemscore.Internal_Hbond.Weighted>
0.0000

> <Gold.Chemscore.DEClash.Weighted>
0.0195

> <Gold.Chemscore.DEInternal.Weighted>
2.0211

> <Gold.Chemscore.Rot.Weighted>
3.7681

> <Gold.Chemscore.Internal.Correction.Weighted>
   9.000000E+99

> <Gold.Protein.RotatedTorsions>
[ 6907 6896 6895 6894 ] final  -82.01 input  -60.11 | X-H torsion
[ 7974 7965 7964 7962 ] final -144.31 input  175.53 | X-H torsion
[ 8008 7997 7996 7995 ] final  -96.92 input   59.86 | X-H torsion
[ 10167 10162 10161 10158 ] final   10.63 input  -65.29 | X-H torsion
[ 10718 10713 10712 10709 ] final   41.50 input   66.30 | X-H torsion
[ 10763 10752 10751 10750 ] final  169.39 input  -60.55 | X-H torsion
[ 11005 11000 10999 10996 ] final   31.11 input  -57.11 | X-H torsion

> <Gold.Protein.ActiveResidues>
 VAL166  LYS551  ARG553  GLY616  TRP617  ASP618  TYR619  PRO620  LYS621  CYS622 
 ASP623  PHE694  ASN695  SER759  ASP760  ASP761  ALA762  ILE779  LEU786  VAL792 
 PHE793  MET794  SER795  GLU796  ALA797  LYS798  CYS799  TRP800  GLU811  SER814 

> <Gold.Protein.RotatedAtoms>
  150.6903  134.3730  159.5000 H   0  0  0  0  0  0  0  0  0  0  0  0  # atno 6907 bound_to 6896
  152.1543  134.8961  160.0555 H   0  0  0  0  0  0  0  0  0  0  0  0  # atno 6908 bound_to 6896
  152.0046  133.3803  159.4232 H   0  0  0  0  0  0  0  0  0  0  0  0  # atno 6909 bound_to 6896
  144.8306  140.5726  143.5517 H   0  0  0  0  0  0  0  0  0  0  0  0  # atno 7974 bound_to 7965
  154.7809  140.0467  157.1126 H   0  0  0  0  0  0  0  0  0  0  0  0  # atno 8008 bound_to 7997
  154.9706  140.3089  155.4970 H   0  0  0  0  0  0  0  0  0  0  0  0  # atno 8009 bound_to 7997
  156.2936  140.2254  156.4799 H   0  0  0  0  0  0  0  0  0  0  0  0  # atno 8010 bound_to 7997
  140.6182  143.8262  150.7143 H   0  0  0  0  0  0  0  0  0  0  0  0  # atno 10167 bound_to 10162
  157.3942  130.7823  149.7294 H   0  0  0  0  0  0  0  0  0  0  0  0  # atno 10718 bound_to 10713
  154.3824  135.2753  155.2203 H   0  0  0  0  0  0  0  0  0  0  0  0  # atno 10763 bound_to 10752
  154.4304  135.5978  153.6069 H   0  0  0  0  0  0  0  0  0  0  0  0  # atno 10764 bound_to 10752
  152.9834  135.5994  154.4069 H   0  0  0  0  0  0  0  0  0  0  0  0  # atno 10765 bound_to 10752
  140.2873  134.2904  155.7785 H   0  0  0  0  0  0  0  0  0  0  0  0  # atno 11005 bound_to 11000
  145.4903  139.1489  143.3713 LP  0  0  0  0  0  0  0  0  0  0  0  0  # atno 17320 bound_to 7965
  146.2609  140.5041  142.8854 LP  0  0  0  0  0  0  0  0  0  0  0  0  # atno 17321 bound_to 7965
  140.1846  143.4086  152.1908 LP  0  0  0  0  0  0  0  0  0  0  0  0  # atno 17342 bound_to 10162
  139.5416  144.7262  151.4715 LP  0  0  0  0  0  0  0  0  0  0  0  0  # atno 17343 bound_to 10162
  155.9806  130.4028  150.3519 LP  0  0  0  0  0  0  0  0  0  0  0  0  # atno 17370 bound_to 10713
  157.1639  131.0352  151.2828 LP  0  0  0  0  0  0  0  0  0  0  0  0  # atno 17371 bound_to 10713
  141.2152  133.7563  156.9571 LP  0  0  0  0  0  0  0  0  0  0  0  0  # atno 17394 bound_to 11000
  140.1228  134.9406  157.2227 LP  0  0  0  0  0  0  0  0  0  0  0  0  # atno 17395 bound_to 11000

$$$$
