AV-unprocessed.smi:1432|AV-procd|sdf|5833|dock1
  -GOLD-   22720 5493D 1   1.00000     0.00000
 Structure written by MMmdl.
 47 48  0  0  0  0  0  0  0  0  2 V2000
  145.7547  140.2695  157.0440 C   0  0  0  0  0  0  0  0  0  0  0  0
  146.2850  141.7196  157.0171 C   0  0  2  0  0  0  0  0  0  0  0  0
  145.1540  142.7552  156.8440 C   0  0  0  0  0  0  0  0  0  0  0  0
  144.5912  142.7626  155.4151 C   0  0  0  0  0  0  0  0  0  0  0  0
  145.7265  142.9635  154.4041 C   0  0  0  0  0  0  0  0  0  0  0  0
  146.8387  141.9201  154.6006 C   0  0  0  0  0  0  0  0  0  0  0  0
  147.3538  141.9426  155.9972 N   0  3  2  0  0  0  0  0  0  0  0  0
  148.5599  141.0996  156.2029 C   0  0  0  0  0  0  0  0  0  0  0  0
  149.7895  141.6481  155.4542 C   0  0  0  0  0  0  0  0  0  0  0  0
  150.5194  142.6203  156.2594 N   0  0  0  0  0  0  0  0  0  0  0  0
  151.1346  142.3478  157.4201 C   0  0  0  0  0  0  0  0  0  0  0  0
  151.1654  141.2200  157.9145 O   0  0  0  0  0  0  0  0  0  0  0  0
  151.8344  143.5290  158.1071 C   0  0  0  0  0  0  0  0  0  0  0  0
  152.5067  143.1552  159.3631 N   0  0  0  0  0  0  0  0  0  0  0  0
  153.4581  142.1180  159.2991 C   0  0  0  0  0  0  0  0  0  0  0  0
  154.1277  141.6701  160.3783 C   0  0  0  0  0  0  0  0  0  0  0  0
  155.1843  140.5817  160.2694 C   0  0  0  0  0  0  0  0  0  0  0  0
  155.7429  140.3342  161.4544 F   0  0  0  0  0  0  0  0  0  0  0  0
  154.6288  139.4539  159.8283 F   0  0  0  0  0  0  0  0  0  0  0  0
  156.1482  140.9306  159.4164 F   0  0  0  0  0  0  0  0  0  0  0  0
  153.8492  142.3394  161.6339 C   0  0  0  0  0  0  0  0  0  0  0  0
  152.9468  143.3367  161.7115 C   0  0  0  0  0  0  0  0  0  0  0  0
  152.2061  143.7937  160.5336 C   0  0  0  0  0  0  0  0  0  0  0  0
  151.3680  144.6936  160.5942 O   0  0  0  0  0  0  0  0  0  0  0  0
  144.9939  140.1536  157.8161 H   0  0  0  0  0  0  0  0  0  0  0  0
  146.5449  139.5535  157.2700 H   0  0  0  0  0  0  0  0  0  0  0  0
  145.3011  139.9746  156.0982 H   0  0  0  0  0  0  0  0  0  0  0  0
  146.7326  141.9103  157.9939 H   0  0  0  0  0  0  0  0  0  0  0  0
  144.3535  142.5667  157.5604 H   0  0  0  0  0  0  0  0  0  0  0  0
  145.5396  143.7486  157.0783 H   0  0  0  0  0  0  0  0  0  0  0  0
  144.0722  141.8258  155.2097 H   0  0  0  0  0  0  0  0  0  0  0  0
  143.8499  143.5551  155.3084 H   0  0  0  0  0  0  0  0  0  0  0  0
  145.3353  142.9045  153.3878 H   0  0  0  0  0  0  0  0  0  0  0  0
  146.1427  143.9654  154.5168 H   0  0  0  0  0  0  0  0  0  0  0  0
  146.4737  140.9236  154.3497 H   0  0  0  0  0  0  0  0  0  0  0  0
  147.6428  142.1368  153.8986 H   0  0  0  0  0  0  0  0  0  0  0  0
  148.7916  141.0691  157.2686 H   0  0  0  0  0  0  0  0  0  0  0  0
  148.3524  140.0718  155.9016 H   0  0  0  0  0  0  0  0  0  0  0  0
  150.4848  140.8464  155.2093 H   0  0  0  0  0  0  0  0  0  0  0  0
  149.4907  142.0994  154.5065 H   0  0  0  0  0  0  0  0  0  0  0  0
  150.5430  143.5719  155.9210 H   0  0  0  0  0  0  0  0  0  0  0  0
  152.5484  143.9571  157.4024 H   0  0  0  0  0  0  0  0  0  0  0  0
  151.1087  144.3230  158.2937 H   0  0  0  0  0  0  0  0  0  0  0  0
  153.6058  141.7032  158.3124 H   0  0  0  0  0  0  0  0  0  0  0  0
  154.3692  142.0329  162.5295 H   0  0  0  0  0  0  0  0  0  0  0  0
  152.7624  143.8109  162.6645 H   0  0  0  0  0  0  0  0  0  0  0  0
  147.6650  142.8903  156.1574 H   0  0  0  0  0  0  0  0  0  0  0  0
  1  2  1  0  0  0  0
  1 25  1  0  0  0  0
  1 26  1  0  0  0  0
  1 27  1  0  0  0  0
  2  7  1  0  0  0  0
  2  3  1  0  0  0  0
  2 28  1  0  0  0  0
  3  4  1  0  0  0  0
  3 29  1  0  0  0  0
  3 30  1  0  0  0  0
  4  5  1  0  0  0  0
  4 31  1  0  0  0  0
  4 32  1  0  0  0  0
  5  6  1  0  0  0  0
  5 33  1  0  0  0  0
  5 34  1  0  0  0  0
  6  7  1  0  0  0  0
  6 35  1  0  0  0  0
  6 36  1  0  0  0  0
  7  8  1  0  0  0  0
  7 47  1  0  0  0  0
  8  9  1  0  0  0  0
  8 37  1  0  0  0  0
  8 38  1  0  0  0  0
  9 10  1  0  0  0  0
  9 39  1  0  0  0  0
  9 40  1  0  0  0  0
 10 11  1  0  0  0  0
 10 41  1  0  0  0  0
 11 12  2  0  0  0  0
 11 13  1  0  0  0  0
 13 14  1  0  0  0  0
 13 42  1  0  0  0  0
 13 43  1  0  0  0  0
 14 23  1  0  0  0  0
 14 15  1  0  0  0  0
 15 16  2  0  0  0  0
 15 44  1  0  0  0  0
 16 17  1  0  0  0  0
 16 21  1  0  0  0  0
 17 18  1  0  0  0  0
 17 19  1  0  0  0  0
 17 20  1  0  0  0  0
 21 22  2  0  0  0  0
 21 45  1  0  0  0  0
 22 23  1  0  0  0  0
 22 46  1  0  0  0  0
 23 24  2  0  0  0  0
M  CHG  1   7   1
M  END
> <s_m_source_file>
AV-unprocessed.smi

> <i_m_source_file_index>
1432

> <i_lp_mmshare_version>
43012

> <i_f3d_flags>
0

> <s_epik_input>
W0NIM11bQ0BASF0xW0NIMl1bQ0gyXVtDSDJdW0NIMl1OMVtDSDJdW0NIMl1bTkhdQyg9TylbQ0gyXW4yW2NIXWMoQyhGKShGKUYpW2NIXVtjSF1jMj1P

> <s_epik_cmdline>
J2VwaWtfcHl0aG9uJywgJy1waCcsICc3LjAnLCAnLXRuJywgJzgnLCAnLW1hJywgJzIwMCcsICctbWV0YWxfYmluZGluZycsICctaW1hZScsICc8aW5maWxlLm1hZT4nLCAnLW9tYWUnLCAnPG91dGZpbGUubWFlPic=

> <r_lp_tautomer_probability>
1

> <r_epik_Ionization_Penalty>
0.00237222

> <r_epik_Ionization_Penalty_Charging>
0.00237213

> <r_epik_Ionization_Penalty_Neutral>
8.2065e-08

> <r_epik_State_Penalty>
0.00163922

> <r_epik_Charging_Adjusted_Penalty>
0.00401135

> <i_epik_Tot_Q>
1

> <i_epik_Tot_abs_Q>
1

> <r_epik_Metal_State_Penalty>
-0

> <b_epik_Metal_Only>
0

> <s_lp_Force_Field>
OPLS_2005

> <r_lp_Energy>
31.3892

> <b_lp_Chiralities_Consistent>
1

> <s_lp_Variant>
AV-unprocessed.smi:1432-3

> <Gold.Version>
5.8.1

> <Gold.Id.Protein>
6NUR|6NUR_protein|mol2

> <Gold.PLP.Fitness>
62.9833

> <Gold.PLP.PLP>
-56.9825

> <Gold.PLP.part.hbond>
-2.0000

> <Gold.PLP.part.metal>
0.0000

> <Gold.PLP.part.buried>
-7.2919

> <Gold.PLP.part.nonpolar>
-48.1793

> <Gold.PLP.part.repulsive>
0.3716

> <Gold.PLP.ligand.clash>
0.0000

> <Gold.PLP.ligand.torsion>
0.2977

> <Gold.PLP.Chemscore.Hbond>
2.1404

> <Gold.PLP.Chemscore.CHOScore>
0.0000

> <Gold.PLP.Chemscore.Metal>
0.0000

> <Gold.Chemscore.Hbonds>
donor molecule, donor type, donor heavy atom, donor atom, acceptor molecule, acceptor atom, score
      L1  H     7    47       P1  8028  1.01
      L1  H    10    41       P1  8028  0.50

> <Gold.PLP.Chemscore.Internal.Correction>
0.1751

> <Gold.Rescore>
     Score         DG    S(hbond)    S(metal)    S(lipo)     H(rot)  DE(clash)    DE(int)     intcor
     13.06     -14.77       0.90        0.00      99.04       2.08       0.14       1.56       ----

> <Gold.Chemscore.Fitness>
13.0590

> <Gold.Chemscore.DG>
-14.7654

> <Gold.Chemscore.ZeroCoef>
-5.4800

> <Gold.Chemscore.Hbond>
0.9020

> <Gold.Chemscore.Metal>
0.0000

> <Gold.Chemscore.Lipo>
99.0414

> <Gold.Chemscore.Internal_Hbond>
0.0000

> <Gold.Chemscore.DEClash>
0.1418

> <Gold.Chemscore.DEInternal>
1.5646

> <Gold.Chemscore.Rot>
2.0762

> <Gold.Chemscore.Internal.Correction>
   9.000000E+99

> <Gold.Chemscore.Hbonds>
donor molecule, donor type, donor heavy atom, donor atom, acceptor molecule, acceptor atom, score
      L1  H     7    47       P1  8028  0.12
      L1  H    10    41       P1  8028  0.47

> <Gold.Chemscore.Hbond.Weighted>
-3.0126

> <Gold.Chemscore.Metal.Weighted>
-0.0000

> <Gold.Chemscore.Lipo.Weighted>
-11.5878

> <Gold.Chemscore.Internal_Hbond.Weighted>
0.0000

> <Gold.Chemscore.DEClash.Weighted>
0.1418

> <Gold.Chemscore.DEInternal.Weighted>
1.5646

> <Gold.Chemscore.Rot.Weighted>
5.3150

> <Gold.Chemscore.Internal.Correction.Weighted>
   9.000000E+99

> <Gold.Protein.RotatedTorsions>
[ 6907 6896 6895 6894 ] final  -50.10 input  -60.11 | X-H torsion
[ 7974 7965 7964 7962 ] final  124.94 input  175.53 | X-H torsion
[ 8008 7997 7996 7995 ] final  -22.83 input   59.86 | X-H torsion
[ 10167 10162 10161 10158 ] final  103.02 input  -65.29 | X-H torsion
[ 10718 10713 10712 10709 ] final   26.11 input   66.30 | X-H torsion
[ 10763 10752 10751 10750 ] final -176.04 input  -60.55 | X-H torsion
[ 11005 11000 10999 10996 ] final  137.46 input  -57.11 | X-H torsion

> <Gold.Protein.ActiveResidues>
 VAL166  LYS551  ARG553  GLY616  TRP617  ASP618  TYR619  PRO620  LYS621  CYS622 
 ASP623  PHE694  ASN695  SER759  ASP760  ASP761  ALA762  ILE779  LEU786  VAL792 
 PHE793  MET794  SER795  GLU796  ALA797  LYS798  CYS799  TRP800  GLU811  SER814 

> <Gold.Protein.RotatedAtoms>
  150.8740  134.8119  159.7175 H   0  0  0  0  0  0  0  0  0  0  0  0  # atno 6907 bound_to 6896
  152.4734  134.4902  159.9702 H   0  0  0  0  0  0  0  0  0  0  0  0  # atno 6908 bound_to 6896
  151.4986  133.3471  159.2900 H   0  0  0  0  0  0  0  0  0  0  0  0  # atno 6909 bound_to 6896
  145.0786  139.3674  143.4920 H   0  0  0  0  0  0  0  0  0  0  0  0  # atno 7974 bound_to 7965
  154.4621  140.1997  156.0217 H   0  0  0  0  0  0  0  0  0  0  0  0  # atno 8008 bound_to 7997
  156.0859  140.3265  155.7724 H   0  0  0  0  0  0  0  0  0  0  0  0  # atno 8009 bound_to 7997
  155.5036  140.0556  157.2926 H   0  0  0  0  0  0  0  0  0  0  0  0  # atno 8010 bound_to 7997
  139.7299  144.7038  151.0739 H   0  0  0  0  0  0  0  0  0  0  0  0  # atno 10167 bound_to 10162
  157.2025  130.6896  149.6194 H   0  0  0  0  0  0  0  0  0  0  0  0  # atno 10718 bound_to 10713
  154.5771  135.2833  155.0770 H   0  0  0  0  0  0  0  0  0  0  0  0  # atno 10763 bound_to 10752
  154.2120  135.6406  153.5122 H   0  0  0  0  0  0  0  0  0  0  0  0  # atno 10764 bound_to 10752
  153.0076  135.5494  154.6413 H   0  0  0  0  0  0  0  0  0  0  0  0  # atno 10765 bound_to 10752
  140.0116  134.9436  157.0289 H   0  0  0  0  0  0  0  0  0  0  0  0  # atno 11005 bound_to 11000
  146.3530  140.0566  142.8632 LP  0  0  0  0  0  0  0  0  0  0  0  0  # atno 17320 bound_to 7965
  145.1205  140.9459  143.4603 LP  0  0  0  0  0  0  0  0  0  0  0  0  # atno 17321 bound_to 7965
  140.7769  143.5057  150.9715 LP  0  0  0  0  0  0  0  0  0  0  0  0  # atno 17342 bound_to 10162
  139.8745  143.7150  152.3163 LP  0  0  0  0  0  0  0  0  0  0  0  0  # atno 17343 bound_to 10162
  155.9699  130.4578  150.5976 LP  0  0  0  0  0  0  0  0  0  0  0  0  # atno 17370 bound_to 10713
  157.3753  131.0772  151.1523 LP  0  0  0  0  0  0  0  0  0  0  0  0  # atno 17371 bound_to 10713
  140.4545  134.1548  155.7185 LP  0  0  0  0  0  0  0  0  0  0  0  0  # atno 17394 bound_to 11000
  141.1715  133.8600  157.1557 LP  0  0  0  0  0  0  0  0  0  0  0  0  # atno 17395 bound_to 11000

$$$$
