#       Name:                AV-unprocessed.smi:157
#       Creating user name   scv26
#       Creation time:       Thu Mar 26 18:59:51 2020


#       File generated by GOLD software.
#

@<TRIPOS>MOLECULE
AV-unprocessed.smi:157
    45    47     1
SMALL
NO_CHARGES


@<TRIPOS>ATOM
      1 ****        -4.3999   2.4145   0.4485 O.3            1 S1                 0.0000
      2 ****        -3.8474   1.1730   0.8313 C.3            1 S1                 0.0000
      3 ****        -2.3126   1.2208   0.7358 C.3            1 S1                 0.0000
      4 ****        -1.7434  -0.0670   0.9679 O.3            1 S1                 0.0000
      5 ****        -0.5544   0.0543   1.6889 C.3            1 S1                 0.0000
      6 ****         0.5149  -0.7154   0.9818 N.pl3          1 S1                 0.0000
      7 ****         1.3341  -1.6175   1.5599 C.2            1 S1                 0.0000
      8 ****         2.1941  -2.1852   0.7316 N.pl3          1 S1                 1.0000
      9 ****         1.9521  -1.6450  -0.5134 C.2            1 S1                 0.0000
     10 ****         0.9121  -0.7281  -0.3385 C.2            1 S1                 0.0000
     11 ****         0.2807   0.0979  -1.2814 N.2            1 S1                 0.0000
     12 ****         0.7785   0.3485  -2.4483 C.2            1 S1                 0.0000
     13 ****         1.9156  -0.1721  -3.0430 N.pl3          1 S1                 0.0000
     14 ****         2.2295  -1.5897  -3.0424 C.3            1 S1                 0.0000
     15 ****         2.7498  -2.1042  -1.6939 C.3            1 S1                 0.0000
     16 ****         4.1193  -1.7760  -1.5835 O.3            1 S1                 0.0000
     17 ****        -0.2081   1.5422   1.7670 C.3            1 S1                 0.0000
     18 ****        -1.5831   2.1726   1.6981 C.3            1 S1                 0.0000
     19 ****        -2.1790   2.2088   2.9815 O.3            1 S1                 0.0000
     20 ****        -2.0344   1.4928  -0.2837 H              1 S1                 0.0000
     21 ****        -0.6644  -0.4139   2.6682 H              1 S1                 0.0000
     22 ****         2.7044  -3.1935  -1.7186 H              1 S1                 0.0000
     23 ****        -1.5445   3.1899   1.3076 H              1 S1                 0.0000
     24 ****        -5.3422   2.3452   0.4758 H              1 S1                 0.0000
     25 ****        -4.1809   0.9128   1.8361 H              1 S1                 0.0000
     26 ****        -4.2354   0.4059   0.1608 H              1 S1                 0.0000
     27 ****         1.2862  -1.8538   2.6079 H              1 S1                 0.0000
     28 ****         0.2650   1.0576  -3.0993 H              1 S1                 0.0000
     29 ****         2.2849   0.2872  -3.8636 H              1 S1                 0.0000
     30 ****         1.3140  -2.1265  -3.2958 H              1 S1                 0.0000
     31 ****         2.9392  -1.8094  -3.8407 H              1 S1                 0.0000
     32 ****         4.4817  -2.2311  -0.8391 H              1 S1                 0.0000
     33 ****         0.3537   1.7760   2.6720 H              1 S1                 0.0000
     34 ****         0.3823   1.8367   0.8986 H              1 S1                 0.0000
     35 ****        -3.0452   2.5782   2.8983 H              1 S1                 0.0000
     36 ****         2.8843  -2.8865   0.9686 H              1 S1                 0.0000
     37 ****        -4.1054   2.6429  -0.4795 LP             1 S1                 0.0000
     38 ****        -4.0959   3.1279   1.0798 LP             1 S1                 0.0000
     39 ****        -1.5541  -0.5075   0.0903 LP             1 S1                 0.0000
     40 ****        -2.3899  -0.6249   1.4883 LP             1 S1                 0.0000
     41 ****        -0.5965   0.5126  -1.0392 LP             1 S1                 0.0000
     42 ****         4.2193  -0.7893  -1.4558 LP             1 S1                 0.0000
     43 ****         4.6000  -2.0549  -2.4149 LP             1 S1                 0.0000
     44 ****        -1.6277   2.7754   3.5939 LP             1 S1                 0.0000
     45 ****        -2.2414   1.2817   3.3511 LP             1 S1                 0.0000
@<TRIPOS>BOND
    1    1    2 1     
    2    1   24 1     
    3    2    3 1     
    4    2   25 1     
    5    2   26 1     
    6    3   20 1     
    7    3   18 1     
    8    3    4 1     
    9    4    5 1     
   10    5   21 1     
   11    5    6 1     
   12    5   17 1     
   13    6   10 1     
   14    6    7 1     
   15    7    8 2     
   16    7   27 1     
   17    8    9 1     
   18    8   36 1     
   19    9   15 1     
   20    9   10 2     
   21   10   11 1     
   22   11   12 2     
   23   12   13 1     
   24   12   28 1     
   25   13   14 1     
   26   13   29 1     
   27   14   15 1     
   28   14   30 1     
   29   14   31 1     
   30   15   22 1     
   31   15   16 1     
   32   16   32 1     
   33   17   18 1     
   34   17   33 1     
   35   17   34 1     
   36   18   23 1     
   37   18   19 1     
   38   19   35 1     
   39    1   37 1     
   40    1   38 1     
   41    4   39 1     
   42    4   40 1     
   43   11   41 1     
   44   16   42 1     
   45   16   43 1     
   46   19   44 1     
   47   19   45 1     
@<TRIPOS>SUBSTRUCTURE
      1 S1             1
@<TRIPOS>SET
LONE_PAIRS      STATIC     ATOMS    <user>   **** ""
9 37 38 39 40 41 42 43 44 45
DONOR_HYDROGENS      STATIC     ATOMS    <user>   **** ""
5 24 36 29 32 35
ATOM$BLUE        STATIC     ATOMS    COLORGROUP SYSTEM
9 37 38 39 40 41 42 43 44 45
ATOM$RED        STATIC     ATOMS    COLORGROUP SYSTEM
5 24 36 29 32 35
