AV-unprocessed.smi:1230|AV-procd|sdf|5156|dock7
  -GOLD-   22720 4233D 1   1.00000     0.00000
 Structure written by MMmdl.
 39 40  0  0  0  0  0  0  0  0  1 V2000
  153.3636  141.3279  160.5436 C   0  0  0  0  0  0  0  0  0  0  0  0
  153.0252  142.3962  159.4907 C   0  0  2  0  0  0  0  0  0  0  0  0
  152.5766  143.7055  160.1711 C   0  0  0  0  0  0  0  0  0  0  0  0
  152.2224  144.7904  159.1433 C   0  0  0  0  0  0  0  0  0  0  0  0
  151.1467  144.2938  158.1681 C   0  0  0  0  0  0  0  0  0  0  0  0
  151.5889  142.9974  157.4740 C   0  0  0  0  0  0  0  0  0  0  0  0
  151.9500  141.8994  158.4974 C   0  0  1  0  0  0  0  0  0  0  0  0
  152.4765  140.7665  157.8168 O   0  0  0  0  0  0  0  0  0  0  0  0
  151.5005  139.9532  157.1843 C   0  0  0  0  0  0  0  0  0  0  0  0
  151.7331  140.0080  155.6670 C   0  0  0  0  0  0  0  0  0  0  0  0
  150.5070  139.9647  154.9102 N   0  0  0  0  0  0  0  0  0  0  0  0
  149.6139  141.0247  154.8807 C   0  0  0  0  0  0  0  0  0  0  0  0
  148.4688  140.9985  154.1585 C   0  0  0  0  0  0  0  0  0  0  0  0
  147.5605  142.0969  154.1371 C   0  0  0  0  0  0  0  0  0  0  0  0
  146.8307  142.9941  154.0959 N   0  0  0  0  0  0  0  0  0  0  0  0
  148.1167  139.8268  153.3583 C   0  0  0  0  0  0  0  0  0  0  0  0
  147.1031  139.7045  152.6731 O   0  0  0  0  0  0  0  0  0  0  0  0
  149.0523  138.7886  153.4144 N   0  0  0  0  0  0  0  0  0  0  0  0
  150.2385  138.8012  154.1513 C   0  0  0  0  0  0  0  0  0  0  0  0
  150.9930  137.8291  154.1158 O   0  0  0  0  0  0  0  0  0  0  0  0
  148.8545  137.9594  152.8731 H   0  0  0  0  0  0  0  0  0  0  0  0
  152.4849  141.0573  161.1296 H   0  0  0  0  0  0  0  0  0  0  0  0
  154.1270  141.6864  161.2345 H   0  0  0  0  0  0  0  0  0  0  0  0
  153.7463  140.4187  160.0794 H   0  0  0  0  0  0  0  0  0  0  0  0
  153.9359  142.6071  158.9278 H   0  0  0  0  0  0  0  0  0  0  0  0
  151.7109  143.5128  160.8062 H   0  0  0  0  0  0  0  0  0  0  0  0
  153.3647  144.0726  160.8296 H   0  0  0  0  0  0  0  0  0  0  0  0
  151.8747  145.6882  159.6551 H   0  0  0  0  0  0  0  0  0  0  0  0
  153.1169  145.0764  158.5886 H   0  0  0  0  0  0  0  0  0  0  0  0
  150.2143  144.1211  158.7070 H   0  0  0  0  0  0  0  0  0  0  0  0
  150.9366  145.0618  157.4234 H   0  0  0  0  0  0  0  0  0  0  0  0
  150.7934  142.6589  156.8108 H   0  0  0  0  0  0  0  0  0  0  0  0
  152.4519  143.2026  156.8391 H   0  0  0  0  0  0  0  0  0  0  0  0
  151.0600  141.6201  159.0649 H   0  0  0  0  0  0  0  0  0  0  0  0
  151.5900  138.9243  157.5363 H   0  0  0  0  0  0  0  0  0  0  0  0
  150.4963  140.2986  157.4288 H   0  0  0  0  0  0  0  0  0  0  0  0
  152.2846  140.8988  155.3583 H   0  0  0  0  0  0  0  0  0  0  0  0
  152.3250  139.1525  155.3379 H   0  0  0  0  0  0  0  0  0  0  0  0
  149.8371  141.9133  155.4545 H   0  0  0  0  0  0  0  0  0  0  0  0
  1  2  1  0  0  0  0
  1 22  1  0  0  0  0
  1 23  1  0  0  0  0
  1 24  1  0  0  0  0
  2  7  1  0  0  0  0
  2  3  1  0  0  0  0
  2 25  1  0  0  0  0
  3  4  1  0  0  0  0
  3 26  1  0  0  0  0
  3 27  1  0  0  0  0
  4  5  1  0  0  0  0
  4 28  1  0  0  0  0
  4 29  1  0  0  0  0
  5  6  1  0  0  0  0
  5 30  1  0  0  0  0
  5 31  1  0  0  0  0
  6  7  1  0  0  0  0
  6 32  1  0  0  0  0
  6 33  1  0  0  0  0
  7  8  1  0  0  0  0
  7 34  1  0  0  0  0
  8  9  1  0  0  0  0
  9 10  1  0  0  0  0
  9 35  1  0  0  0  0
  9 36  1  0  0  0  0
 10 11  1  0  0  0  0
 10 37  1  0  0  0  0
 10 38  1  0  0  0  0
 11 19  1  0  0  0  0
 11 12  1  0  0  0  0
 12 13  2  0  0  0  0
 12 39  1  0  0  0  0
 13 14  1  0  0  0  0
 13 16  1  0  0  0  0
 14 15  3  0  0  0  0
 16 17  2  0  0  0  0
 16 18  1  0  0  0  0
 18 21  1  0  0  0  0
 18 19  1  0  0  0  0
 19 20  2  0  0  0  0
M  END
> <s_m_source_file>
AV-unprocessed.smi

> <i_m_source_file_index>
1230

> <i_lp_mmshare_version>
43012

> <i_f3d_flags>
0

> <s_epik_input>
W0NIM11bQ0BASF0xW0NIMl1bQ0gyXVtDSDJdW0NIMl1bQ0BIXTFPW0NIMl1bQ0gyXW4yW2NIXWMoQyNOKWMoPU8pW25IXWMyPU8=

> <s_epik_cmdline>
J2VwaWtfcHl0aG9uJywgJy1waCcsICc3LjAnLCAnLXRuJywgJzgnLCAnLW1hJywgJzIwMCcsICctbWV0YWxfYmluZGluZycsICctaW1hZScsICc8aW5maWxlLm1hZT4nLCAnLW9tYWUnLCAnPG91dGZpbGUubWFlPic=

> <r_epik_Ionization_Penalty>
0.421541

> <r_epik_Ionization_Penalty_Charging>
0.421541

> <r_epik_Ionization_Penalty_Neutral>
2.29267e-11

> <r_epik_State_Penalty>
0.422277

> <r_epik_Charging_Adjusted_Penalty>
0.843818

> <i_epik_Tot_Q>
0

> <i_epik_Tot_abs_Q>
0

> <r_epik_Metal_State_Penalty>
4.11629

> <b_epik_Metal_Only>
0

> <s_lp_Force_Field>
OPLS_2005

> <r_lp_Energy>
13.3679

> <b_lp_Chiralities_Consistent>
1

> <s_lp_Variant>
AV-unprocessed.smi:1230-5

> <Gold.Version>
5.8.1

> <Gold.Id.Protein>
6NUR|6NUR_protein|mol2

> <Gold.PLP.Fitness>
48.3332

> <Gold.PLP.PLP>
-46.3034

> <Gold.PLP.part.hbond>
-2.7055

> <Gold.PLP.part.metal>
0.0000

> <Gold.PLP.part.buried>
-1.8913

> <Gold.PLP.part.nonpolar>
-42.2522

> <Gold.PLP.part.repulsive>
0.9657

> <Gold.PLP.ligand.clash>
0.0000

> <Gold.PLP.ligand.torsion>
0.8508

> <Gold.PLP.Chemscore.Hbond>
1.2392

> <Gold.PLP.Chemscore.CHOScore>
0.0000

> <Gold.PLP.Chemscore.Metal>
0.0000

> <Gold.Chemscore.Hbonds>
donor molecule, donor type, donor heavy atom, donor atom, acceptor molecule, acceptor atom, score
      L1  H    18    21       P1  7948  1.00
      P1  H  7997  8009       L1     8  0.23

> <Gold.PLP.Chemscore.Internal.Correction>
0.0138

> <Gold.Rescore>
     Score         DG    S(hbond)    S(metal)    S(lipo)     H(rot)  DE(clash)    DE(int)     intcor
     15.91     -16.74       1.20        0.00     104.34       1.94       0.17       0.66       ----

> <Gold.Chemscore.Fitness>
15.9059

> <Gold.Chemscore.DG>
-16.7359

> <Gold.Chemscore.ZeroCoef>
-5.4800

> <Gold.Chemscore.Hbond>
1.2009

> <Gold.Chemscore.Metal>
0.0000

> <Gold.Chemscore.Lipo>
104.3363

> <Gold.Chemscore.Internal_Hbond>
0.0000

> <Gold.Chemscore.DEClash>
0.1670

> <Gold.Chemscore.DEInternal>
0.6630

> <Gold.Chemscore.Rot>
1.9385

> <Gold.Chemscore.Internal.Correction>
   9.000000E+99

> <Gold.Chemscore.Hbonds>
donor molecule, donor type, donor heavy atom, donor atom, acceptor molecule, acceptor atom, score
      L1  H    18    21       P1  7948  0.98
      P1  H  7997  8009       L1     8  0.08

> <Gold.Chemscore.Hbond.Weighted>
-4.0111

> <Gold.Chemscore.Metal.Weighted>
-0.0000

> <Gold.Chemscore.Lipo.Weighted>
-12.2073

> <Gold.Chemscore.Internal_Hbond.Weighted>
0.0000

> <Gold.Chemscore.DEClash.Weighted>
0.1670

> <Gold.Chemscore.DEInternal.Weighted>
0.6630

> <Gold.Chemscore.Rot.Weighted>
4.9625

> <Gold.Chemscore.Internal.Correction.Weighted>
   9.000000E+99

> <Gold.Protein.RotatedTorsions>
[ 6907 6896 6895 6894 ] final  153.87 input  -60.11 | X-H torsion
[ 7974 7965 7964 7962 ] final  118.40 input  175.53 | X-H torsion
[ 8008 7997 7996 7995 ] final  172.30 input   59.86 | X-H torsion
[ 10167 10162 10161 10158 ] final  -15.57 input  -65.29 | X-H torsion
[ 10718 10713 10712 10709 ] final -165.55 input   66.30 | X-H torsion
[ 10763 10752 10751 10750 ] final  171.20 input  -60.55 | X-H torsion
[ 11005 11000 10999 10996 ] final -104.36 input  -57.11 | X-H torsion

> <Gold.Protein.ActiveResidues>
 VAL166  LYS551  ARG553  GLY616  TRP617  ASP618  TYR619  PRO620  LYS621  CYS622 
 ASP623  PHE694  ASN695  SER759  ASP760  ASP761  ALA762  ILE779  LEU786  VAL792 
 PHE793  MET794  SER795  GLU796  ALA797  LYS798  CYS799  TRP800  GLU811  SER814 

> <Gold.Protein.RotatedAtoms>
  152.0665  133.4086  159.4440 H   0  0  0  0  0  0  0  0  0  0  0  0  # atno 6907 bound_to 6896
  150.6864  134.3140  159.4768 H   0  0  0  0  0  0  0  0  0  0  0  0  # atno 6908 bound_to 6896
  152.0967  134.9369  160.0621 H   0  0  0  0  0  0  0  0  0  0  0  0  # atno 6909 bound_to 6896
  145.1557  139.3184  143.4543 H   0  0  0  0  0  0  0  0  0  0  0  0  # atno 7974 bound_to 7965
  156.1188  140.1489  156.9234 H   0  0  0  0  0  0  0  0  0  0  0  0  # atno 8008 bound_to 7997
  154.4820  140.0876  156.7442 H   0  0  0  0  0  0  0  0  0  0  0  0  # atno 8009 bound_to 7997
  155.4465  140.3433  155.4298 H   0  0  0  0  0  0  0  0  0  0  0  0  # atno 8010 bound_to 7997
  140.7220  143.5204  150.9640 H   0  0  0  0  0  0  0  0  0  0  0  0  # atno 10167 bound_to 10162
  156.6551  130.9023  151.3020 H   0  0  0  0  0  0  0  0  0  0  0  0  # atno 10718 bound_to 10713
  154.4085  135.2756  155.2051 H   0  0  0  0  0  0  0  0  0  0  0  0  # atno 10763 bound_to 10752
  154.4047  135.6036  153.5921 H   0  0  0  0  0  0  0  0  0  0  0  0  # atno 10764 bound_to 10752
  152.9831  135.5935  154.4363 H   0  0  0  0  0  0  0  0  0  0  0  0  # atno 10765 bound_to 10752
  141.1104  133.8716  157.1601 H   0  0  0  0  0  0  0  0  0  0  0  0  # atno 11005 bound_to 11000
  146.3489  140.1648  142.8590 LP  0  0  0  0  0  0  0  0  0  0  0  0  # atno 17320 bound_to 7965
  145.0384  140.8926  143.5067 LP  0  0  0  0  0  0  0  0  0  0  0  0  # atno 17321 bound_to 7965
  139.8922  143.6939  152.3143 LP  0  0  0  0  0  0  0  0  0  0  0  0  # atno 17342 bound_to 10162
  139.7259  144.7593  151.0879 LP  0  0  0  0  0  0  0  0  0  0  0  0  # atno 17343 bound_to 10162
  157.7128  130.9461  150.1149 LP  0  0  0  0  0  0  0  0  0  0  0  0  # atno 17370 bound_to 10713
  156.2054  130.3663  149.8736 LP  0  0  0  0  0  0  0  0  0  0  0  0  # atno 17371 bound_to 10713
  139.9995  135.0033  157.0158 LP  0  0  0  0  0  0  0  0  0  0  0  0  # atno 17394 bound_to 11000
  140.4790  134.1308  155.7214 LP  0  0  0  0  0  0  0  0  0  0  0  0  # atno 17395 bound_to 11000

$$$$
