AV-unprocessed.smi:2280|AV-procd|sdf|9192|dock10
  -GOLD-   2272012413D 1   1.00000     0.00000
 Structure written by MMmdl.
 41 42  0  0  0  0  0  0  0  0  1 V2000
  152.1919  144.6412  160.5530 C   0  0  0  0  0  0  0  0  0  0  0  0
  152.1128  143.5532  159.4965 C   0  0  0  0  0  0  0  0  0  0  0  0
  151.2903  143.8336  158.4016 N   0  0  0  0  0  0  0  0  0  0  0  0
  151.1628  142.9654  157.4520 C   0  0  0  0  0  0  0  0  0  0  0  0
  151.8372  141.7339  157.4823 N   0  0  0  0  0  0  0  0  0  0  0  0
  151.6057  140.8345  156.3392 C   0  0  0  0  0  0  0  0  0  0  0  0
  150.2260  141.0712  155.6831 C   0  0  1  0  0  0  0  0  0  0  0  0
  150.1023  140.1734  154.5973 O   0  0  0  0  0  0  0  0  0  0  0  0
  149.0691  140.7726  156.6519 C   0  0  0  0  0  0  0  0  0  0  0  0
  147.8793  141.3494  156.1308 O   0  0  0  0  0  0  0  0  0  0  0  0
  147.2218  142.3049  156.8784 C   0  0  0  0  0  0  0  0  0  0  0  0
  147.5390  142.5944  158.2304 C   0  0  0  0  0  0  0  0  0  0  0  0
  146.8289  143.5822  158.9374 C   0  0  0  0  0  0  0  0  0  0  0  0
  145.7949  144.2935  158.3053 C   0  0  0  0  0  0  0  0  0  0  0  0
  145.4718  144.0162  156.9649 C   0  0  0  0  0  0  0  0  0  0  0  0
  146.1785  143.0256  156.2457 C   0  0  0  0  0  0  0  0  0  0  0  0
  145.8230  142.7313  154.7915 C   0  0  0  0  0  0  0  0  0  0  0  0
  145.0306  143.6697  154.2717 F   0  0  0  0  0  0  0  0  0  0  0  0
  146.9350  142.6738  154.0581 F   0  0  0  0  0  0  0  0  0  0  0  0
  145.1895  141.5612  154.7083 F   0  0  0  0  0  0  0  0  0  0  0  0
  152.6517  141.3767  158.5174 C   0  0  0  0  0  0  0  0  0  0  0  0
  153.2280  140.2874  158.5405 O   0  0  0  0  0  0  0  0  0  0  0  0
  152.7875  142.3748  159.5906 C   0  0  0  0  0  0  0  0  0  0  0  0
  153.6965  142.0143  160.7589 C   0  0  0  0  0  0  0  0  0  0  0  0
  153.2221  144.9743  160.6832 H   0  0  0  0  0  0  0  0  0  0  0  0
  151.8202  144.2718  161.5093 H   0  0  0  0  0  0  0  0  0  0  0  0
  151.5930  145.5095  160.2748 H   0  0  0  0  0  0  0  0  0  0  0  0
  150.5282  143.1324  156.5800 H   0  0  0  0  0  0  0  0  0  0  0  0
  152.4026  140.8998  155.5950 H   0  0  0  0  0  0  0  0  0  0  0  0
  151.6675  139.8067  156.7011 H   0  0  0  0  0  0  0  0  0  0  0  0
  150.1435  142.0992  155.3270 H   0  0  0  0  0  0  0  0  0  0  0  0
  149.3369  139.6370  154.7356 H   0  0  0  0  0  0  0  0  0  0  0  0
  148.9628  139.6980  156.8121 H   0  0  0  0  0  0  0  0  0  0  0  0
  149.2743  141.2367  157.6179 H   0  0  0  0  0  0  0  0  0  0  0  0
  148.3266  142.0726  158.7518 H   0  0  0  0  0  0  0  0  0  0  0  0
  147.0790  143.7938  159.9665 H   0  0  0  0  0  0  0  0  0  0  0  0
  145.2498  145.0519  158.8477 H   0  0  0  0  0  0  0  0  0  0  0  0
  144.6748  144.5739  156.4961 H   0  0  0  0  0  0  0  0  0  0  0  0
  153.3547  141.0928  161.2313 H   0  0  0  0  0  0  0  0  0  0  0  0
  153.7318  142.7828  161.5293 H   0  0  0  0  0  0  0  0  0  0  0  0
  154.7160  141.8554  160.4054 H   0  0  0  0  0  0  0  0  0  0  0  0
  1  2  1  0  0  0  0
  1 25  1  0  0  0  0
  1 26  1  0  0  0  0
  1 27  1  0  0  0  0
  2 23  2  0  0  0  0
  2  3  1  0  0  0  0
  3  4  2  0  0  0  0
  4  5  1  0  0  0  0
  4 28  1  0  0  0  0
  5  6  1  0  0  0  0
  5 21  1  0  0  0  0
  6  7  1  0  0  0  0
  6 29  1  0  0  0  0
  6 30  1  0  0  0  0
  7  8  1  0  0  0  0
  7  9  1  0  0  0  0
  7 31  1  0  0  0  0
  8 32  1  0  0  0  0
  9 10  1  0  0  0  0
  9 33  1  0  0  0  0
  9 34  1  0  0  0  0
 10 11  1  0  0  0  0
 11 16  1  0  0  0  0
 11 12  2  0  0  0  0
 12 13  1  0  0  0  0
 12 35  1  0  0  0  0
 13 14  2  0  0  0  0
 13 36  1  0  0  0  0
 14 15  1  0  0  0  0
 14 37  1  0  0  0  0
 15 16  2  0  0  0  0
 15 38  1  0  0  0  0
 16 17  1  0  0  0  0
 17 18  1  0  0  0  0
 17 19  1  0  0  0  0
 17 20  1  0  0  0  0
 21 22  2  0  0  0  0
 21 23  1  0  0  0  0
 23 24  1  0  0  0  0
 24 39  1  0  0  0  0
 24 40  1  0  0  0  0
 24 41  1  0  0  0  0
M  END
> <s_m_source_file>
AV-unprocessed.smi

> <i_m_source_file_index>
2280

> <i_lp_mmshare_version>
43012

> <i_f3d_flags>
0

> <s_epik_input>
W0NIM11jMW5bY0hdbihjKD1PKWMxW0NIM10pW0NIMl1bQ0BIXShbT0hdKVtDSDJdT2MyW2NIXVtjSF1bY0hdW2NIXWMyQyhGKShGKUY=

> <s_epik_cmdline>
J2VwaWtfcHl0aG9uJywgJy1waCcsICc3LjAnLCAnLXRuJywgJzgnLCAnLW1hJywgJzIwMCcsICctbWV0YWxfYmluZGluZycsICctaW1hZScsICc8aW5maWxlLm1hZT4nLCAnLW9tYWUnLCAnPG91dGZpbGUubWFlPic=

> <r_lp_tautomer_probability>
1

> <r_epik_Ionization_Penalty>
3.7476e-05

> <r_epik_Ionization_Penalty_Charging>
8.44705e-08

> <r_epik_Ionization_Penalty_Neutral>
3.73915e-05

> <r_epik_State_Penalty>
-0

> <r_epik_Charging_Adjusted_Penalty>
8.44705e-08

> <i_epik_Tot_Q>
0

> <i_epik_Tot_abs_Q>
0

> <r_epik_Metal_State_Penalty>
-0

> <b_epik_Metal_Only>
0

> <s_lp_Force_Field>
OPLS_2005

> <r_lp_Energy>
26.5065

> <b_lp_Chiralities_Consistent>
1

> <s_lp_Variant>
AV-unprocessed.smi:2280-2

> <Gold.Version>
5.8.1

> <Gold.Id.Protein>
6NUR|6NUR_protein|mol2

> <Gold.PLP.Fitness>
47.4478

> <Gold.PLP.PLP>
-40.9096

> <Gold.PLP.part.hbond>
-2.0000

> <Gold.PLP.part.metal>
0.0000

> <Gold.PLP.part.buried>
-2.8112

> <Gold.PLP.part.nonpolar>
-35.5554

> <Gold.PLP.part.repulsive>
0.1868

> <Gold.PLP.ligand.clash>
0.0000

> <Gold.PLP.ligand.torsion>
1.4344

> <Gold.PLP.Chemscore.Hbond>
1.9680

> <Gold.PLP.Chemscore.CHOScore>
1.0000

> <Gold.PLP.Chemscore.Metal>
0.0000

> <Gold.Chemscore.Hbonds>
donor molecule, donor type, donor heavy atom, donor atom, acceptor molecule, acceptor atom, score
      P1  H  7989  7998       L1     8  0.90
      P1  H  7997  8008       L1    22  0.84
      L1  C     4    28       P1  8028  1.00

> <Gold.PLP.Chemscore.Internal.Correction>
0.5031

> <Gold.Rescore>
     Score         DG    S(hbond)    S(metal)    S(lipo)     H(rot)  DE(clash)    DE(int)     intcor
      8.32     -12.97       1.67        0.00      75.97       2.73       0.87       3.78       ----

> <Gold.Chemscore.Fitness>
8.3175

> <Gold.Chemscore.DG>
-12.9703

> <Gold.Chemscore.ZeroCoef>
-5.4800

> <Gold.Chemscore.Hbond>
1.6738

> <Gold.Chemscore.Metal>
0.0000

> <Gold.Chemscore.Lipo>
75.9709

> <Gold.Chemscore.Internal_Hbond>
0.0000

> <Gold.Chemscore.DEClash>
0.8714

> <Gold.Chemscore.DEInternal>
3.7814

> <Gold.Chemscore.Rot>
2.7300

> <Gold.Chemscore.Internal.Correction>
   9.000000E+99

> <Gold.Chemscore.Hbonds>
donor molecule, donor type, donor heavy atom, donor atom, acceptor molecule, acceptor atom, score
      P1  H  7989  7998       L1     8  0.17
      P1  H  7997  8008       L1    22  0.66

> <Gold.Chemscore.Hbond.Weighted>
-5.5905

> <Gold.Chemscore.Metal.Weighted>
-0.0000

> <Gold.Chemscore.Lipo.Weighted>
-8.8886

> <Gold.Chemscore.Internal_Hbond.Weighted>
0.0000

> <Gold.Chemscore.DEClash.Weighted>
0.8714

> <Gold.Chemscore.DEInternal.Weighted>
3.7814

> <Gold.Chemscore.Rot.Weighted>
6.9888

> <Gold.Chemscore.Internal.Correction.Weighted>
   9.000000E+99

> <Gold.Protein.RotatedTorsions>
[ 6907 6896 6895 6894 ] final -168.28 input  -60.11 | X-H torsion
[ 7974 7965 7964 7962 ] final   88.45 input  175.53 | X-H torsion
[ 8008 7997 7996 7995 ] final  -82.65 input   59.86 | X-H torsion
[ 10167 10162 10161 10158 ] final    3.75 input  -65.29 | X-H torsion
[ 10718 10713 10712 10709 ] final   23.45 input   66.30 | X-H torsion
[ 10763 10752 10751 10750 ] final  154.14 input  -60.55 | X-H torsion
[ 11005 11000 10999 10996 ] final  109.87 input  -57.11 | X-H torsion

> <Gold.Protein.ActiveResidues>
 VAL166  LYS551  ARG553  GLY616  TRP617  ASP618  TYR619  PRO620  LYS621  CYS622 
 ASP623  PHE694  ASN695  SER759  ASP760  ASP761  ALA762  ILE779  LEU786  VAL792 
 PHE793  MET794  SER795  GLU796  ALA797  LYS798  CYS799  TRP800  GLU811  SER814 

> <Gold.Protein.RotatedAtoms>
  151.4730  133.3564  159.2826 H   0  0  0  0  0  0  0  0  0  0  0  0  # atno 6907 bound_to 6896
  150.8948  134.8357  159.7329 H   0  0  0  0  0  0  0  0  0  0  0  0  # atno 6908 bound_to 6896
  152.4844  134.4644  159.9667 H   0  0  0  0  0  0  0  0  0  0  0  0  # atno 6909 bound_to 6896
  145.5455  139.2291  143.2542 H   0  0  0  0  0  0  0  0  0  0  0  0  # atno 7974 bound_to 7965
  154.6108  140.0630  156.9491 H   0  0  0  0  0  0  0  0  0  0  0  0  # atno 8008 bound_to 7997
  155.1976  140.3312  155.4330 H   0  0  0  0  0  0  0  0  0  0  0  0  # atno 8009 bound_to 7997
  156.2375  140.1870  156.7061 H   0  0  0  0  0  0  0  0  0  0  0  0  # atno 8010 bound_to 7997
  140.6570  143.7402  150.7671 H   0  0  0  0  0  0  0  0  0  0  0  0  # atno 10167 bound_to 10162
  157.1663  130.6739  149.6062 H   0  0  0  0  0  0  0  0  0  0  0  0  # atno 10718 bound_to 10713
  154.1475  135.2817  155.3144 H   0  0  0  0  0  0  0  0  0  0  0  0  # atno 10763 bound_to 10752
  154.6242  135.5457  153.7612 H   0  0  0  0  0  0  0  0  0  0  0  0  # atno 10764 bound_to 10752
  153.0231  135.6446  154.1620 H   0  0  0  0  0  0  0  0  0  0  0  0  # atno 10765 bound_to 10752
  139.8870  134.9469  156.6191 H   0  0  0  0  0  0  0  0  0  0  0  0  # atno 11005 bound_to 11000
  146.1952  140.6276  142.9127 LP  0  0  0  0  0  0  0  0  0  0  0  0  # atno 17320 bound_to 7965
  144.7555  140.5298  143.6771 LP  0  0  0  0  0  0  0  0  0  0  0  0  # atno 17321 bound_to 7965
  140.1064  143.4740  152.2396 LP  0  0  0  0  0  0  0  0  0  0  0  0  # atno 17342 bound_to 10162
  139.5795  144.7503  151.3678 LP  0  0  0  0  0  0  0  0  0  0  0  0  # atno 17343 bound_to 10162
  155.9745  130.4694  150.6395 LP  0  0  0  0  0  0  0  0  0  0  0  0  # atno 17370 bound_to 10713
  157.4085  131.0820  151.1243 LP  0  0  0  0  0  0  0  0  0  0  0  0  # atno 17371 bound_to 10713
  140.7752  133.8705  155.8524 LP  0  0  0  0  0  0  0  0  0  0  0  0  # atno 17394 bound_to 11000
  140.9807  134.1409  157.4496 LP  0  0  0  0  0  0  0  0  0  0  0  0  # atno 17395 bound_to 11000

$$$$
