AV-unprocessed.smi:1933|AV-procd|sdf|7818|dock1
  -GOLD-   22720 9563D 1   1.00000     0.00000
 Structure written by MMmdl.
 47 49  0  0  0  0  0  0  0  0  1 V2000
  144.8471  136.3097  153.4476 O   0  0  0  0  0  0  0  0  0  0  0  0
  145.9751  136.1377  152.9843 C   0  0  0  0  0  0  0  0  0  0  0  0
  147.0233  136.9162  153.2898 N   0  0  0  0  0  0  0  0  0  0  0  0
  146.9770  138.0505  154.2071 C   0  0  0  0  0  0  0  0  0  0  0  0
  148.2449  138.9443  154.1299 C   0  0  1  0  0  0  0  0  0  0  0  0
  147.9326  140.4555  154.3335 C   0  0  1  0  0  0  0  0  0  0  0  0
  147.0397  141.1775  153.3419 C   0  0  0  0  0  0  0  0  0  0  0  0
  146.7771  142.4824  154.0865 C   0  0  0  0  0  0  0  0  0  0  0  0
  146.7230  142.1261  155.4662 O   0  0  0  0  0  0  0  0  0  0  0  0
  147.2558  140.8164  155.6568 C   0  0  0  0  0  0  0  0  0  0  0  0
  149.4018  138.4332  154.8908 N   0  0  0  0  0  0  0  0  0  0  0  0
  149.5048  136.9739  154.9775 C   0  0  0  0  0  0  0  0  0  0  0  0
  150.6820  136.5437  155.8683 C   0  0  0  0  0  0  0  0  0  0  0  0
  151.8898  137.0952  155.3537 O   0  0  0  0  0  0  0  0  0  0  0  0
  151.8554  138.5166  155.2710 C   0  0  0  0  0  0  0  0  0  0  0  0
  150.6714  138.9596  154.3938 C   0  0  0  0  0  0  0  0  0  0  0  0
  146.3232  135.1649  152.1235 N   0  0  0  0  0  0  0  0  0  0  0  0
  145.5041  134.1366  151.5848 C   0  0  0  0  0  0  0  0  0  0  0  0
  146.2040  133.0334  151.0458 C   0  0  0  0  0  0  0  0  0  0  0  0
  145.4823  131.9581  150.4920 C   0  0  0  0  0  0  0  0  0  0  0  0
  144.0773  132.0139  150.4904 C   0  0  0  0  0  0  0  0  0  0  0  0
  143.4584  133.1493  151.0447 C   0  0  0  0  0  0  0  0  0  0  0  0
  144.1481  134.1805  151.5767 N   0  0  0  0  0  0  0  0  0  0  0  0
  147.9149  136.7090  152.8641 H   0  0  0  0  0  0  0  0  0  0  0  0
  146.0893  138.6340  153.9622 H   0  0  0  0  0  0  0  0  0  0  0  0
  146.8248  137.6749  155.2198 H   0  0  0  0  0  0  0  0  0  0  0  0
  148.5481  138.9113  153.0826 H   0  0  0  0  0  0  0  0  0  0  0  0
  148.8860  140.9862  154.3350 H   0  0  0  0  0  0  0  0  0  0  0  0
  147.5003  141.3263  152.3652 H   0  0  0  0  0  0  0  0  0  0  0  0
  146.0862  140.6724  153.2112 H   0  0  0  0  0  0  0  0  0  0  0  0
  147.6026  143.1796  153.9366 H   0  0  0  0  0  0  0  0  0  0  0  0
  145.8578  142.9715  153.7635 H   0  0  0  0  0  0  0  0  0  0  0  0
  146.4292  140.1402  155.8782 H   0  0  0  0  0  0  0  0  0  0  0  0
  147.9489  140.7889  156.4980 H   0  0  0  0  0  0  0  0  0  0  0  0
  148.5918  136.5273  155.3566 H   0  0  0  0  0  0  0  0  0  0  0  0
  149.6574  136.5507  153.9840 H   0  0  0  0  0  0  0  0  0  0  0  0
  150.5297  136.8726  156.8974 H   0  0  0  0  0  0  0  0  0  0  0  0
  150.7666  135.4572  155.8868 H   0  0  0  0  0  0  0  0  0  0  0  0
  151.7728  138.9425  156.2721 H   0  0  0  0  0  0  0  0  0  0  0  0
  152.7949  138.8723  154.8480 H   0  0  0  0  0  0  0  0  0  0  0  0
  150.8397  138.6295  153.3684 H   0  0  0  0  0  0  0  0  0  0  0  0
  150.6396  140.0493  154.3689 H   0  0  0  0  0  0  0  0  0  0  0  0
  147.2873  135.1527  151.8256 H   0  0  0  0  0  0  0  0  0  0  0  0
  147.2839  133.0062  151.0554 H   0  0  0  0  0  0  0  0  0  0  0  0
  145.9985  131.1054  150.0761 H   0  0  0  0  0  0  0  0  0  0  0  0
  143.4895  131.2084  150.0755 H   0  0  0  0  0  0  0  0  0  0  0  0
  142.3817  133.2318  151.0623 H   0  0  0  0  0  0  0  0  0  0  0  0
  1  2  2  0  0  0  0
  2  3  1  0  0  0  0
  2 17  1  0  0  0  0
  3  4  1  0  0  0  0
  3 24  1  0  0  0  0
  4  5  1  0  0  0  0
  4 25  1  0  0  0  0
  4 26  1  0  0  0  0
  5  6  1  0  0  0  0
  5 11  1  0  0  0  0
  5 27  1  0  0  0  0
  6 10  1  0  0  0  0
  6  7  1  0  0  0  0
  6 28  1  0  0  0  0
  7  8  1  0  0  0  0
  7 29  1  0  0  0  0
  7 30  1  0  0  0  0
  8  9  1  0  0  0  0
  8 31  1  0  0  0  0
  8 32  1  0  0  0  0
  9 10  1  0  0  0  0
 10 33  1  0  0  0  0
 10 34  1  0  0  0  0
 11 16  1  0  0  0  0
 11 12  1  0  0  0  0
 12 13  1  0  0  0  0
 12 35  1  0  0  0  0
 12 36  1  0  0  0  0
 13 14  1  0  0  0  0
 13 37  1  0  0  0  0
 13 38  1  0  0  0  0
 14 15  1  0  0  0  0
 15 16  1  0  0  0  0
 15 39  1  0  0  0  0
 15 40  1  0  0  0  0
 16 41  1  0  0  0  0
 16 42  1  0  0  0  0
 17 18  1  0  0  0  0
 17 43  1  0  0  0  0
 18 23  1  0  0  0  0
 18 19  2  0  0  0  0
 19 20  1  0  0  0  0
 19 44  1  0  0  0  0
 20 21  2  0  0  0  0
 20 45  1  0  0  0  0
 21 22  1  0  0  0  0
 21 46  1  0  0  0  0
 22 23  2  0  0  0  0
 22 47  1  0  0  0  0
M  END
> <s_m_source_file>
AV-unprocessed.smi

> <i_m_source_file_index>
1933

> <i_lp_mmshare_version>
43012

> <i_f3d_flags>
0

> <s_epik_input>
bjFbY0hdW2NIXVtjSF1bY0hdYzFbTkhdQyg9TylbTkhdW0NIMl1bQ0BIXShbQ0BASF0yW0NIMl1bQ0gyXU9bQ0gyXTIpTjNbQ0gyXVtDSDJdT1tDSDJdW0NIMl0z

> <s_epik_cmdline>
J2VwaWtfcHl0aG9uJywgJy1waCcsICc3LjAnLCAnLXRuJywgJzgnLCAnLW1hJywgJzIwMCcsICctbWV0YWxfYmluZGluZycsICctaW1hZScsICc8aW5maWxlLm1hZT4nLCAnLW9tYWUnLCAnPG91dGZpbGUubWFlPic=

> <r_epik_Ionization_Penalty>
0.125062

> <r_epik_Ionization_Penalty_Charging>
0

> <r_epik_Ionization_Penalty_Neutral>
0.125062

> <r_epik_State_Penalty>
0.114484

> <r_epik_Charging_Adjusted_Penalty>
0.114484

> <i_epik_Tot_Q>
0

> <i_epik_Tot_abs_Q>
0

> <r_epik_Metal_State_Penalty>
0.114484

> <b_epik_Metal_Only>
0

> <s_lp_Force_Field>
OPLS_2005

> <r_lp_Energy>
56.0331

> <b_lp_Chiralities_Consistent>
1

> <s_lp_Variant>
AV-unprocessed.smi:1933-4

> <Gold.Version>
5.8.1

> <Gold.Id.Protein>
6NUR|6NUR_protein|mol2

> <Gold.PLP.Fitness>
45.6650

> <Gold.PLP.PLP>
-35.8168

> <Gold.PLP.part.hbond>
-2.9095

> <Gold.PLP.part.metal>
0.0000

> <Gold.PLP.part.buried>
-6.9386

> <Gold.PLP.part.nonpolar>
-27.2973

> <Gold.PLP.part.repulsive>
0.5727

> <Gold.PLP.ligand.clash>
0.0000

> <Gold.PLP.ligand.torsion>
0.9859

> <Gold.PLP.Chemscore.Hbond>
2.8720

> <Gold.PLP.Chemscore.CHOScore>
0.9234

> <Gold.PLP.Chemscore.Metal>
0.0000

> <Gold.Chemscore.Hbonds>
donor molecule, donor type, donor heavy atom, donor atom, acceptor molecule, acceptor atom, score
      L1  H     3    24       P1  7948  0.98
      L1  H    17    43       P1  7948  0.88
      P1  H 10752 10763       L1    14  1.00
      L1  C    22    47       P1 10186  0.96

> <Gold.PLP.Chemscore.Internal.Correction>
0.4338

> <Gold.Rescore>
     Score         DG    S(hbond)    S(metal)    S(lipo)     H(rot)  DE(clash)    DE(int)     intcor
     17.39     -20.58       2.81        0.00      86.56       1.72       0.10       3.10       ----

> <Gold.Chemscore.Fitness>
17.3873

> <Gold.Chemscore.DG>
-20.5845

> <Gold.Chemscore.ZeroCoef>
-5.4800

> <Gold.Chemscore.Hbond>
2.8053

> <Gold.Chemscore.Metal>
0.0000

> <Gold.Chemscore.Lipo>
86.5628

> <Gold.Chemscore.Internal_Hbond>
0.0000

> <Gold.Chemscore.DEClash>
0.0959

> <Gold.Chemscore.DEInternal>
3.1013

> <Gold.Chemscore.Rot>
1.7161

> <Gold.Chemscore.Internal.Correction>
   9.000000E+99

> <Gold.Chemscore.Hbonds>
donor molecule, donor type, donor heavy atom, donor atom, acceptor molecule, acceptor atom, score
      L1  H     3    24       P1  7948  0.91
      L1  H    17    43       P1  7948  0.82
      P1  H 10752 10763       L1    14  0.56

> <Gold.Chemscore.Hbond.Weighted>
-9.3698

> <Gold.Chemscore.Metal.Weighted>
-0.0000

> <Gold.Chemscore.Lipo.Weighted>
-10.1278

> <Gold.Chemscore.Internal_Hbond.Weighted>
0.0000

> <Gold.Chemscore.DEClash.Weighted>
0.0959

> <Gold.Chemscore.DEInternal.Weighted>
3.1013

> <Gold.Chemscore.Rot.Weighted>
4.3932

> <Gold.Chemscore.Internal.Correction.Weighted>
   9.000000E+99

> <Gold.Protein.RotatedTorsions>
[ 6907 6896 6895 6894 ] final -179.98 input  -60.11 | X-H torsion
[ 7974 7965 7964 7962 ] final   51.23 input  175.53 | X-H torsion
[ 8008 7997 7996 7995 ] final -102.21 input   59.86 | X-H torsion
[ 10167 10162 10161 10158 ] final  172.09 input  -65.29 | X-H torsion
[ 10718 10713 10712 10709 ] final   11.57 input   66.30 | X-H torsion
[ 10763 10752 10751 10750 ] final   66.50 input  -60.55 | X-H torsion
[ 11005 11000 10999 10996 ] final   82.00 input  -57.11 | X-H torsion

> <Gold.Protein.ActiveResidues>
 VAL166  LYS551  ARG553  GLY616  TRP617  ASP618  TYR619  PRO620  LYS621  CYS622 
 ASP623  PHE694  ASN695  SER759  ASP760  ASP761  ALA762  ILE779  LEU786  VAL792 
 PHE793  MET794  SER795  GLU796  ALA797  LYS798  CYS799  TRP800  GLU811  SER814 

> <Gold.Protein.RotatedAtoms>
  151.6621  133.3316  159.3176 H   0  0  0  0  0  0  0  0  0  0  0  0  # atno 6907 bound_to 6896
  150.7908  134.6934  159.6519 H   0  0  0  0  0  0  0  0  0  0  0  0  # atno 6908 bound_to 6896
  152.3987  134.6326  160.0131 H   0  0  0  0  0  0  0  0  0  0  0  0  # atno 6909 bound_to 6896
  145.9934  139.4362  143.0059 H   0  0  0  0  0  0  0  0  0  0  0  0  # atno 7974 bound_to 7965
  154.8534  140.0430  157.1619 H   0  0  0  0  0  0  0  0  0  0  0  0  # atno 8008 bound_to 7997
  154.8918  140.2987  155.5346 H   0  0  0  0  0  0  0  0  0  0  0  0  # atno 8009 bound_to 7997
  156.2997  140.2392  156.3934 H   0  0  0  0  0  0  0  0  0  0  0  0  # atno 8010 bound_to 7997
  139.5066  144.3412  152.0016 H   0  0  0  0  0  0  0  0  0  0  0  0  # atno 10167 bound_to 10162
  156.9975  130.6066  149.5692 H   0  0  0  0  0  0  0  0  0  0  0  0  # atno 10718 bound_to 10713
  153.0143  135.5318  154.6833 H   0  0  0  0  0  0  0  0  0  0  0  0  # atno 10763 bound_to 10752
  154.5987  135.2866  155.0561 H   0  0  0  0  0  0  0  0  0  0  0  0  # atno 10764 bound_to 10752
  154.1626  135.6545  153.5042 H   0  0  0  0  0  0  0  0  0  0  0  0  # atno 10765 bound_to 10752
  139.9078  134.8039  156.2117 H   0  0  0  0  0  0  0  0  0  0  0  0  # atno 11005 bound_to 11000
  145.7596  140.9940  143.1207 LP  0  0  0  0  0  0  0  0  0  0  0  0  # atno 17320 bound_to 7965
  144.6896  139.9314  143.7472 LP  0  0  0  0  0  0  0  0  0  0  0  0  # atno 17321 bound_to 7965
  140.2850  144.3817  150.6106 LP  0  0  0  0  0  0  0  0  0  0  0  0  # atno 17342 bound_to 10162
  140.5989  143.2167  151.7110 LP  0  0  0  0  0  0  0  0  0  0  0  0  # atno 17343 bound_to 10162
  156.0184  130.5278  150.8202 LP  0  0  0  0  0  0  0  0  0  0  0  0  # atno 17370 bound_to 10713
  157.5414  131.0941  150.9822 LP  0  0  0  0  0  0  0  0  0  0  0  0  # atno 17371 bound_to 10713
  141.0461  133.6912  156.1686 LP  0  0  0  0  0  0  0  0  0  0  0  0  # atno 17394 bound_to 11000
  140.6881  134.4695  157.5589 LP  0  0  0  0  0  0  0  0  0  0  0  0  # atno 17395 bound_to 11000

$$$$
