#       Name:                AV-unprocessed.smi:1478
#       Creating user name   scv26
#       Creation time:       Fri Mar 27 06:07:33 2020


#       File generated by GOLD software.
#

@<TRIPOS>MOLECULE
AV-unprocessed.smi:1478
    57    58     1
SMALL
NO_CHARGES


@<TRIPOS>ATOM
      1 ****        -4.8417   1.7415  -3.2023 C.3            1 S1                 0.0000
      2 ****        -4.4977   0.4084  -2.8672 O.3            1 S1                 0.0000
      3 ****        -3.1137   0.1484  -3.0286 C.3            1 S1                 0.0000
      4 ****        -2.8332  -1.3095  -2.6342 C.3            1 S1                 0.0000
      5 ****        -1.4095  -1.6376  -2.7601 N.am           1 S1                 0.0000
      6 ****        -0.7043  -1.5620  -1.5702 N.2            1 S1                 0.0000
      7 ****         0.5633  -1.8223  -1.5479 C.2            1 S1                 0.0000
      8 ****         1.3577  -1.7560  -0.2896 C.2            1 S1                 0.0000
      9 ****         2.5666  -1.9937  -0.2708 O.2            1 S1                 0.0000
     10 ****         0.6636  -1.4132   0.8111 N.am           1 S1                 0.0000
     11 ****         1.2079  -1.2817   2.1623 C.3            1 S1                 0.0000
     12 ****         1.4352   0.1891   2.6161 C.3            1 S1                 0.0000
     13 ****         1.9289   0.1167   4.0878 C.2            1 S1                 0.0000
     14 ****         3.2439   0.1551   4.3268 N.am           1 S1                 0.0000
     15 ****         1.1244   0.0061   5.0119 O.2            1 S1                 0.0000
     16 ****         2.4419   0.9296   1.6884 C.3            1 S1                 0.0000
     17 ****         2.5462   2.4337   2.0121 C.3            1 S1                 0.0000
     18 ****         1.2625   3.0390   1.9136 O.3            1 S1                 0.0000
     19 ****         0.3180   2.4955   2.8287 C.3            1 S1                 0.0000
     20 ****         0.1092   0.9968   2.5346 C.3            1 S1                 0.0000
     21 ****         1.2680  -2.1933  -2.7638 C.2            1 S1                 0.0000
     22 ****         0.5670  -2.2610  -3.9167 C.2            1 S1                 0.0000
     23 ****        -0.8670  -1.9730  -3.9695 C.2            1 S1                 0.0000
     24 ****        -1.5258  -2.0242  -5.0077 O.2            1 S1                 0.0000
     25 ****        -5.9124   1.8899  -3.0630 H              1 S1                 0.0000
     26 ****        -4.6043   1.9610  -4.2443 H              1 S1                 0.0000
     27 ****        -4.3173   2.4552  -2.5656 H              1 S1                 0.0000
     28 ****        -2.8219   0.3270  -4.0647 H              1 S1                 0.0000
     29 ****        -2.5315   0.8247  -2.4005 H              1 S1                 0.0000
     30 ****        -3.1644  -1.4760  -1.6074 H              1 S1                 0.0000
     31 ****        -3.4340  -1.9852  -3.2457 H              1 S1                 0.0000
     32 ****        -0.3243  -1.2325   0.7024 H              1 S1                 0.0000
     33 ****         0.4973  -1.7692   2.8315 H              1 S1                 0.0000
     34 ****         2.1338  -1.8532   2.2543 H              1 S1                 0.0000
     35 ****         3.5853   0.1116   5.2761 H              1 S1                 0.0000
     36 ****         3.8915   0.2299   3.5557 H              1 S1                 0.0000
     37 ****         3.4282   0.4652   1.7187 H              1 S1                 0.0000
     38 ****         2.1185   0.8472   0.6510 H              1 S1                 0.0000
     39 ****         2.9672   2.6088   3.0027 H              1 S1                 0.0000
     40 ****         3.2137   2.9194   1.3003 H              1 S1                 0.0000
     41 ****         0.6481   2.6632   3.8548 H              1 S1                 0.0000
     42 ****        -0.6247   3.0303   2.7132 H              1 S1                 0.0000
     43 ****        -0.3204   0.9127   1.5361 H              1 S1                 0.0000
     44 ****        -0.6436   0.5875   3.2097 H              1 S1                 0.0000
     45 ****         2.3262  -2.4112  -2.7549 H              1 S1                 0.0000
     46 ****         1.0782  -2.5354  -4.8278 H              1 S1                 0.0000
     47 ****        -5.0119  -0.2136  -3.4577 LP             1 S1                 0.0000
     48 ****        -4.7459   0.2434  -1.9127 LP             1 S1                 0.0000
     49 ****        -1.1758  -1.3056  -0.7264 LP             1 S1                 0.0000
     50 ****         3.0411  -2.2392  -1.1161 LP             1 S1                 0.0000
     51 ****         3.0732  -1.9410   0.5898 LP             1 S1                 0.0000
     52 ****         0.1442  -0.0379   4.8189 LP             1 S1                 0.0000
     53 ****         1.4507  -0.0398   5.9561 LP             1 S1                 0.0000
     54 ****         0.9182   2.9060   0.9842 LP             1 S1                 0.0000
     55 ****         1.3570   4.0175   2.0972 LP             1 S1                 0.0000
     56 ****        -2.5036  -1.8151  -4.9903 LP             1 S1                 0.0000
     57 ****        -1.0834  -2.2748  -5.8688 LP             1 S1                 0.0000
@<TRIPOS>BOND
    1    1    2 1     
    2    1   25 1     
    3    1   26 1     
    4    1   27 1     
    5    2    3 1     
    6    3    4 1     
    7    3   28 1     
    8    3   29 1     
    9    4    5 1     
   10    4   30 1     
   11    4   31 1     
   12    5   23 am    
   13    5    6 1     
   14    6    7 2     
   15    7    8 1     
   16    7   21 1     
   17    8    9 2     
   18    8   10 am    
   19   10   11 1     
   20   10   32 1     
   21   11   12 1     
   22   11   33 1     
   23   11   34 1     
   24   12   20 1     
   25   12   13 1     
   26   12   16 1     
   27   13   14 am    
   28   13   15 2     
   29   14   35 1     
   30   14   36 1     
   31   16   17 1     
   32   16   37 1     
   33   16   38 1     
   34   17   18 1     
   35   17   39 1     
   36   17   40 1     
   37   18   19 1     
   38   19   20 1     
   39   19   41 1     
   40   19   42 1     
   41   20   43 1     
   42   20   44 1     
   43   21   22 2     
   44   21   45 1     
   45   22   23 1     
   46   22   46 1     
   47   23   24 2     
   48    2   47 1     
   49    2   48 1     
   50    6   49 1     
   51    9   50 1     
   52    9   51 1     
   53   15   52 1     
   54   15   53 1     
   55   18   54 1     
   56   18   55 1     
   57   24   56 1     
   58   24   57 1     
@<TRIPOS>SUBSTRUCTURE
      1 S1             1
@<TRIPOS>SET
LONE_PAIRS      STATIC     ATOMS    <user>   **** ""
11 47 48 49 50 51 52 53 54 55 56 57
DONOR_HYDROGENS      STATIC     ATOMS    <user>   **** ""
3 32 35 36
ATOM$BLUE        STATIC     ATOMS    COLORGROUP SYSTEM
11 47 48 49 50 51 52 53 54 55 56 57
ATOM$RED        STATIC     ATOMS    COLORGROUP SYSTEM
3 32 35 36
