AV-unprocessed.smi:878|AV-procd|sdf|4031|dock7
  -GOLD-   22720 1523D 1   1.00000     0.00000
 Structure written by MMmdl.
 33 34  0  0  0  0  0  0  0  0  1 V2000
  151.3670  145.4511  160.2183 C   0  0  0  0  0  0  0  0  0  0  0  0
  151.4877  143.9187  159.2564 S   0  0  0  0  0  0  0  0  0  0  0  0
  152.4566  142.7614  160.1811 C   0  0  0  0  0  0  0  0  0  0  0  0
  152.8048  141.5008  159.6523 C   0  0  0  0  0  0  0  0  0  0  0  0
  153.5766  140.6022  160.4150 C   0  0  0  0  0  0  0  0  0  0  0  0
  154.0126  140.9537  161.7171 C   0  0  0  0  0  0  0  0  0  0  0  0
  154.7746  140.1400  162.5267 O   0  0  0  0  0  0  0  0  0  0  0  0
  155.1520  138.8606  162.0371 C   0  0  0  0  0  0  0  0  0  0  0  0
  154.1227  137.8080  162.4809 C   0  0  0  0  0  0  0  0  0  0  0  0
  154.6778  136.4797  162.5862 N   0  0  0  0  0  0  0  0  0  0  0  0
  154.5335  135.7105  163.7305 C   0  0  0  0  0  0  0  0  0  0  0  0
  155.0575  134.4680  163.8622 C   0  0  0  0  0  0  0  0  0  0  0  0
  154.8343  133.5720  165.3219 Cl  0  0  0  0  0  0  0  0  0  0  0  0
  155.8213  133.8759  162.7648 C   0  0  0  0  0  0  0  0  0  0  0  0
  156.3349  132.7589  162.7756 O   0  0  0  0  0  0  0  0  0  0  0  0
  155.9488  134.6896  161.6350 N   0  0  0  0  0  0  0  0  0  0  0  0
  155.4158  135.9710  161.4917 C   0  0  0  0  0  0  0  0  0  0  0  0
  155.6023  136.5967  160.4481 O   0  0  0  0  0  0  0  0  0  0  0  0
  153.6566  142.2154  162.2346 C   0  0  0  0  0  0  0  0  0  0  0  0
  152.8823  143.1134  161.4758 C   0  0  0  0  0  0  0  0  0  0  0  0
  156.4738  134.3190  160.8561 H   0  0  0  0  0  0  0  0  0  0  0  0
  150.7182  146.1616  159.7065 H   0  0  0  0  0  0  0  0  0  0  0  0
  152.3484  145.9098  160.3377 H   0  0  0  0  0  0  0  0  0  0  0  0
  150.9469  145.2509  161.2041 H   0  0  0  0  0  0  0  0  0  0  0  0
  152.4884  141.2035  158.6649 H   0  0  0  0  0  0  0  0  0  0  0  0
  153.8236  139.6479  159.9755 H   0  0  0  0  0  0  0  0  0  0  0  0
  155.2285  138.8725  160.9484 H   0  0  0  0  0  0  0  0  0  0  0  0
  156.1292  138.5891  162.4388 H   0  0  0  0  0  0  0  0  0  0  0  0
  153.7483  138.0459  163.4778 H   0  0  0  0  0  0  0  0  0  0  0  0
  153.2445  137.7741  161.8329 H   0  0  0  0  0  0  0  0  0  0  0  0
  153.9776  136.1206  164.5618 H   0  0  0  0  0  0  0  0  0  0  0  0
  153.9804  142.4972  163.2259 H   0  0  0  0  0  0  0  0  0  0  0  0
  152.6186  144.0754  161.8904 H   0  0  0  0  0  0  0  0  0  0  0  0
  1  2  1  0  0  0  0
  1 22  1  0  0  0  0
  1 23  1  0  0  0  0
  1 24  1  0  0  0  0
  2  3  1  0  0  0  0
  3 20  1  0  0  0  0
  3  4  2  0  0  0  0
  4  5  1  0  0  0  0
  4 25  1  0  0  0  0
  5  6  2  0  0  0  0
  5 26  1  0  0  0  0
  6  7  1  0  0  0  0
  6 19  1  0  0  0  0
  7  8  1  0  0  0  0
  8  9  1  0  0  0  0
  8 27  1  0  0  0  0
  8 28  1  0  0  0  0
  9 10  1  0  0  0  0
  9 29  1  0  0  0  0
  9 30  1  0  0  0  0
 10 17  1  0  0  0  0
 10 11  1  0  0  0  0
 11 12  2  0  0  0  0
 11 31  1  0  0  0  0
 12 13  1  0  0  0  0
 12 14  1  0  0  0  0
 14 15  2  0  0  0  0
 14 16  1  0  0  0  0
 16 21  1  0  0  0  0
 16 17  1  0  0  0  0
 17 18  2  0  0  0  0
 19 20  2  0  0  0  0
 19 32  1  0  0  0  0
 20 33  1  0  0  0  0
M  END
> <s_m_source_file>
AV-unprocessed.smi

> <i_m_source_file_index>
878

> <i_lp_mmshare_version>
43012

> <i_f3d_flags>
0

> <s_epik_input>
W0NIM11TYzFbY0hdW2NIXWMoW2NIXVtjSF0xKU9bQ0gyXVtDSDJdbjJbY0hdYyhDbCljKD1PKVtuSF1jMj1P

> <s_epik_cmdline>
J2VwaWtfcHl0aG9uJywgJy1waCcsICc3LjAnLCAnLXRuJywgJzgnLCAnLW1hJywgJzIwMCcsICctbWV0YWxfYmluZGluZycsICctaW1hZScsICc8aW5maWxlLm1hZT4nLCAnLW9tYWUnLCAnPG91dGZpbGUubWFlPic=

> <r_lp_tautomer_probability>
0.999537

> <r_epik_Ionization_Penalty>
0.037527

> <r_epik_Ionization_Penalty_Charging>
0.037527

> <r_epik_Ionization_Penalty_Neutral>
0

> <r_epik_State_Penalty>
0.0314158

> <r_epik_Charging_Adjusted_Penalty>
0.0689428

> <i_epik_Tot_Q>
0

> <i_epik_Tot_abs_Q>
0

> <r_epik_Metal_State_Penalty>
2.37917

> <b_epik_Metal_Only>
0

> <s_lp_Force_Field>
OPLS_2005

> <r_lp_Energy>
14.7844

> <b_lp_Chiralities_Consistent>
1

> <s_lp_Variant>
AV-unprocessed.smi:878-1

> <Gold.Version>
5.8.1

> <Gold.Id.Protein>
6NUR|6NUR_protein|mol2

> <Gold.PLP.Fitness>
43.3559

> <Gold.PLP.PLP>
-44.2575

> <Gold.PLP.part.hbond>
0.0000

> <Gold.PLP.part.metal>
0.0000

> <Gold.PLP.part.buried>
-3.8988

> <Gold.PLP.part.nonpolar>
-39.3776

> <Gold.PLP.part.repulsive>
0.0231

> <Gold.PLP.ligand.clash>
0.0000

> <Gold.PLP.ligand.torsion>
0.4621

> <Gold.PLP.Chemscore.Hbond>
0.0000

> <Gold.PLP.Chemscore.CHOScore>
0.0000

> <Gold.PLP.Chemscore.Metal>
0.0000

> <Gold.PLP.Chemscore.Internal.Correction>
0.0226

> <Gold.Rescore>
     Score         DG    S(hbond)    S(metal)    S(lipo)     H(rot)  DE(clash)    DE(int)     intcor
     13.97     -15.71       0.00        0.00     130.67       1.98       0.02       1.72       ----

> <Gold.Chemscore.Fitness>
13.9738

> <Gold.Chemscore.DG>
-15.7108

> <Gold.Chemscore.ZeroCoef>
-5.4800

> <Gold.Chemscore.Hbond>
0.0000

> <Gold.Chemscore.Metal>
0.0000

> <Gold.Chemscore.Lipo>
130.6683

> <Gold.Chemscore.Internal_Hbond>
0.0000

> <Gold.Chemscore.DEClash>
0.0190

> <Gold.Chemscore.DEInternal>
1.7180

> <Gold.Chemscore.Rot>
1.9755

> <Gold.Chemscore.Internal.Correction>
   9.000000E+99

> <Gold.Chemscore.Hbond.Weighted>
-0.0000

> <Gold.Chemscore.Metal.Weighted>
-0.0000

> <Gold.Chemscore.Lipo.Weighted>
-15.2882

> <Gold.Chemscore.Internal_Hbond.Weighted>
0.0000

> <Gold.Chemscore.DEClash.Weighted>
0.0190

> <Gold.Chemscore.DEInternal.Weighted>
1.7180

> <Gold.Chemscore.Rot.Weighted>
5.0574

> <Gold.Chemscore.Internal.Correction.Weighted>
   9.000000E+99

> <Gold.Protein.RotatedTorsions>
[ 6907 6896 6895 6894 ] final   28.06 input  -60.11 | X-H torsion
[ 7974 7965 7964 7962 ] final -138.13 input  175.53 | X-H torsion
[ 8008 7997 7996 7995 ] final   20.25 input   59.86 | X-H torsion
[ 10167 10162 10161 10158 ] final  165.61 input  -65.29 | X-H torsion
[ 10718 10713 10712 10709 ] final   40.80 input   66.30 | X-H torsion
[ 10763 10752 10751 10750 ] final  -65.55 input  -60.55 | X-H torsion
[ 11005 11000 10999 10996 ] final -164.46 input  -57.11 | X-H torsion

> <Gold.Protein.ActiveResidues>
 VAL166  LYS551  ARG553  GLY616  TRP617  ASP618  TYR619  PRO620  LYS621  CYS622 
 ASP623  PHE694  ASN695  SER759  ASP760  ASP761  ALA762  ILE779  LEU786  VAL792 
 PHE793  MET794  SER795  GLU796  ALA797  LYS798  CYS799  TRP800  GLU811  SER814 

> <Gold.Protein.RotatedAtoms>
  152.0114  134.9874  160.0567 H   0  0  0  0  0  0  0  0  0  0  0  0  # atno 6907 bound_to 6896
  152.1425  133.4468  159.4782 H   0  0  0  0  0  0  0  0  0  0  0  0  # atno 6908 bound_to 6896
  150.6866  134.2206  159.4438 H   0  0  0  0  0  0  0  0  0  0  0  0  # atno 6909 bound_to 6896
  144.8784  140.6471  143.5222 H   0  0  0  0  0  0  0  0  0  0  0  0  # atno 7974 bound_to 7965
  154.9329  140.3042  155.5159 H   0  0  0  0  0  0  0  0  0  0  0  0  # atno 8008 bound_to 7997
  156.3002  140.2350  156.4327 H   0  0  0  0  0  0  0  0  0  0  0  0  # atno 8009 bound_to 7997
  154.8220  140.0423  157.1406 H   0  0  0  0  0  0  0  0  0  0  0  0  # atno 8010 bound_to 7997
  139.4909  144.4114  151.9294 H   0  0  0  0  0  0  0  0  0  0  0  0  # atno 10167 bound_to 10162
  157.3863  130.7781  149.7233 H   0  0  0  0  0  0  0  0  0  0  0  0  # atno 10718 bound_to 10713
  154.3466  135.6145  153.5622 H   0  0  0  0  0  0  0  0  0  0  0  0  # atno 10763 bound_to 10752
  152.9801  135.5782  154.4791 H   0  0  0  0  0  0  0  0  0  0  0  0  # atno 10764 bound_to 10752
  154.4505  135.2852  155.1762 H   0  0  0  0  0  0  0  0  0  0  0  0  # atno 10765 bound_to 10752
  140.5867  134.5086  157.5187 H   0  0  0  0  0  0  0  0  0  0  0  0  # atno 11005 bound_to 11000
  145.4000  139.1599  143.4182 LP  0  0  0  0  0  0  0  0  0  0  0  0  # atno 17320 bound_to 7965
  146.2978  140.4096  142.8715 LP  0  0  0  0  0  0  0  0  0  0  0  0  # atno 17321 bound_to 7965
  140.3556  144.3036  150.5942 LP  0  0  0  0  0  0  0  0  0  0  0  0  # atno 17342 bound_to 10162
  140.5448  143.2217  151.8026 LP  0  0  0  0  0  0  0  0  0  0  0  0  # atno 17343 bound_to 10162
  155.9787  130.4048  150.3630 LP  0  0  0  0  0  0  0  0  0  0  0  0  # atno 17370 bound_to 10713
  157.1740  131.0376  151.2781 LP  0  0  0  0  0  0  0  0  0  0  0  0  # atno 17371 bound_to 10713
  139.9292  134.7996  156.0978 LP  0  0  0  0  0  0  0  0  0  0  0  0  # atno 17394 bound_to 11000
  141.0961  133.6695  156.2649 LP  0  0  0  0  0  0  0  0  0  0  0  0  # atno 17395 bound_to 11000

$$$$
