#       Name:                AV-unprocessed.smi:99
#       Creating user name   scv26
#       Creation time:       Thu Mar 26 17:34:16 2020


#       File generated by GOLD software.
#

@<TRIPOS>MOLECULE
AV-unprocessed.smi:99
    65    68     1
SMALL
NO_CHARGES


@<TRIPOS>ATOM
      1 ****        -3.0029  -1.4961   1.7572 O.2            1 S1                 0.0000
      2 ****        -2.1383  -0.6310   1.6066 C.2            1 S1                 0.0000
      3 ****        -0.8318  -0.8255   1.8589 O.3            1 S1                 0.0000
      4 ****        -0.3571  -2.0743   2.3410 C.3            1 S1                 0.0000
      5 ****         1.1403  -2.2125   2.0200 C.3            1 S1                 0.0000
      6 ****         1.8527  -1.0548   2.4339 O.3            1 S1                 0.0000
      7 ****         2.9034  -0.7733   1.5608 C.3            1 S1                 0.0000
      8 ****         2.7174   0.6662   1.1009 N.am           1 S1                 0.0000
      9 ****         2.1014   1.0216  -0.0963 C.2            1 S1                 0.0000
     10 ****         1.8371   2.3015  -0.4494 C.2            1 S1                 0.0000
     11 ****         2.1760   3.4019   0.4438 C.2            1 S1                 0.0000
     12 ****         1.9771   4.5921   0.2110 O.2            1 S1                 0.0000
     13 ****         2.7595   3.0066   1.6487 N.am           1 S1                 0.0000
     14 ****         3.0276   1.6904   2.0268 C.2            1 S1                 0.0000
     15 ****         3.5109   1.4638   3.1356 O.2            1 S1                 0.0000
     16 ****         2.8987  -1.8367   0.4385 C.3            1 S1                 0.0000
     17 ****         3.9003  -2.8144   0.6363 O.3            1 S1                 0.0000
     18 ****         1.5214  -2.4828   0.5578 C.3            1 S1                 0.0000
     19 ****         0.6036  -1.8912  -0.3550 O.3            1 S1                 0.0000
     20 ****         0.3957  -2.4171  -1.5813 C.2            1 S1                 0.0000
     21 ****         0.9423  -3.4430  -1.9900 O.2            1 S1                 0.0000
     22 ****        -0.5743  -1.6242  -2.3886 C.ar           1 S1                 0.0000
     23 ****        -1.0654  -2.1532  -3.6046 C.ar           1 S1                 0.0000
     24 ****        -1.9875  -1.4249  -4.3817 C.ar           1 S1                 0.0000
     25 ****        -2.4260  -0.1578  -3.9544 C.ar           1 S1                 0.0000
     26 ****        -1.9381   0.3826  -2.7506 C.ar           1 S1                 0.0000
     27 ****        -1.0168  -0.3448  -1.9735 C.ar           1 S1                 0.0000
     28 ****        -2.4215   0.7419   1.0993 C.ar           1 S1                 0.0000
     29 ****        -3.7047   1.0423   0.5874 C.ar           1 S1                 0.0000
     30 ****        -3.9909   2.3244   0.0795 C.ar           1 S1                 0.0000
     31 ****        -2.9985   3.3219   0.0815 C.ar           1 S1                 0.0000
     32 ****        -1.7202   3.0376   0.5954 C.ar           1 S1                 0.0000
     33 ****        -1.4322   1.7564   1.1038 C.ar           1 S1                 0.0000
     34 ****         2.9935   3.7338   2.3089 H              1 S1                 0.0000
     35 ****        -0.5154  -2.1116   3.4191 H              1 S1                 0.0000
     36 ****        -0.9056  -2.9082   1.9004 H              1 S1                 0.0000
     37 ****         1.5391  -3.0396   2.6086 H              1 S1                 0.0000
     38 ****         3.8566  -0.7791   2.0937 H              1 S1                 0.0000
     39 ****         1.8016   0.2767  -0.8103 H              1 S1                 0.0000
     40 ****         1.3620   2.5119  -1.3968 H              1 S1                 0.0000
     41 ****         3.1045  -1.4104  -0.5415 H              1 S1                 0.0000
     42 ****         3.7738  -3.2073   1.4864 H              1 S1                 0.0000
     43 ****         1.5627  -3.5599   0.3864 H              1 S1                 0.0000
     44 ****        -0.7451  -3.1254  -3.9510 H              1 S1                 0.0000
     45 ****        -2.3596  -1.8404  -5.3066 H              1 S1                 0.0000
     46 ****        -3.1339   0.3998  -4.5498 H              1 S1                 0.0000
     47 ****        -2.2700   1.3563  -2.4209 H              1 S1                 0.0000
     48 ****        -0.6560   0.1001  -1.0592 H              1 S1                 0.0000
     49 ****        -4.4797   0.2897   0.5692 H              1 S1                 0.0000
     50 ****        -4.9728   2.5412  -0.3146 H              1 S1                 0.0000
     51 ****        -3.2182   4.3046  -0.3093 H              1 S1                 0.0000
     52 ****        -0.9583   3.8031   0.5995 H              1 S1                 0.0000
     53 ****        -0.4410   1.5705   1.4911 H              1 S1                 0.0000
     54 ****        -2.7481  -2.4059   2.0849 LP             1 S1                 0.0000
     55 ****        -3.9592  -1.2883   1.5516 LP             1 S1                 0.0000
     56 ****         2.2219  -1.2087   3.3504 LP             1 S1                 0.0000
     57 ****         1.2265  -0.2754   2.4533 LP             1 S1                 0.0000
     58 ****         1.5503   4.8687  -0.6501 LP             1 S1                 0.0000
     59 ****         2.2421   5.2840   0.8825 LP             1 S1                 0.0000
     60 ****         3.7009   0.5227   3.4153 LP             1 S1                 0.0000
     61 ****         3.7137   2.2207   3.7568 LP             1 S1                 0.0000
     62 ****         4.8028  -2.3857   0.5941 LP             1 S1                 0.0000
     63 ****         3.8312  -3.5160  -0.0729 LP             1 S1                 0.0000
     64 ****         1.5825  -3.9369  -1.4016 LP             1 S1                 0.0000
     65 ****         0.7458  -3.7817  -2.9102 LP             1 S1                 0.0000
@<TRIPOS>BOND
    1    1    2 2     
    2    2    3 1     
    3    2   28 1     
    4    3    4 1     
    5    4    5 1     
    6    4   35 1     
    7    4   36 1     
    8    5   18 1     
    9    5    6 1     
   10    5   37 1     
   11    6    7 1     
   12    7    8 1     
   13    7   16 1     
   14    7   38 1     
   15    8   14 1     
   16    8    9 1     
   17    9   10 2     
   18    9   39 1     
   19   10   11 1     
   20   10   40 1     
   21   11   12 2     
   22   11   13 1     
   23   13   34 1     
   24   13   14 1     
   25   14   15 2     
   26   16   17 1     
   27   16   18 1     
   28   16   41 1     
   29   17   42 1     
   30   18   19 1     
   31   18   43 1     
   32   19   20 1     
   33   20   21 2     
   34   20   22 1     
   35   22   27 ar    
   36   22   23 ar    
   37   23   24 ar    
   38   23   44 1     
   39   24   25 ar    
   40   24   45 1     
   41   25   26 ar    
   42   25   46 1     
   43   26   27 ar    
   44   26   47 1     
   45   27   48 1     
   46   28   33 ar    
   47   28   29 ar    
   48   29   30 ar    
   49   29   49 1     
   50   30   31 ar    
   51   30   50 1     
   52   31   32 ar    
   53   31   51 1     
   54   32   33 ar    
   55   32   52 1     
   56   33   53 1     
   57    1   54 1     
   58    1   55 1     
   59    6   56 1     
   60    6   57 1     
   61   12   58 1     
   62   12   59 1     
   63   15   60 1     
   64   15   61 1     
   65   17   62 1     
   66   17   63 1     
   67   21   64 1     
   68   21   65 1     
@<TRIPOS>SUBSTRUCTURE
      1 S1             1
@<TRIPOS>SET
LONE_PAIRS      STATIC     ATOMS    <user>   **** ""
12 54 55 56 57 58 59 60 61 62 63 64 65
DONOR_HYDROGENS      STATIC     ATOMS    <user>   **** ""
2 34 42
ATOM$BLUE        STATIC     ATOMS    COLORGROUP SYSTEM
12 54 55 56 57 58 59 60 61 62 63 64 65
ATOM$RED        STATIC     ATOMS    COLORGROUP SYSTEM
2 34 42
