AV-unprocessed.smi:2645|AV-procd|sdf|10280|dock9
  -GOLD-   2272014293D 1   1.00000     0.00000
 Structure written by MMmdl.
 50 52  0  0  0  0  0  0  0  0  2 V2000
  153.0929  139.4780  157.4018 O   0  0  0  0  0  0  0  0  0  0  0  0
  152.3426  140.0638  156.6205 C   0  0  0  0  0  0  0  0  0  0  0  0
  151.8173  139.4810  155.5325 N   0  0  0  0  0  0  0  0  0  0  0  0
  152.0435  138.0930  155.1453 C   0  0  0  0  0  0  0  0  0  0  0  0
  151.1493  137.6803  153.9593 C   0  0  0  0  0  0  0  0  0  0  0  0
  150.1246  136.6764  154.3405 N   0  3  0  0  0  0  0  0  0  0  0  0
  150.7274  135.4857  154.9999 C   0  0  0  0  0  0  0  0  0  0  0  0
  149.6572  134.4532  155.4009 C   0  0  0  0  0  0  0  0  0  0  0  0
  148.6563  135.1118  156.2450 N   0  0  0  0  0  0  0  0  0  0  0  0
  148.4932  134.8209  157.5588 C   0  0  0  0  0  0  0  0  0  0  0  0
  149.1106  133.9056  158.1045 O   0  0  0  0  0  0  0  0  0  0  0  0
  147.5407  135.6934  158.4049 C   0  0  0  0  0  0  0  0  0  0  0  0
  148.0935  137.0505  158.8845 C   0  0  0  0  0  0  0  0  0  0  0  0
  148.3271  136.4474  160.2728 C   0  0  0  0  0  0  0  0  0  0  0  0
  147.4405  135.2623  159.8781 C   0  0  0  0  0  0  0  0  0  0  0  0
  147.9685  136.1763  155.5095 C   0  0  0  0  0  0  0  0  0  0  0  0
  148.9939  137.2558  155.1198 C   0  0  0  0  0  0  0  0  0  0  0  0
  151.9430  141.3429  156.7342 N   0  0  0  0  0  0  0  0  0  0  0  0
  152.2940  142.2839  157.7389 C   0  0  0  0  0  0  0  0  0  0  0  0
  152.4229  143.6184  157.2917 C   0  0  0  0  0  0  0  0  0  0  0  0
  152.7693  144.6269  158.2119 C   0  0  0  0  0  0  0  0  0  0  0  0
  152.9802  144.2742  159.5568 C   0  0  0  0  0  0  0  0  0  0  0  0
  152.8335  142.9226  159.9188 C   0  0  0  0  0  0  0  0  0  0  0  0
  152.5005  141.9546  159.0389 N   0  0  0  0  0  0  0  0  0  0  0  0
  151.2077  140.0294  154.9429 H   0  0  0  0  0  0  0  0  0  0  0  0
  153.1010  137.9607  154.9157 H   0  0  0  0  0  0  0  0  0  0  0  0
  151.8316  137.4609  156.0079 H   0  0  0  0  0  0  0  0  0  0  0  0
  150.6508  138.5761  153.5855 H   0  0  0  0  0  0  0  0  0  0  0  0
  151.7440  137.2929  153.1307 H   0  0  0  0  0  0  0  0  0  0  0  0
  151.4484  135.0204  154.3269 H   0  0  0  0  0  0  0  0  0  0  0  0
  151.2796  135.8055  155.8852 H   0  0  0  0  0  0  0  0  0  0  0  0
  149.1702  134.0504  154.5117 H   0  0  0  0  0  0  0  0  0  0  0  0
  150.1339  133.6021  155.8890 H   0  0  0  0  0  0  0  0  0  0  0  0
  146.5705  135.8226  157.9238 H   0  0  0  0  0  0  0  0  0  0  0  0
  149.0025  137.4075  158.3991 H   0  0  0  0  0  0  0  0  0  0  0  0
  147.3286  137.8283  158.8888 H   0  0  0  0  0  0  0  0  0  0  0  0
  149.3662  136.1584  160.4365 H   0  0  0  0  0  0  0  0  0  0  0  0
  147.9396  137.0473  161.0970 H   0  0  0  0  0  0  0  0  0  0  0  0
  146.4249  135.3414  160.2678 H   0  0  0  0  0  0  0  0  0  0  0  0
  147.8784  134.2907  160.1111 H   0  0  0  0  0  0  0  0  0  0  0  0
  147.5193  135.7518  154.6103 H   0  0  0  0  0  0  0  0  0  0  0  0
  147.1401  136.6247  156.0556 H   0  0  0  0  0  0  0  0  0  0  0  0
  149.3815  137.7360  156.0200 H   0  0  0  0  0  0  0  0  0  0  0  0
  148.4904  138.0287  154.5409 H   0  0  0  0  0  0  0  0  0  0  0  0
  151.3142  141.6839  156.0221 H   0  0  0  0  0  0  0  0  0  0  0  0
  152.2576  143.8727  156.2545 H   0  0  0  0  0  0  0  0  0  0  0  0
  152.8716  145.6529  157.8900 H   0  0  0  0  0  0  0  0  0  0  0  0
  153.2471  145.0190  160.2919 H   0  0  0  0  0  0  0  0  0  0  0  0
  152.9869  142.6095  160.9412 H   0  0  0  0  0  0  0  0  0  0  0  0
  149.7280  136.3338  153.4772 H   0  0  0  0  0  0  0  0  0  0  0  0
  1  2  2  0  0  0  0
  2  3  1  0  0  0  0
  2 18  1  0  0  0  0
  3  4  1  0  0  0  0
  3 25  1  0  0  0  0
  4  5  1  0  0  0  0
  4 26  1  0  0  0  0
  4 27  1  0  0  0  0
  5  6  1  0  0  0  0
  5 28  1  0  0  0  0
  5 29  1  0  0  0  0
  6 17  1  0  0  0  0
  6  7  1  0  0  0  0
  6 50  1  0  0  0  0
  7  8  1  0  0  0  0
  7 30  1  0  0  0  0
  7 31  1  0  0  0  0
  8  9  1  0  0  0  0
  8 32  1  0  0  0  0
  8 33  1  0  0  0  0
  9 10  1  0  0  0  0
  9 16  1  0  0  0  0
 10 11  2  0  0  0  0
 10 12  1  0  0  0  0
 12 15  1  0  0  0  0
 12 13  1  0  0  0  0
 12 34  1  0  0  0  0
 13 14  1  0  0  0  0
 13 35  1  0  0  0  0
 13 36  1  0  0  0  0
 14 15  1  0  0  0  0
 14 37  1  0  0  0  0
 14 38  1  0  0  0  0
 15 39  1  0  0  0  0
 15 40  1  0  0  0  0
 16 17  1  0  0  0  0
 16 41  1  0  0  0  0
 16 42  1  0  0  0  0
 17 43  1  0  0  0  0
 17 44  1  0  0  0  0
 18 19  1  0  0  0  0
 18 45  1  0  0  0  0
 19 24  1  0  0  0  0
 19 20  2  0  0  0  0
 20 21  1  0  0  0  0
 20 46  1  0  0  0  0
 21 22  2  0  0  0  0
 21 47  1  0  0  0  0
 22 23  1  0  0  0  0
 22 48  1  0  0  0  0
 23 24  2  0  0  0  0
 23 49  1  0  0  0  0
M  CHG  1   6   1
M  END
> <s_m_source_file>
AV-unprocessed.smi

> <i_m_source_file_index>
2645

> <i_lp_mmshare_version>
43012

> <i_f3d_flags>
0

> <s_epik_input>
bjFbY0hdW2NIXVtjSF1bY0hdYzFbTkhdQyg9TylbTkhdW0NIMl1bQ0gyXU4yW0NIMl1bQ0gyXU4oW0NIMl1bQ0gyXTIpQyg9TylbQ0hdM1tDSDJdW0NIMl1bQ0gyXTM=

> <s_epik_cmdline>
J2VwaWtfcHl0aG9uJywgJy1waCcsICc3LjAnLCAnLXRuJywgJzgnLCAnLW1hJywgJzIwMCcsICctbWV0YWxfYmluZGluZycsICctaW1hZScsICc8aW5maWxlLm1hZT4nLCAnLW9tYWUnLCAnPG91dGZpbGUubWFlPic=

> <r_epik_Ionization_Penalty>
0.58203

> <r_epik_Ionization_Penalty_Charging>
0.581996

> <r_epik_Ionization_Penalty_Neutral>
3.43439e-05

> <r_epik_State_Penalty>
0.594836

> <r_epik_Charging_Adjusted_Penalty>
1.17683

> <i_epik_Tot_Q>
1

> <i_epik_Tot_abs_Q>
1

> <r_epik_Metal_State_Penalty>
0.594839

> <b_epik_Metal_Only>
0

> <s_lp_Force_Field>
OPLS_2005

> <r_lp_Energy>
52.325

> <b_lp_Chiralities_Consistent>
1

> <s_lp_Variant>
AV-unprocessed.smi:2645-2

> <Gold.Version>
5.8.1

> <Gold.Id.Protein>
6NUR|6NUR_protein|mol2

> <Gold.PLP.Fitness>
51.7738

> <Gold.PLP.PLP>
-41.3521

> <Gold.PLP.part.hbond>
-3.0000

> <Gold.PLP.part.metal>
0.0000

> <Gold.PLP.part.buried>
-6.4771

> <Gold.PLP.part.nonpolar>
-32.0495

> <Gold.PLP.part.repulsive>
0.2539

> <Gold.PLP.ligand.clash>
0.0000

> <Gold.PLP.ligand.torsion>
1.0017

> <Gold.PLP.Chemscore.Hbond>
4.0000

> <Gold.PLP.Chemscore.CHOScore>
0.0000

> <Gold.PLP.Chemscore.Metal>
0.0000

> <Gold.Chemscore.Hbonds>
donor molecule, donor type, donor heavy atom, donor atom, acceptor molecule, acceptor atom, score
      L1  H     6    50       P1  7948  2.00
      P1  H  6896  6909       L1    11  1.00
      P1  H  7997  8009       L1     1  0.75

> <Gold.PLP.Chemscore.Internal.Correction>
0.4251

> <Gold.Rescore>
     Score         DG    S(hbond)    S(metal)    S(lipo)     H(rot)  DE(clash)    DE(int)     intcor
     19.78     -21.91       2.96        0.00      95.10       1.79       0.09       2.04       ----

> <Gold.Chemscore.Fitness>
19.7824

> <Gold.Chemscore.DG>
-21.9091

> <Gold.Chemscore.ZeroCoef>
-5.4800

> <Gold.Chemscore.Hbond>
2.9590

> <Gold.Chemscore.Metal>
0.0000

> <Gold.Chemscore.Lipo>
95.0990

> <Gold.Chemscore.Internal_Hbond>
0.0000

> <Gold.Chemscore.DEClash>
0.0892

> <Gold.Chemscore.DEInternal>
2.0374

> <Gold.Chemscore.Rot>
1.7894

> <Gold.Chemscore.Internal.Correction>
   9.000000E+99

> <Gold.Chemscore.Hbonds>
donor molecule, donor type, donor heavy atom, donor atom, acceptor molecule, acceptor atom, score
      L1  H     6    50       P1  7948  0.30
      P1  H  6896  6909       L1    11  0.92
      P1  H  7997  8009       L1     1  0.09

> <Gold.Chemscore.Hbond.Weighted>
-9.8832

> <Gold.Chemscore.Metal.Weighted>
-0.0000

> <Gold.Chemscore.Lipo.Weighted>
-11.1266

> <Gold.Chemscore.Internal_Hbond.Weighted>
0.0000

> <Gold.Chemscore.DEClash.Weighted>
0.0892

> <Gold.Chemscore.DEInternal.Weighted>
2.0374

> <Gold.Chemscore.Rot.Weighted>
4.5807

> <Gold.Chemscore.Internal.Correction.Weighted>
   9.000000E+99

> <Gold.Protein.RotatedTorsions>
[ 6907 6896 6895 6894 ] final   28.74 input  -60.11 | X-H torsion
[ 7974 7965 7964 7962 ] final -117.69 input  175.53 | X-H torsion
[ 8008 7997 7996 7995 ] final  171.36 input   59.86 | X-H torsion
[ 10167 10162 10161 10158 ] final  122.71 input  -65.29 | X-H torsion
[ 10718 10713 10712 10709 ] final  134.33 input   66.30 | X-H torsion
[ 10763 10752 10751 10750 ] final  124.49 input  -60.55 | X-H torsion
[ 11005 11000 10999 10996 ] final  -88.40 input  -57.11 | X-H torsion

> <Gold.Protein.ActiveResidues>
 VAL166  LYS551  ARG553  GLY616  TRP617  ASP618  TYR619  PRO620  LYS621  CYS622 
 ASP623  PHE694  ASN695  SER759  ASP760  ASP761  ALA762  ILE779  LEU786  VAL792 
 PHE793  MET794  SER795  GLU796  ALA797  LYS798  CYS799  TRP800  GLU811  SER814 

> <Gold.Protein.RotatedAtoms>
  152.0214  134.9821  160.0570 H   0  0  0  0  0  0  0  0  0  0  0  0  # atno 6907 bound_to 6896
  152.1334  133.4416  159.4740 H   0  0  0  0  0  0  0  0  0  0  0  0  # atno 6908 bound_to 6896
  150.6858  134.2312  159.4478 H   0  0  0  0  0  0  0  0  0  0  0  0  # atno 6909 bound_to 6896
  145.0823  140.8434  143.4031 H   0  0  0  0  0  0  0  0  0  0  0  0  # atno 7974 bound_to 7965
  156.1279  140.1514  156.9109 H   0  0  0  0  0  0  0  0  0  0  0  0  # atno 8008 bound_to 7997
  154.4885  140.0858  156.7582 H   0  0  0  0  0  0  0  0  0  0  0  0  # atno 8009 bound_to 7997
  155.4310  140.3427  155.4282 H   0  0  0  0  0  0  0  0  0  0  0  0  # atno 8010 bound_to 7997
  139.5842  144.6999  151.3450 H   0  0  0  0  0  0  0  0  0  0  0  0  # atno 10167 bound_to 10162
  157.4683  131.1078  150.9834 H   0  0  0  0  0  0  0  0  0  0  0  0  # atno 10718 bound_to 10713
  153.6622  135.3344  155.3130 H   0  0  0  0  0  0  0  0  0  0  0  0  # atno 10763 bound_to 10752
  154.8512  135.4366  154.1792 H   0  0  0  0  0  0  0  0  0  0  0  0  # atno 10764 bound_to 10752
  153.2762  135.7005  153.7507 H   0  0  0  0  0  0  0  0  0  0  0  0  # atno 10765 bound_to 10752
  141.1602  133.7568  156.9446 H   0  0  0  0  0  0  0  0  0  0  0  0  # atno 11005 bound_to 11000
  145.1163  139.2723  143.5611 LP  0  0  0  0  0  0  0  0  0  0  0  0  # atno 17320 bound_to 7965
  146.3531  140.0774  142.8619 LP  0  0  0  0  0  0  0  0  0  0  0  0  # atno 17321 bound_to 7965
  140.7117  143.7374  150.7578 LP  0  0  0  0  0  0  0  0  0  0  0  0  # atno 17342 bound_to 10162
  140.0914  143.4874  152.2476 LP  0  0  0  0  0  0  0  0  0  0  0  0  # atno 17343 bound_to 10162
  157.0608  130.5824  149.5385 LP  0  0  0  0  0  0  0  0  0  0  0  0  # atno 17370 bound_to 10713
  156.0061  130.5148  150.7834 LP  0  0  0  0  0  0  0  0  0  0  0  0  # atno 17371 bound_to 10713
  140.1298  134.9363  157.2321 LP  0  0  0  0  0  0  0  0  0  0  0  0  # atno 17394 bound_to 11000
  140.2967  134.3178  155.7300 LP  0  0  0  0  0  0  0  0  0  0  0  0  # atno 17395 bound_to 11000

$$$$
