AV-unprocessed.smi:36|AV-procd|sdf|298|dock9
  -GOLD-   2262016103D 1   1.00000     0.00000
 Structure written by MMmdl.
 63 66  0  0  0  0  0  0  0  0  2 V2000
  147.9720  135.1372  161.4980 C   0  0  0  0  0  0  0  0  0  0  0  0
  147.2904  133.7991  161.8287 C   0  0  0  0  0  0  0  0  0  0  0  0
  147.9942  133.1349  163.0237 C   0  0  0  0  0  0  0  0  0  0  0  0
  145.8087  134.0350  162.1673 C   0  0  0  0  0  0  0  0  0  0  0  0
  147.4021  132.6372  160.3164 Si  0  0  0  0  0  0  0  0  0  0  0  0
  146.4591  131.0170  160.6321 C   0  0  0  0  0  0  0  0  0  0  0  0
  146.7344  133.4778  158.7491 C   0  0  0  0  0  0  0  0  0  0  0  0
  149.0347  132.2740  160.0655 O   0  0  0  0  0  0  0  0  0  0  0  0
  149.5497  131.7611  158.8547 C   0  0  0  0  0  0  0  0  0  0  0  0
  150.0562  132.9337  158.0032 C   0  0  1  0  0  0  0  0  0  0  0  0
  150.8990  133.7991  158.7629 O   0  0  0  0  0  0  0  0  0  0  0  0
  151.8986  134.3401  157.9516 C   0  0  2  0  0  0  0  0  0  0  0  0
  151.8192  135.8314  158.0137 N   0  0  0  0  0  0  0  0  0  0  0  0
  151.1032  136.5762  158.8792 C   0  0  0  0  0  0  0  0  0  0  0  0
  151.1822  137.9001  158.7628 N   0  0  0  0  0  0  0  0  0  0  0  0
  152.0486  138.0357  157.6880 C   0  0  0  0  0  0  0  0  0  0  0  0
  152.5843  139.1763  157.0283 C   0  0  0  0  0  0  0  0  0  0  0  0
  152.2934  140.4334  157.3975 N   0  5  0  0  0  0  0  0  0  0  0  0
  152.5147  140.8292  158.6767 C   0  0  0  0  0  0  0  0  0  0  0  0
  152.8741  140.1366  159.6314 O   0  0  0  0  0  0  0  0  0  0  0  0
  152.3494  142.3117  158.8792 C   0  0  0  0  0  0  0  0  0  0  0  0
  152.4240  142.8527  160.1833 C   0  0  0  0  0  0  0  0  0  0  0  0
  152.2465  144.2335  160.3978 C   0  0  0  0  0  0  0  0  0  0  0  0
  151.9823  145.0875  159.3107 C   0  0  0  0  0  0  0  0  0  0  0  0
  151.8922  144.5590  158.0094 C   0  0  0  0  0  0  0  0  0  0  0  0
  152.0703  143.1783  157.7940 C   0  0  0  0  0  0  0  0  0  0  0  0
  153.4107  138.9458  155.9762 N   0  0  0  0  0  0  0  0  0  0  0  0
  153.7064  137.6933  155.6100 C   0  0  0  0  0  0  0  0  0  0  0  0
  153.2929  136.5415  156.1467 N   0  0  0  0  0  0  0  0  0  0  0  0
  152.4503  136.7583  157.1985 C   0  0  0  0  0  0  0  0  0  0  0  0
  151.6675  133.8345  156.5247 C   0  0  0  0  0  0  0  0  0  0  0  0
  150.8889  132.5584  156.7705 C   0  0  1  0  0  0  0  0  0  0  0  0
  151.7622  131.4735  157.0246 O   0  0  0  0  0  0  0  0  0  0  0  0
  147.9209  135.8264  162.3416 H   0  0  0  0  0  0  0  0  0  0  0  0
  147.4979  135.6254  160.6462 H   0  0  0  0  0  0  0  0  0  0  0  0
  149.0251  134.9964  161.2530 H   0  0  0  0  0  0  0  0  0  0  0  0
  149.0501  132.9591  162.8165 H   0  0  0  0  0  0  0  0  0  0  0  0
  147.5412  132.1725  163.2641 H   0  0  0  0  0  0  0  0  0  0  0  0
  147.9346  133.7590  163.9159 H   0  0  0  0  0  0  0  0  0  0  0  0
  145.6982  134.6779  163.0411 H   0  0  0  0  0  0  0  0  0  0  0  0
  145.2972  133.0960  162.3826 H   0  0  0  0  0  0  0  0  0  0  0  0
  145.2826  134.5126  161.3406 H   0  0  0  0  0  0  0  0  0  0  0  0
  145.4045  131.2012  160.8355 H   0  0  0  0  0  0  0  0  0  0  0  0
  146.8667  130.4767  161.4863 H   0  0  0  0  0  0  0  0  0  0  0  0
  146.5087  130.3484  159.7731 H   0  0  0  0  0  0  0  0  0  0  0  0
  145.6852  133.7520  158.8566 H   0  0  0  0  0  0  0  0  0  0  0  0
  146.8106  132.8226  157.8817 H   0  0  0  0  0  0  0  0  0  0  0  0
  147.2866  134.3877  158.5166 H   0  0  0  0  0  0  0  0  0  0  0  0
  150.3451  131.0400  159.0442 H   0  0  0  0  0  0  0  0  0  0  0  0
  148.7464  131.2358  158.3377 H   0  0  0  0  0  0  0  0  0  0  0  0
  149.2014  133.5193  157.6624 H   0  0  0  0  0  0  0  0  0  0  0  0
  152.8813  134.0824  158.3486 H   0  0  0  0  0  0  0  0  0  0  0  0
  150.4926  136.1208  159.6446 H   0  0  0  0  0  0  0  0  0  0  0  0
  152.6242  142.2105  161.0288 H   0  0  0  0  0  0  0  0  0  0  0  0
  152.3118  144.6365  161.3977 H   0  0  0  0  0  0  0  0  0  0  0  0
  151.8450  146.1458  159.4756 H   0  0  0  0  0  0  0  0  0  0  0  0
  151.6830  145.2122  157.1751 H   0  0  0  0  0  0  0  0  0  0  0  0
  151.9870  142.7914  156.7883 H   0  0  0  0  0  0  0  0  0  0  0  0
  154.3735  137.6005  154.7659 H   0  0  0  0  0  0  0  0  0  0  0  0
  151.0519  134.5446  155.9707 H   0  0  0  0  0  0  0  0  0  0  0  0
  152.6087  133.6957  155.9915 H   0  0  0  0  0  0  0  0  0  0  0  0
  150.2572  132.2996  155.9203 H   0  0  0  0  0  0  0  0  0  0  0  0
  151.2638  130.7756  157.4215 H   0  0  0  0  0  0  0  0  0  0  0  0
  1  2  1  0  0  0  0
  1 34  1  0  0  0  0
  1 35  1  0  0  0  0
  1 36  1  0  0  0  0
  2  3  1  0  0  0  0
  2  4  1  0  0  0  0
  2  5  1  0  0  0  0
  3 37  1  0  0  0  0
  3 38  1  0  0  0  0
  3 39  1  0  0  0  0
  4 40  1  0  0  0  0
  4 41  1  0  0  0  0
  4 42  1  0  0  0  0
  5  6  1  0  0  0  0
  5  7  1  0  0  0  0
  5  8  1  0  0  0  0
  6 43  1  0  0  0  0
  6 44  1  0  0  0  0
  6 45  1  0  0  0  0
  7 46  1  0  0  0  0
  7 47  1  0  0  0  0
  7 48  1  0  0  0  0
  8  9  1  0  0  0  0
  9 10  1  0  0  0  0
  9 49  1  0  0  0  0
  9 50  1  0  0  0  0
 10 32  1  0  0  0  0
 10 11  1  0  0  0  0
 10 51  1  0  0  0  0
 11 12  1  0  0  0  0
 12 13  1  0  0  0  0
 12 31  1  0  0  0  0
 12 52  1  0  0  0  0
 13 30  1  0  0  0  0
 13 14  1  0  0  0  0
 14 15  2  0  0  0  0
 14 53  1  0  0  0  0
 15 16  1  0  0  0  0
 16 30  2  0  0  0  0
 16 17  1  0  0  0  0
 17 18  1  0  0  0  0
 17 27  2  0  0  0  0
 18 19  1  0  0  0  0
 19 20  2  0  0  0  0
 19 21  1  0  0  0  0
 21 26  1  0  0  0  0
 21 22  2  0  0  0  0
 22 23  1  0  0  0  0
 22 54  1  0  0  0  0
 23 24  2  0  0  0  0
 23 55  1  0  0  0  0
 24 25  1  0  0  0  0
 24 56  1  0  0  0  0
 25 26  2  0  0  0  0
 25 57  1  0  0  0  0
 26 58  1  0  0  0  0
 27 28  1  0  0  0  0
 28 29  2  0  0  0  0
 28 59  1  0  0  0  0
 29 30  1  0  0  0  0
 31 32  1  0  0  0  0
 31 60  1  0  0  0  0
 31 61  1  0  0  0  0
 32 33  1  0  0  0  0
 32 62  1  0  0  0  0
 33 63  1  0  0  0  0
M  CHG  1  18  -1
M  END
> <s_m_source_file>
AV-unprocessed.smi

> <i_m_source_file_index>
36

> <i_lp_mmshare_version>
43012

> <i_f3d_flags>
0

> <s_epik_input>
W0NIM11DKFtDSDNdKShbQ0gzXSlbU2ldKFtDSDNdKShbQ0gzXSlPW0NIMl1bQ0BASF0xT1tDQEhdKFtDSDJdW0NASF0xW09IXSluKFtjSF1uMiljKGMyMyluW2NIXW5jM1tOSF1DKD1PKWM0W2NIXVtjSF1bY0hdW2NIXVtjSF00

> <s_epik_cmdline>
J2VwaWtfcHl0aG9uJywgJy1waCcsICc3LjAnLCAnLXRuJywgJzgnLCAnLW1hJywgJzIwMCcsICctbWV0YWxfYmluZGluZycsICctaW1hZScsICc8aW5maWxlLm1hZT4nLCAnLW9tYWUnLCAnPG91dGZpbGUubWFlPic=

> <r_lp_tautomer_probability>
1

> <r_epik_Ionization_Penalty>
4.75685

> <r_epik_Ionization_Penalty_Charging>
3.55822

> <r_epik_Ionization_Penalty_Neutral>
1.19863

> <r_epik_State_Penalty>
3.564

> <r_epik_Charging_Adjusted_Penalty>
7.12222

> <i_epik_Tot_Q>
-1

> <i_epik_Tot_abs_Q>
1

> <r_epik_Metal_State_Penalty>
0.523258

> <b_epik_Metal_Only>
1

> <s_epik_Chemistry_Notes>
This compound contains an acetal/aminal-like group ( X-CH(R)-Y where X, Y are N, S, or O) that may be acid/base labile, releasing an aldehyde.

> <s_lp_Force_Field>
OPLS_2005

> <r_lp_Energy>
38.0647

> <b_lp_Chiralities_Consistent>
1

> <s_lp_Variant>
AV-unprocessed.smi:36-20

> <Gold.Version>
5.8.1

> <Gold.Id.Protein>
6NUR|6NUR_protein|mol2

> <Gold.PLP.Fitness>
57.3301

> <Gold.PLP.PLP>
-51.2720

> <Gold.PLP.part.hbond>
-3.0000

> <Gold.PLP.part.metal>
0.0000

> <Gold.PLP.part.buried>
-9.8397

> <Gold.PLP.part.nonpolar>
-38.4348

> <Gold.PLP.part.repulsive>
0.1532

> <Gold.PLP.ligand.clash>
0.0000

> <Gold.PLP.ligand.torsion>
1.3818

> <Gold.PLP.Chemscore.Hbond>
2.8880

> <Gold.PLP.Chemscore.CHOScore>
0.0000

> <Gold.PLP.Chemscore.Metal>
0.0000

> <Gold.Chemscore.Hbonds>
donor molecule, donor type, donor heavy atom, donor atom, acceptor molecule, acceptor atom, score
      P1  H  7997  8009       L1    27  0.04
      P1  H 10752 10765       L1    29  0.16

> <Gold.PLP.Chemscore.Internal.Correction>
0.1578

> <Gold.Rescore>
     Score         DG    S(hbond)    S(metal)    S(lipo)     H(rot)  DE(clash)    DE(int)     intcor
     17.31     -20.29       2.30        0.00     119.34       2.67       0.62       2.37       ----

> <Gold.Chemscore.Fitness>
17.3099

> <Gold.Chemscore.DG>
-20.2926

> <Gold.Chemscore.ZeroCoef>
-5.4800

> <Gold.Chemscore.Hbond>
2.3011

> <Gold.Chemscore.Metal>
0.0000

> <Gold.Chemscore.Lipo>
119.3396

> <Gold.Chemscore.Internal_Hbond>
0.0000

> <Gold.Chemscore.DEClash>
0.6156

> <Gold.Chemscore.DEInternal>
2.3671

> <Gold.Chemscore.Rot>
2.6702

> <Gold.Chemscore.Internal.Correction>
   9.000000E+99

> <Gold.Chemscore.Hbonds>
donor molecule, donor type, donor heavy atom, donor atom, acceptor molecule, acceptor atom, score
      P1  H 10752 10765       L1    29  0.07

> <Gold.Chemscore.Hbond.Weighted>
-7.6856

> <Gold.Chemscore.Metal.Weighted>
-0.0000

> <Gold.Chemscore.Lipo.Weighted>
-13.9627

> <Gold.Chemscore.Internal_Hbond.Weighted>
0.0000

> <Gold.Chemscore.DEClash.Weighted>
0.6156

> <Gold.Chemscore.DEInternal.Weighted>
2.3671

> <Gold.Chemscore.Rot.Weighted>
6.8358

> <Gold.Chemscore.Internal.Correction.Weighted>
   9.000000E+99

> <Gold.Protein.RotatedTorsions>
[ 6907 6896 6895 6894 ] final    6.81 input  -60.11 | X-H torsion
[ 7974 7965 7964 7962 ] final -176.82 input  175.53 | X-H torsion
[ 8008 7997 7996 7995 ] final  154.65 input   59.86 | X-H torsion
[ 10167 10162 10161 10158 ] final   80.83 input  -65.29 | X-H torsion
[ 10718 10713 10712 10709 ] final   44.88 input   66.30 | X-H torsion
[ 10763 10752 10751 10750 ] final  -76.88 input  -60.55 | X-H torsion
[ 11005 11000 10999 10996 ] final -169.54 input  -57.11 | X-H torsion

> <Gold.Protein.ActiveResidues>
 VAL166  LYS551  ARG553  GLY616  TRP617  ASP618  TYR619  PRO620  LYS621  CYS622 
 ASP623  PHE694  ASN695  SER759  ASP760  ASP761  ALA762  ILE779  LEU786  VAL792 
 PHE793  MET794  SER795  GLU796  ALA797  LYS798  CYS799  TRP800  GLU811  SER814 

> <Gold.Protein.RotatedAtoms>
  151.6798  135.0963  160.0213 H   0  0  0  0  0  0  0  0  0  0  0  0  # atno 6907 bound_to 6896
  152.3842  133.6584  159.6194 H   0  0  0  0  0  0  0  0  0  0  0  0  # atno 6908 bound_to 6896
  150.7772  133.8979  159.3374 H   0  0  0  0  0  0  0  0  0  0  0  0  # atno 6909 bound_to 6896
  144.7127  140.1113  143.6411 H   0  0  0  0  0  0  0  0  0  0  0  0  # atno 7974 bound_to 7965
  156.2520  140.1961  156.6680 H   0  0  0  0  0  0  0  0  0  0  0  0  # atno 8008 bound_to 7997
  154.6414  140.0583  156.9876 H   0  0  0  0  0  0  0  0  0  0  0  0  # atno 8009 bound_to 7997
  155.1556  140.3255  155.4424 H   0  0  0  0  0  0  0  0  0  0  0  0  # atno 8010 bound_to 7997
  139.9456  144.6061  150.8210 H   0  0  0  0  0  0  0  0  0  0  0  0  # atno 10167 bound_to 10162
  157.4315  130.8028  149.7608 H   0  0  0  0  0  0  0  0  0  0  0  0  # atno 10718 bound_to 10713
  154.5056  135.5783  153.6565 H   0  0  0  0  0  0  0  0  0  0  0  0  # atno 10763 bound_to 10752
  152.9887  135.6146  154.2945 H   0  0  0  0  0  0  0  0  0  0  0  0  # atno 10764 bound_to 10752
  154.2856  135.2850  155.2657 H   0  0  0  0  0  0  0  0  0  0  0  0  # atno 10765 bound_to 10752
  140.5296  134.5630  157.5071 H   0  0  0  0  0  0  0  0  0  0  0  0  # atno 11005 bound_to 11000
  145.9452  139.2696  143.1245 LP  0  0  0  0  0  0  0  0  0  0  0  0  # atno 17320 bound_to 7965
  145.9381  140.9000  143.0322 LP  0  0  0  0  0  0  0  0  0  0  0  0  # atno 17321 bound_to 7965
  140.7598  143.3137  151.2783 LP  0  0  0  0  0  0  0  0  0  0  0  0  # atno 17342 bound_to 10162
  139.6669  144.0088  152.2729 LP  0  0  0  0  0  0  0  0  0  0  0  0  # atno 17343 bound_to 10162
  155.9915  130.3937  150.2982 LP  0  0  0  0  0  0  0  0  0  0  0  0  # atno 17370 bound_to 10713
  157.1139  131.0228  151.3037 LP  0  0  0  0  0  0  0  0  0  0  0  0  # atno 17371 bound_to 10713
  139.9561  134.7532  156.0338 LP  0  0  0  0  0  0  0  0  0  0  0  0  # atno 17394 bound_to 11000
  141.1289  133.6592  156.3411 LP  0  0  0  0  0  0  0  0  0  0  0  0  # atno 17395 bound_to 11000

$$$$
