#       Name:                AV-unprocessed.smi:1959
#       Creating user name   scv26
#       Creation time:       Fri Mar 27 10:07:56 2020


#       File generated by GOLD software.
#

@<TRIPOS>MOLECULE
AV-unprocessed.smi:1959
    50    51     1
SMALL
NO_CHARGES


@<TRIPOS>ATOM
      1 ****        -2.9543   5.0964  -0.6577 C.3            1 S1                 0.0000
      2 ****        -2.6033   4.0640   0.3728 C.2            1 S1                 0.0000
      3 ****        -2.5032   4.2242   1.7832 C.2            1 S1                 0.0000
      4 ****        -2.1583   2.9834   2.2398 C.2            1 S1                 0.0000
      5 ****        -1.9047   2.5046   3.6314 C.3            1 S1                 0.0000
      6 ****        -2.0671   2.1588   1.1323 N.pl3          1 S1                 0.0000
      7 ****        -1.7325   0.7427   1.0660 C.3            1 S1                 0.0000
      8 ****        -0.2227   0.4767   1.1152 C.2            1 S1                 0.0000
      9 ****         0.5895   1.4017   1.1693 O.2            1 S1                 0.0000
     10 ****         0.1376  -0.8156   1.0947 N.am           1 S1                 0.0000
     11 ****         1.5089  -1.3192   1.1269 C.3            1 S1                 0.0000
     12 ****         1.5412  -2.7556   1.6718 C.3            1 S1                 0.0000
     13 ****         2.2317  -1.1576  -0.2336 C.3            1 S1                 0.0000
     14 ****         1.9580  -2.1714  -1.2571 N.3            1 S1                 0.0000
     15 ****         2.8995  -2.0515  -2.3661 C.3            1 S1                 0.0000
     16 ****         2.6467  -3.1061  -3.4567 C.3            1 S1                 0.0000
     17 ****         1.3082  -2.9912  -3.9263 O.3            1 S1                 0.0000
     18 ****         0.3488  -3.1477  -2.8864 C.3            1 S1                 0.0000
     19 ****         0.5968  -2.1008  -1.7858 C.3            1 S1                 0.0000
     20 ****        -2.3419   2.8252  -0.0104 N.2            1 S1                 0.0000
     21 ****        -3.2141   6.0473  -0.1918 H              1 S1                 0.0000
     22 ****        -3.8070   4.7785  -1.2582 H              1 S1                 0.0000
     23 ****        -2.1176   5.2761  -1.3331 H              1 S1                 0.0000
     24 ****        -2.6604   5.1161   2.3715 H              1 S1                 0.0000
     25 ****        -2.0308   3.3138   4.3508 H              1 S1                 0.0000
     26 ****        -0.8887   2.1224   3.7324 H              1 S1                 0.0000
     27 ****        -2.5969   1.7067   3.9002 H              1 S1                 0.0000
     28 ****        -2.2200   0.2292   1.8953 H              1 S1                 0.0000
     29 ****        -2.1420   0.3199   0.1469 H              1 S1                 0.0000
     30 ****        -0.5958  -1.5081   1.0475 H              1 S1                 0.0000
     31 ****         2.0517  -0.7041   1.8472 H              1 S1                 0.0000
     32 ****         2.5647  -3.1261   1.7338 H              1 S1                 0.0000
     33 ****         0.9767  -3.4405   1.0381 H              1 S1                 0.0000
     34 ****         1.1124  -2.8038   2.6732 H              1 S1                 0.0000
     35 ****         2.0519  -0.1611  -0.6399 H              1 S1                 0.0000
     36 ****         3.3001  -1.1854  -0.0146 H              1 S1                 0.0000
     37 ****         2.8286  -1.0552  -2.8057 H              1 S1                 0.0000
     38 ****         3.9207  -2.1568  -1.9981 H              1 S1                 0.0000
     39 ****         3.3314  -2.9597  -4.2922 H              1 S1                 0.0000
     40 ****         2.8211  -4.1118  -3.0710 H              1 S1                 0.0000
     41 ****        -0.6513  -3.0290  -3.3036 H              1 S1                 0.0000
     42 ****         0.4085  -4.1579  -2.4782 H              1 S1                 0.0000
     43 ****        -0.1278  -2.2676  -0.9907 H              1 S1                 0.0000
     44 ****         0.4051  -1.1033  -2.1840 H              1 S1                 0.0000
     45 ****         0.2686   2.3487   1.1819 LP             1 S1                 0.0000
     46 ****         1.5696   1.2054   1.2006 LP             1 S1                 0.0000
     47 ****         2.0649  -3.0553  -0.8017 LP             1 S1                 0.0000
     48 ****         1.1495  -3.6963  -4.6175 LP             1 S1                 0.0000
     49 ****         1.1896  -2.0878  -4.3383 LP             1 S1                 0.0000
     50 ****        -2.3466   2.4615  -0.9419 LP             1 S1                 0.0000
@<TRIPOS>BOND
    1    1    2 1     
    2    1   21 1     
    3    1   22 1     
    4    1   23 1     
    5    2   20 2     
    6    2    3 1     
    7    3    4 2     
    8    3   24 1     
    9    4    5 1     
   10    4    6 1     
   11    5   25 1     
   12    5   26 1     
   13    5   27 1     
   14    6    7 1     
   15    6   20 1     
   16    7    8 1     
   17    7   28 1     
   18    7   29 1     
   19    8    9 2     
   20    8   10 am    
   21   10   11 1     
   22   10   30 1     
   23   11   12 1     
   24   11   13 1     
   25   11   31 1     
   26   12   32 1     
   27   12   33 1     
   28   12   34 1     
   29   13   14 1     
   30   13   35 1     
   31   13   36 1     
   32   14   19 1     
   33   14   15 1     
   34   15   16 1     
   35   15   37 1     
   36   15   38 1     
   37   16   17 1     
   38   16   39 1     
   39   16   40 1     
   40   17   18 1     
   41   18   19 1     
   42   18   41 1     
   43   18   42 1     
   44   19   43 1     
   45   19   44 1     
   46    9   45 1     
   47    9   46 1     
   48   14   47 1     
   49   17   48 1     
   50   17   49 1     
   51   20   50 1     
@<TRIPOS>SUBSTRUCTURE
      1 S1             1
@<TRIPOS>SET
LONE_PAIRS      STATIC     ATOMS    <user>   **** ""
6 45 46 47 48 49 50
DONOR_HYDROGENS      STATIC     ATOMS    <user>   **** ""
1 30
ATOM$BLUE        STATIC     ATOMS    COLORGROUP SYSTEM
6 45 46 47 48 49 50
ATOM$RED        STATIC     ATOMS    COLORGROUP SYSTEM
1 30
