AV-unprocessed.smi:2718|AV-procd|sdf|10491|dock3
  -GOLD-   2272014533D 1   1.00000     0.00000
 Structure written by MMmdl.
 47 48  0  0  0  0  0  0  0  0  1 V2000
  149.8088  141.2787  155.5329 C   0  0  0  0  0  0  0  0  0  0  0  0
  149.7636  141.8450  156.9380 C   0  0  0  0  0  0  0  0  0  0  0  0
  148.5003  141.5149  157.7140 C   0  0  0  0  0  0  0  0  0  0  0  0
  150.7764  142.5795  157.4372 C   0  0  0  0  0  0  0  0  0  0  0  0
  150.8439  143.1931  158.7963 C   0  0  1  0  0  0  0  0  0  0  0  0
  151.8628  142.7905  159.8558 C   0  0  1  0  0  0  0  0  0  0  0  0
  152.9199  141.7761  159.5523 C   0  0  0  0  0  0  0  0  0  0  0  0
  154.1213  142.0108  159.6835 O   0  0  0  0  0  0  0  0  0  0  0  0
  152.4446  140.5706  159.2052 N   0  0  0  0  0  0  0  0  0  0  0  0
  153.2635  139.4056  158.8885 C   0  0  0  0  0  0  0  0  0  0  0  0
  152.4623  138.2984  158.1721 C   0  0  1  0  0  0  0  0  0  0  0  0
  151.1818  137.8975  158.9258 C   0  0  0  0  0  0  0  0  0  0  0  0
  152.1608  138.6854  156.7511 C   0  0  0  0  0  0  0  0  0  0  0  0
  152.4892  139.8713  156.2203 N   0  0  0  0  0  0  0  0  0  0  0  0
  152.0609  139.8268  154.9090 N   0  0  0  0  0  0  0  0  0  0  0  0
  151.5209  138.6166  154.7745 C   0  0  0  0  0  0  0  0  0  0  0  0
  151.5521  137.8547  155.8780 N   0  0  0  0  0  0  0  0  0  0  0  0
  151.0593  136.5028  156.0526 C   0  0  0  0  0  0  0  0  0  0  0  0
  151.9374  144.1676  159.1998 C   0  0  0  0  0  0  0  0  0  0  0  0
  153.0325  144.5608  158.2102 C   0  0  0  0  0  0  0  0  0  0  0  0
  151.5679  145.3781  160.0393 C   0  0  0  0  0  0  0  0  0  0  0  0
  148.9723  141.6583  154.9457 H   0  0  0  0  0  0  0  0  0  0  0  0
  149.7425  140.1910  155.5618 H   0  0  0  0  0  0  0  0  0  0  0  0
  150.7327  141.5481  155.0204 H   0  0  0  0  0  0  0  0  0  0  0  0
  148.3776  140.4337  157.7868 H   0  0  0  0  0  0  0  0  0  0  0  0
  147.6286  141.9226  157.2019 H   0  0  0  0  0  0  0  0  0  0  0  0
  148.5135  141.9166  158.7268 H   0  0  0  0  0  0  0  0  0  0  0  0
  151.6296  142.7597  156.8004 H   0  0  0  0  0  0  0  0  0  0  0  0
  149.8440  143.4105  159.1674 H   0  0  0  0  0  0  0  0  0  0  0  0
  151.5230  142.7809  160.8897 H   0  0  0  0  0  0  0  0  0  0  0  0
  151.4430  140.4551  159.1445 H   0  0  0  0  0  0  0  0  0  0  0  0
  154.0950  139.7337  158.2640 H   0  0  0  0  0  0  0  0  0  0  0  0
  153.7072  139.0155  159.8064 H   0  0  0  0  0  0  0  0  0  0  0  0
  153.0925  137.4099  158.1501 H   0  0  0  0  0  0  0  0  0  0  0  0
  150.6626  137.0903  158.4082 H   0  0  0  0  0  0  0  0  0  0  0  0
  150.4909  138.7370  159.0101 H   0  0  0  0  0  0  0  0  0  0  0  0
  151.4023  137.5472  159.9342 H   0  0  0  0  0  0  0  0  0  0  0  0
  151.0936  138.2760  153.8428 H   0  0  0  0  0  0  0  0  0  0  0  0
  150.6363  136.1334  155.1181 H   0  0  0  0  0  0  0  0  0  0  0  0
  150.2857  136.4887  156.8208 H   0  0  0  0  0  0  0  0  0  0  0  0
  151.8781  135.8484  156.3533 H   0  0  0  0  0  0  0  0  0  0  0  0
  153.9188  144.9022  158.7456 H   0  0  0  0  0  0  0  0  0  0  0  0
  152.6863  145.3698  157.5664 H   0  0  0  0  0  0  0  0  0  0  0  0
  153.3268  143.7284  157.5714 H   0  0  0  0  0  0  0  0  0  0  0  0
  152.4374  145.7383  160.5899 H   0  0  0  0  0  0  0  0  0  0  0  0
  150.7876  145.1279  160.7587 H   0  0  0  0  0  0  0  0  0  0  0  0
  151.1988  146.1834  159.4036 H   0  0  0  0  0  0  0  0  0  0  0  0
  1  2  1  0  0  0  0
  1 22  1  0  0  0  0
  1 23  1  0  0  0  0
  1 24  1  0  0  0  0
  2  3  1  0  0  0  0
  2  4  2  0  0  0  0
  3 25  1  0  0  0  0
  3 26  1  0  0  0  0
  3 27  1  0  0  0  0
  4  5  1  0  0  0  0
  4 28  1  0  0  0  0
  5 19  1  0  0  0  0
  5  6  1  0  0  0  0
  5 29  1  0  0  0  0
  6  7  1  0  0  0  0
  6 19  1  0  0  0  0
  6 30  1  0  0  0  0
  7  8  2  0  0  0  0
  7  9  1  0  0  0  0
  9 10  1  0  0  0  0
  9 31  1  0  0  0  0
 10 11  1  0  0  0  0
 10 32  1  0  0  0  0
 10 33  1  0  0  0  0
 11 12  1  0  0  0  0
 11 13  1  0  0  0  0
 11 34  1  0  0  0  0
 12 35  1  0  0  0  0
 12 36  1  0  0  0  0
 12 37  1  0  0  0  0
 13 17  1  0  0  0  0
 13 14  2  0  0  0  0
 14 15  1  0  0  0  0
 15 16  2  0  0  0  0
 16 17  1  0  0  0  0
 16 38  1  0  0  0  0
 17 18  1  0  0  0  0
 18 39  1  0  0  0  0
 18 40  1  0  0  0  0
 18 41  1  0  0  0  0
 19 20  1  0  0  0  0
 19 21  1  0  0  0  0
 20 42  1  0  0  0  0
 20 43  1  0  0  0  0
 20 44  1  0  0  0  0
 21 45  1  0  0  0  0
 21 46  1  0  0  0  0
 21 47  1  0  0  0  0
M  END
> <s_m_source_file>
AV-unprocessed.smi

> <i_m_source_file_index>
2718

> <i_lp_mmshare_version>
43012

> <i_f3d_flags>
0

> <s_epik_input>
W0NIM11DKFtDSDNdKT1bQ0hdW0NAQEhdKEMxKFtDSDNdKVtDSDNdKVtDQEhdMUMoPU8pW05IXVtDSDJdW0NASF0oW0NIM10pYzJubltjSF1uMltDSDNd

> <s_epik_cmdline>
J2VwaWtfcHl0aG9uJywgJy1waCcsICc3LjAnLCAnLXRuJywgJzgnLCAnLW1hJywgJzIwMCcsICctbWV0YWxfYmluZGluZycsICctaW1hZScsICc8aW5maWxlLm1hZT4nLCAnLW9tYWUnLCAnPG91dGZpbGUubWFlPic=

> <r_lp_tautomer_probability>
1

> <r_epik_Ionization_Penalty>
0.000449586

> <r_epik_Ionization_Penalty_Charging>
0

> <r_epik_Ionization_Penalty_Neutral>
0.000449586

> <r_epik_State_Penalty>
0.000243372

> <r_epik_Charging_Adjusted_Penalty>
0.000243372

> <i_epik_Tot_Q>
0

> <i_epik_Tot_abs_Q>
0

> <r_epik_Metal_State_Penalty>
-0

> <b_epik_Metal_Only>
0

> <s_lp_Force_Field>
OPLS_2005

> <r_lp_Energy>
17.9129

> <b_lp_Chiralities_Consistent>
1

> <s_lp_Variant>
AV-unprocessed.smi:2718-6

> <Gold.Version>
5.8.1

> <Gold.Id.Protein>
6NUR|6NUR_protein|mol2

> <Gold.PLP.Fitness>
47.2962

> <Gold.PLP.PLP>
-42.1025

> <Gold.PLP.part.hbond>
-2.0000

> <Gold.PLP.part.metal>
0.0000

> <Gold.PLP.part.buried>
-6.1086

> <Gold.PLP.part.nonpolar>
-34.4964

> <Gold.PLP.part.repulsive>
0.1741

> <Gold.PLP.ligand.clash>
0.0000

> <Gold.PLP.ligand.torsion>
0.3052

> <Gold.PLP.Chemscore.Hbond>
1.8320

> <Gold.PLP.Chemscore.CHOScore>
0.0000

> <Gold.PLP.Chemscore.Metal>
0.0000

> <Gold.Chemscore.Hbonds>
donor molecule, donor type, donor heavy atom, donor atom, acceptor molecule, acceptor atom, score
      P1  H  7989  7998       L1    15  0.85
      P1  H  7997  8009       L1    14  1.00

> <Gold.PLP.Chemscore.Internal.Correction>
0.3081

> <Gold.Rescore>
     Score         DG    S(hbond)    S(metal)    S(lipo)     H(rot)  DE(clash)    DE(int)     intcor
     16.80     -17.50       1.60        0.00      99.78       1.95       0.27       0.43       ----

> <Gold.Chemscore.Fitness>
16.8041

> <Gold.Chemscore.DG>
-17.5000

> <Gold.Chemscore.ZeroCoef>
-5.4800

> <Gold.Chemscore.Hbond>
1.6008

> <Gold.Chemscore.Metal>
0.0000

> <Gold.Chemscore.Lipo>
99.7760

> <Gold.Chemscore.Internal_Hbond>
0.0000

> <Gold.Chemscore.DEClash>
0.2651

> <Gold.Chemscore.DEInternal>
0.4307

> <Gold.Chemscore.Rot>
1.9533

> <Gold.Chemscore.Internal.Correction>
   9.000000E+99

> <Gold.Chemscore.Hbonds>
donor molecule, donor type, donor heavy atom, donor atom, acceptor molecule, acceptor atom, score
      P1  H  7989  7998       L1    15  0.65
      P1  H  7997  8009       L1    14  0.57

> <Gold.Chemscore.Hbond.Weighted>
-5.3467

> <Gold.Chemscore.Metal.Weighted>
-0.0000

> <Gold.Chemscore.Lipo.Weighted>
-11.6738

> <Gold.Chemscore.Internal_Hbond.Weighted>
0.0000

> <Gold.Chemscore.DEClash.Weighted>
0.2651

> <Gold.Chemscore.DEInternal.Weighted>
0.4307

> <Gold.Chemscore.Rot.Weighted>
5.0005

> <Gold.Chemscore.Internal.Correction.Weighted>
   9.000000E+99

> <Gold.Protein.RotatedTorsions>
[ 6907 6896 6895 6894 ] final  113.50 input  -60.11 | X-H torsion
[ 7974 7965 7964 7962 ] final   73.33 input  175.53 | X-H torsion
[ 8008 7997 7996 7995 ] final -174.98 input   59.86 | X-H torsion
[ 10167 10162 10161 10158 ] final -107.22 input  -65.29 | X-H torsion
[ 10718 10713 10712 10709 ] final  -89.93 input   66.30 | X-H torsion
[ 10763 10752 10751 10750 ] final  101.59 input  -60.55 | X-H torsion
[ 11005 11000 10999 10996 ] final   20.16 input  -57.11 | X-H torsion

> <Gold.Protein.ActiveResidues>
 VAL166  LYS551  ARG553  GLY616  TRP617  ASP618  TYR619  PRO620  LYS621  CYS622 
 ASP623  PHE694  ASN695  SER759  ASP760  ASP761  ALA762  ILE779  LEU786  VAL792 
 PHE793  MET794  SER795  GLU796  ALA797  LYS798  CYS799  TRP800  GLU811  SER814 

> <Gold.Protein.RotatedAtoms>
  152.4857  133.8367  159.7130 H   0  0  0  0  0  0  0  0  0  0  0  0  # atno 6907 bound_to 6896
  150.8942  133.7194  159.2903 H   0  0  0  0  0  0  0  0  0  0  0  0  # atno 6908 bound_to 6896
  151.4657  135.1046  159.9789 H   0  0  0  0  0  0  0  0  0  0  0  0  # atno 6909 bound_to 6896
  145.7421  139.2725  143.1480 H   0  0  0  0  0  0  0  0  0  0  0  0  # atno 7974 bound_to 7965
  155.9769  140.1174  157.0762 H   0  0  0  0  0  0  0  0  0  0  0  0  # atno 8008 bound_to 7997
  154.4171  140.1152  156.5450 H   0  0  0  0  0  0  0  0  0  0  0  0  # atno 8009 bound_to 7997
  155.6523  140.3473  155.4755 H   0  0  0  0  0  0  0  0  0  0  0  0  # atno 8010 bound_to 7997
  140.1793  143.3980  152.1294 H   0  0  0  0  0  0  0  0  0  0  0  0  # atno 10167 bound_to 10162
  155.9986  130.4891  150.5246 H   0  0  0  0  0  0  0  0  0  0  0  0  # atno 10718 bound_to 10713
  153.3286  135.4039  155.1477 H   0  0  0  0  0  0  0  0  0  0  0  0  # atno 10763 bound_to 10752
  154.8618  135.3605  154.5500 H   0  0  0  0  0  0  0  0  0  0  0  0  # atno 10764 bound_to 10752
  153.5937  135.7073  153.5472 H   0  0  0  0  0  0  0  0  0  0  0  0  # atno 10765 bound_to 10752
  140.4057  134.1671  155.7665 H   0  0  0  0  0  0  0  0  0  0  0  0  # atno 11005 bound_to 11000
  146.0437  140.8139  142.9816 LP  0  0  0  0  0  0  0  0  0  0  0  0  # atno 17320 bound_to 7965
  144.6868  140.2949  143.7272 LP  0  0  0  0  0  0  0  0  0  0  0  0  # atno 17321 bound_to 7965
  139.5303  144.7151  151.5079 LP  0  0  0  0  0  0  0  0  0  0  0  0  # atno 17342 bound_to 10162
  140.6530  143.8657  150.6806 LP  0  0  0  0  0  0  0  0  0  0  0  0  # atno 17343 bound_to 10162
  157.3203  131.0680  151.1936 LP  0  0  0  0  0  0  0  0  0  0  0  0  # atno 17370 bound_to 10713
  157.2852  130.6769  149.6086 LP  0  0  0  0  0  0  0  0  0  0  0  0  # atno 17371 bound_to 10713
  141.1840  133.8352  157.1155 LP  0  0  0  0  0  0  0  0  0  0  0  0  # atno 17394 bound_to 11000
  140.0304  134.9904  157.0769 LP  0  0  0  0  0  0  0  0  0  0  0  0  # atno 17395 bound_to 11000

$$$$
