#       Name:                AV-unprocessed.smi:249
#       Creating user name   scv26
#       Creation time:       Thu Mar 26 21:01:56 2020


#       File generated by GOLD software.
#

@<TRIPOS>MOLECULE
AV-unprocessed.smi:249
    72    75     1
SMALL
NO_CHARGES


@<TRIPOS>ATOM
      1 ****        -3.0450  -4.5743   1.9525 C.3            1 S1                 0.0000
      2 ****        -3.9661  -3.6153   1.1854 C.3            1 S1                 0.0000
      3 ****        -3.4112  -2.2390   1.1114 N.4            1 S1                 1.0000
      4 ****        -3.5430  -1.4732   2.3804 C.3            1 S1                 0.0000
      5 ****        -2.7657  -0.1500   2.3065 C.3            1 S1                 0.0000
      6 ****        -3.2343   0.7059   1.1123 C.3            1 S1                 0.0000
      7 ****        -2.5739   2.0151   1.0246 N.3            1 S1                 0.0000
      8 ****        -3.1909   3.0251   0.1731 C.3            1 S1                 0.0000
      9 ****        -1.2198   2.0404   1.0205 C.ar           1 S1                 0.0000
     10 ****        -0.5933   2.1238   2.2210 N.ar           1 S1                 0.0000
     11 ****         0.7414   2.1567   2.2806 C.ar           1 S1                 0.0000
     12 ****         1.6225   2.1189   1.2790 N.ar           1 S1                 0.0000
     13 ****         0.9954   2.0415   0.0706 C.ar           1 S1                 0.0000
     14 ****        -0.4098   2.0008  -0.1505 C.ar           1 S1                 0.0000
     15 ****        -0.6710   1.9181  -1.5138 N.2            1 S1                 0.0000
     16 ****         0.5117   1.9148  -2.0663 C.2            1 S1                 0.0000
     17 ****         1.5680   1.9774  -1.1863 N.pl3          1 S1                 0.0000
     18 ****         2.9817   1.9805  -1.5171 C.3            1 S1                 0.0000
     19 ****         3.6838   0.6390  -1.1907 C.3            1 S1                 0.0000
     20 ****         2.9669  -0.5780  -1.8242 C.3            1 S1                 0.0000
     21 ****         2.9651  -0.4995  -3.2351 O.3            1 S1                 0.0000
     22 ****         5.1925   0.6846  -1.5408 C.3            1 S1                 0.0000
     23 ****         5.9842  -0.5408  -1.1188 C.3            1 S1                 0.0000
     24 ****         7.4187  -0.0249  -1.1448 C.3            1 S1                 0.0000
     25 ****         7.3389   1.3533  -0.7993 O.3            1 S1                 0.0000
     26 ****         5.9814   1.7828  -0.8202 C.3            1 S1                 0.0000
     27 ****        -3.1125  -0.1277  -0.1820 C.3            1 S1                 0.0000
     28 ****        -3.8694  -1.4687  -0.0831 C.3            1 S1                 0.0000
     29 ****        -5.4017  -1.2858  -0.1463 C.3            1 S1                 0.0000
     30 ****        -3.4378  -5.5907   1.9187 H              1 S1                 0.0000
     31 ****        -2.9498  -4.3001   3.0027 H              1 S1                 0.0000
     32 ****        -2.0454  -4.5932   1.5171 H              1 S1                 0.0000
     33 ****        -4.0881  -4.0104   0.1760 H              1 S1                 0.0000
     34 ****        -4.9600  -3.5980   1.6348 H              1 S1                 0.0000
     35 ****        -4.5939  -1.2869   2.6031 H              1 S1                 0.0000
     36 ****        -3.1521  -2.0574   3.2127 H              1 S1                 0.0000
     37 ****        -2.8937   0.4037   3.2373 H              1 S1                 0.0000
     38 ****        -1.7026  -0.3784   2.2210 H              1 S1                 0.0000
     39 ****        -4.2903   0.9264   1.2711 H              1 S1                 0.0000
     40 ****        -2.6589   3.9749   0.2441 H              1 S1                 0.0000
     41 ****        -4.2209   3.1987   0.4850 H              1 S1                 0.0000
     42 ****        -3.2024   2.7169  -0.8720 H              1 S1                 0.0000
     43 ****         1.1641   2.2230   3.2724 H              1 S1                 0.0000
     44 ****         0.6480   1.8564  -3.1367 H              1 S1                 0.0000
     45 ****         3.0901   2.2177  -2.5761 H              1 S1                 0.0000
     46 ****         3.4444   2.8015  -0.9692 H              1 S1                 0.0000
     47 ****         3.6146   0.5026  -0.1104 H              1 S1                 0.0000
     48 ****         3.4465  -1.5100  -1.5262 H              1 S1                 0.0000
     49 ****         1.9361  -0.6502  -1.4770 H              1 S1                 0.0000
     50 ****         2.5483  -1.2745  -3.5798 H              1 S1                 0.0000
     51 ****         5.3153   0.8223  -2.6164 H              1 S1                 0.0000
     52 ****         5.7135  -0.8399  -0.1051 H              1 S1                 0.0000
     53 ****         5.8393  -1.3971  -1.7782 H              1 S1                 0.0000
     54 ****         8.0704  -0.5704  -0.4618 H              1 S1                 0.0000
     55 ****         7.8348  -0.1070  -2.1497 H              1 S1                 0.0000
     56 ****         5.8877   2.7531  -1.3086 H              1 S1                 0.0000
     57 ****         5.6423   1.8910   0.2111 H              1 S1                 0.0000
     58 ****        -3.4789   0.4353  -1.0407 H              1 S1                 0.0000
     59 ****        -2.0614  -0.3372  -0.3833 H              1 S1                 0.0000
     60 ****        -3.5855  -2.0491  -0.9622 H              1 S1                 0.0000
     61 ****        -5.6853  -0.7308  -1.0408 H              1 S1                 0.0000
     62 ****        -5.7926  -0.7375   0.7100 H              1 S1                 0.0000
     63 ****        -5.9212  -2.2429  -0.1909 H              1 S1                 0.0000
     64 ****        -2.4187  -2.3627   0.9706 H              1 S1                 0.0000
     65 ****        -2.7963   2.3298   1.9474 LP             1 S1                 0.0000
     66 ****        -1.1314   2.1607   3.0631 LP             1 S1                 0.0000
     67 ****         2.6149   2.1441   1.3992 LP             1 S1                 0.0000
     68 ****        -1.5611   1.8718  -1.9672 LP             1 S1                 0.0000
     69 ****         3.9055  -0.4453  -3.5707 LP             1 S1                 0.0000
     70 ****         2.4598   0.3127  -3.5267 LP             1 S1                 0.0000
     71 ****         7.8664   1.8907  -1.4572 LP             1 S1                 0.0000
     72 ****         7.7145   1.4871   0.1178 LP             1 S1                 0.0000
@<TRIPOS>BOND
    1    1    2 1     
    2    1   30 1     
    3    1   31 1     
    4    1   32 1     
    5    2    3 1     
    6    2   33 1     
    7    2   34 1     
    8    3   28 1     
    9    3    4 1     
   10    3   64 1     
   11    4    5 1     
   12    4   35 1     
   13    4   36 1     
   14    5    6 1     
   15    5   37 1     
   16    5   38 1     
   17    6    7 1     
   18    6   27 1     
   19    6   39 1     
   20    7    8 1     
   21    7    9 1     
   22    8   40 1     
   23    8   41 1     
   24    8   42 1     
   25    9   14 ar    
   26    9   10 ar    
   27   10   11 ar    
   28   11   12 ar    
   29   11   43 1     
   30   12   13 ar    
   31   13   17 1     
   32   13   14 ar    
   33   14   15 1     
   34   15   16 2     
   35   16   17 1     
   36   16   44 1     
   37   17   18 1     
   38   18   19 1     
   39   18   45 1     
   40   18   46 1     
   41   19   20 1     
   42   19   22 1     
   43   19   47 1     
   44   20   21 1     
   45   20   48 1     
   46   20   49 1     
   47   21   50 1     
   48   22   26 1     
   49   22   23 1     
   50   22   51 1     
   51   23   24 1     
   52   23   52 1     
   53   23   53 1     
   54   24   25 1     
   55   24   54 1     
   56   24   55 1     
   57   25   26 1     
   58   26   56 1     
   59   26   57 1     
   60   27   28 1     
   61   27   58 1     
   62   27   59 1     
   63   28   29 1     
   64   28   60 1     
   65   29   61 1     
   66   29   62 1     
   67   29   63 1     
   68    7   65 1     
   69   10   66 1     
   70   12   67 1     
   71   15   68 1     
   72   21   69 1     
   73   21   70 1     
   74   25   71 1     
   75   25   72 1     
@<TRIPOS>SUBSTRUCTURE
      1 S1             1
@<TRIPOS>SET
LONE_PAIRS      STATIC     ATOMS    <user>   **** ""
8 65 66 67 68 69 70 71 72
DONOR_HYDROGENS      STATIC     ATOMS    <user>   **** ""
2 64 50
ATOM$BLUE        STATIC     ATOMS    COLORGROUP SYSTEM
8 65 66 67 68 69 70 71 72
ATOM$RED        STATIC     ATOMS    COLORGROUP SYSTEM
2 64 50
