AV-unprocessed.smi:443|AV-procd|sdf|2585|dock4
  -GOLD-   2262022573D 1   1.00000     0.00000
 Structure written by MMmdl.
 48 49  0  0  0  0  0  0  0  0  1 V2000
  147.0310  136.2896  154.5861 C   0  0  0  0  0  0  0  0  0  0  0  0
  148.5026  136.4715  154.8430 C   0  0  0  0  0  0  0  0  0  0  0  0
  149.0086  137.6179  154.5285 N   0  0  0  0  0  0  0  0  0  0  0  0
  150.3520  137.8858  154.7024 N   0  0  0  0  0  0  0  0  0  0  0  0
  150.7631  139.2191  154.2423 C   0  0  0  0  0  0  0  0  0  0  0  0
  149.7513  140.3165  154.6419 C   0  0  2  0  0  0  0  0  0  0  0  0
  149.3261  141.0293  153.4992 O   0  0  0  0  0  0  0  0  0  0  0  0
  150.2604  141.3111  155.7013 C   0  0  0  0  0  0  0  0  0  0  0  0
  150.8978  140.6054  156.7597 O   0  0  0  0  0  0  0  0  0  0  0  0
  151.4577  141.3205  157.7983 C   0  0  0  0  0  0  0  0  0  0  0  0
  151.3176  142.7268  157.9273 C   0  0  0  0  0  0  0  0  0  0  0  0
  151.8951  143.4128  159.0108 C   0  0  0  0  0  0  0  0  0  0  0  0
  152.6226  142.7063  159.9820 C   0  0  0  0  0  0  0  0  0  0  0  0
  152.7741  141.3137  159.8646 C   0  0  0  0  0  0  0  0  0  0  0  0
  152.2009  140.6116  158.7805 C   0  0  0  0  0  0  0  0  0  0  0  0
  152.4148  139.0979  158.7063 C   0  0  0  0  0  0  0  0  0  0  0  0
  151.0942  138.3093  158.6526 C   0  0  0  0  0  0  0  0  0  0  0  0
  153.3575  138.5835  159.8053 C   0  0  0  0  0  0  0  0  0  0  0  0
  151.2565  137.0087  155.2228 C   0  0  0  0  0  0  0  0  0  0  0  0
  152.4487  137.2883  155.3574 O   0  0  0  0  0  0  0  0  0  0  0  0
  150.6750  135.7155  155.5904 C   0  0  0  0  0  0  0  0  0  0  0  0
  151.5890  134.7664  156.1394 C   0  0  0  0  0  0  0  0  0  0  0  0
  152.3178  133.9945  156.6011 N   0  0  0  0  0  0  0  0  0  0  0  0
  149.3586  135.4376  155.4153 C   0  0  0  0  0  0  0  0  0  0  0  0
  148.7072  134.1087  155.7728 C   0  0  0  0  0  0  0  0  0  0  0  0
  146.4926  136.1227  155.5190 H   0  0  0  0  0  0  0  0  0  0  0  0
  146.8541  135.4340  153.9343 H   0  0  0  0  0  0  0  0  0  0  0  0
  146.5916  137.1635  154.1031 H   0  0  0  0  0  0  0  0  0  0  0  0
  151.7496  139.4637  154.6392 H   0  0  0  0  0  0  0  0  0  0  0  0
  150.8920  139.2109  153.1583 H   0  0  0  0  0  0  0  0  0  0  0  0
  148.8553  139.8388  155.0398 H   0  0  0  0  0  0  0  0  0  0  0  0
  149.0951  140.4076  152.8261 H   0  0  0  0  0  0  0  0  0  0  0  0
  150.9402  142.0367  155.2518 H   0  0  0  0  0  0  0  0  0  0  0  0
  149.4044  141.8607  156.0952 H   0  0  0  0  0  0  0  0  0  0  0  0
  150.7666  143.3107  157.2064 H   0  0  0  0  0  0  0  0  0  0  0  0
  151.7784  144.4832  159.0968 H   0  0  0  0  0  0  0  0  0  0  0  0
  153.0659  143.2311  160.8155 H   0  0  0  0  0  0  0  0  0  0  0  0
  153.3398  140.7856  160.6181 H   0  0  0  0  0  0  0  0  0  0  0  0
  152.9189  138.8933  157.7609 H   0  0  0  0  0  0  0  0  0  0  0  0
  150.4677  138.6551  157.8300 H   0  0  0  0  0  0  0  0  0  0  0  0
  150.5161  138.3978  159.5714 H   0  0  0  0  0  0  0  0  0  0  0  0
  151.2841  137.2474  158.4944 H   0  0  0  0  0  0  0  0  0  0  0  0
  154.3180  139.0976  159.7680 H   0  0  0  0  0  0  0  0  0  0  0  0
  153.5520  137.5176  159.6839 H   0  0  0  0  0  0  0  0  0  0  0  0
  152.9412  138.7259  160.8001 H   0  0  0  0  0  0  0  0  0  0  0  0
  149.4087  133.4169  156.2382 H   0  0  0  0  0  0  0  0  0  0  0  0
  148.3123  133.6246  154.8791 H   0  0  0  0  0  0  0  0  0  0  0  0
  147.8859  134.2597  156.4738 H   0  0  0  0  0  0  0  0  0  0  0  0
  1  2  1  0  0  0  0
  1 26  1  0  0  0  0
  1 27  1  0  0  0  0
  1 28  1  0  0  0  0
  2 24  1  0  0  0  0
  2  3  2  0  0  0  0
  3  4  1  0  0  0  0
  4  5  1  0  0  0  0
  4 19  1  0  0  0  0
  5  6  1  0  0  0  0
  5 29  1  0  0  0  0
  5 30  1  0  0  0  0
  6  7  1  0  0  0  0
  6  8  1  0  0  0  0
  6 31  1  0  0  0  0
  7 32  1  0  0  0  0
  8  9  1  0  0  0  0
  8 33  1  0  0  0  0
  8 34  1  0  0  0  0
  9 10  1  0  0  0  0
 10 15  1  0  0  0  0
 10 11  2  0  0  0  0
 11 12  1  0  0  0  0
 11 35  1  0  0  0  0
 12 13  2  0  0  0  0
 12 36  1  0  0  0  0
 13 14  1  0  0  0  0
 13 37  1  0  0  0  0
 14 15  2  0  0  0  0
 14 38  1  0  0  0  0
 15 16  1  0  0  0  0
 16 17  1  0  0  0  0
 16 18  1  0  0  0  0
 16 39  1  0  0  0  0
 17 40  1  0  0  0  0
 17 41  1  0  0  0  0
 17 42  1  0  0  0  0
 18 43  1  0  0  0  0
 18 44  1  0  0  0  0
 18 45  1  0  0  0  0
 19 20  2  0  0  0  0
 19 21  1  0  0  0  0
 21 22  1  0  0  0  0
 21 24  2  0  0  0  0
 22 23  3  0  0  0  0
 24 25  1  0  0  0  0
 25 46  1  0  0  0  0
 25 47  1  0  0  0  0
 25 48  1  0  0  0  0
M  END
> <s_m_source_file>
AV-unprocessed.smi

> <i_m_source_file_index>
443

> <i_lp_mmshare_version>
43012

> <i_f3d_flags>
0

> <s_epik_input>
TiNDYyhjMVtDSDNdKWMoPU8pbihuYzFbQ0gzXSlbQ0gyXVtDQEhdKFtPSF0pW0NIMl1PYzJbY0hdW2NIXVtjSF1bY0hdYzJbQ0hdKFtDSDNdKVtDSDNd

> <s_epik_cmdline>
J2VwaWtfcHl0aG9uJywgJy1waCcsICc3LjAnLCAnLXRuJywgJzgnLCAnLW1hJywgJzIwMCcsICctbWV0YWxfYmluZGluZycsICctaW1hZScsICc8aW5maWxlLm1hZT4nLCAnLW9tYWUnLCAnPG91dGZpbGUubWFlPic=

> <r_lp_tautomer_probability>
1

> <r_epik_Ionization_Penalty>
1.17331e-07

> <r_epik_Ionization_Penalty_Charging>
1.57223e-10

> <r_epik_Ionization_Penalty_Neutral>
1.17174e-07

> <r_epik_State_Penalty>
-0

> <r_epik_Charging_Adjusted_Penalty>
1.57223e-10

> <i_epik_Tot_Q>
0

> <i_epik_Tot_abs_Q>
0

> <r_epik_Metal_State_Penalty>
-0

> <b_epik_Metal_Only>
0

> <s_lp_Force_Field>
OPLS_2005

> <r_lp_Energy>
30.066

> <b_lp_Chiralities_Consistent>
1

> <s_lp_Variant>
AV-unprocessed.smi:443-1

> <Gold.Version>
5.8.1

> <Gold.Id.Protein>
6NUR|6NUR_protein|mol2

> <Gold.PLP.Fitness>
49.0179

> <Gold.PLP.PLP>
-43.0554

> <Gold.PLP.part.hbond>
-4.9658

> <Gold.PLP.part.metal>
0.0000

> <Gold.PLP.part.buried>
-5.9417

> <Gold.PLP.part.nonpolar>
-31.9999

> <Gold.PLP.part.repulsive>
0.2100

> <Gold.PLP.ligand.clash>
0.0000

> <Gold.PLP.ligand.torsion>
1.1200

> <Gold.PLP.Chemscore.Hbond>
2.6546

> <Gold.PLP.Chemscore.CHOScore>
0.0000

> <Gold.PLP.Chemscore.Metal>
0.0000

> <Gold.Chemscore.Hbonds>
donor molecule, donor type, donor heavy atom, donor atom, acceptor molecule, acceptor atom, score
      L1  H     7    32       P1  7957  0.74
      P1  H  8011  8017       L1     7  0.80
      P1  H 10752 10764       L1    20  0.40

> <Gold.PLP.Chemscore.Internal.Correction>
0.2389

> <Gold.Rescore>
     Score         DG    S(hbond)    S(metal)    S(lipo)     H(rot)  DE(clash)    DE(int)     intcor
     18.24     -19.71       2.48        0.00     103.63       2.41       0.07       1.40       ----

> <Gold.Chemscore.Fitness>
18.2369

> <Gold.Chemscore.DG>
-19.7071

> <Gold.Chemscore.ZeroCoef>
-5.4800

> <Gold.Chemscore.Hbond>
2.4755

> <Gold.Chemscore.Metal>
0.0000

> <Gold.Chemscore.Lipo>
103.6262

> <Gold.Chemscore.Internal_Hbond>
0.0000

> <Gold.Chemscore.DEClash>
0.0700

> <Gold.Chemscore.DEInternal>
1.4002

> <Gold.Chemscore.Rot>
2.4084

> <Gold.Chemscore.Internal.Correction>
   9.000000E+99

> <Gold.Chemscore.Hbonds>
donor molecule, donor type, donor heavy atom, donor atom, acceptor molecule, acceptor atom, score
      L1  H     7    32       P1  7957  0.74
      P1  H  8011  8017       L1     7  0.12
      P1  H 10752 10764       L1    20  0.03

> <Gold.Chemscore.Hbond.Weighted>
-8.2683

> <Gold.Chemscore.Metal.Weighted>
-0.0000

> <Gold.Chemscore.Lipo.Weighted>
-12.1243

> <Gold.Chemscore.Internal_Hbond.Weighted>
0.0000

> <Gold.Chemscore.DEClash.Weighted>
0.0700

> <Gold.Chemscore.DEInternal.Weighted>
1.4002

> <Gold.Chemscore.Rot.Weighted>
6.1655

> <Gold.Chemscore.Internal.Correction.Weighted>
   9.000000E+99

> <Gold.Protein.RotatedTorsions>
[ 6907 6896 6895 6894 ] final -140.15 input  -60.11 | X-H torsion
[ 7974 7965 7964 7962 ] final  -41.11 input  175.53 | X-H torsion
[ 8008 7997 7996 7995 ] final  -58.39 input   59.86 | X-H torsion
[ 10167 10162 10161 10158 ] final  125.43 input  -65.29 | X-H torsion
[ 10718 10713 10712 10709 ] final  164.46 input   66.30 | X-H torsion
[ 10763 10752 10751 10750 ] final  -54.72 input  -60.55 | X-H torsion
[ 11005 11000 10999 10996 ] final   46.58 input  -57.11 | X-H torsion

> <Gold.Protein.ActiveResidues>
 VAL166  LYS551  ARG553  GLY616  TRP617  ASP618  TYR619  PRO620  LYS621  CYS622 
 ASP623  PHE694  ASN695  SER759  ASP760  ASP761  ALA762  ILE779  LEU786  VAL792 
 PHE793  MET794  SER795  GLU796  ALA797  LYS798  CYS799  TRP800  GLU811  SER814 

> <Gold.Protein.RotatedAtoms>
  151.0569  133.5576  159.2637 H   0  0  0  0  0  0  0  0  0  0  0  0  # atno 6907 bound_to 6896
  151.2566  135.0639  159.9092 H   0  0  0  0  0  0  0  0  0  0  0  0  # atno 6908 bound_to 6896
  152.5391  134.0321  159.8083 H   0  0  0  0  0  0  0  0  0  0  0  0  # atno 6909 bound_to 6896
  146.0242  140.6813  142.9164 H   0  0  0  0  0  0  0  0  0  0  0  0  # atno 7974 bound_to 7965
  154.4307  140.1085  156.5949 H   0  0  0  0  0  0  0  0  0  0  0  0  # atno 8008 bound_to 7997
  155.5973  140.3493  155.4565 H   0  0  0  0  0  0  0  0  0  0  0  0  # atno 8009 bound_to 7997
  156.0200  140.1237  157.0356 H   0  0  0  0  0  0  0  0  0  0  0  0  # atno 8010 bound_to 7997
  139.5686  144.6926  151.3841 H   0  0  0  0  0  0  0  0  0  0  0  0  # atno 10167 bound_to 10162
  157.0940  131.0425  151.2525 H   0  0  0  0  0  0  0  0  0  0  0  0  # atno 10718 bound_to 10713
  154.1793  135.6446  153.5030 H   0  0  0  0  0  0  0  0  0  0  0  0  # atno 10763 bound_to 10752
  153.0063  135.5402  154.6531 H   0  0  0  0  0  0  0  0  0  0  0  0  # atno 10764 bound_to 10752
  154.5891  135.2932  155.0627 H   0  0  0  0  0  0  0  0  0  0  0  0  # atno 10765 bound_to 10752
  140.1356  134.4649  155.8488 H   0  0  0  0  0  0  0  0  0  0  0  0  # atno 11005 bound_to 11000
  144.7002  140.3619  143.7162 LP  0  0  0  0  0  0  0  0  0  0  0  0  # atno 17320 bound_to 7965
  145.7145  139.1693  143.2520 LP  0  0  0  0  0  0  0  0  0  0  0  0  # atno 17321 bound_to 7965
  140.6970  143.7725  150.7342 LP  0  0  0  0  0  0  0  0  0  0  0  0  # atno 17342 bound_to 10162
  140.1224  143.4600  152.2305 LP  0  0  0  0  0  0  0  0  0  0  0  0  # atno 17343 bound_to 10162
  157.4697  130.7701  149.7312 LP  0  0  0  0  0  0  0  0  0  0  0  0  # atno 17370 bound_to 10713
  155.9890  130.3954  150.3090 LP  0  0  0  0  0  0  0  0  0  0  0  0  # atno 17371 bound_to 10713
  141.2178  133.6813  156.7152 LP  0  0  0  0  0  0  0  0  0  0  0  0  # atno 17394 bound_to 11000
  140.2786  134.8335  157.3913 LP  0  0  0  0  0  0  0  0  0  0  0  0  # atno 17395 bound_to 11000

$$$$
