AV-unprocessed.smi:3318|AV-procd|sdf|12766|dock2
  -GOLD-   2272019103D 1   1.00000     0.00000
 Structure written by MMmdl.
 44 45  0  0  0  0  0  0  0  0  2 V2000
  148.7524  132.7828  154.6453 C   0  0  0  0  0  0  0  0  0  0  0  0
  149.4695  134.0884  154.2842 C   0  0  0  0  0  0  0  0  0  0  0  0
  148.8696  135.3061  155.0089 C   0  0  0  0  0  0  0  0  0  0  0  0
  149.5127  136.5832  154.6074 N   0  3  2  0  0  0  0  0  0  0  0  0
  150.9928  136.5611  154.7381 C   0  0  0  0  0  0  0  0  0  0  0  0
  151.6236  137.8459  154.1741 C   0  0  0  0  0  0  0  0  0  0  0  0
  151.0346  139.1216  154.8126 C   0  0  2  0  0  0  0  0  0  0  0  0
  151.4865  139.3282  156.1854 N   0  0  0  0  0  0  0  0  0  0  0  0
  151.3503  140.7152  156.6090 C   0  0  0  0  0  0  0  0  0  0  0  0
  152.0259  140.9034  157.9744 C   0  0  0  0  0  0  0  0  0  0  0  0
  152.0091  142.3521  158.4245 C   0  0  0  0  0  0  0  0  0  0  0  0
  152.5984  142.7332  159.6489 C   0  0  0  0  0  0  0  0  0  0  0  0
  152.5613  144.0920  160.0171 C   0  0  0  0  0  0  0  0  0  0  0  0
  151.9409  145.0128  159.1509 C   0  0  0  0  0  0  0  0  0  0  0  0
  151.3835  144.5317  157.9493 C   0  0  0  0  0  0  0  0  0  0  0  0
  151.4141  143.2310  157.5865 N   0  0  0  0  0  0  0  0  0  0  0  0
  149.4964  139.0777  154.7784 C   0  0  0  0  0  0  0  0  0  0  0  0
  148.9294  137.7508  155.3155 C   0  0  0  0  0  0  0  0  0  0  0  0
  149.1973  131.9375  154.1199 H   0  0  0  0  0  0  0  0  0  0  0  0
  147.6971  132.8235  154.3741 H   0  0  0  0  0  0  0  0  0  0  0  0
  148.8167  132.5803  155.7148 H   0  0  0  0  0  0  0  0  0  0  0  0
  150.5264  133.9795  154.5254 H   0  0  0  0  0  0  0  0  0  0  0  0
  149.4122  134.2397  153.2056 H   0  0  0  0  0  0  0  0  0  0  0  0
  147.8074  135.3498  154.7635 H   0  0  0  0  0  0  0  0  0  0  0  0
  148.9298  135.1832  156.0916 H   0  0  0  0  0  0  0  0  0  0  0  0
  151.2657  136.4377  155.7873 H   0  0  0  0  0  0  0  0  0  0  0  0
  151.4088  135.7072  154.2050 H   0  0  0  0  0  0  0  0  0  0  0  0
  152.7077  137.8074  154.2752 H   0  0  0  0  0  0  0  0  0  0  0  0
  151.4345  137.8789  153.1003 H   0  0  0  0  0  0  0  0  0  0  0  0
  151.3505  139.9886  154.2304 H   0  0  0  0  0  0  0  0  0  0  0  0
  150.9317  138.7536  156.8044 H   0  0  0  0  0  0  0  0  0  0  0  0
  151.8063  141.3858  155.8815 H   0  0  0  0  0  0  0  0  0  0  0  0
  150.2935  140.9758  156.6795 H   0  0  0  0  0  0  0  0  0  0  0  0
  151.5257  140.2946  158.7294 H   0  0  0  0  0  0  0  0  0  0  0  0
  153.0587  140.5541  157.9331 H   0  0  0  0  0  0  0  0  0  0  0  0
  153.0688  142.0036  160.2916 H   0  0  0  0  0  0  0  0  0  0  0  0
  153.0012  144.4221  160.9467 H   0  0  0  0  0  0  0  0  0  0  0  0
  151.8937  146.0623  159.4009 H   0  0  0  0  0  0  0  0  0  0  0  0
  150.9004  145.2096  157.2612 H   0  0  0  0  0  0  0  0  0  0  0  0
  149.0760  139.9189  155.3315 H   0  0  0  0  0  0  0  0  0  0  0  0
  149.1662  139.2045  153.7467 H   0  0  0  0  0  0  0  0  0  0  0  0
  147.8459  137.7552  155.1907 H   0  0  0  0  0  0  0  0  0  0  0  0
  149.1227  137.6613  156.3857 H   0  0  0  0  0  0  0  0  0  0  0  0
  149.3027  136.7136  153.6281 H   0  0  0  0  0  0  0  0  0  0  0  0
  1  2  1  0  0  0  0
  1 19  1  0  0  0  0
  1 20  1  0  0  0  0
  1 21  1  0  0  0  0
  2  3  1  0  0  0  0
  2 22  1  0  0  0  0
  2 23  1  0  0  0  0
  3  4  1  0  0  0  0
  3 24  1  0  0  0  0
  3 25  1  0  0  0  0
  4 18  1  0  0  0  0
  4  5  1  0  0  0  0
  4 44  1  0  0  0  0
  5  6  1  0  0  0  0
  5 26  1  0  0  0  0
  5 27  1  0  0  0  0
  6  7  1  0  0  0  0
  6 28  1  0  0  0  0
  6 29  1  0  0  0  0
  7  8  1  0  0  0  0
  7 17  1  0  0  0  0
  7 30  1  0  0  0  0
  8  9  1  0  0  0  0
  8 31  1  0  0  0  0
  9 10  1  0  0  0  0
  9 32  1  0  0  0  0
  9 33  1  0  0  0  0
 10 11  1  0  0  0  0
 10 34  1  0  0  0  0
 10 35  1  0  0  0  0
 11 16  1  0  0  0  0
 11 12  2  0  0  0  0
 12 13  1  0  0  0  0
 12 36  1  0  0  0  0
 13 14  2  0  0  0  0
 13 37  1  0  0  0  0
 14 15  1  0  0  0  0
 14 38  1  0  0  0  0
 15 16  2  0  0  0  0
 15 39  1  0  0  0  0
 17 18  1  0  0  0  0
 17 40  1  0  0  0  0
 17 41  1  0  0  0  0
 18 42  1  0  0  0  0
 18 43  1  0  0  0  0
M  CHG  1   4   1
M  END
> <s_m_source_file>
AV-unprocessed.smi

> <i_m_source_file_index>
3318

> <i_lp_mmshare_version>
43012

> <i_f3d_flags>
0

> <s_epik_input>
W0NIM11bQ0gyXVtDSDJdTjFbQ0gyXVtDSDJdW0NIXShbQ0gyXVtDSDJdMSlbTkhdW0NIMl1bQ0gyXWMyW2NIXVtjSF1bY0hdW2NIXW4y

> <s_epik_cmdline>
J2VwaWtfcHl0aG9uJywgJy1waCcsICc3LjAnLCAnLXRuJywgJzgnLCAnLW1hJywgJzIwMCcsICctbWV0YWxfYmluZGluZycsICctaW1hZScsICc8aW5maWxlLm1hZT4nLCAnLW9tYWUnLCAnPG91dGZpbGUubWFlPic=

> <r_epik_Ionization_Penalty>
2.30703

> <r_epik_Ionization_Penalty_Charging>
0.000286176

> <r_epik_Ionization_Penalty_Neutral>
2.30674

> <r_epik_State_Penalty>
2.39905

> <r_epik_Charging_Adjusted_Penalty>
2.39933

> <i_epik_Tot_Q>
1

> <i_epik_Tot_abs_Q>
1

> <r_epik_Metal_State_Penalty>
2.30906

> <b_epik_Metal_Only>
0

> <s_lp_Force_Field>
OPLS_2005

> <r_lp_Energy>
21.3611

> <b_lp_Chiralities_Consistent>
1

> <s_lp_Variant>
AV-unprocessed.smi:3318-5

> <Gold.Version>
5.8.1

> <Gold.Id.Protein>
6NUR|6NUR_protein|mol2

> <Gold.PLP.Fitness>
47.5820

> <Gold.PLP.PLP>
-38.9007

> <Gold.PLP.part.hbond>
-1.0000

> <Gold.PLP.part.metal>
0.0000

> <Gold.PLP.part.buried>
-3.3180

> <Gold.PLP.part.nonpolar>
-35.3707

> <Gold.PLP.part.repulsive>
0.1326

> <Gold.PLP.ligand.clash>
0.0000

> <Gold.PLP.ligand.torsion>
0.2145

> <Gold.PLP.Chemscore.Hbond>
2.0000

> <Gold.PLP.Chemscore.CHOScore>
0.9952

> <Gold.PLP.Chemscore.Metal>
0.0000

> <Gold.Chemscore.Hbonds>
donor molecule, donor type, donor heavy atom, donor atom, acceptor molecule, acceptor atom, score
      L1  H     4    44       P1  7948  2.00
      L1  C    15    39       P1  8028  0.90

> <Gold.PLP.Chemscore.Internal.Correction>
0.1247

> <Gold.Rescore>
     Score         DG    S(hbond)    S(metal)    S(lipo)     H(rot)  DE(clash)    DE(int)     intcor
     18.70     -18.98       0.98        0.00     119.84       1.48       0.06       0.21       ----

> <Gold.Chemscore.Fitness>
18.7034

> <Gold.Chemscore.DG>
-18.9756

> <Gold.Chemscore.ZeroCoef>
-5.4800

> <Gold.Chemscore.Hbond>
0.9779

> <Gold.Chemscore.Metal>
0.0000

> <Gold.Chemscore.Lipo>
119.8380

> <Gold.Chemscore.Internal_Hbond>
0.0000

> <Gold.Chemscore.DEClash>
0.0633

> <Gold.Chemscore.DEInternal>
0.2088

> <Gold.Chemscore.Rot>
1.4811

> <Gold.Chemscore.Internal.Correction>
   9.000000E+99

> <Gold.Chemscore.Hbonds>
donor molecule, donor type, donor heavy atom, donor atom, acceptor molecule, acceptor atom, score
      L1  H     4    44       P1  7948  0.95

> <Gold.Chemscore.Hbond.Weighted>
-3.2662

> <Gold.Chemscore.Metal.Weighted>
-0.0000

> <Gold.Chemscore.Lipo.Weighted>
-14.0210

> <Gold.Chemscore.Internal_Hbond.Weighted>
0.0000

> <Gold.Chemscore.DEClash.Weighted>
0.0633

> <Gold.Chemscore.DEInternal.Weighted>
0.2088

> <Gold.Chemscore.Rot.Weighted>
3.7917

> <Gold.Chemscore.Internal.Correction.Weighted>
   9.000000E+99

> <Gold.Protein.RotatedTorsions>
[ 6907 6896 6895 6894 ] final  145.61 input  -60.11 | X-H torsion
[ 7974 7965 7964 7962 ] final  127.03 input  175.53 | X-H torsion
[ 8008 7997 7996 7995 ] final   58.70 input   59.86 | X-H torsion
[ 10167 10162 10161 10158 ] final   71.25 input  -65.29 | X-H torsion
[ 10718 10713 10712 10709 ] final  167.42 input   66.30 | X-H torsion
[ 10763 10752 10751 10750 ] final -175.37 input  -60.55 | X-H torsion
[ 11005 11000 10999 10996 ] final  -42.59 input  -57.11 | X-H torsion

> <Gold.Protein.ActiveResidues>
 VAL166  LYS551  ARG553  GLY616  TRP617  ASP618  TYR619  PRO620  LYS621  CYS622 
 ASP623  PHE694  ASN695  SER759  ASP760  ASP761  ALA762  ILE779  LEU786  VAL792 
 PHE793  MET794  SER795  GLU796  ALA797  LYS798  CYS799  TRP800  GLU811  SER814 

> <Gold.Protein.RotatedAtoms>
  152.1786  133.4692  159.4946 H   0  0  0  0  0  0  0  0  0  0  0  0  # atno 6907 bound_to 6896
  150.6931  134.1862  159.4276 H   0  0  0  0  0  0  0  0  0  0  0  0  # atno 6908 bound_to 6896
  151.9772  135.0047  160.0606 H   0  0  0  0  0  0  0  0  0  0  0  0  # atno 6909 bound_to 6896
  145.0551  139.3851  143.5034 H   0  0  0  0  0  0  0  0  0  0  0  0  # atno 7974 bound_to 7965
  155.5543  140.3487  155.4476 H   0  0  0  0  0  0  0  0  0  0  0  0  # atno 8008 bound_to 7997
  156.0561  140.1329  157.0021 H   0  0  0  0  0  0  0  0  0  0  0  0  # atno 8009 bound_to 7997
  154.4457  140.0995  156.6432 H   0  0  0  0  0  0  0  0  0  0  0  0  # atno 8010 bound_to 7997
  140.0481  144.5334  150.7383 H   0  0  0  0  0  0  0  0  0  0  0  0  # atno 10167 bound_to 10162
  157.0518  131.0315  151.2678 H   0  0  0  0  0  0  0  0  0  0  0  0  # atno 10718 bound_to 10713
  154.5852  135.2840  155.0692 H   0  0  0  0  0  0  0  0  0  0  0  0  # atno 10763 bound_to 10752
  154.2013  135.6424  153.5092 H   0  0  0  0  0  0  0  0  0  0  0  0  # atno 10764 bound_to 10752
  153.0102  135.5469  154.6519 H   0  0  0  0  0  0  0  0  0  0  0  0  # atno 10765 bound_to 10752
  141.0326  133.6813  156.2616 H   0  0  0  0  0  0  0  0  0  0  0  0  # atno 11005 bound_to 11000
  146.3521  140.0220  142.8657 LP  0  0  0  0  0  0  0  0  0  0  0  0  # atno 17320 bound_to 7965
  145.1479  140.9607  143.4450 LP  0  0  0  0  0  0  0  0  0  0  0  0  # atno 17321 bound_to 7965
  140.7229  143.2607  151.4218 LP  0  0  0  0  0  0  0  0  0  0  0  0  # atno 17342 bound_to 10162
  139.5970  144.1375  152.2155 LP  0  0  0  0  0  0  0  0  0  0  0  0  # atno 17343 bound_to 10162
  157.5024  130.7888  149.7618 LP  0  0  0  0  0  0  0  0  0  0  0  0  # atno 17370 bound_to 10713
  156.0005  130.3883  150.2624 LP  0  0  0  0  0  0  0  0  0  0  0  0  # atno 17371 bound_to 10713
  140.6379  134.5196  157.5566 LP  0  0  0  0  0  0  0  0  0  0  0  0  # atno 17394 bound_to 11000
  139.9218  134.8133  156.1188 LP  0  0  0  0  0  0  0  0  0  0  0  0  # atno 17395 bound_to 11000

$$$$
