#       Name:                AV-unprocessed.smi:3285
#       Creating user name   scv26
#       Creation time:       Fri Mar 27 18:50:20 2020


#       File generated by GOLD software.
#

@<TRIPOS>MOLECULE
AV-unprocessed.smi:3285
    48    49     1
SMALL
NO_CHARGES


@<TRIPOS>ATOM
      1 ****        -3.6039   3.0663  -2.4219 C.3            1 S1                 0.0000
      2 ****        -3.7167   3.0255  -0.9247 C.2            1 S1                 0.0000
      3 ****        -4.1899   4.0758  -0.2757 N.2            1 S1                 0.0000
      4 ****        -4.1692   3.7310   1.0790 O.3            1 S1                 0.0000
      5 ****        -3.6767   2.4717   1.1940 C.2            1 S1                 0.0000
      6 ****        -3.5744   1.9166   2.5744 C.3            1 S1                 0.0000
      7 ****        -3.3686   1.9657  -0.0390 C.2            1 S1                 0.0000
      8 ****        -2.7985   0.6171  -0.3861 C.3            1 S1                 0.0000
      9 ****        -1.2717   0.5963  -0.2373 C.3            1 S1                 0.0000
     10 ****        -0.7246  -0.7318  -0.5845 N.4            1 S1                 1.0000
     11 ****         0.7468  -0.8542  -0.4846 C.3            1 S1                 0.0000
     12 ****         1.2216  -2.0757  -1.2919 C.3            1 S1                 0.0000
     13 ****         2.7414  -2.2767  -1.1833 C.3            1 S1                 0.0000
     14 ****         3.1890  -2.3943   0.2864 C.3            1 S1                 0.0000
     15 ****         4.6939  -2.6853   0.4058 C.3            1 S1                 0.0000
     16 ****         2.7310  -1.1709   1.1203 C.3            1 S1                 0.0000
     17 ****         3.5005   0.1296   0.8121 C.3            1 S1                 0.0000
     18 ****         1.2056  -0.9750   0.9864 C.3            1 S1                 0.0000
     19 ****        -2.5618   3.0040  -2.7350 H              1 S1                 0.0000
     20 ****        -4.0192   3.9866  -2.8346 H              1 S1                 0.0000
     21 ****        -4.1381   2.2318  -2.8760 H              1 S1                 0.0000
     22 ****        -2.6539   1.3463   2.6970 H              1 S1                 0.0000
     23 ****        -4.4138   1.2543   2.7859 H              1 S1                 0.0000
     24 ****        -3.5763   2.7133   3.3185 H              1 S1                 0.0000
     25 ****        -3.2326  -0.1537   0.2519 H              1 S1                 0.0000
     26 ****        -3.0652   0.3393  -1.4065 H              1 S1                 0.0000
     27 ****        -0.8242   1.3502  -0.8865 H              1 S1                 0.0000
     28 ****        -1.0016   0.8515   0.7871 H              1 S1                 0.0000
     29 ****        -1.1498  -1.4326   0.0056 H              1 S1                 0.0000
     30 ****         1.1878   0.0372  -0.9328 H              1 S1                 0.0000
     31 ****         0.7151  -2.9739  -0.9353 H              1 S1                 0.0000
     32 ****         0.9440  -1.9620  -2.3406 H              1 S1                 0.0000
     33 ****         3.0251  -3.1773  -1.7289 H              1 S1                 0.0000
     34 ****         3.2597  -1.4507  -1.6713 H              1 S1                 0.0000
     35 ****         2.6794  -3.2648   0.7032 H              1 S1                 0.0000
     36 ****         5.2955  -1.9088  -0.0671 H              1 S1                 0.0000
     37 ****         4.9464  -3.6303  -0.0763 H              1 S1                 0.0000
     38 ****         4.9996  -2.7585   1.4500 H              1 S1                 0.0000
     39 ****         2.9294  -1.4000   2.1684 H              1 S1                 0.0000
     40 ****         3.4157   0.4223  -0.2339 H              1 S1                 0.0000
     41 ****         4.5610   0.0307   1.0429 H              1 S1                 0.0000
     42 ****         3.1228   0.9559   1.4151 H              1 S1                 0.0000
     43 ****         0.9049  -0.0986   1.5600 H              1 S1                 0.0000
     44 ****         0.6988  -1.8231   1.4499 H              1 S1                 0.0000
     45 ****        -0.9837  -0.9211  -1.5423 H              1 S1                 0.0000
     46 ****        -4.4993   4.9399  -0.6726 LP             1 S1                 0.0000
     47 ****        -5.0970   3.7658   1.4504 LP             1 S1                 0.0000
     48 ****        -3.5852   4.3690   1.5809 LP             1 S1                 0.0000
@<TRIPOS>BOND
    1    1    2 1     
    2    1   19 1     
    3    1   20 1     
    4    1   21 1     
    5    2    7 1     
    6    2    3 2     
    7    3    4 1     
    8    4    5 1     
    9    5    6 1     
   10    5    7 2     
   11    6   22 1     
   12    6   23 1     
   13    6   24 1     
   14    7    8 1     
   15    8    9 1     
   16    8   25 1     
   17    8   26 1     
   18    9   10 1     
   19    9   27 1     
   20    9   28 1     
   21   10   11 1     
   22   10   29 1     
   23   10   45 1     
   24   11   18 1     
   25   11   12 1     
   26   11   30 1     
   27   12   13 1     
   28   12   31 1     
   29   12   32 1     
   30   13   14 1     
   31   13   33 1     
   32   13   34 1     
   33   14   15 1     
   34   14   16 1     
   35   14   35 1     
   36   15   36 1     
   37   15   37 1     
   38   15   38 1     
   39   16   17 1     
   40   16   18 1     
   41   16   39 1     
   42   17   40 1     
   43   17   41 1     
   44   17   42 1     
   45   18   43 1     
   46   18   44 1     
   47    3   46 1     
   48    4   47 1     
   49    4   48 1     
@<TRIPOS>SUBSTRUCTURE
      1 S1             1
@<TRIPOS>SET
LONE_PAIRS      STATIC     ATOMS    <user>   **** ""
3 46 47 48
DONOR_HYDROGENS      STATIC     ATOMS    <user>   **** ""
2 29 45
ATOM$BLUE        STATIC     ATOMS    COLORGROUP SYSTEM
3 46 47 48
ATOM$RED        STATIC     ATOMS    COLORGROUP SYSTEM
2 29 45
