AV-unprocessed.smi:2760|AV-procd|sdf|10631|dock2
  -GOLD-   2272015 83D 1   1.00000     0.00000
 Structure written by MMmdl.
 32 33  0  0  0  0  0  0  0  0  1 V2000
  152.9282  139.1181  155.3079 O   0  0  0  0  0  0  0  0  0  0  0  0
  151.9027  139.9564  155.6308 C   0  0  0  0  0  0  0  0  0  0  0  0
  151.9306  140.6577  156.8549 C   0  0  0  0  0  0  0  0  0  0  0  0
  150.8360  141.5092  157.1226 C   0  0  0  0  0  0  0  0  0  0  0  0
  150.7301  142.3191  158.3763 C   0  0  0  0  0  0  0  0  0  0  0  0
  151.5804  143.5523  158.5866 C   0  0  0  0  0  0  0  0  0  0  0  0
  151.8421  142.3089  159.4000 C   0  0  0  0  0  0  0  0  0  0  0  0
  149.8216  141.6519  156.2414 N   0  0  0  0  0  0  0  0  0  0  0  0
  149.9061  140.9385  155.1163 C   0  0  0  0  0  0  0  0  0  0  0  0
  148.5805  141.1290  153.9463 S   0  0  0  0  0  0  0  0  0  0  0  0
  147.9990  139.4135  153.7992 C   0  0  0  0  0  0  0  0  0  0  0  0
  146.6834  139.3172  153.0167 C   0  0  0  0  0  0  0  0  0  0  0  0
  146.2426  137.9703  153.0142 O   0  0  0  0  0  0  0  0  0  0  0  0
  146.0499  137.4624  151.7028 C   0  0  0  0  0  0  0  0  0  0  0  0
  145.2822  136.1368  151.7697 C   0  0  0  0  0  0  0  0  0  0  0  0
  144.0586  136.3624  152.2469 F   0  0  0  0  0  0  0  0  0  0  0  0
  145.1750  135.6044  150.5527 F   0  0  0  0  0  0  0  0  0  0  0  0
  145.9061  135.2819  152.5798 F   0  0  0  0  0  0  0  0  0  0  0  0
  150.8795  140.0985  154.7606 N   0  0  0  0  0  0  0  0  0  0  0  0
  152.6326  138.2786  154.9913 H   0  0  0  0  0  0  0  0  0  0  0  0
  152.7475  140.5495  157.5534 H   0  0  0  0  0  0  0  0  0  0  0  0
  149.7051  142.3435  158.7417 H   0  0  0  0  0  0  0  0  0  0  0  0
  152.3142  143.8093  157.8253 H   0  0  0  0  0  0  0  0  0  0  0  0
  151.1330  144.3953  159.1091 H   0  0  0  0  0  0  0  0  0  0  0  0
  151.5653  142.3419  160.4518 H   0  0  0  0  0  0  0  0  0  0  0  0
  152.7414  141.7410  159.1694 H   0  0  0  0  0  0  0  0  0  0  0  0
  148.7725  138.8373  153.2912 H   0  0  0  0  0  0  0  0  0  0  0  0
  147.8863  138.9793  154.7929 H   0  0  0  0  0  0  0  0  0  0  0  0
  145.9215  139.9518  153.4714 H   0  0  0  0  0  0  0  0  0  0  0  0
  146.8326  139.6627  151.9924 H   0  0  0  0  0  0  0  0  0  0  0  0
  145.4937  138.1835  151.1014 H   0  0  0  0  0  0  0  0  0  0  0  0
  147.0147  137.3076  151.2167 H   0  0  0  0  0  0  0  0  0  0  0  0
  1  2  1  0  0  0  0
  1 20  1  0  0  0  0
  2 19  1  0  0  0  0
  2  3  2  0  0  0  0
  3  4  1  0  0  0  0
  3 21  1  0  0  0  0
  4  5  1  0  0  0  0
  4  8  2  0  0  0  0
  5  7  1  0  0  0  0
  5  6  1  0  0  0  0
  5 22  1  0  0  0  0
  6  7  1  0  0  0  0
  6 23  1  0  0  0  0
  6 24  1  0  0  0  0
  7 25  1  0  0  0  0
  7 26  1  0  0  0  0
  8  9  1  0  0  0  0
  9 10  1  0  0  0  0
  9 19  2  0  0  0  0
 10 11  1  0  0  0  0
 11 12  1  0  0  0  0
 11 27  1  0  0  0  0
 11 28  1  0  0  0  0
 12 13  1  0  0  0  0
 12 29  1  0  0  0  0
 12 30  1  0  0  0  0
 13 14  1  0  0  0  0
 14 15  1  0  0  0  0
 14 31  1  0  0  0  0
 14 32  1  0  0  0  0
 15 16  1  0  0  0  0
 15 17  1  0  0  0  0
 15 18  1  0  0  0  0
M  END
> <s_m_source_file>
AV-unprocessed.smi

> <i_m_source_file_index>
2760

> <i_lp_mmshare_version>
43012

> <i_f3d_flags>
0

> <s_epik_input>
W09IXWMxW2NIXWMoW0NIXTJbQ0gyXVtDSDJdMiluYyhuMSlTW0NIMl1bQ0gyXU9bQ0gyXUMoRikoRilG

> <s_epik_cmdline>
J2VwaWtfcHl0aG9uJywgJy1waCcsICc3LjAnLCAnLXRuJywgJzgnLCAnLW1hJywgJzIwMCcsICctbWV0YWxfYmluZGluZycsICctaW1hZScsICc8aW5maWxlLm1hZT4nLCAnLW9tYWUnLCAnPG91dGZpbGUubWFlPic=

> <r_lp_tautomer_probability>
0.0660145

> <r_epik_Ionization_Penalty>
3.02064

> <r_epik_Ionization_Penalty_Charging>
0

> <r_epik_Ionization_Penalty_Neutral>
3.02064

> <r_epik_State_Penalty>
2.51658

> <r_epik_Charging_Adjusted_Penalty>
2.51658

> <i_epik_Tot_Q>
0

> <i_epik_Tot_abs_Q>
0

> <r_epik_Metal_State_Penalty>
3.1674

> <b_epik_Metal_Only>
0

> <s_lp_Force_Field>
OPLS_2005

> <r_lp_Energy>
-0.868617

> <b_lp_Chiralities_Consistent>
1

> <s_lp_Variant>
AV-unprocessed.smi:2760-4

> <Gold.Version>
5.8.1

> <Gold.Id.Protein>
6NUR|6NUR_protein|mol2

> <Gold.PLP.Fitness>
40.2572

> <Gold.PLP.PLP>
-35.2883

> <Gold.PLP.part.hbond>
-2.0000

> <Gold.PLP.part.metal>
0.0000

> <Gold.PLP.part.buried>
0.6960

> <Gold.PLP.part.nonpolar>
-33.1618

> <Gold.PLP.part.repulsive>
0.4104

> <Gold.PLP.ligand.clash>
0.0000

> <Gold.PLP.ligand.torsion>
0.6475

> <Gold.PLP.Chemscore.Hbond>
2.0000

> <Gold.PLP.Chemscore.CHOScore>
0.0000

> <Gold.PLP.Chemscore.Metal>
0.0000

> <Gold.Chemscore.Hbonds>
donor molecule, donor type, donor heavy atom, donor atom, acceptor molecule, acceptor atom, score
      P1  H  7989  7998       L1    19  1.00
      P1  H  7997  8010       L1     1  0.95

> <Gold.PLP.Chemscore.Internal.Correction>
0.2638

> <Gold.Rescore>
     Score         DG    S(hbond)    S(metal)    S(lipo)     H(rot)  DE(clash)    DE(int)     intcor
      9.41     -10.11       1.42        0.00      68.16       3.16       0.15       0.55       ----

> <Gold.Chemscore.Fitness>
9.4130

> <Gold.Chemscore.DG>
-10.1066

> <Gold.Chemscore.ZeroCoef>
-5.4800

> <Gold.Chemscore.Hbond>
1.4162

> <Gold.Chemscore.Metal>
0.0000

> <Gold.Chemscore.Lipo>
68.1627

> <Gold.Chemscore.Internal_Hbond>
0.0000

> <Gold.Chemscore.DEClash>
0.1475

> <Gold.Chemscore.DEInternal>
0.5462

> <Gold.Chemscore.Rot>
3.1557

> <Gold.Chemscore.Internal.Correction>
   9.000000E+99

> <Gold.Chemscore.Hbonds>
donor molecule, donor type, donor heavy atom, donor atom, acceptor molecule, acceptor atom, score
      P1  H  7989  7998       L1    19  0.13
      P1  H  7997  8010       L1     1  0.21

> <Gold.Chemscore.Hbond.Weighted>
-4.7301

> <Gold.Chemscore.Metal.Weighted>
-0.0000

> <Gold.Chemscore.Lipo.Weighted>
-7.9750

> <Gold.Chemscore.Internal_Hbond.Weighted>
0.0000

> <Gold.Chemscore.DEClash.Weighted>
0.1475

> <Gold.Chemscore.DEInternal.Weighted>
0.5462

> <Gold.Chemscore.Rot.Weighted>
8.0785

> <Gold.Chemscore.Internal.Correction.Weighted>
   9.000000E+99

> <Gold.Protein.RotatedTorsions>
[ 6907 6896 6895 6894 ] final  -67.90 input  -60.11 | X-H torsion
[ 7974 7965 7964 7962 ] final -117.97 input  175.53 | X-H torsion
[ 8008 7997 7996 7995 ] final   98.01 input   59.86 | X-H torsion
[ 10167 10162 10161 10158 ] final  122.67 input  -65.29 | X-H torsion
[ 10718 10713 10712 10709 ] final  -49.50 input   66.30 | X-H torsion
[ 10763 10752 10751 10750 ] final -179.17 input  -60.55 | X-H torsion
[ 11005 11000 10999 10996 ] final  153.94 input  -57.11 | X-H torsion

> <Gold.Protein.ActiveResidues>
 VAL166  LYS551  ARG553  GLY616  TRP617  ASP618  TYR619  PRO620  LYS621  CYS622 
 ASP623  PHE694  ASN695  SER759  ASP760  ASP761  ALA762  ILE779  LEU786  VAL792 
 PHE793  MET794  SER795  GLU796  ALA797  LYS798  CYS799  TRP800  GLU811  SER814 

> <Gold.Protein.RotatedAtoms>
  150.7385  134.5816  159.5941 H   0  0  0  0  0  0  0  0  0  0  0  0  # atno 6907 bound_to 6896
  152.3228  134.7356  160.0318 H   0  0  0  0  0  0  0  0  0  0  0  0  # atno 6908 bound_to 6896
  151.7866  133.3319  159.3523 H   0  0  0  0  0  0  0  0  0  0  0  0  # atno 6909 bound_to 6896
  145.0792  140.8413  143.4049 H   0  0  0  0  0  0  0  0  0  0  0  0  # atno 7974 bound_to 7965
  156.0960  140.3250  155.7879 H   0  0  0  0  0  0  0  0  0  0  0  0  # atno 8008 bound_to 7997
  155.4916  140.0562  157.2970 H   0  0  0  0  0  0  0  0  0  0  0  0  # atno 8009 bound_to 7997
  154.4667  140.1992  156.0116 H   0  0  0  0  0  0  0  0  0  0  0  0  # atno 8010 bound_to 7997
  139.5844  144.7000  151.3445 H   0  0  0  0  0  0  0  0  0  0  0  0  # atno 10167 bound_to 10162
  156.1887  130.4152  149.9402 H   0  0  0  0  0  0  0  0  0  0  0  0  # atno 10718 bound_to 10713
  154.5385  135.2804  155.1117 H   0  0  0  0  0  0  0  0  0  0  0  0  # atno 10763 bound_to 10752
  154.2609  135.6322  153.5278 H   0  0  0  0  0  0  0  0  0  0  0  0  # atno 10764 bound_to 10752
  152.9973  135.5605  154.5918 H   0  0  0  0  0  0  0  0  0  0  0  0  # atno 10765 bound_to 10752
  140.1444  134.8717  157.2373 H   0  0  0  0  0  0  0  0  0  0  0  0  # atno 11005 bound_to 11000
  145.1199  139.2700  143.5594 LP  0  0  0  0  0  0  0  0  0  0  0  0  # atno 17320 bound_to 7965
  146.3530  140.0820  142.8617 LP  0  0  0  0  0  0  0  0  0  0  0  0  # atno 17321 bound_to 7965
  140.7118  143.7370  150.7581 LP  0  0  0  0  0  0  0  0  0  0  0  0  # atno 17342 bound_to 10162
  140.0910  143.4877  152.2478 LP  0  0  0  0  0  0  0  0  0  0  0  0  # atno 17343 bound_to 10162
  156.7149  130.8984  151.3613 LP  0  0  0  0  0  0  0  0  0  0  0  0  # atno 17370 bound_to 10713
  157.6915  130.9238  150.0528 LP  0  0  0  0  0  0  0  0  0  0  0  0  # atno 17371 bound_to 10713
  140.2682  134.3491  155.7382 LP  0  0  0  0  0  0  0  0  0  0  0  0  # atno 17394 bound_to 11000
  141.2190  133.7408  156.9183 LP  0  0  0  0  0  0  0  0  0  0  0  0  # atno 17395 bound_to 11000

$$$$
