AV-unprocessed.smi:428|AV-procd|sdf|2544|dock3
  -GOLD-   2262022503D 1   1.00000     0.00000
 Structure written by MMmdl.
 40 41  0  0  0  0  0  0  0  0  1 V2000
  148.8576  132.6641  154.1176 C   0  0  0  0  0  0  0  0  0  0  0  0
  149.7357  133.9065  153.9310 C   0  0  0  0  0  0  0  0  0  0  0  0
  149.8133  134.7663  155.2053 C   0  0  0  0  0  0  0  0  0  0  0  0
  150.8007  135.9322  155.0912 C   0  0  0  0  0  0  0  0  0  0  0  0
  151.7708  136.0120  155.8454 O   0  0  0  0  0  0  0  0  0  0  0  0
  150.5432  136.8299  154.1276 N   0  0  0  0  0  0  0  0  0  0  0  0
  151.3478  138.0148  153.8427 C   0  0  0  0  0  0  0  0  0  0  0  0
  151.4433  139.0305  154.9755 C   0  0  0  0  0  0  0  0  0  0  0  0
  152.5669  139.0153  155.8248 C   0  0  0  0  0  0  0  0  0  0  0  0
  152.6469  139.9456  156.8781 C   0  0  0  0  0  0  0  0  0  0  0  0
  151.5955  140.8746  157.0587 C   0  0  0  0  0  0  0  0  0  0  0  0
  151.6539  141.8136  158.1107 N   0  0  0  0  0  0  0  0  0  0  0  0
  150.5947  142.8174  158.1913 C   0  0  0  0  0  0  0  0  0  0  0  0
  150.9673  143.9074  159.2104 C   0  0  0  0  0  0  0  0  0  0  0  0
  151.2512  143.3077  160.4702 O   0  0  0  0  0  0  0  0  0  0  0  0
  152.3569  142.4140  160.3934 C   0  0  0  0  0  0  0  0  0  0  0  0
  152.0391  141.2728  159.4116 C   0  0  0  0  0  0  0  0  0  0  0  0
  150.5165  140.8921  156.2382 N   0  0  0  0  0  0  0  0  0  0  0  0
  150.4434  139.9953  155.2322 C   0  0  0  0  0  0  0  0  0  0  0  0
  148.8190  132.0747  153.2012 H   0  0  0  0  0  0  0  0  0  0  0  0
  147.8358  132.9398  154.3798 H   0  0  0  0  0  0  0  0  0  0  0  0
  149.2460  132.0230  154.9091 H   0  0  0  0  0  0  0  0  0  0  0  0
  150.7375  133.5932  153.6337 H   0  0  0  0  0  0  0  0  0  0  0  0
  149.3383  134.4989  153.1056 H   0  0  0  0  0  0  0  0  0  0  0  0
  148.8290  135.1722  155.4409 H   0  0  0  0  0  0  0  0  0  0  0  0
  150.1021  134.1380  156.0493 H   0  0  0  0  0  0  0  0  0  0  0  0
  149.7271  136.6841  153.5510 H   0  0  0  0  0  0  0  0  0  0  0  0
  152.3574  137.6804  153.6035 H   0  0  0  0  0  0  0  0  0  0  0  0
  150.9726  138.5128  152.9469 H   0  0  0  0  0  0  0  0  0  0  0  0
  153.3610  138.2990  155.6724 H   0  0  0  0  0  0  0  0  0  0  0  0
  153.5134  139.9457  157.5228 H   0  0  0  0  0  0  0  0  0  0  0  0
  150.4341  143.2745  157.2140 H   0  0  0  0  0  0  0  0  0  0  0  0
  149.6611  142.3359  158.4854 H   0  0  0  0  0  0  0  0  0  0  0  0
  151.8279  144.4838  158.8672 H   0  0  0  0  0  0  0  0  0  0  0  0
  150.1416  144.6090  159.3286 H   0  0  0  0  0  0  0  0  0  0  0  0
  153.2535  142.9537  160.0842 H   0  0  0  0  0  0  0  0  0  0  0  0
  152.5554  142.0095  161.3858 H   0  0  0  0  0  0  0  0  0  0  0  0
  151.2172  140.6681  159.7973 H   0  0  0  0  0  0  0  0  0  0  0  0
  152.9059  140.6179  159.3351 H   0  0  0  0  0  0  0  0  0  0  0  0
  149.5533  140.0591  154.6244 H   0  0  0  0  0  0  0  0  0  0  0  0
  1  2  1  0  0  0  0
  1 20  1  0  0  0  0
  1 21  1  0  0  0  0
  1 22  1  0  0  0  0
  2  3  1  0  0  0  0
  2 23  1  0  0  0  0
  2 24  1  0  0  0  0
  3  4  1  0  0  0  0
  3 25  1  0  0  0  0
  3 26  1  0  0  0  0
  4  5  2  0  0  0  0
  4  6  1  0  0  0  0
  6  7  1  0  0  0  0
  6 27  1  0  0  0  0
  7  8  1  0  0  0  0
  7 28  1  0  0  0  0
  7 29  1  0  0  0  0
  8 19  1  0  0  0  0
  8  9  2  0  0  0  0
  9 10  1  0  0  0  0
  9 30  1  0  0  0  0
 10 11  2  0  0  0  0
 10 31  1  0  0  0  0
 11 12  1  0  0  0  0
 11 18  1  0  0  0  0
 12 17  1  0  0  0  0
 12 13  1  0  0  0  0
 13 14  1  0  0  0  0
 13 32  1  0  0  0  0
 13 33  1  0  0  0  0
 14 15  1  0  0  0  0
 14 34  1  0  0  0  0
 14 35  1  0  0  0  0
 15 16  1  0  0  0  0
 16 17  1  0  0  0  0
 16 36  1  0  0  0  0
 16 37  1  0  0  0  0
 17 38  1  0  0  0  0
 17 39  1  0  0  0  0
 18 19  2  0  0  0  0
 19 40  1  0  0  0  0
M  END
> <s_m_source_file>
AV-unprocessed.smi

> <i_m_source_file_index>
428

> <i_lp_mmshare_version>
43012

> <i_f3d_flags>
0

> <s_epik_input>
W0NIM11bQ0gyXVtDSDJdQyg9TylbTkhdW0NIMl1jMVtjSF1bY0hdYyhuW2NIXTEpTjJbQ0gyXVtDSDJdT1tDSDJdW0NIMl0y

> <s_epik_cmdline>
J2VwaWtfcHl0aG9uJywgJy1waCcsICc3LjAnLCAnLXRuJywgJzgnLCAnLW1hJywgJzIwMCcsICctbWV0YWxfYmluZGluZycsICctaW1hZScsICc8aW5maWxlLm1hZT4nLCAnLW9tYWUnLCAnPG91dGZpbGUubWFlPic=

> <r_lp_tautomer_probability>
1

> <r_epik_Ionization_Penalty>
0.00505548

> <r_epik_Ionization_Penalty_Charging>
0

> <r_epik_Ionization_Penalty_Neutral>
0.00505548

> <r_epik_State_Penalty>
0.00367784

> <r_epik_Charging_Adjusted_Penalty>
0.00367784

> <i_epik_Tot_Q>
0

> <i_epik_Tot_abs_Q>
0

> <r_epik_Metal_State_Penalty>
-0

> <b_epik_Metal_Only>
0

> <s_lp_Force_Field>
OPLS_2005

> <r_lp_Energy>
16.3878

> <b_lp_Chiralities_Consistent>
1

> <s_lp_Variant>
AV-unprocessed.smi:428-1

> <Gold.Version>
5.8.1

> <Gold.Id.Protein>
6NUR|6NUR_protein|mol2

> <Gold.PLP.Fitness>
38.6443

> <Gold.PLP.PLP>
-33.6458

> <Gold.PLP.part.hbond>
-3.7319

> <Gold.PLP.part.metal>
0.0000

> <Gold.PLP.part.buried>
-0.1182

> <Gold.PLP.part.nonpolar>
-28.9581

> <Gold.PLP.part.repulsive>
0.2261

> <Gold.PLP.ligand.clash>
0.0000

> <Gold.PLP.ligand.torsion>
0.5117

> <Gold.PLP.Chemscore.Hbond>
1.8960

> <Gold.PLP.Chemscore.CHOScore>
0.0000

> <Gold.PLP.Chemscore.Metal>
0.0000

> <Gold.Chemscore.Hbonds>
donor molecule, donor type, donor heavy atom, donor atom, acceptor molecule, acceptor atom, score
      L1  H     6    27       P1  7948  0.96
      P1  H 10752 10763       L1     5  1.00

> <Gold.PLP.Chemscore.Internal.Correction>
0.3339

> <Gold.Rescore>
     Score         DG    S(hbond)    S(metal)    S(lipo)     H(rot)  DE(clash)    DE(int)     intcor
     14.56     -17.05       1.56        0.00      91.35       1.69       1.84       0.66       ----

> <Gold.Chemscore.Fitness>
14.5577

> <Gold.Chemscore.DG>
-17.0535

> <Gold.Chemscore.ZeroCoef>
-5.4800

> <Gold.Chemscore.Hbond>
1.5624

> <Gold.Chemscore.Metal>
0.0000

> <Gold.Chemscore.Lipo>
91.3525

> <Gold.Chemscore.Internal_Hbond>
0.0000

> <Gold.Chemscore.DEClash>
1.8407

> <Gold.Chemscore.DEInternal>
0.6551

> <Gold.Chemscore.Rot>
1.6926

> <Gold.Chemscore.Internal.Correction>
   9.000000E+99

> <Gold.Chemscore.Hbonds>
donor molecule, donor type, donor heavy atom, donor atom, acceptor molecule, acceptor atom, score
      L1  H     6    27       P1  7948  0.46
      P1  H 10752 10763       L1     5  0.70

> <Gold.Chemscore.Hbond.Weighted>
-5.2183

> <Gold.Chemscore.Metal.Weighted>
-0.0000

> <Gold.Chemscore.Lipo.Weighted>
-10.6882

> <Gold.Chemscore.Internal_Hbond.Weighted>
0.0000

> <Gold.Chemscore.DEClash.Weighted>
1.8407

> <Gold.Chemscore.DEInternal.Weighted>
0.6551

> <Gold.Chemscore.Rot.Weighted>
4.3330

> <Gold.Chemscore.Internal.Correction.Weighted>
   9.000000E+99

> <Gold.Protein.RotatedTorsions>
[ 6907 6896 6895 6894 ] final -143.06 input  -60.11 | X-H torsion
[ 7974 7965 7964 7962 ] final  -43.99 input  175.53 | X-H torsion
[ 8008 7997 7996 7995 ] final   99.78 input   59.86 | X-H torsion
[ 10167 10162 10161 10158 ] final  167.75 input  -65.29 | X-H torsion
[ 10718 10713 10712 10709 ] final   72.85 input   66.30 | X-H torsion
[ 10763 10752 10751 10750 ] final   89.39 input  -60.55 | X-H torsion
[ 11005 11000 10999 10996 ] final   59.28 input  -57.11 | X-H torsion

> <Gold.Protein.ActiveResidues>
 VAL166  LYS551  ARG553  GLY616  TRP617  ASP618  TYR619  PRO620  LYS621  CYS622 
 ASP623  PHE694  ASN695  SER759  ASP760  ASP761  ALA762  ILE779  LEU786  VAL792 
 PHE793  MET794  SER795  GLU796  ALA797  LYS798  CYS799  TRP800  GLU811  SER814 

> <Gold.Protein.RotatedAtoms>
  151.0954  133.5284  159.2612 H   0  0  0  0  0  0  0  0  0  0  0  0  # atno 6907 bound_to 6896
  151.2135  135.0490  159.8930 H   0  0  0  0  0  0  0  0  0  0  0  0  # atno 6908 bound_to 6896
  152.5438  134.0767  159.8271 H   0  0  0  0  0  0  0  0  0  0  0  0  # atno 6909 bound_to 6896
  145.9965  140.7122  142.9291 H   0  0  0  0  0  0  0  0  0  0  0  0  # atno 7974 bound_to 7965
  156.1139  140.3223  155.8112 H   0  0  0  0  0  0  0  0  0  0  0  0  # atno 8008 bound_to 7997
  155.4624  140.0540  157.3006 H   0  0  0  0  0  0  0  0  0  0  0  0  # atno 8009 bound_to 7997
  154.4779  140.2040  155.9848 H   0  0  0  0  0  0  0  0  0  0  0  0  # atno 8010 bound_to 7997
  139.4952  144.3888  151.9540 H   0  0  0  0  0  0  0  0  0  0  0  0  # atno 10167 bound_to 10162
  157.6520  130.9599  150.0986 H   0  0  0  0  0  0  0  0  0  0  0  0  # atno 10718 bound_to 10713
  153.1866  135.4472  155.0097 H   0  0  0  0  0  0  0  0  0  0  0  0  # atno 10763 bound_to 10752
  154.8064  135.3276  154.7422 H   0  0  0  0  0  0  0  0  0  0  0  0  # atno 10764 bound_to 10752
  153.7880  135.6972  153.4931 H   0  0  0  0  0  0  0  0  0  0  0  0  # atno 10765 bound_to 10752
  140.0315  134.6004  155.9500 H   0  0  0  0  0  0  0  0  0  0  0  0  # atno 11005 bound_to 11000
  144.6905  140.3159  143.7240 LP  0  0  0  0  0  0  0  0  0  0  0  0  # atno 17320 bound_to 7965
  145.7552  139.1806  143.2299 LP  0  0  0  0  0  0  0  0  0  0  0  0  # atno 17321 bound_to 7965
  140.3325  144.3299  150.5984 LP  0  0  0  0  0  0  0  0  0  0  0  0  # atno 17342 bound_to 10162
  140.5633  143.2189  151.7727 LP  0  0  0  0  0  0  0  0  0  0  0  0  # atno 17343 bound_to 10162
  156.1915  130.3655  149.8903 LP  0  0  0  0  0  0  0  0  0  0  0  0  # atno 17370 bound_to 10713
  156.6830  130.8866  151.3578 LP  0  0  0  0  0  0  0  0  0  0  0  0  # atno 17371 bound_to 10713
  141.1834  133.6551  156.5114 LP  0  0  0  0  0  0  0  0  0  0  0  0  # atno 17394 bound_to 11000
  140.4217  134.7181  157.4893 LP  0  0  0  0  0  0  0  0  0  0  0  0  # atno 17395 bound_to 11000

$$$$
