#       Name:                AV-unprocessed.smi:2104
#       Creating user name   scv26
#       Creation time:       Fri Mar 27 11:31:44 2020


#       File generated by GOLD software.
#

@<TRIPOS>MOLECULE
AV-unprocessed.smi:2104
    50    51     1
SMALL
NO_CHARGES


@<TRIPOS>ATOM
      1 ****        -3.3734   2.9955  -2.9947 C.3            1 S1                 0.0000
      2 ****        -3.1786   2.6094  -1.5686 C.2            1 S1                 0.0000
      3 ****        -2.6215   1.5151  -0.9704 C.2            1 S1                 0.0000
      4 ****        -2.7708   1.7997   0.4182 C.2            1 S1                 0.0000
      5 ****        -2.3280   0.9821   1.4894 N.am           1 S1                 0.0000
      6 ****        -1.8498  -0.2712   1.4243 C.2            1 S1                 0.0000
      7 ****        -1.8750  -0.9874   0.4233 O.2            1 S1                 0.0000
      8 ****        -1.3250  -0.6560   2.5973 N.am           1 S1                 0.0000
      9 ****        -0.6001  -1.9042   2.8170 C.3            1 S1                 0.0000
     10 ****         0.8849  -1.7530   2.4517 C.3            1 S1                 0.0000
     11 ****         0.9882  -1.5478   1.0510 O.3            1 S1                 0.0000
     12 ****         2.2834  -1.2171   0.5670 C.3            1 S1                 0.0000
     13 ****         2.5942   0.2768   0.8100 C.3            1 S1                 0.0000
     14 ****         1.6332   1.1930   0.0338 C.3            1 S1                 0.0000
     15 ****         1.6427   0.8685  -1.4674 C.3            1 S1                 0.0000
     16 ****         1.3468  -0.6180  -1.7232 C.3            1 S1                 0.0000
     17 ****         2.3165  -1.5328  -0.9454 C.3            1 S1                 0.0000
     18 ****         2.0513  -3.0192  -1.2312 C.3            1 S1                 0.0000
     19 ****        -3.3470   2.9667   0.6400 N.2            1 S1                 0.0000
     20 ****        -3.6194   3.4897  -0.6298 O.3            1 S1                 0.0000
     21 ****        -3.1918   2.1477  -3.6554 H              1 S1                 0.0000
     22 ****        -2.6879   3.7955  -3.2744 H              1 S1                 0.0000
     23 ****        -4.3917   3.3449  -3.1664 H              1 S1                 0.0000
     24 ****        -2.1785   0.6610  -1.4606 H              1 S1                 0.0000
     25 ****        -2.3257   1.4214   2.3979 H              1 S1                 0.0000
     26 ****        -1.3633  -0.0097   3.3719 H              1 S1                 0.0000
     27 ****        -0.6912  -2.1629   3.8720 H              1 S1                 0.0000
     28 ****        -1.0535  -2.7237   2.2569 H              1 S1                 0.0000
     29 ****         1.3185  -0.9265   3.0141 H              1 S1                 0.0000
     30 ****         1.4333  -2.6552   2.7252 H              1 S1                 0.0000
     31 ****         3.0285  -1.8346   1.0719 H              1 S1                 0.0000
     32 ****         2.5607   0.5195   1.8711 H              1 S1                 0.0000
     33 ****         3.6169   0.4833   0.4925 H              1 S1                 0.0000
     34 ****         0.6222   1.0816   0.4256 H              1 S1                 0.0000
     35 ****         1.9083   2.2365   0.1885 H              1 S1                 0.0000
     36 ****         0.9092   1.4875  -1.9850 H              1 S1                 0.0000
     37 ****         2.6157   1.1237  -1.8889 H              1 S1                 0.0000
     38 ****         0.3172  -0.8378  -1.4376 H              1 S1                 0.0000
     39 ****         1.4172  -0.8230  -2.7918 H              1 S1                 0.0000
     40 ****         3.3252  -1.3183  -1.3016 H              1 S1                 0.0000
     41 ****         1.0478  -3.3130  -0.9219 H              1 S1                 0.0000
     42 ****         2.7624  -3.6533  -0.7013 H              1 S1                 0.0000
     43 ****         2.1459  -3.2360  -2.2955 H              1 S1                 0.0000
     44 ****        -2.2746  -0.6445  -0.4269 LP             1 S1                 0.0000
     45 ****        -1.4958  -1.9120   0.4604 LP             1 S1                 0.0000
     46 ****         0.3690  -0.8025   0.8038 LP             1 S1                 0.0000
     47 ****         0.6962  -2.3887   0.5955 LP             1 S1                 0.0000
     48 ****        -3.5461   3.3870   1.5253 LP             1 S1                 0.0000
     49 ****        -4.6046   3.6263  -0.7331 LP             1 S1                 0.0000
     50 ****        -3.1480   4.3646  -0.7414 LP             1 S1                 0.0000
@<TRIPOS>BOND
    1    1    2 1     
    2    1   21 1     
    3    1   22 1     
    4    1   23 1     
    5    2   20 1     
    6    2    3 2     
    7    3    4 1     
    8    3   24 1     
    9    4    5 1     
   10    4   19 2     
   11    5    6 am    
   12    5   25 1     
   13    6    7 2     
   14    6    8 am    
   15    8    9 1     
   16    8   26 1     
   17    9   10 1     
   18    9   27 1     
   19    9   28 1     
   20   10   11 1     
   21   10   29 1     
   22   10   30 1     
   23   11   12 1     
   24   12   17 1     
   25   12   13 1     
   26   12   31 1     
   27   13   14 1     
   28   13   32 1     
   29   13   33 1     
   30   14   15 1     
   31   14   34 1     
   32   14   35 1     
   33   15   16 1     
   34   15   36 1     
   35   15   37 1     
   36   16   17 1     
   37   16   38 1     
   38   16   39 1     
   39   17   18 1     
   40   17   40 1     
   41   18   41 1     
   42   18   42 1     
   43   18   43 1     
   44   19   20 1     
   45    7   44 1     
   46    7   45 1     
   47   11   46 1     
   48   11   47 1     
   49   19   48 1     
   50   20   49 1     
   51   20   50 1     
@<TRIPOS>SUBSTRUCTURE
      1 S1             1
@<TRIPOS>SET
LONE_PAIRS      STATIC     ATOMS    <user>   **** ""
7 44 45 46 47 48 49 50
DONOR_HYDROGENS      STATIC     ATOMS    <user>   **** ""
2 25 26
ATOM$BLUE        STATIC     ATOMS    COLORGROUP SYSTEM
7 44 45 46 47 48 49 50
ATOM$RED        STATIC     ATOMS    COLORGROUP SYSTEM
2 25 26
