AV-unprocessed.smi:627|AV-procd|sdf|3113|dock3
  -GOLD-   22720 0 33D 1   1.00000     0.00000
 Structure written by MMmdl.
 40 42  0  0  0  0  0  0  0  0  1 V2000
  140.5598  146.6624  160.9032 C   0  0  0  0  0  0  0  0  0  0  0  0
  140.6820  145.0191  160.0871 S   0  0  0  0  0  0  0  0  0  0  0  0
  140.2494  144.0003  161.0566 O   0  0  0  0  0  0  0  0  0  0  0  0
  140.0175  145.1033  158.7772 O   0  0  0  0  0  0  0  0  0  0  0  0
  142.4363  144.8153  159.8017 C   0  0  0  0  0  0  0  0  0  0  0  0
  143.2443  144.1653  160.7565 C   0  0  0  0  0  0  0  0  0  0  0  0
  144.6239  144.0605  160.4967 C   0  0  0  0  0  0  0  0  0  0  0  0
  145.1387  144.6108  159.2972 C   0  0  0  0  0  0  0  0  0  0  0  0
  146.5112  144.5799  158.9320 N   0  0  0  0  0  0  0  0  0  0  0  0
  147.4950  143.8286  159.4558 C   0  0  0  0  0  0  0  0  0  0  0  0
  147.3580  143.0175  160.3713 O   0  0  0  0  0  0  0  0  0  0  0  0
  148.6612  144.0586  158.8353 N   0  0  0  0  0  0  0  0  0  0  0  0
  149.9271  143.3950  159.1309 C   0  0  0  0  0  0  0  0  0  0  0  0
  150.9910  144.3884  159.5599 C   0  0  0  0  0  0  0  0  0  0  0  0
  151.9900  144.9464  158.5740 C   0  0  0  0  0  0  0  0  0  0  0  0
  152.4430  143.9851  159.6500 C   0  0  0  0  0  0  0  0  0  0  0  0
  150.4282  142.5557  157.9671 C   0  0  0  0  0  0  0  0  0  0  0  0
  149.9841  141.1244  157.7777 C   0  0  0  0  0  0  0  0  0  0  0  0
  151.4100  141.4270  158.1781 C   0  0  0  0  0  0  0  0  0  0  0  0
  144.2376  145.2670  158.4313 C   0  0  0  0  0  0  0  0  0  0  0  0
  142.9135  145.3733  158.6689 N   0  0  0  0  0  0  0  0  0  0  0  0
  139.5152  146.8814  161.1227 H   0  0  0  0  0  0  0  0  0  0  0  0
  140.9591  147.4291  160.2396 H   0  0  0  0  0  0  0  0  0  0  0  0
  141.1320  146.6511  161.8303 H   0  0  0  0  0  0  0  0  0  0  0  0
  142.8254  143.7580  161.6646 H   0  0  0  0  0  0  0  0  0  0  0  0
  145.2576  143.5775  161.2243 H   0  0  0  0  0  0  0  0  0  0  0  0
  146.7591  145.1395  158.1292 H   0  0  0  0  0  0  0  0  0  0  0  0
  148.6741  144.7423  158.0929 H   0  0  0  0  0  0  0  0  0  0  0  0
  149.7694  142.7212  159.9759 H   0  0  0  0  0  0  0  0  0  0  0  0
  150.6493  145.0840  160.3245 H   0  0  0  0  0  0  0  0  0  0  0  0
  151.9643  144.5735  157.5522 H   0  0  0  0  0  0  0  0  0  0  0  0
  152.2704  145.9923  158.6817 H   0  0  0  0  0  0  0  0  0  0  0  0
  153.0261  144.3901  160.4745 H   0  0  0  0  0  0  0  0  0  0  0  0
  152.7081  142.9753  159.3426 H   0  0  0  0  0  0  0  0  0  0  0  0
  150.5670  143.1286  157.0520 H   0  0  0  0  0  0  0  0  0  0  0  0
  149.3351  140.6870  158.5337 H   0  0  0  0  0  0  0  0  0  0  0  0
  149.8074  140.7854  156.7591 H   0  0  0  0  0  0  0  0  0  0  0  0
  152.1844  141.2878  157.4264 H   0  0  0  0  0  0  0  0  0  0  0  0
  151.7013  141.1849  159.1981 H   0  0  0  0  0  0  0  0  0  0  0  0
  144.5885  145.7180  157.5146 H   0  0  0  0  0  0  0  0  0  0  0  0
  1  2  1  0  0  0  0
  1 22  1  0  0  0  0
  1 23  1  0  0  0  0
  1 24  1  0  0  0  0
  2  3  2  0  0  0  0
  2  4  2  0  0  0  0
  2  5  1  0  0  0  0
  5 21  1  0  0  0  0
  5  6  2  0  0  0  0
  6  7  1  0  0  0  0
  6 25  1  0  0  0  0
  7  8  2  0  0  0  0
  7 26  1  0  0  0  0
  8  9  1  0  0  0  0
  8 20  1  0  0  0  0
  9 10  1  0  0  0  0
  9 27  1  0  0  0  0
 10 11  2  0  0  0  0
 10 12  1  0  0  0  0
 12 13  1  0  0  0  0
 12 28  1  0  0  0  0
 13 14  1  0  0  0  0
 13 17  1  0  0  0  0
 13 29  1  0  0  0  0
 14 16  1  0  0  0  0
 14 15  1  0  0  0  0
 14 30  1  0  0  0  0
 15 16  1  0  0  0  0
 15 31  1  0  0  0  0
 15 32  1  0  0  0  0
 16 33  1  0  0  0  0
 16 34  1  0  0  0  0
 17 19  1  0  0  0  0
 17 18  1  0  0  0  0
 17 35  1  0  0  0  0
 18 19  1  0  0  0  0
 18 36  1  0  0  0  0
 18 37  1  0  0  0  0
 19 38  1  0  0  0  0
 19 39  1  0  0  0  0
 20 21  2  0  0  0  0
 20 40  1  0  0  0  0
M  END
> <s_m_source_file>
AV-unprocessed.smi

> <i_m_source_file_index>
627

> <i_lp_mmshare_version>
43012

> <i_f3d_flags>
0

> <s_epik_input>
W0NIM11TKD1PKSg9TyljMVtjSF1bY0hdYyhbY0hdbjEpW05IXUMoPU8pW05IXVtDSF0oW0NIXTJbQ0gyXVtDSDJdMilbQ0hdM1tDSDJdW0NIMl0z

> <s_epik_cmdline>
J2VwaWtfcHl0aG9uJywgJy1waCcsICc3LjAnLCAnLXRuJywgJzgnLCAnLW1hJywgJzIwMCcsICctbWV0YWxfYmluZGluZycsICctaW1hZScsICc8aW5maWxlLm1hZT4nLCAnLW9tYWUnLCAnPG91dGZpbGUubWFlPic=

> <r_lp_tautomer_probability>
1

> <r_epik_Ionization_Penalty>
4.12334e-05

> <r_epik_Ionization_Penalty_Charging>
0

> <r_epik_Ionization_Penalty_Neutral>
4.12334e-05

> <r_epik_State_Penalty>
-0

> <r_epik_Charging_Adjusted_Penalty>
0

> <i_epik_Tot_Q>
0

> <i_epik_Tot_abs_Q>
0

> <r_epik_Metal_State_Penalty>
-0

> <b_epik_Metal_Only>
0

> <s_lp_Force_Field>
OPLS_2005

> <r_lp_Energy>
25.9195

> <b_lp_Chiralities_Consistent>
1

> <s_lp_Variant>
AV-unprocessed.smi:627-1

> <Gold.Version>
5.8.1

> <Gold.Id.Protein>
6NUR|6NUR_protein|mol2

> <Gold.PLP.Fitness>
40.2714

> <Gold.PLP.PLP>
-30.1778

> <Gold.PLP.part.hbond>
-5.2584

> <Gold.PLP.part.metal>
0.0000

> <Gold.PLP.part.buried>
-3.3940

> <Gold.PLP.part.nonpolar>
-23.0577

> <Gold.PLP.part.repulsive>
0.1838

> <Gold.PLP.ligand.clash>
0.0000

> <Gold.PLP.ligand.torsion>
2.1488

> <Gold.PLP.Chemscore.Hbond>
3.4070

> <Gold.PLP.Chemscore.CHOScore>
0.0000

> <Gold.PLP.Chemscore.Metal>
0.0000

> <Gold.Chemscore.Hbonds>
donor molecule, donor type, donor heavy atom, donor atom, acceptor molecule, acceptor atom, score
      L1  H     9    27       P1  8029  1.00
      L1  H    12    28       P1  8029  0.98
      P1  H  6933  6944       L1    11  1.00
      P1  H  6934  6946       L1    11  0.36

> <Gold.PLP.Chemscore.Internal.Correction>
4.1704

> <Gold.Rescore>
     Score         DG    S(hbond)    S(metal)    S(lipo)     H(rot)  DE(clash)    DE(int)     intcor
     19.00     -22.38       3.43        0.00      77.00       1.40       0.05       3.33       ----

> <Gold.Chemscore.Fitness>
18.9996

> <Gold.Chemscore.DG>
-22.3841

> <Gold.Chemscore.ZeroCoef>
-5.4800

> <Gold.Chemscore.Hbond>
3.4336

> <Gold.Chemscore.Metal>
0.0000

> <Gold.Chemscore.Lipo>
77.0008

> <Gold.Chemscore.Internal_Hbond>
0.0000

> <Gold.Chemscore.DEClash>
0.0529

> <Gold.Chemscore.DEInternal>
3.3316

> <Gold.Chemscore.Rot>
1.3958

> <Gold.Chemscore.Internal.Correction>
   9.000000E+99

> <Gold.Chemscore.Hbonds>
donor molecule, donor type, donor heavy atom, donor atom, acceptor molecule, acceptor atom, score
      L1  H     9    27       P1  8029  0.91
      L1  H    12    28       P1  8029  0.37
      P1  H  6933  6944       L1    11  0.96
      P1  H  6934  6946       L1    11  0.36

> <Gold.Chemscore.Hbond.Weighted>
-11.4684

> <Gold.Chemscore.Metal.Weighted>
-0.0000

> <Gold.Chemscore.Lipo.Weighted>
-9.0091

> <Gold.Chemscore.Internal_Hbond.Weighted>
0.0000

> <Gold.Chemscore.DEClash.Weighted>
0.0529

> <Gold.Chemscore.DEInternal.Weighted>
3.3316

> <Gold.Chemscore.Rot.Weighted>
3.5733

> <Gold.Chemscore.Internal.Correction.Weighted>
   9.000000E+99

> <Gold.Protein.RotatedTorsions>
[ 6907 6896 6895 6894 ] final -124.22 input  -60.11 | X-H torsion
[ 7974 7965 7964 7962 ] final   53.71 input  175.53 | X-H torsion
[ 8008 7997 7996 7995 ] final -106.11 input   59.86 | X-H torsion
[ 10167 10162 10161 10158 ] final -152.50 input  -65.29 | X-H torsion
[ 10718 10713 10712 10709 ] final  168.89 input   66.30 | X-H torsion
[ 10763 10752 10751 10750 ] final   43.47 input  -60.55 | X-H torsion
[ 11005 11000 10999 10996 ] final   62.11 input  -57.11 | X-H torsion

> <Gold.Protein.ActiveResidues>
 VAL166  LYS551  ARG553  GLY616  TRP617  ASP618  TYR619  PRO620  LYS621  CYS622 
 ASP623  PHE694  ASN695  SER759  ASP760  ASP761  ALA762  ILE779  LEU786  VAL792 
 PHE793  MET794  SER795  GLU796  ALA797  LYS798  CYS799  TRP800  GLU811  SER814 

> <Gold.Protein.RotatedAtoms>
  150.8747  133.7456  159.2950 H   0  0  0  0  0  0  0  0  0  0  0  0  # atno 6907 bound_to 6896
  151.5056  135.1062  159.9850 H   0  0  0  0  0  0  0  0  0  0  0  0  # atno 6908 bound_to 6896
  152.4719  133.8005  159.7006 H   0  0  0  0  0  0  0  0  0  0  0  0  # atno 6909 bound_to 6896
  145.9684  139.4125  143.0205 H   0  0  0  0  0  0  0  0  0  0  0  0  # atno 7974 bound_to 7965
  154.9098  140.0410  157.1939 H   0  0  0  0  0  0  0  0  0  0  0  0  # atno 8008 bound_to 7997
  154.8360  140.2907  155.5669 H   0  0  0  0  0  0  0  0  0  0  0  0  # atno 8009 bound_to 7997
  156.2989  140.2492  156.3294 H   0  0  0  0  0  0  0  0  0  0  0  0  # atno 8010 bound_to 7997
  139.7176  143.9008  152.2492 H   0  0  0  0  0  0  0  0  0  0  0  0  # atno 10167 bound_to 10162
  157.0306  131.0258  151.2746 H   0  0  0  0  0  0  0  0  0  0  0  0  # atno 10718 bound_to 10713
  152.9860  135.6100  154.3117 H   0  0  0  0  0  0  0  0  0  0  0  0  # atno 10763 bound_to 10752
  154.2832  135.2776  155.2690 H   0  0  0  0  0  0  0  0  0  0  0  0  # atno 10764 bound_to 10752
  154.5019  135.5864  153.6594 H   0  0  0  0  0  0  0  0  0  0  0  0  # atno 10765 bound_to 10752
  140.0115  134.6290  155.9774 H   0  0  0  0  0  0  0  0  0  0  0  0  # atno 11005 bound_to 11000
  145.7941  140.9801  143.1033 LP  0  0  0  0  0  0  0  0  0  0  0  0  # atno 17320 bound_to 7965
  144.6831  139.9720  143.7482 LP  0  0  0  0  0  0  0  0  0  0  0  0  # atno 17321 bound_to 7965
  139.8895  144.6973  150.8786 LP  0  0  0  0  0  0  0  0  0  0  0  0  # atno 17342 bound_to 10162
  140.7747  143.3597  151.1851 LP  0  0  0  0  0  0  0  0  0  0  0  0  # atno 17343 bound_to 10162
  157.5181  130.7980  149.7778 LP  0  0  0  0  0  0  0  0  0  0  0  0  # atno 17370 bound_to 10713
  156.0071  130.3850  150.2393 LP  0  0  0  0  0  0  0  0  0  0  0  0  # atno 17371 bound_to 10713
  141.1714  133.6537  156.4665 LP  0  0  0  0  0  0  0  0  0  0  0  0  # atno 17394 bound_to 11000
  140.4547  134.6896  157.5056 LP  0  0  0  0  0  0  0  0  0  0  0  0  # atno 17395 bound_to 11000

$$$$
