AV-unprocessed.smi:2247|AV-procd|sdf|9088|dock3
  -GOLD-   2272012293D 1   1.00000     0.00000
 Structure written by MMmdl.
 34 35  0  0  0  0  0  0  0  0  1 V2000
  152.2063  144.9641  159.1004 C   0  0  0  0  0  0  0  0  0  0  0  0
  151.5809  143.7564  159.8215 C   0  0  0  0  0  0  0  0  0  0  0  0
  152.0840  143.6260  161.2677 C   0  0  0  0  0  0  0  0  0  0  0  0
  151.7868  142.4976  159.0928 N   0  0  0  0  0  0  0  0  0  0  0  0
  152.1880  141.2685  159.7583 C   0  0  0  0  0  0  0  0  0  0  0  0
  151.9480  140.1713  158.7170 C   0  0  0  0  0  0  0  0  0  0  0  0
  151.9293  140.8825  157.3548 C   0  0  1  0  0  0  0  0  0  0  0  0
  150.8790  140.3187  156.5080 N   0  0  0  0  0  0  0  0  0  0  0  0
  151.0514  139.8336  155.2685 C   0  0  0  0  0  0  0  0  0  0  0  0
  152.1609  139.8254  154.7255 O   0  0  0  0  0  0  0  0  0  0  0  0
  149.8480  139.3576  154.7707 N   0  0  0  0  0  0  0  0  0  0  0  0
  148.9515  140.2027  154.3652 C   0  0  0  0  0  0  0  0  0  0  0  0
  147.6957  139.9228  153.8505 N   0  0  0  0  0  0  0  0  0  0  0  0
  147.0900  141.1082  153.5376 C   0  0  0  0  0  0  0  0  0  0  0  0
  147.9281  142.0946  153.8430 C   0  0  0  0  0  0  0  0  0  0  0  0
  149.0787  141.5729  154.3525 O   0  0  0  0  0  0  0  0  0  0  0  0
  151.6046  142.3163  157.7772 C   0  0  0  0  0  0  0  0  0  0  0  0
  151.2428  143.1809  156.9789 O   0  0  0  0  0  0  0  0  0  0  0  0
  151.9560  145.8928  159.6136 H   0  0  0  0  0  0  0  0  0  0  0  0
  151.8365  145.0473  158.0778 H   0  0  0  0  0  0  0  0  0  0  0  0
  153.2938  144.8974  159.0624 H   0  0  0  0  0  0  0  0  0  0  0  0
  150.5065  143.9448  159.8635 H   0  0  0  0  0  0  0  0  0  0  0  0
  151.9007  144.5422  161.8294 H   0  0  0  0  0  0  0  0  0  0  0  0
  153.1556  143.4264  161.2977 H   0  0  0  0  0  0  0  0  0  0  0  0
  151.5787  142.8138  161.7915 H   0  0  0  0  0  0  0  0  0  0  0  0
  153.2455  141.3261  160.0200 H   0  0  0  0  0  0  0  0  0  0  0  0
  151.6146  141.0913  160.6689 H   0  0  0  0  0  0  0  0  0  0  0  0
  152.7081  139.3907  158.7624 H   0  0  0  0  0  0  0  0  0  0  0  0
  150.9861  139.6955  158.9185 H   0  0  0  0  0  0  0  0  0  0  0  0
  152.9124  140.8504  156.8823 H   0  0  0  0  0  0  0  0  0  0  0  0
  149.9469  140.2952  156.8957 H   0  0  0  0  0  0  0  0  0  0  0  0
  147.2649  139.0207  153.7070 H   0  0  0  0  0  0  0  0  0  0  0  0
  146.0955  141.1195  153.1165 H   0  0  0  0  0  0  0  0  0  0  0  0
  147.8580  143.1691  153.7608 H   0  0  0  0  0  0  0  0  0  0  0  0
  1  2  1  0  0  0  0
  1 19  1  0  0  0  0
  1 20  1  0  0  0  0
  1 21  1  0  0  0  0
  2  3  1  0  0  0  0
  2  4  1  0  0  0  0
  2 22  1  0  0  0  0
  3 23  1  0  0  0  0
  3 24  1  0  0  0  0
  3 25  1  0  0  0  0
  4 17  1  0  0  0  0
  4  5  1  0  0  0  0
  5  6  1  0  0  0  0
  5 26  1  0  0  0  0
  5 27  1  0  0  0  0
  6  7  1  0  0  0  0
  6 28  1  0  0  0  0
  6 29  1  0  0  0  0
  7  8  1  0  0  0  0
  7 17  1  0  0  0  0
  7 30  1  0  0  0  0
  8 31  1  0  0  0  0
  8  9  1  0  0  0  0
  9 11  1  0  0  0  0
  9 10  2  0  0  0  0
 11 12  2  0  0  0  0
 12 16  1  0  0  0  0
 12 13  1  0  0  0  0
 13 32  1  0  0  0  0
 13 14  1  0  0  0  0
 14 33  1  0  0  0  0
 14 15  2  0  0  0  0
 15 34  1  0  0  0  0
 15 16  1  0  0  0  0
 17 18  2  0  0  0  0
M  END
> <s_m_source_file>
AV-unprocessed.smi

> <i_m_source_file_index>
2247

> <i_lp_mmshare_version>
43012

> <i_f3d_flags>
0

> <s_epik_input>
W0NIM11bQ0hdKFtDSDNdKU4xW0NIMl1bQ0gyXVtDQEhdKEMxPU8pW05IXUMoPU8pW05IXWMybltjSF1bY0hdbzI=

> <s_epik_cmdline>
J2VwaWtfcHl0aG9uJywgJy1waCcsICc3LjAnLCAnLXRuJywgJzgnLCAnLW1hJywgJzIwMCcsICctbWV0YWxfYmluZGluZycsICctaW1hZScsICc8aW5maWxlLm1hZT4nLCAnLW9tYWUnLCAnPG91dGZpbGUubWFlPic=

> <r_lp_tautomer_probability>
0.107061

> <r_epik_Ionization_Penalty>
0.180736

> <r_epik_Ionization_Penalty_Charging>
0.180388

> <r_epik_Ionization_Penalty_Neutral>
0.000348501

> <r_epik_State_Penalty>
2.44396

> <r_epik_Charging_Adjusted_Penalty>
2.62435

> <i_epik_Tot_Q>
0

> <i_epik_Tot_abs_Q>
0

> <r_epik_Metal_State_Penalty>
4.38331

> <b_epik_Metal_Only>
0

> <s_lp_Force_Field>
OPLS_2005

> <r_lp_Energy>
44.8331

> <b_lp_Chiralities_Consistent>
1

> <s_lp_Variant>
AV-unprocessed.smi:2247-3

> <Gold.Version>
5.8.1

> <Gold.Id.Protein>
6NUR|6NUR_protein|mol2

> <Gold.PLP.Fitness>
41.9527

> <Gold.PLP.PLP>
-35.7060

> <Gold.PLP.part.hbond>
-1.2908

> <Gold.PLP.part.metal>
0.0000

> <Gold.PLP.part.buried>
-5.9710

> <Gold.PLP.part.nonpolar>
-29.2078

> <Gold.PLP.part.repulsive>
0.9124

> <Gold.PLP.ligand.clash>
0.0000

> <Gold.PLP.ligand.torsion>
0.9884

> <Gold.PLP.Chemscore.Hbond>
0.8640

> <Gold.PLP.Chemscore.CHOScore>
1.8511

> <Gold.PLP.Chemscore.Metal>
0.0000

> <Gold.Chemscore.Hbonds>
donor molecule, donor type, donor heavy atom, donor atom, acceptor molecule, acceptor atom, score
      P1  H  7989  7998       L1    10  0.55
      L1  C    14    33       P1 10175  0.91
      L1  C    15    34       P1  8028  0.67

> <Gold.PLP.Chemscore.Internal.Correction>
0.0780

> <Gold.Rescore>
     Score         DG    S(hbond)    S(metal)    S(lipo)     H(rot)  DE(clash)    DE(int)     intcor
     12.11     -13.82       0.93        0.00      73.90       1.33       0.12       1.59       ----

> <Gold.Chemscore.Fitness>
12.1141

> <Gold.Chemscore.DG>
-13.8169

> <Gold.Chemscore.ZeroCoef>
-5.4800

> <Gold.Chemscore.Hbond>
0.9296

> <Gold.Chemscore.Metal>
0.0000

> <Gold.Chemscore.Lipo>
73.9017

> <Gold.Chemscore.Internal_Hbond>
0.0000

> <Gold.Chemscore.DEClash>
0.1172

> <Gold.Chemscore.DEInternal>
1.5856

> <Gold.Chemscore.Rot>
1.3338

> <Gold.Chemscore.Internal.Correction>
   9.000000E+99

> <Gold.Chemscore.Hbonds>
donor molecule, donor type, donor heavy atom, donor atom, acceptor molecule, acceptor atom, score
      P1  H  7989  7998       L1    10  0.06

> <Gold.Chemscore.Hbond.Weighted>
-3.1049

> <Gold.Chemscore.Metal.Weighted>
-0.0000

> <Gold.Chemscore.Lipo.Weighted>
-8.6465

> <Gold.Chemscore.Internal_Hbond.Weighted>
0.0000

> <Gold.Chemscore.DEClash.Weighted>
0.1172

> <Gold.Chemscore.DEInternal.Weighted>
1.5856

> <Gold.Chemscore.Rot.Weighted>
3.4145

> <Gold.Chemscore.Internal.Correction.Weighted>
   9.000000E+99

> <Gold.Protein.RotatedTorsions>
[ 6907 6896 6895 6894 ] final  -57.28 input  -60.11 | X-H torsion
[ 7974 7965 7964 7962 ] final  -86.64 input  175.53 | X-H torsion
[ 8008 7997 7996 7995 ] final  -61.02 input   59.86 | X-H torsion
[ 10167 10162 10161 10158 ] final  -56.14 input  -65.29 | X-H torsion
[ 10718 10713 10712 10709 ] final -109.14 input   66.30 | X-H torsion
[ 10763 10752 10751 10750 ] final  -75.29 input  -60.55 | X-H torsion
[ 11005 11000 10999 10996 ] final  107.52 input  -57.11 | X-H torsion

> <Gold.Protein.ActiveResidues>
 VAL166  LYS551  ARG553  GLY616  TRP617  ASP618  TYR619  PRO620  LYS621  CYS622 
 ASP623  PHE694  ASN695  SER759  ASP760  ASP761  ALA762  ILE779  LEU786  VAL792 
 PHE793  MET794  SER795  GLU796  ALA797  LYS798  CYS799  TRP800  GLU811  SER814 

> <Gold.Protein.RotatedAtoms>
  150.8099  134.7247  159.6677 H   0  0  0  0  0  0  0  0  0  0  0  0  # atno 6907 bound_to 6896
  152.4219  134.5937  159.9991 H   0  0  0  0  0  0  0  0  0  0  0  0  # atno 6908 bound_to 6896
  151.6149  133.3307  159.3111 H   0  0  0  0  0  0  0  0  0  0  0  0  # atno 6909 bound_to 6896
  145.4772  140.9558  143.1884 H   0  0  0  0  0  0  0  0  0  0  0  0  # atno 7974 bound_to 7965
  154.4427  140.1027  156.6366 H   0  0  0  0  0  0  0  0  0  0  0  0  # atno 8008 bound_to 7997
  155.5547  140.3486  155.4458 H   0  0  0  0  0  0  0  0  0  0  0  0  # atno 8009 bound_to 7997
  156.0503  140.1302  157.0046 H   0  0  0  0  0  0  0  0  0  0  0  0  # atno 8010 bound_to 7997
  140.6334  143.2470  151.5182 H   0  0  0  0  0  0  0  0  0  0  0  0  # atno 10167 bound_to 10162
  156.0522  130.5749  150.8059 H   0  0  0  0  0  0  0  0  0  0  0  0  # atno 10718 bound_to 10713
  154.4846  135.5836  153.6414 H   0  0  0  0  0  0  0  0  0  0  0  0  # atno 10763 bound_to 10752
  152.9853  135.6098  154.3202 H   0  0  0  0  0  0  0  0  0  0  0  0  # atno 10764 bound_to 10752
  154.3097  135.2845  155.2551 H   0  0  0  0  0  0  0  0  0  0  0  0  # atno 10765 bound_to 10752
  139.8829  134.9403  156.5832 H   0  0  0  0  0  0  0  0  0  0  0  0  # atno 11005 bound_to 11000
  144.7910  139.6329  143.7113 LP  0  0  0  0  0  0  0  0  0  0  0  0  # atno 17320 bound_to 7965
  146.2362  139.5910  142.9522 LP  0  0  0  0  0  0  0  0  0  0  0  0  # atno 17321 bound_to 7965
  139.5546  144.2308  152.1590 LP  0  0  0  0  0  0  0  0  0  0  0  0  # atno 17342 bound_to 10162
  140.1558  144.5072  150.6661 LP  0  0  0  0  0  0  0  0  0  0  0  0  # atno 17343 bound_to 10162
  157.5458  131.0942  150.9764 LP  0  0  0  0  0  0  0  0  0  0  0  0  # atno 17370 bound_to 10713
  157.0036  130.5609  149.5314 LP  0  0  0  0  0  0  0  0  0  0  0  0  # atno 17371 bound_to 10713
  140.8011  133.8504  155.8728 LP  0  0  0  0  0  0  0  0  0  0  0  0  # atno 17394 bound_to 11000
  140.9591  134.1679  157.4668 LP  0  0  0  0  0  0  0  0  0  0  0  0  # atno 17395 bound_to 11000

$$$$
