AV-unprocessed.smi:3329|AV-procd|sdf|12796|dock7
  -GOLD-   2272019153D 1   1.00000     0.00000
 Structure written by MMmdl.
 42 43  0  0  0  0  0  0  0  0  2 V2000
  145.2664  130.7743  151.1239 C   0  0  0  0  0  0  0  0  0  0  0  0
  145.1514  132.2423  151.4183 C   0  0  0  0  0  0  0  0  0  0  0  0
  144.9174  132.8633  152.6780 C   0  0  0  0  0  0  0  0  0  0  0  0
  144.8695  134.1831  152.5985 N   0  0  0  0  0  0  0  0  0  0  0  0
  145.0748  134.4520  151.2915 N   0  0  0  0  0  0  0  0  0  0  0  0
  145.0752  135.8280  150.8243 C   0  0  0  0  0  0  0  0  0  0  0  0
  145.5868  136.8172  151.8857 C   0  0  0  0  0  0  0  0  0  0  0  0
  146.7627  137.5656  151.4001 N   0  3  0  0  0  0  0  0  0  0  0  0
  146.7657  138.9962  151.7658 C   0  0  0  0  0  0  0  0  0  0  0  0
  147.4811  139.2451  153.0943 C   0  0  0  0  0  0  0  0  0  0  0  0
  147.0668  140.1054  153.8711 O   0  0  0  0  0  0  0  0  0  0  0  0
  148.5560  138.4745  153.3349 N   0  0  0  0  0  0  0  0  0  0  0  0
  149.4349  138.4744  154.5128 C   0  0  2  0  0  0  0  0  0  0  0  0
  148.5484  138.0766  155.7046 C   0  0  0  0  0  0  0  0  0  0  0  0
  149.9786  139.8188  154.7892 C   0  0  0  0  0  0  0  0  0  0  0  0
  150.4068  140.8720  155.0056 N   0  0  0  0  0  0  0  0  0  0  0  0
  150.6167  137.5040  154.4437 C   0  0  0  0  0  0  0  0  0  0  0  0
  151.5638  137.2339  155.5924 C   0  0  0  0  0  0  0  0  0  0  0  0
  152.0502  137.9797  154.3695 C   0  0  0  0  0  0  0  0  0  0  0  0
  145.2358  133.2975  150.5545 C   0  0  0  0  0  0  0  0  0  0  0  0
  144.2872  130.2987  151.0666 H   0  0  0  0  0  0  0  0  0  0  0  0
  145.8331  130.2521  151.8952 H   0  0  0  0  0  0  0  0  0  0  0  0
  145.7704  130.5886  150.1753 H   0  0  0  0  0  0  0  0  0  0  0  0
  144.7812  132.3961  153.6423 H   0  0  0  0  0  0  0  0  0  0  0  0
  145.6883  135.8919  149.9241 H   0  0  0  0  0  0  0  0  0  0  0  0
  144.0576  136.0877  150.5301 H   0  0  0  0  0  0  0  0  0  0  0  0
  144.7964  137.5239  152.1405 H   0  0  0  0  0  0  0  0  0  0  0  0
  145.8445  136.2879  152.8041 H   0  0  0  0  0  0  0  0  0  0  0  0
  147.5930  137.1397  151.7873 H   0  0  0  0  0  0  0  0  0  0  0  0
  147.2620  139.5718  150.9836 H   0  0  0  0  0  0  0  0  0  0  0  0
  145.7366  139.3520  151.8354 H   0  0  0  0  0  0  0  0  0  0  0  0
  148.7979  137.8030  152.6206 H   0  0  0  0  0  0  0  0  0  0  0  0
  149.1124  138.0832  156.6382 H   0  0  0  0  0  0  0  0  0  0  0  0
  148.1355  137.0748  155.5776 H   0  0  0  0  0  0  0  0  0  0  0  0
  147.7124  138.7670  155.8261 H   0  0  0  0  0  0  0  0  0  0  0  0
  150.3921  136.6263  153.8395 H   0  0  0  0  0  0  0  0  0  0  0  0
  151.4632  137.8039  156.5114 H   0  0  0  0  0  0  0  0  0  0  0  0
  151.9087  136.2103  155.7231 H   0  0  0  0  0  0  0  0  0  0  0  0
  152.7175  137.4519  153.6913 H   0  0  0  0  0  0  0  0  0  0  0  0
  152.2480  139.0438  154.4789 H   0  0  0  0  0  0  0  0  0  0  0  0
  145.3989  133.3208  149.4870 H   0  0  0  0  0  0  0  0  0  0  0  0
  146.8052  137.4921  150.3934 H   0  0  0  0  0  0  0  0  0  0  0  0
  1  2  1  0  0  0  0
  1 21  1  0  0  0  0
  1 22  1  0  0  0  0
  1 23  1  0  0  0  0
  2 20  2  0  0  0  0
  2  3  1  0  0  0  0
  3  4  2  0  0  0  0
  3 24  1  0  0  0  0
  4  5  1  0  0  0  0
  5  6  1  0  0  0  0
  5 20  1  0  0  0  0
  6  7  1  0  0  0  0
  6 25  1  0  0  0  0
  6 26  1  0  0  0  0
  7  8  1  0  0  0  0
  7 27  1  0  0  0  0
  7 28  1  0  0  0  0
  8  9  1  0  0  0  0
  8 29  1  0  0  0  0
  8 42  1  0  0  0  0
  9 10  1  0  0  0  0
  9 30  1  0  0  0  0
  9 31  1  0  0  0  0
 10 11  2  0  0  0  0
 10 12  1  0  0  0  0
 12 13  1  0  0  0  0
 12 32  1  0  0  0  0
 13 14  1  0  0  0  0
 13 15  1  0  0  0  0
 13 17  1  0  0  0  0
 14 33  1  0  0  0  0
 14 34  1  0  0  0  0
 14 35  1  0  0  0  0
 15 16  3  0  0  0  0
 17 19  1  0  0  0  0
 17 18  1  0  0  0  0
 17 36  1  0  0  0  0
 18 19  1  0  0  0  0
 18 37  1  0  0  0  0
 18 38  1  0  0  0  0
 19 39  1  0  0  0  0
 19 40  1  0  0  0  0
 20 41  1  0  0  0  0
M  CHG  1   8   1
M  END
> <s_m_source_file>
AV-unprocessed.smi

> <i_m_source_file_index>
3329

> <i_lp_mmshare_version>
43012

> <i_f3d_flags>
0

> <s_epik_input>
W0NIM11jMVtjSF1ubihbY0hdMSlbQ0gyXVtDSDJdW05IXVtDSDJdQyg9TylbTkhdW0NAQF0oW0NIM10pKEMjTilbQ0hdMltDSDJdW0NIMl0y

> <s_epik_cmdline>
J2VwaWtfcHl0aG9uJywgJy1waCcsICc3LjAnLCAnLXRuJywgJzgnLCAnLW1hJywgJzIwMCcsICctbWV0YWxfYmluZGluZycsICctaW1hZScsICc8aW5maWxlLm1hZT4nLCAnLW9tYWUnLCAnPG91dGZpbGUubWFlPic=

> <r_lp_tautomer_probability>
1

> <r_epik_Ionization_Penalty>
0.350291

> <r_epik_Ionization_Penalty_Charging>
0.350239

> <r_epik_Ionization_Penalty_Neutral>
5.12768e-05

> <r_epik_State_Penalty>
0.347656

> <r_epik_Charging_Adjusted_Penalty>
0.697895

> <i_epik_Tot_Q>
1

> <i_epik_Tot_abs_Q>
1

> <r_epik_Metal_State_Penalty>
0.371739

> <b_epik_Metal_Only>
0

> <s_lp_Force_Field>
OPLS_2005

> <r_lp_Energy>
13.221

> <b_lp_Chiralities_Consistent>
1

> <s_lp_Variant>
AV-unprocessed.smi:3329-2

> <Gold.Version>
5.8.1

> <Gold.Id.Protein>
6NUR|6NUR_protein|mol2

> <Gold.PLP.Fitness>
48.9497

> <Gold.PLP.PLP>
-36.4979

> <Gold.PLP.part.hbond>
-4.0000

> <Gold.PLP.part.metal>
0.0000

> <Gold.PLP.part.buried>
-1.6336

> <Gold.PLP.part.nonpolar>
-32.0183

> <Gold.PLP.part.repulsive>
0.9732

> <Gold.PLP.ligand.clash>
0.0000

> <Gold.PLP.ligand.torsion>
2.6641

> <Gold.PLP.Chemscore.Hbond>
3.5040

> <Gold.PLP.Chemscore.CHOScore>
1.9071

> <Gold.PLP.Chemscore.Metal>
0.0000

> <Gold.Chemscore.Hbonds>
donor molecule, donor type, donor heavy atom, donor atom, acceptor molecule, acceptor atom, score
      L1  H     8    29       P1  7948  2.00
      L1  H    12    32       P1  7948  1.00
      P1  H  7989  7998       L1    16  0.63
      L1  C     3    24       P1 10957  0.92
      L1  C    20    41       P1  7921  1.00

> <Gold.PLP.Chemscore.Internal.Correction>
1.5466

> <Gold.Rescore>
     Score         DG    S(hbond)    S(metal)    S(lipo)     H(rot)  DE(clash)    DE(int)     intcor
     14.84     -17.62       2.94        0.00      72.28       2.40       0.14       2.64       ----

> <Gold.Chemscore.Fitness>
14.8444

> <Gold.Chemscore.DG>
-17.6224

> <Gold.Chemscore.ZeroCoef>
-5.4800

> <Gold.Chemscore.Hbond>
2.9408

> <Gold.Chemscore.Metal>
0.0000

> <Gold.Chemscore.Lipo>
72.2816

> <Gold.Chemscore.Internal_Hbond>
0.0000

> <Gold.Chemscore.DEClash>
0.1372

> <Gold.Chemscore.DEInternal>
2.6408

> <Gold.Chemscore.Rot>
2.3972

> <Gold.Chemscore.Internal.Correction>
   9.000000E+99

> <Gold.Chemscore.Hbonds>
donor molecule, donor type, donor heavy atom, donor atom, acceptor molecule, acceptor atom, score
      L1  H     8    29       P1  7948  0.98
      L1  H    12    32       P1  7948  0.99
      P1  H  7989  7998       L1    16  0.09

> <Gold.Chemscore.Hbond.Weighted>
-9.8223

> <Gold.Chemscore.Metal.Weighted>
-0.0000

> <Gold.Chemscore.Lipo.Weighted>
-8.4570

> <Gold.Chemscore.Internal_Hbond.Weighted>
0.0000

> <Gold.Chemscore.DEClash.Weighted>
0.1372

> <Gold.Chemscore.DEInternal.Weighted>
2.6408

> <Gold.Chemscore.Rot.Weighted>
6.1369

> <Gold.Chemscore.Internal.Correction.Weighted>
   9.000000E+99

> <Gold.Protein.RotatedTorsions>
[ 6907 6896 6895 6894 ] final  150.13 input  -60.11 | X-H torsion
[ 7974 7965 7964 7962 ] final   52.16 input  175.53 | X-H torsion
[ 8008 7997 7996 7995 ] final   86.11 input   59.86 | X-H torsion
[ 10167 10162 10161 10158 ] final  136.86 input  -65.29 | X-H torsion
[ 10718 10713 10712 10709 ] final -118.95 input   66.30 | X-H torsion
[ 10763 10752 10751 10750 ] final   47.92 input  -60.55 | X-H torsion
[ 11005 11000 10999 10996 ] final  106.57 input  -57.11 | X-H torsion

> <Gold.Protein.ActiveResidues>
 VAL166  LYS551  ARG553  GLY616  TRP617  ASP618  TYR619  PRO620  LYS621  CYS622 
 ASP623  PHE694  ASN695  SER759  ASP760  ASP761  ALA762  ILE779  LEU786  VAL792 
 PHE793  MET794  SER795  GLU796  ALA797  LYS798  CYS799  TRP800  GLU811  SER814 

> <Gold.Protein.RotatedAtoms>
  152.1186  133.4341  159.4664 H   0  0  0  0  0  0  0  0  0  0  0  0  # atno 6907 bound_to 6896
  150.6871  134.2561  159.4540 H   0  0  0  0  0  0  0  0  0  0  0  0  # atno 6908 bound_to 6896
  152.0436  134.9696  160.0625 H   0  0  0  0  0  0  0  0  0  0  0  0  # atno 6909 bound_to 6896
  145.9841  139.4272  143.0114 H   0  0  0  0  0  0  0  0  0  0  0  0  # atno 7974 bound_to 7965
  155.9586  140.3395  155.6471 H   0  0  0  0  0  0  0  0  0  0  0  0  # atno 8008 bound_to 7997
  155.6827  140.0739  157.2497 H   0  0  0  0  0  0  0  0  0  0  0  0  # atno 8009 bound_to 7997
  154.4138  140.1671  156.1987 H   0  0  0  0  0  0  0  0  0  0  0  0  # atno 8010 bound_to 7997
  139.5165  144.6441  151.5487 H   0  0  0  0  0  0  0  0  0  0  0  0  # atno 10167 bound_to 10162
  156.1145  130.6274  150.9356 H   0  0  0  0  0  0  0  0  0  0  0  0  # atno 10718 bound_to 10713
  152.9796  135.5961  154.3841 H   0  0  0  0  0  0  0  0  0  0  0  0  # atno 10763 bound_to 10752
  154.3503  135.2767  155.2377 H   0  0  0  0  0  0  0  0  0  0  0  0  # atno 10764 bound_to 10752
  154.4419  135.6011  153.6190 H   0  0  0  0  0  0  0  0  0  0  0  0  # atno 10765 bound_to 10752
  139.8816  134.9373  156.5686 H   0  0  0  0  0  0  0  0  0  0  0  0  # atno 11005 bound_to 11000
  145.7727  140.9890  143.1141 LP  0  0  0  0  0  0  0  0  0  0  0  0  # atno 17320 bound_to 7965
  144.6870  139.9466  143.7477 LP  0  0  0  0  0  0  0  0  0  0  0  0  # atno 17321 bound_to 7965
  140.6220  143.9241  150.6533 LP  0  0  0  0  0  0  0  0  0  0  0  0  # atno 17342 bound_to 10162
  140.2517  143.3588  152.1399 LP  0  0  0  0  0  0  0  0  0  0  0  0  # atno 17343 bound_to 10162
  157.6327  131.0919  150.8409 LP  0  0  0  0  0  0  0  0  0  0  0  0  # atno 17370 bound_to 10713
  156.8515  130.5082  149.5311 LP  0  0  0  0  0  0  0  0  0  0  0  0  # atno 17371 bound_to 10713
  140.8115  133.8425  155.8814 LP  0  0  0  0  0  0  0  0  0  0  0  0  # atno 17394 bound_to 11000
  140.9502  134.1789  157.4733 LP  0  0  0  0  0  0  0  0  0  0  0  0  # atno 17395 bound_to 11000

$$$$
