AV-unprocessed.smi:536|AV-procd|sdf|2863|dock10
  -GOLD-   2262023353D 1   1.00000     0.00000
 Structure written by MMmdl.
 45 47  0  0  0  0  0  0  0  0  2 V2000
  146.1427  141.4432  159.1677 C   0  0  0  0  0  0  0  0  0  0  0  0
  146.4372  140.0593  159.1152 O   0  0  0  0  0  0  0  0  0  0  0  0
  147.4731  139.7532  158.1970 C   0  0  0  0  0  0  0  0  0  0  0  0
  147.7457  138.2390  158.1574 C   0  0  0  0  0  0  0  0  0  0  0  0
  148.9923  137.8495  158.8153 N   0  0  0  0  0  0  0  0  0  0  0  0
  149.1591  136.9688  159.8384 C   0  0  0  0  0  0  0  0  0  0  0  0
  148.0893  136.2658  160.3936 N   0  0  0  0  0  0  0  0  0  0  0  0
  147.5166  136.5517  161.7050 C   0  0  0  0  0  0  0  0  0  0  0  0
  147.4330  135.3337  162.6448 C   0  0  0  0  0  0  0  0  0  0  0  0
  146.3102  134.3569  162.2640 C   0  0  0  0  0  0  0  0  0  0  0  0
  146.6659  133.3529  161.1527 C   0  0  0  0  0  0  0  0  0  0  0  0
  147.4969  133.8946  159.9742 C   0  0  0  0  0  0  0  0  0  0  0  0
  147.2460  135.3668  159.6111 C   0  0  0  0  0  0  0  0  0  0  0  0
  150.4118  136.8591  160.2835 N   0  0  0  0  0  0  0  0  0  0  0  0
  151.1099  137.7302  159.4615 C   0  0  0  0  0  0  0  0  0  0  0  0
  150.2799  138.3453  158.5765 C   0  0  0  0  0  0  0  0  0  0  0  0
  150.7336  139.3539  157.5911 C   0  0  0  0  0  0  0  0  0  0  0  0
  149.9409  139.8997  156.8263 O   0  0  0  0  0  0  0  0  0  0  0  0
  152.0846  139.5746  157.6608 N   0  5  0  0  0  0  0  0  0  0  0  0
  152.9607  138.9693  158.5354 C   0  0  0  0  0  0  0  0  0  0  0  0
  154.1654  139.2265  158.5311 O   0  0  0  0  0  0  0  0  0  0  0  0
  152.4941  138.0542  159.4418 N   0  0  0  0  0  0  0  0  0  0  0  0
  153.4019  137.4000  160.3884 C   0  0  0  0  0  0  0  0  0  0  0  0
  145.3409  141.6190  159.8850 H   0  0  0  0  0  0  0  0  0  0  0  0
  145.8130  141.8135  158.1962 H   0  0  0  0  0  0  0  0  0  0  0  0
  147.0123  142.0193  159.4868 H   0  0  0  0  0  0  0  0  0  0  0  0
  147.1981  140.0958  157.1987 H   0  0  0  0  0  0  0  0  0  0  0  0
  148.3743  140.2957  158.4760 H   0  0  0  0  0  0  0  0  0  0  0  0
  146.9219  137.7001  158.6222 H   0  0  0  0  0  0  0  0  0  0  0  0
  147.7584  137.8857  157.1277 H   0  0  0  0  0  0  0  0  0  0  0  0
  148.1119  137.3343  162.1737 H   0  0  0  0  0  0  0  0  0  0  0  0
  146.5266  136.9900  161.5730 H   0  0  0  0  0  0  0  0  0  0  0  0
  148.3887  134.8167  162.7239 H   0  0  0  0  0  0  0  0  0  0  0  0
  147.2185  135.7110  163.6450 H   0  0  0  0  0  0  0  0  0  0  0  0
  146.0161  133.7906  163.1483 H   0  0  0  0  0  0  0  0  0  0  0  0
  145.4235  134.9236  161.9771 H   0  0  0  0  0  0  0  0  0  0  0  0
  147.2036  132.5104  161.5886 H   0  0  0  0  0  0  0  0  0  0  0  0
  145.7348  132.9351  160.7684 H   0  0  0  0  0  0  0  0  0  0  0  0
  148.5595  133.7480  160.1733 H   0  0  0  0  0  0  0  0  0  0  0  0
  147.2829  133.2756  159.1025 H   0  0  0  0  0  0  0  0  0  0  0  0
  146.1913  135.6251  159.7123 H   0  0  0  0  0  0  0  0  0  0  0  0
  147.4879  135.5106  158.5575 H   0  0  0  0  0  0  0  0  0  0  0  0
  153.9119  138.1419  161.0043 H   0  0  0  0  0  0  0  0  0  0  0  0
  154.1571  136.8213  159.8545 H   0  0  0  0  0  0  0  0  0  0  0  0
  152.8862  136.7178  161.0641 H   0  0  0  0  0  0  0  0  0  0  0  0
  1  2  1  0  0  0  0
  1 24  1  0  0  0  0
  1 25  1  0  0  0  0
  1 26  1  0  0  0  0
  2  3  1  0  0  0  0
  3  4  1  0  0  0  0
  3 27  1  0  0  0  0
  3 28  1  0  0  0  0
  4  5  1  0  0  0  0
  4 29  1  0  0  0  0
  4 30  1  0  0  0  0
  5 16  1  0  0  0  0
  5  6  1  0  0  0  0
  6  7  1  0  0  0  0
  6 14  2  0  0  0  0
  7 13  1  0  0  0  0
  7  8  1  0  0  0  0
  8  9  1  0  0  0  0
  8 31  1  0  0  0  0
  8 32  1  0  0  0  0
  9 10  1  0  0  0  0
  9 33  1  0  0  0  0
  9 34  1  0  0  0  0
 10 11  1  0  0  0  0
 10 35  1  0  0  0  0
 10 36  1  0  0  0  0
 11 12  1  0  0  0  0
 11 37  1  0  0  0  0
 11 38  1  0  0  0  0
 12 13  1  0  0  0  0
 12 39  1  0  0  0  0
 12 40  1  0  0  0  0
 13 41  1  0  0  0  0
 13 42  1  0  0  0  0
 14 15  1  0  0  0  0
 15 22  1  0  0  0  0
 15 16  2  0  0  0  0
 16 17  1  0  0  0  0
 17 18  2  0  0  0  0
 17 19  1  0  0  0  0
 19 20  1  0  0  0  0
 20 21  2  0  0  0  0
 20 22  1  0  0  0  0
 22 23  1  0  0  0  0
 23 43  1  0  0  0  0
 23 44  1  0  0  0  0
 23 45  1  0  0  0  0
M  CHG  1  19  -1
M  END
> <s_m_source_file>
AV-unprocessed.smi

> <i_m_source_file_index>
536

> <i_lp_mmshare_version>
43012

> <i_f3d_flags>
0

> <s_epik_input>
W0NIM11uMWMoPU8pW25IXWMoPU8pYyhjMTIpbihbQ0gyXVtDSDJdT1tDSDNdKWMobjIpTjNbQ0gyXVtDSDJdW0NIMl1bQ0gyXVtDSDJdW0NIMl0z

> <s_epik_cmdline>
J2VwaWtfcHl0aG9uJywgJy1waCcsICc3LjAnLCAnLXRuJywgJzgnLCAnLW1hJywgJzIwMCcsICctbWV0YWxfYmluZGluZycsICctaW1hZScsICc8aW5maWxlLm1hZT4nLCAnLW9tYWUnLCAnPG91dGZpbGUubWFlPic=

> <r_lp_tautomer_probability>
1

> <r_epik_Ionization_Penalty>
6.16859

> <r_epik_Ionization_Penalty_Charging>
0.0798692

> <r_epik_Ionization_Penalty_Neutral>
6.08873

> <r_epik_State_Penalty>
6.08498

> <r_epik_Charging_Adjusted_Penalty>
6.16485

> <i_epik_Tot_Q>
-1

> <i_epik_Tot_abs_Q>
1

> <r_epik_Metal_State_Penalty>
2.03194

> <b_epik_Metal_Only>
1

> <s_lp_Force_Field>
OPLS_2005

> <r_lp_Energy>
48.7455

> <b_lp_Chiralities_Consistent>
1

> <s_lp_Variant>
AV-unprocessed.smi:536-2

> <Gold.Version>
5.8.1

> <Gold.Id.Protein>
6NUR|6NUR_protein|mol2

> <Gold.PLP.Fitness>
37.3868

> <Gold.PLP.PLP>
-33.7454

> <Gold.PLP.part.hbond>
-3.8723

> <Gold.PLP.part.metal>
0.0000

> <Gold.PLP.part.buried>
-3.2254

> <Gold.PLP.part.nonpolar>
-27.3575

> <Gold.PLP.part.repulsive>
0.0000

> <Gold.PLP.ligand.clash>
0.0000

> <Gold.PLP.ligand.torsion>
1.5816

> <Gold.PLP.Chemscore.Hbond>
2.0000

> <Gold.PLP.Chemscore.CHOScore>
0.0000

> <Gold.PLP.Chemscore.Metal>
0.0000

> <Gold.Chemscore.Hbonds>
donor molecule, donor type, donor heavy atom, donor atom, acceptor molecule, acceptor atom, score
      P1  H  6896  6909       L1    14  1.00
      P1  H  7997  8008       L1    21  1.00

> <Gold.PLP.Chemscore.Internal.Correction>
0.8046

> <Gold.Rescore>
     Score         DG    S(hbond)    S(metal)    S(lipo)     H(rot)  DE(clash)    DE(int)     intcor
     11.02     -12.67       1.69        0.00      44.67       1.44       0.03       1.62       ----

> <Gold.Chemscore.Fitness>
11.0186

> <Gold.Chemscore.DG>
-12.6740

> <Gold.Chemscore.ZeroCoef>
-5.4800

> <Gold.Chemscore.Hbond>
1.6905

> <Gold.Chemscore.Metal>
0.0000

> <Gold.Chemscore.Lipo>
44.6750

> <Gold.Chemscore.Internal_Hbond>
0.0000

> <Gold.Chemscore.DEClash>
0.0315

> <Gold.Chemscore.DEInternal>
1.6239

> <Gold.Chemscore.Rot>
1.4372

> <Gold.Chemscore.Internal.Correction>
   9.000000E+99

> <Gold.Chemscore.Hbonds>
donor molecule, donor type, donor heavy atom, donor atom, acceptor molecule, acceptor atom, score
      P1  H  6896  6909       L1    14  0.41
      P1  H  7997  8008       L1    21  0.99

> <Gold.Chemscore.Hbond.Weighted>
-5.6464

> <Gold.Chemscore.Metal.Weighted>
-0.0000

> <Gold.Chemscore.Lipo.Weighted>
-5.2270

> <Gold.Chemscore.Internal_Hbond.Weighted>
0.0000

> <Gold.Chemscore.DEClash.Weighted>
0.0315

> <Gold.Chemscore.DEInternal.Weighted>
1.6239

> <Gold.Chemscore.Rot.Weighted>
3.6793

> <Gold.Chemscore.Internal.Correction.Weighted>
   9.000000E+99

> <Gold.Protein.RotatedTorsions>
[ 6907 6896 6895 6894 ] final   94.98 input  -60.11 | X-H torsion
[ 7974 7965 7964 7962 ] final  102.23 input  175.53 | X-H torsion
[ 8008 7997 7996 7995 ] final -108.25 input   59.86 | X-H torsion
[ 10167 10162 10161 10158 ] final   53.92 input  -65.29 | X-H torsion
[ 10718 10713 10712 10709 ] final -111.53 input   66.30 | X-H torsion
[ 10763 10752 10751 10750 ] final   63.49 input  -60.55 | X-H torsion
[ 11005 11000 10999 10996 ] final   44.03 input  -57.11 | X-H torsion

> <Gold.Protein.ActiveResidues>
 VAL166  LYS551  ARG553  GLY616  TRP617  ASP618  TYR619  PRO620  LYS621  CYS622 
 ASP623  PHE694  ASN695  SER759  ASP760  ASP761  ALA762  ILE779  LEU786  VAL792 
 PHE793  MET794  SER795  GLU796  ALA797  LYS798  CYS799  TRP800  GLU811  SER814 

> <Gold.Protein.RotatedAtoms>
  152.5446  134.1111  159.8358 H   0  0  0  0  0  0  0  0  0  0  0  0  # atno 6907 bound_to 6896
  151.1177  133.5119  159.2610 H   0  0  0  0  0  0  0  0  0  0  0  0  # atno 6908 bound_to 6896
  151.1813  135.0372  159.8848 H   0  0  0  0  0  0  0  0  0  0  0  0  # atno 6909 bound_to 6896
  145.3619  139.2416  143.3502 H   0  0  0  0  0  0  0  0  0  0  0  0  # atno 7974 bound_to 7965
  154.9415  140.0402  157.2099 H   0  0  0  0  0  0  0  0  0  0  0  0  # atno 8008 bound_to 7997
  154.8064  140.2860  155.5862 H   0  0  0  0  0  0  0  0  0  0  0  0  # atno 8009 bound_to 7997
  156.2967  140.2545  156.2943 H   0  0  0  0  0  0  0  0  0  0  0  0  # atno 8010 bound_to 7997
  140.2356  144.3639  150.6398 H   0  0  0  0  0  0  0  0  0  0  0  0  # atno 10167 bound_to 10162
  156.0653  130.5872  150.8386 H   0  0  0  0  0  0  0  0  0  0  0  0  # atno 10718 bound_to 10713
  153.0020  135.5427  154.6361 H   0  0  0  0  0  0  0  0  0  0  0  0  # atno 10763 bound_to 10752
  154.5627  135.2835  155.0906 H   0  0  0  0  0  0  0  0  0  0  0  0  # atno 10764 bound_to 10752
  154.2102  135.6468  153.5165 H   0  0  0  0  0  0  0  0  0  0  0  0  # atno 10765 bound_to 10752
  140.1589  134.4366  155.8331 H   0  0  0  0  0  0  0  0  0  0  0  0  # atno 11005 bound_to 11000
  146.2924  140.4254  142.8734 LP  0  0  0  0  0  0  0  0  0  0  0  0  # atno 17320 bound_to 7965
  144.8640  140.7180  143.6089 LP  0  0  0  0  0  0  0  0  0  0  0  0  # atno 17321 bound_to 7965
  140.6152  143.2172  151.6806 LP  0  0  0  0  0  0  0  0  0  0  0  0  # atno 17342 bound_to 10162
  139.5095  144.3575  152.0593 LP  0  0  0  0  0  0  0  0  0  0  0  0  # atno 17343 bound_to 10162
  157.5690  131.0946  150.9447 LP  0  0  0  0  0  0  0  0  0  0  0  0  # atno 17370 bound_to 10713
  156.9667  130.5475  149.5288 LP  0  0  0  0  0  0  0  0  0  0  0  0  # atno 17371 bound_to 10713
  141.2207  133.6905  156.7558 LP  0  0  0  0  0  0  0  0  0  0  0  0  # atno 17394 bound_to 11000
  140.2513  134.8538  157.3670 LP  0  0  0  0  0  0  0  0  0  0  0  0  # atno 17395 bound_to 11000

$$$$
