AV-unprocessed.smi:3254|AV-procd|sdf|12454|dock1
  -GOLD-   2272018353D 1   1.00000     0.00000
 Structure written by MMmdl.
 37 38  0  0  0  0  0  0  0  0  2 V2000
  149.7113  141.1236  156.9352 C   0  0  0  0  0  0  0  0  0  0  0  0
  150.1719  140.9467  155.4816 C   0  0  0  0  0  0  0  0  0  0  0  0
  150.9192  139.7049  155.2989 N   0  0  0  0  0  0  0  0  0  0  0  0
  150.4739  138.7051  154.3424 C   0  0  0  0  0  0  0  0  0  0  0  0
  151.3869  137.4792  154.5628 C   0  0  2  0  0  0  0  0  0  0  0  0
  150.6285  136.2878  155.1688 C   0  0  0  0  0  0  0  0  0  0  0  0
  150.9829  135.8091  156.2470 O   0  0  0  0  0  0  0  0  0  0  0  0
  149.5835  135.8218  154.4678 N   0  0  0  0  0  0  0  0  0  0  0  0
  148.7406  134.7037  154.8735 C   0  0  0  0  0  0  0  0  0  0  0  0
  148.8781  133.5128  153.9101 C   0  0  0  0  0  0  0  0  0  0  0  0
  147.5927  132.8522  153.6808 N   0  0  0  0  0  0  0  0  0  0  0  0
  147.3320  131.8269  152.8084 C   0  0  0  0  0  0  0  0  0  0  0  0
  145.9975  131.5380  152.9333 C   0  0  0  0  0  0  0  0  0  0  0  0
  145.5008  132.3992  153.8751 N   0  3  0  0  0  0  0  0  0  0  0  0
  146.4726  133.1980  154.3283 C   0  0  0  0  0  0  0  0  0  0  0  0
  152.5063  137.9736  155.5009 C   0  0  0  0  0  0  0  0  0  0  0  0
  152.0380  139.3506  155.9402 C   0  0  0  0  0  0  0  0  0  0  0  0
  152.6327  140.0178  156.7852 O   0  0  0  0  0  0  0  0  0  0  0  0
  149.1750  142.0644  157.0588 H   0  0  0  0  0  0  0  0  0  0  0  0
  150.5611  141.1336  157.6183 H   0  0  0  0  0  0  0  0  0  0  0  0
  149.0422  140.3196  157.2431 H   0  0  0  0  0  0  0  0  0  0  0  0
  149.3095  140.9536  154.8133 H   0  0  0  0  0  0  0  0  0  0  0  0
  150.7937  141.7934  155.1888 H   0  0  0  0  0  0  0  0  0  0  0  0
  149.4154  138.4808  154.4875 H   0  0  0  0  0  0  0  0  0  0  0  0
  150.5902  139.0977  153.3313 H   0  0  0  0  0  0  0  0  0  0  0  0
  151.8194  137.1759  153.6077 H   0  0  0  0  0  0  0  0  0  0  0  0
  149.3613  136.2701  153.5905 H   0  0  0  0  0  0  0  0  0  0  0  0
  149.0339  134.4047  155.8802 H   0  0  0  0  0  0  0  0  0  0  0  0
  147.7002  135.0280  154.9368 H   0  0  0  0  0  0  0  0  0  0  0  0
  149.2579  133.8358  152.9400 H   0  0  0  0  0  0  0  0  0  0  0  0
  149.5812  132.7757  154.3010 H   0  0  0  0  0  0  0  0  0  0  0  0
  148.0957  131.3911  152.1800 H   0  0  0  0  0  0  0  0  0  0  0  0
  145.3804  130.8042  152.4352 H   0  0  0  0  0  0  0  0  0  0  0  0
  146.3709  133.9700  155.0702 H   0  0  0  0  0  0  0  0  0  0  0  0
  152.6693  137.3318  156.3685 H   0  0  0  0  0  0  0  0  0  0  0  0
  153.4535  138.0657  154.9688 H   0  0  0  0  0  0  0  0  0  0  0  0
  144.5375  132.4291  154.1854 H   0  0  0  0  0  0  0  0  0  0  0  0
  1  2  1  0  0  0  0
  1 19  1  0  0  0  0
  1 20  1  0  0  0  0
  1 21  1  0  0  0  0
  2  3  1  0  0  0  0
  2 22  1  0  0  0  0
  2 23  1  0  0  0  0
  3 17  1  0  0  0  0
  3  4  1  0  0  0  0
  4  5  1  0  0  0  0
  4 24  1  0  0  0  0
  4 25  1  0  0  0  0
  5  6  1  0  0  0  0
  5 16  1  0  0  0  0
  5 26  1  0  0  0  0
  6  7  2  0  0  0  0
  6  8  1  0  0  0  0
  8  9  1  0  0  0  0
  8 27  1  0  0  0  0
  9 10  1  0  0  0  0
  9 28  1  0  0  0  0
  9 29  1  0  0  0  0
 10 11  1  0  0  0  0
 10 30  1  0  0  0  0
 10 31  1  0  0  0  0
 11 15  1  0  0  0  0
 11 12  1  0  0  0  0
 12 13  2  0  0  0  0
 12 32  1  0  0  0  0
 13 14  1  0  0  0  0
 13 33  1  0  0  0  0
 14 15  2  0  0  0  0
 14 37  1  0  0  0  0
 15 34  1  0  0  0  0
 16 17  1  0  0  0  0
 16 35  1  0  0  0  0
 16 36  1  0  0  0  0
 17 18  2  0  0  0  0
M  CHG  1  14   1
M  END
> <s_m_source_file>
AV-unprocessed.smi

> <i_m_source_file_index>
3254

> <i_lp_mmshare_version>
43012

> <i_f3d_flags>
0

> <s_epik_input>
W0NIM11bQ0gyXU4xW0NIMl1bQ0BIXShbQ0gyXUMxPU8pQyg9TylbTkhdW0NIMl1bQ0gyXW4yW2NIXVtjSF1uW2NIXTI=

> <s_epik_cmdline>
J2VwaWtfcHl0aG9uJywgJy1waCcsICc3LjAnLCAnLXRuJywgJzgnLCAnLW1hJywgJzIwMCcsICctbWV0YWxfYmluZGluZycsICctaW1hZScsICc8aW5maWxlLm1hZT4nLCAnLW9tYWUnLCAnPG91dGZpbGUubWFlPic=

> <r_lp_tautomer_probability>
1

> <r_epik_Ionization_Penalty>
0.274742

> <r_epik_Ionization_Penalty_Charging>
0

> <r_epik_Ionization_Penalty_Neutral>
0.274742

> <r_epik_State_Penalty>
0.267046

> <r_epik_Charging_Adjusted_Penalty>
0.267046

> <i_epik_Tot_Q>
1

> <i_epik_Tot_abs_Q>
1

> <r_epik_Metal_State_Penalty>
0.550456

> <b_epik_Metal_Only>
0

> <s_lp_Force_Field>
OPLS_2005

> <r_lp_Energy>
15.3275

> <b_lp_Chiralities_Consistent>
1

> <s_lp_Variant>
AV-unprocessed.smi:3254-2

> <Gold.Version>
5.8.1

> <Gold.Id.Protein>
6NUR|6NUR_protein|mol2

> <Gold.PLP.Fitness>
44.9714

> <Gold.PLP.PLP>
-30.5943

> <Gold.PLP.part.hbond>
-3.0000

> <Gold.PLP.part.metal>
0.0000

> <Gold.PLP.part.buried>
-0.0895

> <Gold.PLP.part.nonpolar>
-27.0670

> <Gold.PLP.part.repulsive>
0.0504

> <Gold.PLP.ligand.clash>
0.0000

> <Gold.PLP.ligand.torsion>
0.3262

> <Gold.PLP.Chemscore.Hbond>
4.0000

> <Gold.PLP.Chemscore.CHOScore>
1.0000

> <Gold.PLP.Chemscore.Metal>
0.0000

> <Gold.Chemscore.Hbonds>
donor molecule, donor type, donor heavy atom, donor atom, acceptor molecule, acceptor atom, score
      L1  H     8    27       P1  7948  1.00
      L1  H    14    37       P1 10957  1.85
      P1  H  7997  8010       L1    18  1.00
      L1  C    12    32       P1 10747  1.00

> <Gold.PLP.Chemscore.Internal.Correction>
0.0295

> <Gold.Rescore>
     Score         DG    S(hbond)    S(metal)    S(lipo)     H(rot)  DE(clash)    DE(int)     intcor
     14.48     -14.87       2.69        0.00      53.21       2.28       0.06       0.33       ----

> <Gold.Chemscore.Fitness>
14.4776

> <Gold.Chemscore.DG>
-14.8697

> <Gold.Chemscore.ZeroCoef>
-5.4800

> <Gold.Chemscore.Hbond>
2.6932

> <Gold.Chemscore.Metal>
0.0000

> <Gold.Chemscore.Lipo>
53.2055

> <Gold.Chemscore.Internal_Hbond>
0.0000

> <Gold.Chemscore.DEClash>
0.0616

> <Gold.Chemscore.DEInternal>
0.3305

> <Gold.Chemscore.Rot>
2.2776

> <Gold.Chemscore.Internal.Correction>
   9.000000E+99

> <Gold.Chemscore.Hbonds>
donor molecule, donor type, donor heavy atom, donor atom, acceptor molecule, acceptor atom, score
      L1  H     8    27       P1  7948  0.75
      L1  H    14    37       P1 10957  0.48
      P1  H  7997  8010       L1    18  0.62

> <Gold.Chemscore.Hbond.Weighted>
-8.9954

> <Gold.Chemscore.Metal.Weighted>
-0.0000

> <Gold.Chemscore.Lipo.Weighted>
-6.2250

> <Gold.Chemscore.Internal_Hbond.Weighted>
0.0000

> <Gold.Chemscore.DEClash.Weighted>
0.0616

> <Gold.Chemscore.DEInternal.Weighted>
0.3305

> <Gold.Chemscore.Rot.Weighted>
5.8307

> <Gold.Chemscore.Internal.Correction.Weighted>
   9.000000E+99

> <Gold.Protein.RotatedTorsions>
[ 6907 6896 6895 6894 ] final -166.35 input  -60.11 | X-H torsion
[ 7974 7965 7964 7962 ] final -135.87 input  175.53 | X-H torsion
[ 8008 7997 7996 7995 ] final   81.13 input   59.86 | X-H torsion
[ 10167 10162 10161 10158 ] final  109.40 input  -65.29 | X-H torsion
[ 10718 10713 10712 10709 ] final -125.22 input   66.30 | X-H torsion
[ 10763 10752 10751 10750 ] final  -25.82 input  -60.55 | X-H torsion
[ 11005 11000 10999 10996 ] final  -34.97 input  -57.11 | X-H torsion

> <Gold.Protein.ActiveResidues>
 VAL166  LYS551  ARG553  GLY616  TRP617  ASP618  TYR619  PRO620  LYS621  CYS622 
 ASP623  PHE694  ASN695  SER759  ASP760  ASP761  ALA762  ILE779  LEU786  VAL792 
 PHE793  MET794  SER795  GLU796  ALA797  LYS798  CYS799  TRP800  GLU811  SER814 

> <Gold.Protein.RotatedAtoms>
  151.4423  133.3640  159.2783 H   0  0  0  0  0  0  0  0  0  0  0  0  # atno 6907 bound_to 6896
  150.9149  134.8568  159.7461 H   0  0  0  0  0  0  0  0  0  0  0  0  # atno 6908 bound_to 6896
  152.4952  134.4355  159.9578 H   0  0  0  0  0  0  0  0  0  0  0  0  # atno 6909 bound_to 6896
  144.8977  140.6728  143.5105 H   0  0  0  0  0  0  0  0  0  0  0  0  # atno 7974 bound_to 7965
  155.8930  140.3438  155.5970 H   0  0  0  0  0  0  0  0  0  0  0  0  # atno 8008 bound_to 7997
  155.7589  140.0830  157.2184 H   0  0  0  0  0  0  0  0  0  0  0  0  # atno 8009 bound_to 7997
  154.4035  140.1539  156.2797 H   0  0  0  0  0  0  0  0  0  0  0  0  # atno 8010 bound_to 7997
  139.6769  144.7121  151.1585 H   0  0  0  0  0  0  0  0  0  0  0  0  # atno 10167 bound_to 10162
  156.1657  130.6632  151.0111 H   0  0  0  0  0  0  0  0  0  0  0  0  # atno 10718 bound_to 10713
  153.7060  135.6953  153.5050 H   0  0  0  0  0  0  0  0  0  0  0  0  # atno 10763 bound_to 10752
  153.2307  135.4338  155.0591 H   0  0  0  0  0  0  0  0  0  0  0  0  # atno 10764 bound_to 10752
  154.8329  135.3483  154.6598 H   0  0  0  0  0  0  0  0  0  0  0  0  # atno 10765 bound_to 10752
  140.9759  133.7083  156.1601 H   0  0  0  0  0  0  0  0  0  0  0  0  # atno 11005 bound_to 11000
  145.3672  139.1667  143.4352 LP  0  0  0  0  0  0  0  0  0  0  0  0  # atno 17320 bound_to 7965
  146.3090  140.3740  142.8677 LP  0  0  0  0  0  0  0  0  0  0  0  0  # atno 17321 bound_to 7965
  140.7638  143.5758  150.8947 LP  0  0  0  0  0  0  0  0  0  0  0  0  # atno 17342 bound_to 10162
  139.9427  143.6363  152.3049 LP  0  0  0  0  0  0  0  0  0  0  0  0  # atno 17343 bound_to 10162
  157.6766  131.0849  150.7479 LP  0  0  0  0  0  0  0  0  0  0  0  0  # atno 17370 bound_to 10713
  156.7540  130.4778  149.5450 LP  0  0  0  0  0  0  0  0  0  0  0  0  # atno 17371 bound_to 10713
  140.7260  134.4306  157.5570 LP  0  0  0  0  0  0  0  0  0  0  0  0  # atno 17394 bound_to 11000
  139.8930  134.8741  156.2243 LP  0  0  0  0  0  0  0  0  0  0  0  0  # atno 17395 bound_to 11000

$$$$
