AV-unprocessed.smi:1088|AV-procd|sdf|4728|dock8
  -GOLD-   22720 3263D 1   1.00000     0.00000
 Structure written by MMmdl.
 48 49  0  0  0  0  0  0  0  0  2 V2000
  145.0925  135.5464  151.1072 C   0  0  0  0  0  0  0  0  0  0  0  0
  145.9126  135.9390  152.1939 O   0  0  0  0  0  0  0  0  0  0  0  0
  145.7344  135.1169  153.3353 C   0  0  0  0  0  0  0  0  0  0  0  0
  146.6566  135.6187  154.4556 C   0  0  0  0  0  0  0  0  0  0  0  0
  148.0861  135.3477  154.1676 N   0  3  2  0  0  0  0  0  0  0  0  0
  148.4461  133.9163  154.0891 C   0  0  0  0  0  0  0  0  0  0  0  0
  149.9445  133.8741  154.3548 C   0  0  0  0  0  0  0  0  0  0  0  0
  150.1322  134.9633  155.4037 C   0  0  0  0  0  0  0  0  0  0  0  0
  149.0361  136.0070  155.0995 C   0  0  1  0  0  0  0  0  0  0  0  0
  149.5570  137.3202  154.4799 C   0  0  0  0  0  0  0  0  0  0  0  0
  150.5965  137.9325  155.3013 N   0  0  0  0  0  0  0  0  0  0  0  0
  151.0211  139.2013  155.2026 C   0  0  0  0  0  0  0  0  0  0  0  0
  150.5293  140.0226  154.4278 O   0  0  0  0  0  0  0  0  0  0  0  0
  152.1826  139.6005  156.1207 C   0  0  0  0  0  0  0  0  0  0  0  0
  151.7972  140.6376  157.0864 N   0  0  0  0  0  0  0  0  0  0  0  0
  150.7169  141.4585  156.8188 C   0  0  0  0  0  0  0  0  0  0  0  0
  150.3016  142.4378  157.6514 C   0  0  0  0  0  0  0  0  0  0  0  0
  150.9917  142.6928  158.9099 C   0  0  0  0  0  0  0  0  0  0  0  0
  150.6352  143.5587  159.7099 O   0  0  0  0  0  0  0  0  0  0  0  0
  152.1041  141.8522  159.1511 N   0  0  0  0  0  0  0  0  0  0  0  0
  152.8325  142.0367  160.3894 C   0  0  0  0  0  0  0  0  0  0  0  0
  152.5209  140.8149  158.2863 C   0  0  0  0  0  0  0  0  0  0  0  0
  153.4754  140.0805  158.5549 O   0  0  0  0  0  0  0  0  0  0  0  0
  145.2666  136.2083  150.2589 H   0  0  0  0  0  0  0  0  0  0  0  0
  144.0352  135.6063  151.3687 H   0  0  0  0  0  0  0  0  0  0  0  0
  145.3181  134.5274  150.7906 H   0  0  0  0  0  0  0  0  0  0  0  0
  144.6967  135.1754  153.6668 H   0  0  0  0  0  0  0  0  0  0  0  0
  145.9370  134.0718  153.0969 H   0  0  0  0  0  0  0  0  0  0  0  0
  146.5111  136.6932  154.5746 H   0  0  0  0  0  0  0  0  0  0  0  0
  146.3815  135.1602  155.4064 H   0  0  0  0  0  0  0  0  0  0  0  0
  147.9212  133.3564  154.8650 H   0  0  0  0  0  0  0  0  0  0  0  0
  148.1855  133.4840  153.1227 H   0  0  0  0  0  0  0  0  0  0  0  0
  150.2907  132.8958  154.6900 H   0  0  0  0  0  0  0  0  0  0  0  0
  150.4917  134.1349  153.4477 H   0  0  0  0  0  0  0  0  0  0  0  0
  149.9632  134.5409  156.3953 H   0  0  0  0  0  0  0  0  0  0  0  0
  151.1463  135.3606  155.3961 H   0  0  0  0  0  0  0  0  0  0  0  0
  148.5262  136.2396  156.0364 H   0  0  0  0  0  0  0  0  0  0  0  0
  149.9054  137.1448  153.4607 H   0  0  0  0  0  0  0  0  0  0  0  0
  148.7397  138.0378  154.3998 H   0  0  0  0  0  0  0  0  0  0  0  0
  151.0555  137.3354  155.9741 H   0  0  0  0  0  0  0  0  0  0  0  0
  152.5274  138.7066  156.6419 H   0  0  0  0  0  0  0  0  0  0  0  0
  153.0327  139.9455  155.5288 H   0  0  0  0  0  0  0  0  0  0  0  0
  150.1734  141.3124  155.8965 H   0  0  0  0  0  0  0  0  0  0  0  0
  149.4464  143.0408  157.3832 H   0  0  0  0  0  0  0  0  0  0  0  0
  153.8756  141.7501  160.2485 H   0  0  0  0  0  0  0  0  0  0  0  0
  152.3449  141.4128  161.1396 H   0  0  0  0  0  0  0  0  0  0  0  0
  152.8108  143.0907  160.6705 H   0  0  0  0  0  0  0  0  0  0  0  0
  148.2851  135.7381  153.2572 H   0  0  0  0  0  0  0  0  0  0  0  0
  1  2  1  0  0  0  0
  1 24  1  0  0  0  0
  1 25  1  0  0  0  0
  1 26  1  0  0  0  0
  2  3  1  0  0  0  0
  3  4  1  0  0  0  0
  3 27  1  0  0  0  0
  3 28  1  0  0  0  0
  4  5  1  0  0  0  0
  4 29  1  0  0  0  0
  4 30  1  0  0  0  0
  5  9  1  0  0  0  0
  5  6  1  0  0  0  0
  5 48  1  0  0  0  0
  6  7  1  0  0  0  0
  6 31  1  0  0  0  0
  6 32  1  0  0  0  0
  7  8  1  0  0  0  0
  7 33  1  0  0  0  0
  7 34  1  0  0  0  0
  8  9  1  0  0  0  0
  8 35  1  0  0  0  0
  8 36  1  0  0  0  0
  9 10  1  0  0  0  0
  9 37  1  0  0  0  0
 10 11  1  0  0  0  0
 10 38  1  0  0  0  0
 10 39  1  0  0  0  0
 11 12  1  0  0  0  0
 11 40  1  0  0  0  0
 12 13  2  0  0  0  0
 12 14  1  0  0  0  0
 14 15  1  0  0  0  0
 14 41  1  0  0  0  0
 14 42  1  0  0  0  0
 15 22  1  0  0  0  0
 15 16  1  0  0  0  0
 16 17  2  0  0  0  0
 16 43  1  0  0  0  0
 17 18  1  0  0  0  0
 17 44  1  0  0  0  0
 18 19  2  0  0  0  0
 18 20  1  0  0  0  0
 20 21  1  0  0  0  0
 20 22  1  0  0  0  0
 21 45  1  0  0  0  0
 21 46  1  0  0  0  0
 21 47  1  0  0  0  0
 22 23  2  0  0  0  0
M  CHG  1   5   1
M  END
> <s_m_source_file>
AV-unprocessed.smi

> <i_m_source_file_index>
1088

> <i_lp_mmshare_version>
43012

> <i_f3d_flags>
0

> <s_epik_input>
W0NIM11PW0NIMl1bQ0gyXU4xW0NIMl1bQ0gyXVtDSDJdW0NASF0xW0NIMl1bTkhdQyg9TylbQ0gyXW4yW2NIXVtjSF1jKD1PKW4oW0NIM10pYzI9Tw==

> <s_epik_cmdline>
J2VwaWtfcHl0aG9uJywgJy1waCcsICc3LjAnLCAnLXRuJywgJzgnLCAnLW1hJywgJzIwMCcsICctbWV0YWxfYmluZGluZycsICctaW1hZScsICc8aW5maWxlLm1hZT4nLCAnLW9tYWUnLCAnPG91dGZpbGUubWFlPic=

> <r_lp_tautomer_probability>
1

> <r_epik_Ionization_Penalty>
0.0127388

> <r_epik_Ionization_Penalty_Charging>
0.0127387

> <r_epik_Ionization_Penalty_Neutral>
8.26414e-08

> <r_epik_State_Penalty>
0.00987716

> <r_epik_Charging_Adjusted_Penalty>
0.0226159

> <i_epik_Tot_Q>
1

> <i_epik_Tot_abs_Q>
1

> <r_epik_Metal_State_Penalty>
0.00987836

> <b_epik_Metal_Only>
0

> <s_lp_Force_Field>
OPLS_2005

> <r_lp_Energy>
37.5103

> <b_lp_Chiralities_Consistent>
1

> <s_lp_Variant>
AV-unprocessed.smi:1088-1

> <Gold.Version>
5.8.1

> <Gold.Id.Protein>
6NUR|6NUR_protein|mol2

> <Gold.PLP.Fitness>
45.9407

> <Gold.PLP.PLP>
-34.8684

> <Gold.PLP.part.hbond>
-3.2594

> <Gold.PLP.part.metal>
0.0000

> <Gold.PLP.part.buried>
-1.8820

> <Gold.PLP.part.nonpolar>
-29.1668

> <Gold.PLP.part.repulsive>
0.9019

> <Gold.PLP.ligand.clash>
0.0000

> <Gold.PLP.ligand.torsion>
0.5094

> <Gold.PLP.Chemscore.Hbond>
4.0000

> <Gold.PLP.Chemscore.CHOScore>
0.0000

> <Gold.PLP.Chemscore.Metal>
0.0000

> <Gold.Chemscore.Hbonds>
donor molecule, donor type, donor heavy atom, donor atom, acceptor molecule, acceptor atom, score
      L1  H     5    48       P1  7948  2.00
      P1  H  7989  7998       L1    13  1.00
      P1  H  7997  8009       L1    23  1.00

> <Gold.PLP.Chemscore.Internal.Correction>
0.0911

> <Gold.Rescore>
     Score         DG    S(hbond)    S(metal)    S(lipo)     H(rot)  DE(clash)    DE(int)     intcor
     13.29     -15.14       2.77        0.00      59.64       2.57       0.01       1.85       ----

> <Gold.Chemscore.Fitness>
13.2876

> <Gold.Chemscore.DG>
-15.1444

> <Gold.Chemscore.ZeroCoef>
-5.4800

> <Gold.Chemscore.Hbond>
2.7737

> <Gold.Chemscore.Metal>
0.0000

> <Gold.Chemscore.Lipo>
59.6363

> <Gold.Chemscore.Internal_Hbond>
0.0000

> <Gold.Chemscore.DEClash>
0.0117

> <Gold.Chemscore.DEInternal>
1.8451

> <Gold.Chemscore.Rot>
2.5692

> <Gold.Chemscore.Internal.Correction>
   9.000000E+99

> <Gold.Chemscore.Hbonds>
donor molecule, donor type, donor heavy atom, donor atom, acceptor molecule, acceptor atom, score
      L1  H     5    48       P1  7948  0.99
      P1  H  7989  7998       L1    13  0.92
      P1  H  7997  8009       L1    23  0.66

> <Gold.Chemscore.Hbond.Weighted>
-9.2641

> <Gold.Chemscore.Metal.Weighted>
-0.0000

> <Gold.Chemscore.Lipo.Weighted>
-6.9774

> <Gold.Chemscore.Internal_Hbond.Weighted>
0.0000

> <Gold.Chemscore.DEClash.Weighted>
0.0117

> <Gold.Chemscore.DEInternal.Weighted>
1.8451

> <Gold.Chemscore.Rot.Weighted>
6.5772

> <Gold.Chemscore.Internal.Correction.Weighted>
   9.000000E+99

> <Gold.Protein.RotatedTorsions>
[ 6907 6896 6895 6894 ] final  -50.68 input  -60.11 | X-H torsion
[ 7974 7965 7964 7962 ] final   99.25 input  175.53 | X-H torsion
[ 8008 7997 7996 7995 ] final  150.70 input   59.86 | X-H torsion
[ 10167 10162 10161 10158 ] final  157.71 input  -65.29 | X-H torsion
[ 10718 10713 10712 10709 ] final   18.10 input   66.30 | X-H torsion
[ 10763 10752 10751 10750 ] final   42.46 input  -60.55 | X-H torsion
[ 11005 11000 10999 10996 ] final  123.77 input  -57.11 | X-H torsion

> <Gold.Protein.ActiveResidues>
 VAL166  LYS551  ARG553  GLY616  TRP617  ASP618  TYR619  PRO620  LYS621  CYS622 
 ASP623  PHE694  ASN695  SER759  ASP760  ASP761  ALA762  ILE779  LEU786  VAL792 
 PHE793  MET794  SER795  GLU796  ALA797  LYS798  CYS799  TRP800  GLU811  SER814 

> <Gold.Protein.RotatedAtoms>
  150.8683  134.8052  159.7135 H   0  0  0  0  0  0  0  0  0  0  0  0  # atno 6907 bound_to 6896
  152.4697  134.4987  159.9728 H   0  0  0  0  0  0  0  0  0  0  0  0  # atno 6908 bound_to 6896
  151.5080  133.3452  159.2915 H   0  0  0  0  0  0  0  0  0  0  0  0  # atno 6909 bound_to 6896
  145.4014  139.2347  143.3298 H   0  0  0  0  0  0  0  0  0  0  0  0  # atno 7974 bound_to 7965
  156.2705  140.2067  156.6059 H   0  0  0  0  0  0  0  0  0  0  0  0  # atno 8008 bound_to 7997
  154.6869  140.0534  157.0348 H   0  0  0  0  0  0  0  0  0  0  0  0  # atno 8009 bound_to 7997
  155.0921  140.3197  155.4574 H   0  0  0  0  0  0  0  0  0  0  0  0  # atno 8010 bound_to 7997
  139.4824  144.4892  151.8333 H   0  0  0  0  0  0  0  0  0  0  0  0  # atno 10167 bound_to 10162
  157.0915  130.6430  149.5850 H   0  0  0  0  0  0  0  0  0  0  0  0  # atno 10718 bound_to 10713
  152.9882  135.6131  154.2953 H   0  0  0  0  0  0  0  0  0  0  0  0  # atno 10763 bound_to 10752
  154.2677  135.2780  155.2753 H   0  0  0  0  0  0  0  0  0  0  0  0  # atno 10764 bound_to 10752
  154.5150  135.5830  153.6692 H   0  0  0  0  0  0  0  0  0  0  0  0  # atno 10765 bound_to 10752
  139.9328  134.9641  156.8309 H   0  0  0  0  0  0  0  0  0  0  0  0  # atno 11005 bound_to 11000
  146.2750  140.4712  142.8799 LP  0  0  0  0  0  0  0  0  0  0  0  0  # atno 17320 bound_to 7965
  144.8371  140.6800  143.6253 LP  0  0  0  0  0  0  0  0  0  0  0  0  # atno 17321 bound_to 7965
  140.4375  144.2032  150.5890 LP  0  0  0  0  0  0  0  0  0  0  0  0  # atno 17342 bound_to 10162
  140.4717  143.2410  151.9080 LP  0  0  0  0  0  0  0  0  0  0  0  0  # atno 17343 bound_to 10162
  155.9897  130.4945  150.7224 LP  0  0  0  0  0  0  0  0  0  0  0  0  # atno 17370 bound_to 10713
  157.4717  131.0894  151.0635 LP  0  0  0  0  0  0  0  0  0  0  0  0  # atno 17371 bound_to 10713
  140.6157  134.0041  155.7596 LP  0  0  0  0  0  0  0  0  0  0  0  0  # atno 17394 bound_to 11000
  141.0925  133.9894  157.3213 LP  0  0  0  0  0  0  0  0  0  0  0  0  # atno 17395 bound_to 11000

$$$$
