AV-unprocessed.smi:2780|AV-procd|sdf|10715|dock2
  -GOLD-   2272015153D 1   1.00000     0.00000
 Structure written by MMmdl.
 47 49  0  0  0  0  0  0  0  0  2 V2000
  154.6071  140.6263  161.2940 C   0  0  0  0  0  0  0  0  0  0  0  0
  153.6745  141.8032  161.5269 C   0  0  0  0  0  0  0  0  0  0  0  0
  153.5573  142.3281  162.7616 C   0  0  0  0  0  0  0  0  0  0  0  0
  152.7214  143.5415  163.0964 C   0  0  0  0  0  0  0  0  0  0  0  0
  152.4447  144.3795  161.8461 C   0  0  0  0  0  0  0  0  0  0  0  0
  151.9187  143.5100  160.6924 C   0  0  1  0  0  0  0  0  0  0  0  0
  151.5667  144.4106  159.4922 C   0  0  0  0  0  0  0  0  0  0  0  0
  152.9108  142.3678  160.3110 C   0  0  2  0  0  0  0  0  0  0  0  0
  152.1713  141.2663  159.5066 C   0  0  0  0  0  0  0  0  0  0  0  0
  151.7754  141.7113  158.1549 N   0  3  0  0  0  0  0  0  0  0  0  0
  151.2499  140.6331  157.2947 C   0  0  0  0  0  0  0  0  0  0  0  0
  150.9135  141.1463  155.8858 C   0  0  0  0  0  0  0  0  0  0  0  0
  150.0627  140.2257  155.1488 N   0  0  0  0  0  0  0  0  0  0  0  0
  150.2900  138.9349  154.8582 C   0  0  0  0  0  0  0  0  0  0  0  0
  149.3399  138.3426  154.1368 N   0  0  0  0  0  0  0  0  0  0  0  0
  148.4047  139.3330  153.9149 N   0  0  0  0  0  0  0  0  0  0  0  0
  148.8747  140.4196  154.5385 C   0  0  0  0  0  0  0  0  0  0  0  0
  148.1854  141.7468  154.5237 C   0  0  0  0  0  0  0  0  0  0  0  0
  146.9168  141.9650  155.3176 C   0  0  0  0  0  0  0  0  0  0  0  0
  146.8645  141.9457  153.8128 C   0  0  0  0  0  0  0  0  0  0  0  0
  155.2969  140.8430  160.4790 H   0  0  0  0  0  0  0  0  0  0  0  0
  154.0466  139.7224  161.0569 H   0  0  0  0  0  0  0  0  0  0  0  0
  155.2049  140.4129  162.1810 H   0  0  0  0  0  0  0  0  0  0  0  0
  154.0943  141.8866  163.5889 H   0  0  0  0  0  0  0  0  0  0  0  0
  151.7906  143.2091  163.5569 H   0  0  0  0  0  0  0  0  0  0  0  0
  153.2477  144.1460  163.8356 H   0  0  0  0  0  0  0  0  0  0  0  0
  151.7295  145.1661  162.0900 H   0  0  0  0  0  0  0  0  0  0  0  0
  153.3615  144.8823  161.5348 H   0  0  0  0  0  0  0  0  0  0  0  0
  150.9931  143.0501  161.0432 H   0  0  0  0  0  0  0  0  0  0  0  0
  152.4562  144.8947  159.0875 H   0  0  0  0  0  0  0  0  0  0  0  0
  150.8716  145.1976  159.7871 H   0  0  0  0  0  0  0  0  0  0  0  0
  151.0927  143.8600  158.6815 H   0  0  0  0  0  0  0  0  0  0  0  0
  153.6747  142.8072  159.6674 H   0  0  0  0  0  0  0  0  0  0  0  0
  152.8027  140.3796  159.4331 H   0  0  0  0  0  0  0  0  0  0  0  0
  151.2609  140.9503  160.0133 H   0  0  0  0  0  0  0  0  0  0  0  0
  151.0679  142.4263  158.2479 H   0  0  0  0  0  0  0  0  0  0  0  0
  152.0020  139.8464  157.2234 H   0  0  0  0  0  0  0  0  0  0  0  0
  150.3683  140.1878  157.7580 H   0  0  0  0  0  0  0  0  0  0  0  0
  150.4400  142.1270  155.9382 H   0  0  0  0  0  0  0  0  0  0  0  0
  151.8329  141.2773  155.3141 H   0  0  0  0  0  0  0  0  0  0  0  0
  151.1786  138.4122  155.1812 H   0  0  0  0  0  0  0  0  0  0  0  0
  148.9102  142.5578  154.4822 H   0  0  0  0  0  0  0  0  0  0  0  0
  146.4830  141.1113  155.8337 H   0  0  0  0  0  0  0  0  0  0  0  0
  146.7936  142.9251  155.8143 H   0  0  0  0  0  0  0  0  0  0  0  0
  146.7075  142.8941  153.3031 H   0  0  0  0  0  0  0  0  0  0  0  0
  146.4032  141.0811  153.3396 H   0  0  0  0  0  0  0  0  0  0  0  0
  152.5840  142.1139  157.7031 H   0  0  0  0  0  0  0  0  0  0  0  0
  1  2  1  0  0  0  0
  1 21  1  0  0  0  0
  1 22  1  0  0  0  0
  1 23  1  0  0  0  0
  2  8  1  0  0  0  0
  2  3  2  0  0  0  0
  3  4  1  0  0  0  0
  3 24  1  0  0  0  0
  4  5  1  0  0  0  0
  4 25  1  0  0  0  0
  4 26  1  0  0  0  0
  5  6  1  0  0  0  0
  5 27  1  0  0  0  0
  5 28  1  0  0  0  0
  6  7  1  0  0  0  0
  6  8  1  0  0  0  0
  6 29  1  0  0  0  0
  7 30  1  0  0  0  0
  7 31  1  0  0  0  0
  7 32  1  0  0  0  0
  8  9  1  0  0  0  0
  8 33  1  0  0  0  0
  9 10  1  0  0  0  0
  9 34  1  0  0  0  0
  9 35  1  0  0  0  0
 10 11  1  0  0  0  0
 10 36  1  0  0  0  0
 10 47  1  0  0  0  0
 11 12  1  0  0  0  0
 11 37  1  0  0  0  0
 11 38  1  0  0  0  0
 12 13  1  0  0  0  0
 12 39  1  0  0  0  0
 12 40  1  0  0  0  0
 13 17  1  0  0  0  0
 13 14  1  0  0  0  0
 14 15  2  0  0  0  0
 14 41  1  0  0  0  0
 15 16  1  0  0  0  0
 16 17  2  0  0  0  0
 17 18  1  0  0  0  0
 18 20  1  0  0  0  0
 18 19  1  0  0  0  0
 18 42  1  0  0  0  0
 19 20  1  0  0  0  0
 19 43  1  0  0  0  0
 19 44  1  0  0  0  0
 20 45  1  0  0  0  0
 20 46  1  0  0  0  0
M  CHG  1  10   1
M  END
> <s_m_source_file>
AV-unprocessed.smi

> <i_m_source_file_index>
2780

> <i_lp_mmshare_version>
43012

> <i_f3d_flags>
0

> <s_epik_input>
W0NIM11DMT1bQ0hdW0NIMl1bQ0gyXVtDQEBIXShbQ0gzXSlbQ0BIXTFbQ0gyXVtOSF1bQ0gyXVtDSDJdbjJbY0hdbm5jMltDSF0zW0NIMl1bQ0gyXTM=

> <s_epik_cmdline>
J2VwaWtfcHl0aG9uJywgJy1waCcsICc3LjAnLCAnLXRuJywgJzgnLCAnLW1hJywgJzIwMCcsICctbWV0YWxfYmluZGluZycsICctaW1hZScsICc8aW5maWxlLm1hZT4nLCAnLW9tYWUnLCAnPG91dGZpbGUubWFlPic=

> <r_lp_tautomer_probability>
1

> <r_epik_Ionization_Penalty>
0.00176214

> <r_epik_Ionization_Penalty_Charging>
0.00175191

> <r_epik_Ionization_Penalty_Neutral>
1.02377e-05

> <r_epik_State_Penalty>
-0

> <r_epik_Charging_Adjusted_Penalty>
0.00175191

> <i_epik_Tot_Q>
1

> <i_epik_Tot_abs_Q>
1

> <r_epik_Metal_State_Penalty>
-0

> <b_epik_Metal_Only>
0

> <s_lp_Force_Field>
OPLS_2005

> <r_lp_Energy>
22.3616

> <b_lp_Chiralities_Consistent>
1

> <s_lp_Variant>
AV-unprocessed.smi:2780-3

> <Gold.Version>
5.8.1

> <Gold.Id.Protein>
6NUR|6NUR_protein|mol2

> <Gold.PLP.Fitness>
48.2851

> <Gold.PLP.PLP>
-48.6309

> <Gold.PLP.part.hbond>
0.0000

> <Gold.PLP.part.metal>
0.0000

> <Gold.PLP.part.buried>
-2.9375

> <Gold.PLP.part.nonpolar>
-45.5225

> <Gold.PLP.part.repulsive>
1.3596

> <Gold.PLP.ligand.clash>
0.0000

> <Gold.PLP.ligand.torsion>
0.3096

> <Gold.PLP.Chemscore.Hbond>
0.0000

> <Gold.PLP.Chemscore.CHOScore>
0.0000

> <Gold.PLP.Chemscore.Metal>
0.0000

> <Gold.PLP.Chemscore.Internal.Correction>
0.2734

> <Gold.Rescore>
     Score         DG    S(hbond)    S(metal)    S(lipo)     H(rot)  DE(clash)    DE(int)     intcor
     13.69     -15.52       0.00        0.00     129.13       1.98       0.57       1.26       ----

> <Gold.Chemscore.Fitness>
13.6888

> <Gold.Chemscore.DG>
-15.5199

> <Gold.Chemscore.ZeroCoef>
-5.4800

> <Gold.Chemscore.Hbond>
0.0000

> <Gold.Chemscore.Metal>
0.0000

> <Gold.Chemscore.Lipo>
129.1322

> <Gold.Chemscore.Internal_Hbond>
0.0000

> <Gold.Chemscore.DEClash>
0.5663

> <Gold.Chemscore.DEInternal>
1.2648

> <Gold.Chemscore.Rot>
1.9799

> <Gold.Chemscore.Internal.Correction>
   9.000000E+99

> <Gold.Chemscore.Hbond.Weighted>
-0.0000

> <Gold.Chemscore.Metal.Weighted>
-0.0000

> <Gold.Chemscore.Lipo.Weighted>
-15.1085

> <Gold.Chemscore.Internal_Hbond.Weighted>
0.0000

> <Gold.Chemscore.DEClash.Weighted>
0.5663

> <Gold.Chemscore.DEInternal.Weighted>
1.2648

> <Gold.Chemscore.Rot.Weighted>
5.0685

> <Gold.Chemscore.Internal.Correction.Weighted>
   9.000000E+99

> <Gold.Protein.RotatedTorsions>
[ 6907 6896 6895 6894 ] final  -83.00 input  -60.11 | X-H torsion
[ 7974 7965 7964 7962 ] final  -75.77 input  175.53 | X-H torsion
[ 8008 7997 7996 7995 ] final  164.33 input   59.86 | X-H torsion
[ 10167 10162 10161 10158 ] final  133.06 input  -65.29 | X-H torsion
[ 10718 10713 10712 10709 ] final  -92.06 input   66.30 | X-H torsion
[ 10763 10752 10751 10750 ] final  -11.30 input  -60.55 | X-H torsion
[ 11005 11000 10999 10996 ] final  109.97 input  -57.11 | X-H torsion

> <Gold.Protein.ActiveResidues>
 VAL166  LYS551  ARG553  GLY616  TRP617  ASP618  TYR619  PRO620  LYS621  CYS622 
 ASP623  PHE694  ASN695  SER759  ASP760  ASP761  ALA762  ILE779  LEU786  VAL792 
 PHE793  MET794  SER795  GLU796  ALA797  LYS798  CYS799  TRP800  GLU811  SER814 

> <Gold.Protein.RotatedAtoms>
  150.6890  134.3578  159.4936 H   0  0  0  0  0  0  0  0  0  0  0  0  # atno 6907 bound_to 6896
  152.1411  134.9059  160.0563 H   0  0  0  0  0  0  0  0  0  0  0  0  # atno 6908 bound_to 6896
  152.0192  133.3857  159.4288 H   0  0  0  0  0  0  0  0  0  0  0  0  # atno 6909 bound_to 6896
  145.6216  140.9361  143.1135 H   0  0  0  0  0  0  0  0  0  0  0  0  # atno 7974 bound_to 7965
  156.1888  140.1700  156.8132 H   0  0  0  0  0  0  0  0  0  0  0  0  # atno 8008 bound_to 7997
  154.5447  140.0729  156.8600 H   0  0  0  0  0  0  0  0  0  0  0  0  # atno 8009 bound_to 7997
  155.3146  140.3369  155.4245 H   0  0  0  0  0  0  0  0  0  0  0  0  # atno 8010 bound_to 7997
  139.5313  144.6633  151.4941 H   0  0  0  0  0  0  0  0  0  0  0  0  # atno 10167 bound_to 10162
  155.9999  130.4972  150.5568 H   0  0  0  0  0  0  0  0  0  0  0  0  # atno 10718 bound_to 10713
  153.4817  135.7017  153.5934 H   0  0  0  0  0  0  0  0  0  0  0  0  # atno 10763 bound_to 10752
  153.4144  135.3840  155.2071 H   0  0  0  0  0  0  0  0  0  0  0  0  # atno 10764 bound_to 10752
  154.8721  135.3912  154.4268 H   0  0  0  0  0  0  0  0  0  0  0  0  # atno 10765 bound_to 10752
  139.8872  134.9472  156.6207 H   0  0  0  0  0  0  0  0  0  0  0  0  # atno 11005 bound_to 11000
  144.7229  139.7971  143.7375 LP  0  0  0  0  0  0  0  0  0  0  0  0  # atno 17320 bound_to 7965
  146.1427  139.4488  143.0099 LP  0  0  0  0  0  0  0  0  0  0  0  0  # atno 17321 bound_to 7965
  140.6493  143.8730  150.6769 LP  0  0  0  0  0  0  0  0  0  0  0  0  # atno 17342 bound_to 10162
  140.2090  143.3899  152.1733 LP  0  0  0  0  0  0  0  0  0  0  0  0  # atno 17343 bound_to 10162
  157.3483  131.0729  151.1733 LP  0  0  0  0  0  0  0  0  0  0  0  0  # atno 17370 bound_to 10713
  157.2558  130.6636  149.5952 LP  0  0  0  0  0  0  0  0  0  0  0  0  # atno 17371 bound_to 10713
  140.7741  133.8714  155.8515 LP  0  0  0  0  0  0  0  0  0  0  0  0  # atno 17394 bound_to 11000
  140.9816  134.1397  157.4489 LP  0  0  0  0  0  0  0  0  0  0  0  0  # atno 17395 bound_to 11000

$$$$
