AV-unprocessed.smi:1959|AV-procd|sdf|7914|dock1
  -GOLD-   2272010 83D 1   1.00000     0.00000
 Structure written by MMmdl.
 45 46  0  0  0  0  0  0  0  0  2 V2000
  146.0191  129.2435  152.2739 C   0  0  0  0  0  0  0  0  0  0  0  0
  145.7318  130.5807  151.6576 C   0  0  0  0  0  0  0  0  0  0  0  0
  144.6166  130.9621  150.8602 C   0  0  0  0  0  0  0  0  0  0  0  0
  144.8448  132.2771  150.5680 C   0  0  0  0  0  0  0  0  0  0  0  0
  144.0333  133.2416  149.7673 C   0  0  0  0  0  0  0  0  0  0  0  0
  146.0403  132.6209  151.1733 N   0  0  0  0  0  0  0  0  0  0  0  0
  146.7317  133.9019  151.1763 C   0  0  0  0  0  0  0  0  0  0  0  0
  145.8507  135.0464  151.6907 C   0  0  0  0  0  0  0  0  0  0  0  0
  144.6763  134.8516  152.0070 O   0  0  0  0  0  0  0  0  0  0  0  0
  146.4475  136.2449  151.7902 N   0  0  0  0  0  0  0  0  0  0  0  0
  145.8220  137.4813  152.2609 C   0  0  2  0  0  0  0  0  0  0  0  0
  146.1769  138.6212  151.2969 C   0  0  0  0  0  0  0  0  0  0  0  0
  146.2580  137.8118  153.7069 C   0  0  0  0  0  0  0  0  0  0  0  0
  147.7299  137.7596  153.8962 N   0  3  0  0  0  0  0  0  0  0  0  0
  148.3608  139.0997  153.9275 C   0  0  0  0  0  0  0  0  0  0  0  0
  149.8885  138.9659  154.0477 C   0  0  0  0  0  0  0  0  0  0  0  0
  150.2131  138.2114  155.2091 O   0  0  0  0  0  0  0  0  0  0  0  0
  149.6801  136.8933  155.1549 C   0  0  0  0  0  0  0  0  0  0  0  0
  148.1460  136.9622  155.0754 C   0  0  0  0  0  0  0  0  0  0  0  0
  146.5820  131.5780  151.8399 N   0  0  0  0  0  0  0  0  0  0  0  0
  145.2617  128.5105  151.9958 H   0  0  0  0  0  0  0  0  0  0  0  0
  146.0335  129.3086  153.3620 H   0  0  0  0  0  0  0  0  0  0  0  0
  146.9865  128.8600  151.9488 H   0  0  0  0  0  0  0  0  0  0  0  0
  143.7745  130.3609  150.5506 H   0  0  0  0  0  0  0  0  0  0  0  0
  143.1008  132.7848  149.4357 H   0  0  0  0  0  0  0  0  0  0  0  0
  144.5799  133.5680  148.8825 H   0  0  0  0  0  0  0  0  0  0  0  0
  143.7824  134.1230  150.3577 H   0  0  0  0  0  0  0  0  0  0  0  0
  147.6233  133.8275  151.8007 H   0  0  0  0  0  0  0  0  0  0  0  0
  147.0721  134.1183  150.1630 H   0  0  0  0  0  0  0  0  0  0  0  0
  147.4147  136.3092  151.5064 H   0  0  0  0  0  0  0  0  0  0  0  0
  144.7371  137.3707  152.2296 H   0  0  0  0  0  0  0  0  0  0  0  0
  145.6958  139.5524  151.5975 H   0  0  0  0  0  0  0  0  0  0  0  0
  145.8469  138.3947  150.2824 H   0  0  0  0  0  0  0  0  0  0  0  0
  147.2526  138.7979  151.2660 H   0  0  0  0  0  0  0  0  0  0  0  0
  145.9043  138.8166  153.9439 H   0  0  0  0  0  0  0  0  0  0  0  0
  145.7724  137.1446  154.4210 H   0  0  0  0  0  0  0  0  0  0  0  0
  148.1134  139.6480  153.0178 H   0  0  0  0  0  0  0  0  0  0  0  0
  147.9653  139.6727  154.7677 H   0  0  0  0  0  0  0  0  0  0  0  0
  150.3089  138.4893  153.1605 H   0  0  0  0  0  0  0  0  0  0  0  0
  150.3470  139.9516  154.1269 H   0  0  0  0  0  0  0  0  0  0  0  0
  150.0910  136.3552  154.2989 H   0  0  0  0  0  0  0  0  0  0  0  0
  149.9861  136.3508  156.0494 H   0  0  0  0  0  0  0  0  0  0  0  0
  147.7458  137.4129  155.9849 H   0  0  0  0  0  0  0  0  0  0  0  0
  147.7399  135.9529  155.0141 H   0  0  0  0  0  0  0  0  0  0  0  0
  148.1032  137.2927  153.0814 H   0  0  0  0  0  0  0  0  0  0  0  0
  1  2  1  0  0  0  0
  1 21  1  0  0  0  0
  1 22  1  0  0  0  0
  1 23  1  0  0  0  0
  2 20  2  0  0  0  0
  2  3  1  0  0  0  0
  3  4  2  0  0  0  0
  3 24  1  0  0  0  0
  4  5  1  0  0  0  0
  4  6  1  0  0  0  0
  5 25  1  0  0  0  0
  5 26  1  0  0  0  0
  5 27  1  0  0  0  0
  6  7  1  0  0  0  0
  6 20  1  0  0  0  0
  7  8  1  0  0  0  0
  7 28  1  0  0  0  0
  7 29  1  0  0  0  0
  8  9  2  0  0  0  0
  8 10  1  0  0  0  0
 10 11  1  0  0  0  0
 10 30  1  0  0  0  0
 11 12  1  0  0  0  0
 11 13  1  0  0  0  0
 11 31  1  0  0  0  0
 12 32  1  0  0  0  0
 12 33  1  0  0  0  0
 12 34  1  0  0  0  0
 13 14  1  0  0  0  0
 13 35  1  0  0  0  0
 13 36  1  0  0  0  0
 14 19  1  0  0  0  0
 14 15  1  0  0  0  0
 14 45  1  0  0  0  0
 15 16  1  0  0  0  0
 15 37  1  0  0  0  0
 15 38  1  0  0  0  0
 16 17  1  0  0  0  0
 16 39  1  0  0  0  0
 16 40  1  0  0  0  0
 17 18  1  0  0  0  0
 18 19  1  0  0  0  0
 18 41  1  0  0  0  0
 18 42  1  0  0  0  0
 19 43  1  0  0  0  0
 19 44  1  0  0  0  0
M  CHG  1  14   1
M  END
> <s_m_source_file>
AV-unprocessed.smi

> <i_m_source_file_index>
1959

> <i_lp_mmshare_version>
43012

> <i_f3d_flags>
0

> <s_epik_input>
W0NIM11jMVtjSF1jKFtDSDNdKW4objEpW0NIMl1DKD1PKVtOSF1bQ0BIXShbQ0gzXSlbQ0gyXU4yW0NIMl1bQ0gyXU9bQ0gyXVtDSDJdMg==

> <s_epik_cmdline>
J2VwaWtfcHl0aG9uJywgJy1waCcsICc3LjAnLCAnLXRuJywgJzgnLCAnLW1hJywgJzIwMCcsICctbWV0YWxfYmluZGluZycsICctaW1hZScsICc8aW5maWxlLm1hZT4nLCAnLW9tYWUnLCAnPG91dGZpbGUubWFlPic=

> <r_lp_tautomer_probability>
1

> <r_epik_Ionization_Penalty>
0.748605

> <r_epik_Ionization_Penalty_Charging>
0.748396

> <r_epik_Ionization_Penalty_Neutral>
0.000208859

> <r_epik_State_Penalty>
0.775162

> <r_epik_Charging_Adjusted_Penalty>
1.52356

> <i_epik_Tot_Q>
1

> <i_epik_Tot_abs_Q>
1

> <r_epik_Metal_State_Penalty>
0.775281

> <b_epik_Metal_Only>
0

> <s_lp_Force_Field>
OPLS_2005

> <r_lp_Energy>
20.8934

> <b_lp_Chiralities_Consistent>
1

> <s_lp_Variant>
AV-unprocessed.smi:1959-3

> <Gold.Version>
5.8.1

> <Gold.Id.Protein>
6NUR|6NUR_protein|mol2

> <Gold.PLP.Fitness>
38.8846

> <Gold.PLP.PLP>
-32.2085

> <Gold.PLP.part.hbond>
-1.6495

> <Gold.PLP.part.metal>
0.0000

> <Gold.PLP.part.buried>
-4.0140

> <Gold.PLP.part.nonpolar>
-29.0053

> <Gold.PLP.part.repulsive>
0.7526

> <Gold.PLP.ligand.clash>
0.0000

> <Gold.PLP.ligand.torsion>
0.9236

> <Gold.PLP.Chemscore.Hbond>
2.8125

> <Gold.PLP.Chemscore.CHOScore>
0.0000

> <Gold.PLP.Chemscore.Metal>
0.0000

> <Gold.Chemscore.Hbonds>
donor molecule, donor type, donor heavy atom, donor atom, acceptor molecule, acceptor atom, score
      L1  H    10    30       P1  7948  1.00
      L1  H    14    45       P1  7948  2.00

> <Gold.PLP.Chemscore.Internal.Correction>
0.0859

> <Gold.Rescore>
     Score         DG    S(hbond)    S(metal)    S(lipo)     H(rot)  DE(clash)    DE(int)     intcor
     16.64     -17.97       1.86        0.00      92.56       1.77       0.32       1.02       ----

> <Gold.Chemscore.Fitness>
16.6362

> <Gold.Chemscore.DG>
-17.9705

> <Gold.Chemscore.ZeroCoef>
-5.4800

> <Gold.Chemscore.Hbond>
1.8573

> <Gold.Chemscore.Metal>
0.0000

> <Gold.Chemscore.Lipo>
92.5601

> <Gold.Chemscore.Internal_Hbond>
0.0000

> <Gold.Chemscore.DEClash>
0.3186

> <Gold.Chemscore.DEInternal>
1.0157

> <Gold.Chemscore.Rot>
1.7744

> <Gold.Chemscore.Internal.Correction>
   9.000000E+99

> <Gold.Chemscore.Hbonds>
donor molecule, donor type, donor heavy atom, donor atom, acceptor molecule, acceptor atom, score
      L1  H    10    30       P1  7948  0.91
      L1  H    14    45       P1  7948  1.00

> <Gold.Chemscore.Hbond.Weighted>
-6.2034

> <Gold.Chemscore.Metal.Weighted>
-0.0000

> <Gold.Chemscore.Lipo.Weighted>
-10.8295

> <Gold.Chemscore.Internal_Hbond.Weighted>
0.0000

> <Gold.Chemscore.DEClash.Weighted>
0.3186

> <Gold.Chemscore.DEInternal.Weighted>
1.0157

> <Gold.Chemscore.Rot.Weighted>
4.5424

> <Gold.Chemscore.Internal.Correction.Weighted>
   9.000000E+99

> <Gold.Protein.RotatedTorsions>
[ 6907 6896 6895 6894 ] final -172.97 input  -60.11 | X-H torsion
[ 7974 7965 7964 7962 ] final  -73.05 input  175.53 | X-H torsion
[ 8008 7997 7996 7995 ] final -143.12 input   59.86 | X-H torsion
[ 10167 10162 10161 10158 ] final   91.21 input  -65.29 | X-H torsion
[ 10718 10713 10712 10709 ] final   35.02 input   66.30 | X-H torsion
[ 10763 10752 10751 10750 ] final   35.04 input  -60.55 | X-H torsion
[ 11005 11000 10999 10996 ] final  -80.07 input  -57.11 | X-H torsion

> <Gold.Protein.ActiveResidues>
 VAL166  LYS551  ARG553  GLY616  TRP617  ASP618  TYR619  PRO620  LYS621  CYS622 
 ASP623  PHE694  ASN695  SER759  ASP760  ASP761  ALA762  ILE779  LEU786  VAL792 
 PHE793  MET794  SER795  GLU796  ALA797  LYS798  CYS799  TRP800  GLU811  SER814 

> <Gold.Protein.RotatedAtoms>
  151.5485  133.3421  159.2948 H   0  0  0  0  0  0  0  0  0  0  0  0  # atno 6907 bound_to 6896
  150.8493  134.7815  159.7006 H   0  0  0  0  0  0  0  0  0  0  0  0  # atno 6908 bound_to 6896
  152.4543  134.5334  159.9869 H   0  0  0  0  0  0  0  0  0  0  0  0  # atno 6909 bound_to 6896
  145.6572  140.9264  143.0953 H   0  0  0  0  0  0  0  0  0  0  0  0  # atno 7974 bound_to 7965
  155.5054  140.0579  157.2932 H   0  0  0  0  0  0  0  0  0  0  0  0  # atno 8008 bound_to 7997
  154.4571  140.1978  156.0296 H   0  0  0  0  0  0  0  0  0  0  0  0  # atno 8009 bound_to 7997
  156.0821  140.3245  155.7711 H   0  0  0  0  0  0  0  0  0  0  0  0  # atno 8010 bound_to 7997
  139.8397  144.6647  150.9299 H   0  0  0  0  0  0  0  0  0  0  0  0  # atno 10167 bound_to 10162
  157.3176  130.7431  149.6764 H   0  0  0  0  0  0  0  0  0  0  0  0  # atno 10718 bound_to 10713
  153.0137  135.6344  154.1763 H   0  0  0  0  0  0  0  0  0  0  0  0  # atno 10763 bound_to 10752
  154.1504  135.2829  155.3138 H   0  0  0  0  0  0  0  0  0  0  0  0  # atno 10764 bound_to 10752
  154.6058  135.5572  153.7482 H   0  0  0  0  0  0  0  0  0  0  0  0  # atno 10765 bound_to 10752
  141.1668  133.7133  156.8217 H   0  0  0  0  0  0  0  0  0  0  0  0  # atno 11005 bound_to 11000
  144.7102  139.8402  143.7417 LP  0  0  0  0  0  0  0  0  0  0  0  0  # atno 17320 bound_to 7965
  146.1155  139.4166  143.0261 LP  0  0  0  0  0  0  0  0  0  0  0  0  # atno 17321 bound_to 7965
  140.7799  143.3924  151.1287 LP  0  0  0  0  0  0  0  0  0  0  0  0  # atno 17342 bound_to 10162
  139.7571  143.8690  152.3091 LP  0  0  0  0  0  0  0  0  0  0  0  0  # atno 17343 bound_to 10162
  155.9683  130.4233  150.4555 LP  0  0  0  0  0  0  0  0  0  0  0  0  # atno 17370 bound_to 10713
  157.2564  131.0557  151.2347 LP  0  0  0  0  0  0  0  0  0  0  0  0  # atno 17371 bound_to 10713
  140.2114  134.8824  157.3279 LP  0  0  0  0  0  0  0  0  0  0  0  0  # atno 17394 bound_to 11000
  140.2082  134.4171  155.7626 LP  0  0  0  0  0  0  0  0  0  0  0  0  # atno 17395 bound_to 11000

$$$$
