AV-unprocessed.smi:157|AV-procd|sdf|1319|dock9
  -GOLD-   2262019 13D 1   1.00000     0.00000
 Structure written by MMmdl.
 36 38  0  0  0  0  0  0  0  0  2 V2000
  153.3282  139.5082  154.4348 O   0  0  0  0  0  0  0  0  0  0  0  0
  152.8336  138.3241  155.0226 C   0  0  0  0  0  0  0  0  0  0  0  0
  153.1573  138.3132  156.5331 C   0  0  1  0  0  0  0  0  0  0  0  0
  152.7481  139.5652  157.0892 O   0  0  0  0  0  0  0  0  0  0  0  0
  151.5190  139.4492  157.7493 C   0  0  1  0  0  0  0  0  0  0  0  0
  150.5439  140.4074  157.1415 N   0  0  0  0  0  0  0  0  0  0  0  0
  150.2663  141.6607  157.5614 C   0  0  0  0  0  0  0  0  0  0  0  0
  149.3499  142.2862  156.8422 N   0  3  0  0  0  0  0  0  0  0  0  0
  148.9562  141.4046  155.8580 C   0  0  0  0  0  0  0  0  0  0  0  0
  149.7118  140.2465  156.0577 C   0  0  0  0  0  0  0  0  0  0  0  0
  149.7129  139.0392  155.3425 N   0  0  0  0  0  0  0  0  0  0  0  0
  149.2000  138.9227  154.1609 C   0  0  0  0  0  0  0  0  0  0  0  0
  148.4967  139.8570  153.4189 N   0  0  0  0  0  0  0  0  0  0  0  0
  147.4181  140.6561  153.9730 C   0  0  0  0  0  0  0  0  0  0  0  0
  147.8975  141.8006  154.8761 C   0  0  2  0  0  0  0  0  0  0  0  0
  148.2933  142.8833  154.0595 O   0  0  0  0  0  0  0  0  0  0  0  0
  151.0387  138.0107  157.5600 C   0  0  0  0  0  0  0  0  0  0  0  0
  152.3566  137.2967  157.3622 C   0  0  1  0  0  0  0  0  0  0  0  0
  152.1877  136.0359  156.7471 O   0  0  0  0  0  0  0  0  0  0  0  0
  154.2267  138.1581  156.6827 H   0  0  0  0  0  0  0  0  0  0  0  0
  151.6116  139.7526  158.7929 H   0  0  0  0  0  0  0  0  0  0  0  0
  147.0366  142.1539  155.4447 H   0  0  0  0  0  0  0  0  0  0  0  0
  152.8401  137.1550  158.3300 H   0  0  0  0  0  0  0  0  0  0  0  0
  152.8721  139.6525  153.6197 H   0  0  0  0  0  0  0  0  0  0  0  0
  151.7652  138.2279  154.8305 H   0  0  0  0  0  0  0  0  0  0  0  0
  153.3259  137.4943  154.5158 H   0  0  0  0  0  0  0  0  0  0  0  0
  150.7488  142.1113  158.4106 H   0  0  0  0  0  0  0  0  0  0  0  0
  149.3008  137.9733  153.6330 H   0  0  0  0  0  0  0  0  0  0  0  0
  148.3598  139.6861  152.4327 H   0  0  0  0  0  0  0  0  0  0  0  0
  146.7898  141.0355  153.1663 H   0  0  0  0  0  0  0  0  0  0  0  0
  146.7858  139.9867  154.5583 H   0  0  0  0  0  0  0  0  0  0  0  0
  148.2677  143.6763  154.5723 H   0  0  0  0  0  0  0  0  0  0  0  0
  150.4720  137.6637  158.4244 H   0  0  0  0  0  0  0  0  0  0  0  0
  150.4132  137.9386  156.6682 H   0  0  0  0  0  0  0  0  0  0  0  0
  152.0770  135.3839  157.4226 H   0  0  0  0  0  0  0  0  0  0  0  0
  149.0019  143.2240  156.9966 H   0  0  0  0  0  0  0  0  0  0  0  0
  1  2  1  0  0  0  0
  1 24  1  0  0  0  0
  2  3  1  0  0  0  0
  2 25  1  0  0  0  0
  2 26  1  0  0  0  0
  3 20  1  0  0  0  0
  3 18  1  0  0  0  0
  3  4  1  0  0  0  0
  4  5  1  0  0  0  0
  5 21  1  0  0  0  0
  5  6  1  0  0  0  0
  5 17  1  0  0  0  0
  6 10  1  0  0  0  0
  6  7  1  0  0  0  0
  7  8  2  0  0  0  0
  7 27  1  0  0  0  0
  8  9  1  0  0  0  0
  8 36  1  0  0  0  0
  9 15  1  0  0  0  0
  9 10  2  0  0  0  0
 10 11  1  0  0  0  0
 11 12  2  0  0  0  0
 12 13  1  0  0  0  0
 12 28  1  0  0  0  0
 13 14  1  0  0  0  0
 13 29  1  0  0  0  0
 14 15  1  0  0  0  0
 14 30  1  0  0  0  0
 14 31  1  0  0  0  0
 15 22  1  0  0  0  0
 15 16  1  0  0  0  0
 16 32  1  0  0  0  0
 17 18  1  0  0  0  0
 17 33  1  0  0  0  0
 17 34  1  0  0  0  0
 18 23  1  0  0  0  0
 18 19  1  0  0  0  0
 19 35  1  0  0  0  0
M  CHG  1   8   1
M  END
> <s_m_source_file>
AV-unprocessed.smi

> <i_m_source_file_index>
157

> <i_lp_mmshare_version>
43012

> <i_f3d_flags>
0

> <s_epik_input>
W09IXVtDSDJdW0NASF0xT1tDQEhdKFtDSDJdW0NAQEhdMVtPSF0pbihbY0hdbjIpYyhjMjMpTj1bQ0hdW05IXVtDSDJdW0NASF0zW09IXQ==

> <s_epik_cmdline>
J2VwaWtfcHl0aG9uJywgJy1waCcsICc3LjAnLCAnLXRuJywgJzgnLCAnLW1hJywgJzIwMCcsICctbWV0YWxfYmluZGluZycsICctaW1hZScsICc8aW5maWxlLm1hZT4nLCAnLW9tYWUnLCAnPG91dGZpbGUubWFlPic=

> <r_epik_Ionization_Penalty>
1.68594

> <r_epik_Ionization_Penalty_Charging>
0

> <r_epik_Ionization_Penalty_Neutral>
1.68594

> <r_epik_State_Penalty>
1.79006

> <r_epik_Charging_Adjusted_Penalty>
1.79006

> <i_epik_Tot_Q>
1

> <i_epik_Tot_abs_Q>
1

> <r_epik_Metal_State_Penalty>
5.85324

> <b_epik_Metal_Only>
0

> <s_epik_Chemistry_Notes>
This compound has an imine and may undergo hydrolysis. This compound contains an acetal/aminal-like group ( X-CH(R)-Y where X, Y are N, S, or O) that may be acid/base labile, releasing an aldehyde.

> <s_lp_Force_Field>
OPLS_2005

> <r_lp_Energy>
55.1144

> <b_lp_Chiralities_Consistent>
1

> <s_lp_Variant>
AV-unprocessed.smi:157-29

> <Gold.Version>
5.8.1

> <Gold.Id.Protein>
6NUR|6NUR_protein|mol2

> <Gold.PLP.Fitness>
41.9473

> <Gold.PLP.PLP>
-26.1740

> <Gold.PLP.part.hbond>
-8.4215

> <Gold.PLP.part.metal>
0.0000

> <Gold.PLP.part.buried>
0.1396

> <Gold.PLP.part.nonpolar>
-16.9732

> <Gold.PLP.part.repulsive>
0.1884

> <Gold.PLP.ligand.clash>
0.0000

> <Gold.PLP.ligand.torsion>
0.8250

> <Gold.PLP.Chemscore.Hbond>
4.8026

> <Gold.PLP.Chemscore.CHOScore>
1.0000

> <Gold.PLP.Chemscore.Metal>
0.0000

> <Gold.Chemscore.Hbonds>
donor molecule, donor type, donor heavy atom, donor atom, acceptor molecule, acceptor atom, score
      L1  H     8    36       P1  8028  1.15
      L1  H    13    29       P1  7957  0.50
      L1  H    16    32       P1  8028  1.00
      P1  H  7997  8008       L1     4  0.12
      P1  H  7997  8009       L1     1  1.00
      P1  H 10752 10763       L1    19  1.00
      L1  C    12    28       P1  7948  1.00

> <Gold.PLP.Chemscore.Internal.Correction>
0.0157

> <Gold.Rescore>
     Score         DG    S(hbond)    S(metal)    S(lipo)     H(rot)  DE(clash)    DE(int)     intcor
     11.98     -14.79       4.17        0.00      40.63       3.67       0.59       2.21       ----

> <Gold.Chemscore.Fitness>
11.9845

> <Gold.Chemscore.DG>
-14.7909

> <Gold.Chemscore.ZeroCoef>
-5.4800

> <Gold.Chemscore.Hbond>
4.1741

> <Gold.Chemscore.Metal>
0.0000

> <Gold.Chemscore.Lipo>
40.6337

> <Gold.Chemscore.Internal_Hbond>
0.0000

> <Gold.Chemscore.DEClash>
0.5948

> <Gold.Chemscore.DEInternal>
2.2115

> <Gold.Chemscore.Rot>
3.6659

> <Gold.Chemscore.Internal.Correction>
   9.000000E+99

> <Gold.Chemscore.Hbonds>
donor molecule, donor type, donor heavy atom, donor atom, acceptor molecule, acceptor atom, score
      L1  H     8    36       P1  8028  0.44
      L1  H    13    29       P1  7957  0.50
      L1  H    16    32       P1  8028  0.89
      P1  H  7997  8009       L1     1  0.72
      P1  H  8011  8017       L1    16  0.01
      P1  H 10752 10763       L1    19  0.77

> <Gold.Chemscore.Hbond.Weighted>
-13.9416

> <Gold.Chemscore.Metal.Weighted>
-0.0000

> <Gold.Chemscore.Lipo.Weighted>
-4.7541

> <Gold.Chemscore.Internal_Hbond.Weighted>
0.0000

> <Gold.Chemscore.DEClash.Weighted>
0.5948

> <Gold.Chemscore.DEInternal.Weighted>
2.2115

> <Gold.Chemscore.Rot.Weighted>
9.3848

> <Gold.Chemscore.Internal.Correction.Weighted>
   9.000000E+99

> <Gold.Protein.RotatedTorsions>
[ 6907 6896 6895 6894 ] final  154.01 input  -60.11 | X-H torsion
[ 7974 7965 7964 7962 ] final   -5.87 input  175.53 | X-H torsion
[ 8008 7997 7996 7995 ] final -101.86 input   59.86 | X-H torsion
[ 10167 10162 10161 10158 ] final   82.79 input  -65.29 | X-H torsion
[ 10718 10713 10712 10709 ] final  -54.37 input   66.30 | X-H torsion
[ 10763 10752 10751 10750 ] final  109.49 input  -60.55 | X-H torsion
[ 11005 11000 10999 10996 ] final -133.70 input  -57.11 | X-H torsion

> <Gold.Protein.ActiveResidues>
 VAL166  LYS551  ARG553  GLY616  TRP617  ASP618  TYR619  PRO620  LYS621  CYS622 
 ASP623  PHE694  ASN695  SER759  ASP760  ASP761  ALA762  ILE779  LEU786  VAL792 
 PHE793  MET794  SER795  GLU796  ALA797  LYS798  CYS799  TRP800  GLU811  SER814 

> <Gold.Protein.RotatedAtoms>
  152.0645  133.4077  159.4432 H   0  0  0  0  0  0  0  0  0  0  0  0  # atno 6907 bound_to 6896
  150.6865  134.3162  159.4776 H   0  0  0  0  0  0  0  0  0  0  0  0  # atno 6908 bound_to 6896
  152.0987  134.9356  160.0621 H   0  0  0  0  0  0  0  0  0  0  0  0  # atno 6909 bound_to 6896
  146.2343  140.2086  142.8335 H   0  0  0  0  0  0  0  0  0  0  0  0  # atno 7974 bound_to 7965
  154.8484  140.0432  157.1588 H   0  0  0  0  0  0  0  0  0  0  0  0  # atno 8008 bound_to 7997
  154.8969  140.2994  155.5319 H   0  0  0  0  0  0  0  0  0  0  0  0  # atno 8009 bound_to 7997
  156.2995  140.2383  156.3992 H   0  0  0  0  0  0  0  0  0  0  0  0  # atno 8010 bound_to 7997
  139.9251  144.6188  150.8400 H   0  0  0  0  0  0  0  0  0  0  0  0  # atno 10167 bound_to 10162
  156.1456  130.4153  150.0029 H   0  0  0  0  0  0  0  0  0  0  0  0  # atno 10718 bound_to 10713
  153.4354  135.3778  155.2196 H   0  0  0  0  0  0  0  0  0  0  0  0  # atno 10763 bound_to 10752
  154.8752  135.3850  154.4217 H   0  0  0  0  0  0  0  0  0  0  0  0  # atno 10764 bound_to 10752
  153.4755  135.7087  153.6031 H   0  0  0  0  0  0  0  0  0  0  0  0  # atno 10765 bound_to 10752
  140.9057  134.1633  157.4427 H   0  0  0  0  0  0  0  0  0  0  0  0  # atno 11005 bound_to 11000
  144.9724  140.8382  143.5447 LP  0  0  0  0  0  0  0  0  0  0  0  0  # atno 17320 bound_to 7965
  145.2069  139.2224  143.5163 LP  0  0  0  0  0  0  0  0  0  0  0  0  # atno 17321 bound_to 7965
  140.7652  143.3269  151.2496 LP  0  0  0  0  0  0  0  0  0  0  0  0  # atno 17342 bound_to 10162
  139.6829  143.9824  152.2818 LP  0  0  0  0  0  0  0  0  0  0  0  0  # atno 17343 bound_to 10162
  156.7902  130.9253  151.3646 LP  0  0  0  0  0  0  0  0  0  0  0  0  # atno 17370 bound_to 10713
  157.6614  130.8969  149.9838 LP  0  0  0  0  0  0  0  0  0  0  0  0  # atno 17371 bound_to 10713
  139.8749  134.9916  156.5555 LP  0  0  0  0  0  0  0  0  0  0  0  0  # atno 17394 bound_to 11000
  140.8174  133.8381  155.8865 LP  0  0  0  0  0  0  0  0  0  0  0  0  # atno 17395 bound_to 11000

$$$$
