AV-unprocessed.smi:2061|AV-procd|sdf|8361|dock5
  -GOLD-   2272011 33D 1   1.00000     0.00000
 Structure written by MMmdl.
 45 46  0  0  0  0  0  0  0  0  1 V2000
  144.4434  136.0336  151.4789 C   0  0  0  0  0  0  0  0  0  0  0  0
  145.2519  137.0324  152.2336 C   0  0  0  0  0  0  0  0  0  0  0  0
  146.4034  137.7080  151.9411 C   0  0  0  0  0  0  0  0  0  0  0  0
  146.6121  138.5010  153.1006 C   0  0  0  0  0  0  0  0  0  0  0  0
  147.7269  139.3726  153.1955 N   0  0  0  0  0  0  0  0  0  0  0  0
  148.1740  140.0140  154.2887 C   0  0  0  0  0  0  0  0  0  0  0  0
  147.6850  139.9190  155.4146 O   0  0  0  0  0  0  0  0  0  0  0  0
  149.2306  140.7878  153.9988 N   0  0  0  0  0  0  0  0  0  0  0  0
  149.9540  141.6303  154.9488 C   0  0  0  0  0  0  0  0  0  0  0  0
  150.4724  140.8441  156.1867 C   0  0  1  0  0  0  0  0  0  0  0  0
  150.9957  139.4590  155.7267 C   0  0  0  0  0  0  0  0  0  0  0  0
  151.4725  141.5978  156.9797 N   0  0  0  0  0  0  0  0  0  0  0  0
  150.9891  142.9175  157.4005 C   0  0  0  0  0  0  0  0  0  0  0  0
  152.0183  143.6943  158.2440 C   0  0  1  0  0  0  0  0  0  0  0  0
  151.4658  145.0337  158.7431 C   0  0  0  0  0  0  0  0  0  0  0  0
  152.3794  142.9138  159.3760 O   0  0  0  0  0  0  0  0  0  0  0  0
  152.9319  141.6539  159.0179 C   0  0  1  0  0  0  0  0  0  0  0  0
  153.3139  140.9143  160.3043 C   0  0  0  0  0  0  0  0  0  0  0  0
  151.9029  140.8720  158.1799 C   0  0  0  0  0  0  0  0  0  0  0  0
  145.6741  138.3242  154.0186 N   0  0  0  0  0  0  0  0  0  0  0  0
  144.7975  137.3825  153.4674 O   0  0  0  0  0  0  0  0  0  0  0  0
  145.0795  135.4235  150.8377 H   0  0  0  0  0  0  0  0  0  0  0  0
  143.7060  136.5322  150.8498 H   0  0  0  0  0  0  0  0  0  0  0  0
  143.9127  135.3667  152.1589 H   0  0  0  0  0  0  0  0  0  0  0  0
  146.9965  137.6446  151.0408 H   0  0  0  0  0  0  0  0  0  0  0  0
  148.2285  139.5375  152.3356 H   0  0  0  0  0  0  0  0  0  0  0  0
  149.5589  140.8020  153.0446 H   0  0  0  0  0  0  0  0  0  0  0  0
  150.7796  142.1595  154.4697 H   0  0  0  0  0  0  0  0  0  0  0  0
  149.2318  142.3907  155.2390 H   0  0  0  0  0  0  0  0  0  0  0  0
  149.6089  140.6585  156.8275 H   0  0  0  0  0  0  0  0  0  0  0  0
  150.2670  138.9186  155.1244 H   0  0  0  0  0  0  0  0  0  0  0  0
  151.2099  138.7955  156.5629 H   0  0  0  0  0  0  0  0  0  0  0  0
  151.9040  139.5582  155.1316 H   0  0  0  0  0  0  0  0  0  0  0  0
  150.7624  143.5365  156.5348 H   0  0  0  0  0  0  0  0  0  0  0  0
  150.0620  142.8070  157.9651 H   0  0  0  0  0  0  0  0  0  0  0  0
  152.9109  143.8861  157.6457 H   0  0  0  0  0  0  0  0  0  0  0  0
  151.1845  145.6777  157.9095 H   0  0  0  0  0  0  0  0  0  0  0  0
  152.2101  145.5646  159.3370 H   0  0  0  0  0  0  0  0  0  0  0  0
  150.5838  144.8882  159.3674 H   0  0  0  0  0  0  0  0  0  0  0  0
  153.8352  141.8164  158.4275 H   0  0  0  0  0  0  0  0  0  0  0  0
  153.7571  139.9435  160.0817 H   0  0  0  0  0  0  0  0  0  0  0  0
  152.4425  140.7481  160.9382 H   0  0  0  0  0  0  0  0  0  0  0  0
  154.0407  141.4870  160.8807 H   0  0  0  0  0  0  0  0  0  0  0  0
  151.0349  140.6330  158.7966 H   0  0  0  0  0  0  0  0  0  0  0  0
  152.3689  139.9265  157.9089 H   0  0  0  0  0  0  0  0  0  0  0  0
  1  2  1  0  0  0  0
  1 22  1  0  0  0  0
  1 23  1  0  0  0  0
  1 24  1  0  0  0  0
  2 21  1  0  0  0  0
  2  3  2  0  0  0  0
  3  4  1  0  0  0  0
  3 25  1  0  0  0  0
  4  5  1  0  0  0  0
  4 20  2  0  0  0  0
  5  6  1  0  0  0  0
  5 26  1  0  0  0  0
  6  7  2  0  0  0  0
  6  8  1  0  0  0  0
  8  9  1  0  0  0  0
  8 27  1  0  0  0  0
  9 10  1  0  0  0  0
  9 28  1  0  0  0  0
  9 29  1  0  0  0  0
 10 11  1  0  0  0  0
 10 12  1  0  0  0  0
 10 30  1  0  0  0  0
 11 31  1  0  0  0  0
 11 32  1  0  0  0  0
 11 33  1  0  0  0  0
 12 19  1  0  0  0  0
 12 13  1  0  0  0  0
 13 14  1  0  0  0  0
 13 34  1  0  0  0  0
 13 35  1  0  0  0  0
 14 15  1  0  0  0  0
 14 16  1  0  0  0  0
 14 36  1  0  0  0  0
 15 37  1  0  0  0  0
 15 38  1  0  0  0  0
 15 39  1  0  0  0  0
 16 17  1  0  0  0  0
 17 18  1  0  0  0  0
 17 19  1  0  0  0  0
 17 40  1  0  0  0  0
 18 41  1  0  0  0  0
 18 42  1  0  0  0  0
 18 43  1  0  0  0  0
 19 44  1  0  0  0  0
 19 45  1  0  0  0  0
 20 21  1  0  0  0  0
M  END
> <s_m_source_file>
AV-unprocessed.smi

> <i_m_source_file_index>
2061

> <i_lp_mmshare_version>
43012

> <i_f3d_flags>
0

> <s_epik_input>
W0NIM11jMVtjSF1jKG5vMSlbTkhdQyg9TylbTkhdW0NIMl1bQ0BIXShbQ0gzXSlOMltDSDJdW0NAQEhdKFtDSDNdKU9bQ0BASF0oW0NIM10pW0NIMl0y

> <s_epik_cmdline>
J2VwaWtfcHl0aG9uJywgJy1waCcsICc3LjAnLCAnLXRuJywgJzgnLCAnLW1hJywgJzIwMCcsICctbWV0YWxfYmluZGluZycsICctaW1hZScsICc8aW5maWxlLm1hZT4nLCAnLW9tYWUnLCAnPG91dGZpbGUubWFlPic=

> <r_epik_Ionization_Penalty>
0.214073

> <r_epik_Ionization_Penalty_Charging>
0

> <r_epik_Ionization_Penalty_Neutral>
0.214073

> <r_epik_State_Penalty>
0.204211

> <r_epik_Charging_Adjusted_Penalty>
0.204211

> <i_epik_Tot_Q>
0

> <i_epik_Tot_abs_Q>
0

> <r_epik_Metal_State_Penalty>
0.217067

> <b_epik_Metal_Only>
0

> <s_lp_Force_Field>
OPLS_2005

> <r_lp_Energy>
26.0702

> <b_lp_Chiralities_Consistent>
1

> <s_lp_Variant>
AV-unprocessed.smi:2061-2

> <Gold.Version>
5.8.1

> <Gold.Id.Protein>
6NUR|6NUR_protein|mol2

> <Gold.PLP.Fitness>
39.3203

> <Gold.PLP.PLP>
-33.7050

> <Gold.PLP.part.hbond>
-2.0000

> <Gold.PLP.part.metal>
0.0000

> <Gold.PLP.part.buried>
-0.6677

> <Gold.PLP.part.nonpolar>
-31.1261

> <Gold.PLP.part.repulsive>
0.5503

> <Gold.PLP.ligand.clash>
0.0000

> <Gold.PLP.ligand.torsion>
0.1964

> <Gold.PLP.Chemscore.Hbond>
1.9913

> <Gold.PLP.Chemscore.CHOScore>
0.0000

> <Gold.PLP.Chemscore.Metal>
0.0000

> <Gold.Chemscore.Hbonds>
donor molecule, donor type, donor heavy atom, donor atom, acceptor molecule, acceptor atom, score
      L1  H     5    26       P1  7957  1.00
      L1  H     8    27       P1  7957  1.00

> <Gold.PLP.Chemscore.Internal.Correction>
0.0343

> <Gold.Rescore>
     Score         DG    S(hbond)    S(metal)    S(lipo)     H(rot)  DE(clash)    DE(int)     intcor
     16.71     -19.57       1.89        0.00     100.26       1.55       0.41       2.44       ----

> <Gold.Chemscore.Fitness>
16.7126

> <Gold.Chemscore.DG>
-19.5656

> <Gold.Chemscore.ZeroCoef>
-5.4800

> <Gold.Chemscore.Hbond>
1.8912

> <Gold.Chemscore.Metal>
0.0000

> <Gold.Chemscore.Lipo>
100.2586

> <Gold.Chemscore.Internal_Hbond>
0.0000

> <Gold.Chemscore.DEClash>
0.4083

> <Gold.Chemscore.DEInternal>
2.4447

> <Gold.Chemscore.Rot>
1.5474

> <Gold.Chemscore.Internal.Correction>
   9.000000E+99

> <Gold.Chemscore.Hbonds>
donor molecule, donor type, donor heavy atom, donor atom, acceptor molecule, acceptor atom, score
      L1  H     5    26       P1  7957  1.00
      L1  H     8    27       P1  7957  0.90

> <Gold.Chemscore.Hbond.Weighted>
-6.3166

> <Gold.Chemscore.Metal.Weighted>
-0.0000

> <Gold.Chemscore.Lipo.Weighted>
-11.7303

> <Gold.Chemscore.Internal_Hbond.Weighted>
0.0000

> <Gold.Chemscore.DEClash.Weighted>
0.4083

> <Gold.Chemscore.DEInternal.Weighted>
2.4447

> <Gold.Chemscore.Rot.Weighted>
3.9612

> <Gold.Chemscore.Internal.Correction.Weighted>
   9.000000E+99

> <Gold.Protein.RotatedTorsions>
[ 6907 6896 6895 6894 ] final -155.05 input  -60.11 | X-H torsion
[ 7974 7965 7964 7962 ] final -116.12 input  175.53 | X-H torsion
[ 8008 7997 7996 7995 ] final -104.04 input   59.86 | X-H torsion
[ 10167 10162 10161 10158 ] final  147.60 input  -65.29 | X-H torsion
[ 10718 10713 10712 10709 ] final  138.13 input   66.30 | X-H torsion
[ 10763 10752 10751 10750 ] final  -37.90 input  -60.55 | X-H torsion
[ 11005 11000 10999 10996 ] final   99.28 input  -57.11 | X-H torsion

> <Gold.Protein.ActiveResidues>
 VAL166  LYS551  ARG553  GLY616  TRP617  ASP618  TYR619  PRO620  LYS621  CYS622 
 ASP623  PHE694  ASN695  SER759  ASP760  ASP761  ALA762  ILE779  LEU786  VAL792 
 PHE793  MET794  SER795  GLU796  ALA797  LYS798  CYS799  TRP800  GLU811  SER814 

> <Gold.Protein.RotatedAtoms>
  151.2667  133.4275  159.2618 H   0  0  0  0  0  0  0  0  0  0  0  0  # atno 6907 bound_to 6896
  151.0482  134.9655  159.8208 H   0  0  0  0  0  0  0  0  0  0  0  0  # atno 6908 bound_to 6896
  152.5378  134.2622  159.8992 H   0  0  0  0  0  0  0  0  0  0  0  0  # atno 6909 bound_to 6896
  145.1005  140.8548  143.3929 H   0  0  0  0  0  0  0  0  0  0  0  0  # atno 7974 bound_to 7965
  154.8796  140.0420  157.1774 H   0  0  0  0  0  0  0  0  0  0  0  0  # atno 8008 bound_to 7997
  154.8653  140.2950  155.5493 H   0  0  0  0  0  0  0  0  0  0  0  0  # atno 8009 bound_to 7997
  156.2999  140.2439  156.3633 H   0  0  0  0  0  0  0  0  0  0  0  0  # atno 8010 bound_to 7997
  139.4887  144.5743  151.6995 H   0  0  0  0  0  0  0  0  0  0  0  0  # atno 10167 bound_to 10162
  157.4286  131.1046  151.0275 H   0  0  0  0  0  0  0  0  0  0  0  0  # atno 10718 bound_to 10713
  153.9040  135.6799  153.4754 H   0  0  0  0  0  0  0  0  0  0  0  0  # atno 10763 bound_to 10752
  153.1114  135.4781  154.9039 H   0  0  0  0  0  0  0  0  0  0  0  0  # atno 10764 bound_to 10752
  154.7561  135.3198  154.8422 H   0  0  0  0  0  0  0  0  0  0  0  0  # atno 10765 bound_to 10752
  139.8771  134.9088  156.4582 H   0  0  0  0  0  0  0  0  0  0  0  0  # atno 11005 bound_to 11000
  145.0961  139.2855  143.5710 LP  0  0  0  0  0  0  0  0  0  0  0  0  # atno 17320 bound_to 7965
  146.3530  140.0513  142.8635 LP  0  0  0  0  0  0  0  0  0  0  0  0  # atno 17321 bound_to 7965
  140.5336  144.0691  150.6062 LP  0  0  0  0  0  0  0  0  0  0  0  0  # atno 17342 bound_to 10162
  140.3689  143.2866  152.0300 LP  0  0  0  0  0  0  0  0  0  0  0  0  # atno 17343 bound_to 10162
  157.1180  130.6049  149.5498 LP  0  0  0  0  0  0  0  0  0  0  0  0  # atno 17370 bound_to 10713
  155.9905  130.4956  150.7260 LP  0  0  0  0  0  0  0  0  0  0  0  0  # atno 17371 bound_to 10713
  140.8883  133.7867  155.9543 LP  0  0  0  0  0  0  0  0  0  0  0  0  # atno 17394 bound_to 11000
  140.8781  134.2645  157.5158 LP  0  0  0  0  0  0  0  0  0  0  0  0  # atno 17395 bound_to 11000

$$$$
