AV-unprocessed.smi:1369|AV-procd|sdf|5579|dock1
  -GOLD-   22720 5173D 1   1.00000     0.00000
 Structure written by MMmdl.
 39 41  0  0  0  0  0  0  0  0  1 V2000
  154.2419  139.0048  155.1640 C   0  0  0  0  0  0  0  0  0  0  0  0
  152.7366  138.9337  154.9315 C   0  0  0  0  0  0  0  0  0  0  0  0
  152.2407  137.8955  154.4961 O   0  0  0  0  0  0  0  0  0  0  0  0
  152.0529  140.0588  155.2080 N   0  0  0  0  0  0  0  0  0  0  0  0
  150.6545  140.3020  155.0978 C   0  0  0  0  0  0  0  0  0  0  0  0
  149.7721  139.4088  154.4421 C   0  0  0  0  0  0  0  0  0  0  0  0
  148.3944  139.6849  154.3830 C   0  0  0  0  0  0  0  0  0  0  0  0
  147.8851  140.8473  154.9864 C   0  0  0  0  0  0  0  0  0  0  0  0
  148.7517  141.7316  155.6545 C   0  0  0  0  0  0  0  0  0  0  0  0
  150.1430  141.4654  155.7217 C   0  0  0  0  0  0  0  0  0  0  0  0
  151.0450  142.2903  156.3620 O   0  0  0  0  0  0  0  0  0  0  0  0
  150.6013  143.0502  157.4780 C   0  0  0  0  0  0  0  0  0  0  0  0
  151.6314  144.1515  157.7627 C   0  0  0  0  0  0  0  0  0  0  0  0
  151.7631  144.3974  159.1961 N   0  0  0  0  0  0  0  0  0  0  0  0
  151.2182  145.4859  159.8821 C   0  0  0  0  0  0  0  0  0  0  0  0
  150.5607  146.4193  159.4252 O   0  0  0  0  0  0  0  0  0  0  0  0
  151.5491  145.3266  161.2031 O   0  0  0  0  0  0  0  0  0  0  0  0
  152.2672  144.1751  161.3430 C   0  0  0  0  0  0  0  0  0  0  0  0
  152.8102  143.6006  162.5044 C   0  0  0  0  0  0  0  0  0  0  0  0
  153.5159  142.3823  162.3661 C   0  0  0  0  0  0  0  0  0  0  0  0
  153.6631  141.7696  161.0954 C   0  0  0  0  0  0  0  0  0  0  0  0
  153.1047  142.3617  159.9394 C   0  0  0  0  0  0  0  0  0  0  0  0
  152.4144  143.5739  160.1111 C   0  0  0  0  0  0  0  0  0  0  0  0
  154.4592  139.3980  156.1576 H   0  0  0  0  0  0  0  0  0  0  0  0
  154.7076  139.6545  154.4229 H   0  0  0  0  0  0  0  0  0  0  0  0
  154.6944  138.0160  155.0837 H   0  0  0  0  0  0  0  0  0  0  0  0
  152.6091  140.8626  155.4619 H   0  0  0  0  0  0  0  0  0  0  0  0
  150.1277  138.4963  153.9893 H   0  0  0  0  0  0  0  0  0  0  0  0
  147.7274  139.0006  153.8795 H   0  0  0  0  0  0  0  0  0  0  0  0
  146.8269  141.0592  154.9418 H   0  0  0  0  0  0  0  0  0  0  0  0
  148.3217  142.6112  156.1083 H   0  0  0  0  0  0  0  0  0  0  0  0
  149.6359  143.5073  157.2564 H   0  0  0  0  0  0  0  0  0  0  0  0
  150.4808  142.4145  158.3570 H   0  0  0  0  0  0  0  0  0  0  0  0
  152.5986  143.8820  157.3380 H   0  0  0  0  0  0  0  0  0  0  0  0
  151.3293  145.0752  157.2672 H   0  0  0  0  0  0  0  0  0  0  0  0
  152.6928  144.0727  163.4686 H   0  0  0  0  0  0  0  0  0  0  0  0
  153.9470  141.9131  163.2383 H   0  0  0  0  0  0  0  0  0  0  0  0
  154.2051  140.8393  161.0104 H   0  0  0  0  0  0  0  0  0  0  0  0
  153.2066  141.8984  158.9692 H   0  0  0  0  0  0  0  0  0  0  0  0
  1  2  1  0  0  0  0
  1 24  1  0  0  0  0
  1 25  1  0  0  0  0
  1 26  1  0  0  0  0
  2  3  2  0  0  0  0
  2  4  1  0  0  0  0
  4  5  1  0  0  0  0
  4 27  1  0  0  0  0
  5 10  1  0  0  0  0
  5  6  2  0  0  0  0
  6  7  1  0  0  0  0
  6 28  1  0  0  0  0
  7  8  2  0  0  0  0
  7 29  1  0  0  0  0
  8  9  1  0  0  0  0
  8 30  1  0  0  0  0
  9 10  2  0  0  0  0
  9 31  1  0  0  0  0
 10 11  1  0  0  0  0
 11 12  1  0  0  0  0
 12 13  1  0  0  0  0
 12 32  1  0  0  0  0
 12 33  1  0  0  0  0
 13 14  1  0  0  0  0
 13 34  1  0  0  0  0
 13 35  1  0  0  0  0
 14 23  1  0  0  0  0
 14 15  1  0  0  0  0
 15 16  2  0  0  0  0
 15 17  1  0  0  0  0
 17 18  1  0  0  0  0
 18 23  2  0  0  0  0
 18 19  1  0  0  0  0
 19 20  2  0  0  0  0
 19 36  1  0  0  0  0
 20 21  1  0  0  0  0
 20 37  1  0  0  0  0
 21 22  2  0  0  0  0
 21 38  1  0  0  0  0
 22 23  1  0  0  0  0
 22 39  1  0  0  0  0
M  END
> <s_m_source_file>
AV-unprocessed.smi

> <i_m_source_file_index>
1369

> <i_lp_mmshare_version>
43012

> <i_f3d_flags>
0

> <s_epik_input>
W0NIM11DKD1PKVtOSF1jMVtjSF1bY0hdW2NIXVtjSF1jMU9bQ0gyXVtDSDJdbihjKD1PKW8yKWMoYzIzKVtjSF1bY0hdW2NIXVtjSF0z

> <s_epik_cmdline>
J2VwaWtfcHl0aG9uJywgJy1waCcsICc3LjAnLCAnLXRuJywgJzgnLCAnLW1hJywgJzIwMCcsICctbWV0YWxfYmluZGluZycsICctaW1hZScsICc8aW5maWxlLm1hZT4nLCAnLW9tYWUnLCAnPG91dGZpbGUubWFlPic=

> <r_lp_tautomer_probability>
1

> <r_epik_Ionization_Penalty>
9.24277e-08

> <r_epik_Ionization_Penalty_Charging>
1.02615e-14

> <r_epik_Ionization_Penalty_Neutral>
9.24277e-08

> <r_epik_State_Penalty>
-0

> <r_epik_Charging_Adjusted_Penalty>
1.02615e-14

> <i_epik_Tot_Q>
0

> <i_epik_Tot_abs_Q>
0

> <r_epik_Metal_State_Penalty>
-0

> <b_epik_Metal_Only>
0

> <s_lp_Force_Field>
OPLS_2005

> <r_lp_Energy>
36.4772

> <b_lp_Chiralities_Consistent>
1

> <s_lp_Variant>
AV-unprocessed.smi:1369-1

> <Gold.Version>
5.8.1

> <Gold.Id.Protein>
6NUR|6NUR_protein|mol2

> <Gold.PLP.Fitness>
53.7216

> <Gold.PLP.PLP>
-52.5321

> <Gold.PLP.part.hbond>
-3.0000

> <Gold.PLP.part.metal>
0.0000

> <Gold.PLP.part.buried>
-2.2280

> <Gold.PLP.part.nonpolar>
-49.3527

> <Gold.PLP.part.repulsive>
2.4074

> <Gold.PLP.ligand.clash>
0.0000

> <Gold.PLP.ligand.torsion>
0.9053

> <Gold.PLP.Chemscore.Hbond>
0.9833

> <Gold.PLP.Chemscore.CHOScore>
0.0000

> <Gold.PLP.Chemscore.Metal>
0.0000

> <Gold.Chemscore.Hbonds>
donor molecule, donor type, donor heavy atom, donor atom, acceptor molecule, acceptor atom, score
      P1  H 10752 10765       L1     3  0.17

> <Gold.PLP.Chemscore.Internal.Correction>
0.0501

> <Gold.Rescore>
     Score         DG    S(hbond)    S(metal)    S(lipo)     H(rot)  DE(clash)    DE(int)     intcor
     10.39     -19.68       0.79        0.00     136.07       1.70       7.02       2.27       ----

> <Gold.Chemscore.Fitness>
10.3895

> <Gold.Chemscore.DG>
-19.6782

> <Gold.Chemscore.ZeroCoef>
-5.4800

> <Gold.Chemscore.Hbond>
0.7889

> <Gold.Chemscore.Metal>
0.0000

> <Gold.Chemscore.Lipo>
136.0696

> <Gold.Chemscore.Internal_Hbond>
0.0000

> <Gold.Chemscore.DEClash>
7.0184

> <Gold.Chemscore.DEInternal>
2.2703

> <Gold.Chemscore.Rot>
1.7019

> <Gold.Chemscore.Internal.Correction>
   9.000000E+99

> <Gold.Chemscore.Hbonds>
donor molecule, donor type, donor heavy atom, donor atom, acceptor molecule, acceptor atom, score
      P1  H 10752 10765       L1     3  0.17

> <Gold.Chemscore.Hbond.Weighted>
-2.6350

> <Gold.Chemscore.Metal.Weighted>
-0.0000

> <Gold.Chemscore.Lipo.Weighted>
-15.9201

> <Gold.Chemscore.Internal_Hbond.Weighted>
0.0000

> <Gold.Chemscore.DEClash.Weighted>
7.0184

> <Gold.Chemscore.DEInternal.Weighted>
2.2703

> <Gold.Chemscore.Rot.Weighted>
4.3569

> <Gold.Chemscore.Internal.Correction.Weighted>
   9.000000E+99

> <Gold.Protein.RotatedTorsions>
[ 6907 6896 6895 6894 ] final -148.26 input  -60.11 | X-H torsion
[ 7974 7965 7964 7962 ] final  -47.75 input  175.53 | X-H torsion
[ 8008 7997 7996 7995 ] final  -70.95 input   59.86 | X-H torsion
[ 10167 10162 10161 10158 ] final   -9.56 input  -65.29 | X-H torsion
[ 10718 10713 10712 10709 ] final  179.80 input   66.30 | X-H torsion
[ 10763 10752 10751 10750 ] final  160.28 input  -60.55 | X-H torsion
[ 11005 11000 10999 10996 ] final   52.96 input  -57.11 | X-H torsion

> <Gold.Protein.ActiveResidues>
 VAL166  LYS551  ARG553  GLY616  TRP617  ASP618  TYR619  PRO620  LYS621  CYS622 
 ASP623  PHE694  ASN695  SER759  ASP760  ASP761  ALA762  ILE779  LEU786  VAL792 
 PHE793  MET794  SER795  GLU796  ALA797  LYS798  CYS799  TRP800  GLU811  SER814 

> <Gold.Protein.RotatedAtoms>
  151.1673  133.4807  159.2593 H   0  0  0  0  0  0  0  0  0  0  0  0  # atno 6907 bound_to 6896
  151.1393  135.0171  159.8628 H   0  0  0  0  0  0  0  0  0  0  0  0  # atno 6908 bound_to 6896
  152.5462  134.1568  159.8594 H   0  0  0  0  0  0  0  0  0  0  0  0  # atno 6909 bound_to 6896
  145.9583  140.7504  142.9470 H   0  0  0  0  0  0  0  0  0  0  0  0  # atno 7974 bound_to 7965
  154.5051  140.0825  156.7877 H   0  0  0  0  0  0  0  0  0  0  0  0  # atno 8008 bound_to 7997
  155.3914  140.3432  155.4233 H   0  0  0  0  0  0  0  0  0  0  0  0  # atno 8009 bound_to 7997
  156.1505  140.1557  156.8765 H   0  0  0  0  0  0  0  0  0  0  0  0  # atno 8010 bound_to 7997
  140.7091  143.5844  150.8958 H   0  0  0  0  0  0  0  0  0  0  0  0  # atno 10167 bound_to 10162
  156.8704  130.9782  151.3074 H   0  0  0  0  0  0  0  0  0  0  0  0  # atno 10718 bound_to 10713
  154.2450  135.2773  155.2839 H   0  0  0  0  0  0  0  0  0  0  0  0  # atno 10763 bound_to 10752
  154.5513  135.5674  153.6928 H   0  0  0  0  0  0  0  0  0  0  0  0  # atno 10764 bound_to 10752
  152.9992  135.6275  154.2595 H   0  0  0  0  0  0  0  0  0  0  0  0  # atno 10765 bound_to 10752
  140.0806  134.5344  155.8951 H   0  0  0  0  0  0  0  0  0  0  0  0  # atno 11005 bound_to 11000
  144.6809  140.2549  143.7327 LP  0  0  0  0  0  0  0  0  0  0  0  0  # atno 17320 bound_to 7965
  145.8075  139.1989  143.2012 LP  0  0  0  0  0  0  0  0  0  0  0  0  # atno 17321 bound_to 7965
  139.9570  143.6207  152.3013 LP  0  0  0  0  0  0  0  0  0  0  0  0  # atno 17342 bound_to 10162
  139.6746  144.7659  151.1720 LP  0  0  0  0  0  0  0  0  0  0  0  0  # atno 17343 bound_to 10162
  157.6199  130.8647  149.9091 LP  0  0  0  0  0  0  0  0  0  0  0  0  # atno 17370 bound_to 10713
  156.0729  130.3682  150.0737 LP  0  0  0  0  0  0  0  0  0  0  0  0  # atno 17371 bound_to 10713
  141.2045  133.6640  156.6126 LP  0  0  0  0  0  0  0  0  0  0  0  0  # atno 17394 bound_to 11000
  140.3493  134.7782  157.4455 LP  0  0  0  0  0  0  0  0  0  0  0  0  # atno 17395 bound_to 11000

$$$$
