#       Name:                AV-unprocessed.smi:1222
#       Creating user name   scv26
#       Creation time:       Fri Mar 27 04:18:03 2020


#       File generated by GOLD software.
#

@<TRIPOS>MOLECULE
AV-unprocessed.smi:1222
    40    42     1
SMALL
NO_CHARGES


@<TRIPOS>ATOM
      1 ****        -1.6905   2.3237   0.4994 O.2            1 S1                 0.0000
      2 ****        -2.1503   1.1819   0.5404 C.2            1 S1                 0.0000
      3 ****        -3.4579   0.8707   0.5661 N.am           1 S1                 0.0000
      4 ****        -4.5705   1.7522   0.5503 C.2            1 S1                 0.0000
      5 ****        -4.4761   3.0861   0.4996 N.2            1 S1                 0.0000
      6 ****        -5.7307   3.7007   0.4950 C.2            1 S1                 0.0000
      7 ****        -6.7770   2.8131   0.5436 C.2            1 S1                 0.0000
      8 ****        -6.2247   1.1604   0.5968 S.3            1 S1                 0.0000
      9 ****        -1.3890   0.0782   0.5631 N.am           1 S1                 0.0000
     10 ****         0.0706   0.0636   0.5417 C.3            1 S1                 0.0000
     11 ****         0.6037   0.2612  -0.8887 C.3            1 S1                 0.0000
     12 ****         2.1320   0.0933  -0.9356 C.3            1 S1                 0.0000
     13 ****         2.5092  -1.2332  -0.4476 N.3            1 S1                 0.0000
     14 ****         3.9519  -1.3791  -0.5518 C.3            1 S1                 0.0000
     15 ****         4.5159  -1.8179  -1.8840 C.3            1 S1                 0.0000
     16 ****         4.5029  -2.7769  -0.7184 C.3            1 S1                 0.0000
     17 ****         2.1180  -1.3754   0.9550 C.3            1 S1                 0.0000
     18 ****         0.5886  -1.2744   1.0930 C.3            1 S1                 0.0000
     19 ****        -3.6842  -0.1122   0.5996 H              1 S1                 0.0000
     20 ****        -5.7868   4.7785   0.4557 H              1 S1                 0.0000
     21 ****        -7.8346   3.0309   0.5513 H              1 S1                 0.0000
     22 ****        -1.8513  -0.8185   0.5970 H              1 S1                 0.0000
     23 ****         0.4482   0.8668   1.1777 H              1 S1                 0.0000
     24 ****         0.1400  -0.4596  -1.5640 H              1 S1                 0.0000
     25 ****         0.3336   1.2504  -1.2596 H              1 S1                 0.0000
     26 ****         2.4779   0.2160  -1.9626 H              1 S1                 0.0000
     27 ****         2.6178   0.8679  -0.3396 H              1 S1                 0.0000
     28 ****         4.5835  -0.6954   0.0132 H              1 S1                 0.0000
     29 ****         3.8166  -2.0062  -2.6968 H              1 S1                 0.0000
     30 ****         5.4756  -1.4012  -2.1828 H              1 S1                 0.0000
     31 ****         5.4550  -3.0010  -0.2418 H              1 S1                 0.0000
     32 ****         3.7953  -3.6031  -0.7576 H              1 S1                 0.0000
     33 ****         2.4531  -2.3429   1.3303 H              1 S1                 0.0000
     34 ****         2.6047  -0.6104   1.5624 H              1 S1                 0.0000
     35 ****         0.3058  -1.3819   2.1407 H              1 S1                 0.0000
     36 ****         0.1236  -2.1053   0.5600 H              1 S1                 0.0000
     37 ****        -2.3072   3.1107   0.4826 LP             1 S1                 0.0000
     38 ****        -0.7005   2.4637   0.4829 LP             1 S1                 0.0000
     39 ****        -3.6096   3.5843   0.4686 LP             1 S1                 0.0000
     40 ****         2.0484  -1.9329  -0.9936 LP             1 S1                 0.0000
@<TRIPOS>BOND
    1    1    2 2     
    2    2    3 am    
    3    2    9 am    
    4    3    4 1     
    5    3   19 1     
    6    4    8 1     
    7    4    5 2     
    8    5    6 1     
    9    6    7 2     
   10    6   20 1     
   11    7    8 1     
   12    7   21 1     
   13    9   10 1     
   14    9   22 1     
   15   10   18 1     
   16   10   11 1     
   17   10   23 1     
   18   11   12 1     
   19   11   24 1     
   20   11   25 1     
   21   12   13 1     
   22   12   26 1     
   23   12   27 1     
   24   13   14 1     
   25   13   17 1     
   26   14   16 1     
   27   14   15 1     
   28   14   28 1     
   29   15   16 1     
   30   15   29 1     
   31   15   30 1     
   32   16   31 1     
   33   16   32 1     
   34   17   18 1     
   35   17   33 1     
   36   17   34 1     
   37   18   35 1     
   38   18   36 1     
   39    1   37 1     
   40    1   38 1     
   41    5   39 1     
   42   13   40 1     
@<TRIPOS>SUBSTRUCTURE
      1 S1             1
@<TRIPOS>SET
LONE_PAIRS      STATIC     ATOMS    <user>   **** ""
4 37 38 39 40
DONOR_HYDROGENS      STATIC     ATOMS    <user>   **** ""
2 19 22
ATOM$BLUE        STATIC     ATOMS    COLORGROUP SYSTEM
4 37 38 39 40
ATOM$RED        STATIC     ATOMS    COLORGROUP SYSTEM
2 19 22
