AV-unprocessed.smi:1005|AV-procd|sdf|4378|dock7
  -GOLD-   22720 2293D 1   1.00000     0.00000
 Structure written by MMmdl.
 58 60  0  0  0  0  0  0  0  0  4 V2000
  152.4150  143.7062  160.1220 C   0  0  0  0  0  0  0  0  0  0  0  0
  152.0675  142.7269  159.0137 C   0  0  0  0  0  0  0  0  0  0  0  0
  151.1033  143.1096  158.0538 C   0  0  0  0  0  0  0  0  0  0  0  0
  150.8082  142.1937  157.0511 C   0  0  0  0  0  0  0  0  0  0  0  0
  149.9184  142.2665  155.9771 N   0  3  0  0  0  0  0  0  0  0  0  0
  149.9792  141.1123  155.2568 C   0  0  0  0  0  0  0  0  0  0  0  0
  150.9005  140.3059  155.8520 N   0  0  0  0  0  0  0  0  0  0  0  0
  151.3553  138.9573  155.4874 C   0  0  0  0  0  0  0  0  0  0  0  0
  150.2397  138.0968  154.8612 C   0  0  2  0  0  0  0  0  0  0  0  0
  149.9919  138.5461  153.5429 O   0  0  0  0  0  0  0  0  0  0  0  0
  148.9297  138.1836  155.6688 C   0  0  0  0  0  0  0  0  0  0  0  0
  148.3457  136.8485  155.9584 N   0  3  1  0  0  0  0  0  0  0  0  0
  147.4065  136.8443  157.1070 C   0  0  0  0  0  0  0  0  0  0  0  0
  146.8820  135.4227  157.3632 C   0  0  0  0  0  0  0  0  0  0  0  0
  146.2690  134.9219  156.1814 O   0  0  0  0  0  0  0  0  0  0  0  0
  147.1812  134.8228  155.0932 C   0  0  1  0  0  0  0  0  0  0  0  0
  146.4185  134.1848  153.9146 C   0  0  0  0  0  0  0  0  0  0  0  0
  147.2703  133.9379  152.7218 N   0  3  0  0  0  0  0  0  0  0  0  0
  146.4864  133.4178  151.5794 C   0  0  0  0  0  0  0  0  0  0  0  0
  148.4463  133.0822  153.0045 C   0  0  0  0  0  0  0  0  0  0  0  0
  147.7086  136.2368  154.7674 C   0  0  0  0  0  0  0  0  0  0  0  0
  151.4369  140.9354  156.9803 C   0  0  0  0  0  0  0  0  0  0  0  0
  152.3860  140.5404  157.9199 C   0  0  0  0  0  0  0  0  0  0  0  0
  152.6987  141.4574  158.9489 C   0  0  0  0  0  0  0  0  0  0  0  0
  153.7299  141.0545  159.9894 C   0  0  0  0  0  0  0  0  0  0  0  0
  151.8681  144.6431  160.0128 H   0  0  0  0  0  0  0  0  0  0  0  0
  153.4798  143.9400  160.1077 H   0  0  0  0  0  0  0  0  0  0  0  0
  152.1648  143.2856  161.0962 H   0  0  0  0  0  0  0  0  0  0  0  0
  150.6171  144.0733  158.0986 H   0  0  0  0  0  0  0  0  0  0  0  0
  149.4034  140.8818  154.3718 H   0  0  0  0  0  0  0  0  0  0  0  0
  152.2034  139.0533  154.8082 H   0  0  0  0  0  0  0  0  0  0  0  0
  151.7372  138.4847  156.3936 H   0  0  0  0  0  0  0  0  0  0  0  0
  150.5833  137.0646  154.8078 H   0  0  0  0  0  0  0  0  0  0  0  0
  149.5457  137.8591  153.0707 H   0  0  0  0  0  0  0  0  0  0  0  0
  149.0928  138.7167  156.6069 H   0  0  0  0  0  0  0  0  0  0  0  0
  148.2141  138.7809  155.1014 H   0  0  0  0  0  0  0  0  0  0  0  0
  147.8977  137.2118  158.0073 H   0  0  0  0  0  0  0  0  0  0  0  0
  146.5717  137.5164  156.9020 H   0  0  0  0  0  0  0  0  0  0  0  0
  147.6886  134.7600  157.6810 H   0  0  0  0  0  0  0  0  0  0  0  0
  146.1447  135.4333  158.1663 H   0  0  0  0  0  0  0  0  0  0  0  0
  148.0060  134.1770  155.3970 H   0  0  0  0  0  0  0  0  0  0  0  0
  145.9602  133.2449  154.2263 H   0  0  0  0  0  0  0  0  0  0  0  0
  145.5945  134.8467  153.6428 H   0  0  0  0  0  0  0  0  0  0  0  0
  146.0489  132.4467  151.8155 H   0  0  0  0  0  0  0  0  0  0  0  0
  147.1171  133.3030  150.6969 H   0  0  0  0  0  0  0  0  0  0  0  0
  145.6794  134.1030  151.3176 H   0  0  0  0  0  0  0  0  0  0  0  0
  148.1382  132.0996  153.3643 H   0  0  0  0  0  0  0  0  0  0  0  0
  149.0999  133.5310  153.7516 H   0  0  0  0  0  0  0  0  0  0  0  0
  149.0418  132.9396  152.1018 H   0  0  0  0  0  0  0  0  0  0  0  0
  146.8934  136.8760  154.4239 H   0  0  0  0  0  0  0  0  0  0  0  0
  148.4357  136.1809  153.9563 H   0  0  0  0  0  0  0  0  0  0  0  0
  152.8659  139.5743  157.8709 H   0  0  0  0  0  0  0  0  0  0  0  0
  154.0985  140.0430  159.8156 H   0  0  0  0  0  0  0  0  0  0  0  0
  153.2976  141.0829  160.9900 H   0  0  0  0  0  0  0  0  0  0  0  0
  154.5851  141.7301  159.9619 H   0  0  0  0  0  0  0  0  0  0  0  0
  147.6256  134.8357  152.4248 H   0  0  0  0  0  0  0  0  0  0  0  0
  149.1211  136.2496  156.2055 H   0  0  0  0  0  0  0  0  0  0  0  0
  149.3112  143.0444  155.7516 H   0  0  0  0  0  0  0  0  0  0  0  0
  1  2  1  0  0  0  0
  1 26  1  0  0  0  0
  1 27  1  0  0  0  0
  1 28  1  0  0  0  0
  2 24  1  0  0  0  0
  2  3  2  0  0  0  0
  3  4  1  0  0  0  0
  3 29  1  0  0  0  0
  4 22  2  0  0  0  0
  4  5  1  0  0  0  0
  5  6  2  0  0  0  0
  5 58  1  0  0  0  0
  6  7  1  0  0  0  0
  6 30  1  0  0  0  0
  7  8  1  0  0  0  0
  7 22  1  0  0  0  0
  8  9  1  0  0  0  0
  8 31  1  0  0  0  0
  8 32  1  0  0  0  0
  9 10  1  0  0  0  0
  9 11  1  0  0  0  0
  9 33  1  0  0  0  0
 10 34  1  0  0  0  0
 11 12  1  0  0  0  0
 11 35  1  0  0  0  0
 11 36  1  0  0  0  0
 12 21  1  0  0  0  0
 12 13  1  0  0  0  0
 12 57  1  0  0  0  0
 13 14  1  0  0  0  0
 13 37  1  0  0  0  0
 13 38  1  0  0  0  0
 14 15  1  0  0  0  0
 14 39  1  0  0  0  0
 14 40  1  0  0  0  0
 15 16  1  0  0  0  0
 16 17  1  0  0  0  0
 16 21  1  0  0  0  0
 16 41  1  0  0  0  0
 17 18  1  0  0  0  0
 17 42  1  0  0  0  0
 17 43  1  0  0  0  0
 18 19  1  0  0  0  0
 18 20  1  0  0  0  0
 18 56  1  0  0  0  0
 19 44  1  0  0  0  0
 19 45  1  0  0  0  0
 19 46  1  0  0  0  0
 20 47  1  0  0  0  0
 20 48  1  0  0  0  0
 20 49  1  0  0  0  0
 21 50  1  0  0  0  0
 21 51  1  0  0  0  0
 22 23  1  0  0  0  0
 23 24  2  0  0  0  0
 23 52  1  0  0  0  0
 24 25  1  0  0  0  0
 25 53  1  0  0  0  0
 25 54  1  0  0  0  0
 25 55  1  0  0  0  0
M  CHG  1   5   1
M  CHG  1  12   1
M  CHG  1  18   1
M  END
> <s_m_source_file>
AV-unprocessed.smi

> <i_m_source_file_index>
1005

> <i_lp_mmshare_version>
43012

> <i_f3d_flags>
0

> <s_epik_input>
W0NIM11jKFtjSF0xKWMoW0NIM10pW2NIXWMoYzEyKW4oW2NIXW4yKVtDSDJdW0NASF0oW09IXSlbQ0gyXU4zW0NIMl1bQ0gyXU9bQ0BIXShbQ0gyXTMpW0NIMl1OKFtDSDNdKVtDSDNd

> <s_epik_cmdline>
J2VwaWtfcHl0aG9uJywgJy1waCcsICc3LjAnLCAnLXRuJywgJzgnLCAnLW1hJywgJzIwMCcsICctbWV0YWxfYmluZGluZycsICctaW1hZScsICc8aW5maWxlLm1hZT4nLCAnLW9tYWUnLCAnPG91dGZpbGUubWFlPic=

> <r_epik_Ionization_Penalty>
2.30802

> <r_epik_Ionization_Penalty_Charging>
2.30798

> <r_epik_Ionization_Penalty_Neutral>
3.4851e-05

> <r_epik_State_Penalty>
2.52618

> <r_epik_Charging_Adjusted_Penalty>
4.83416

> <i_epik_Tot_Q>
3

> <i_epik_Tot_abs_Q>
3

> <r_epik_Metal_State_Penalty>
6.53149

> <b_epik_Metal_Only>
0

> <s_lp_Force_Field>
OPLS_2005

> <r_lp_Energy>
43.2014

> <b_lp_Chiralities_Consistent>
1

> <s_lp_Variant>
AV-unprocessed.smi:1005-17

> <Gold.Version>
5.8.1

> <Gold.Id.Protein>
6NUR|6NUR_protein|mol2

> <Gold.PLP.Fitness>
53.3785

> <Gold.PLP.PLP>
-40.9102

> <Gold.PLP.part.hbond>
-4.0000

> <Gold.PLP.part.metal>
0.0000

> <Gold.PLP.part.buried>
-2.6707

> <Gold.PLP.part.nonpolar>
-34.3470

> <Gold.PLP.part.repulsive>
0.1437

> <Gold.PLP.ligand.clash>
0.0000

> <Gold.PLP.ligand.torsion>
1.3091

> <Gold.PLP.Chemscore.Hbond>
4.9750

> <Gold.PLP.Chemscore.CHOScore>
0.0000

> <Gold.PLP.Chemscore.Metal>
0.0000

> <Gold.Chemscore.Hbonds>
donor molecule, donor type, donor heavy atom, donor atom, acceptor molecule, acceptor atom, score
      L1  H     5    58       P1  8028  2.00
      L1  H    10    34       P1  7948  0.89
      L1  H    18    56       P1  7948  2.00

> <Gold.PLP.Chemscore.Internal.Correction>
0.1616

> <Gold.Rescore>
     Score         DG    S(hbond)    S(metal)    S(lipo)     H(rot)  DE(clash)    DE(int)     intcor
     18.96     -20.42       2.69        0.00     106.89       2.56       0.12       1.34       ----

> <Gold.Chemscore.Fitness>
18.9582

> <Gold.Chemscore.DG>
-20.4248

> <Gold.Chemscore.ZeroCoef>
-5.4800

> <Gold.Chemscore.Hbond>
2.6897

> <Gold.Chemscore.Metal>
0.0000

> <Gold.Chemscore.Lipo>
106.8888

> <Gold.Chemscore.Internal_Hbond>
0.0000

> <Gold.Chemscore.DEClash>
0.1221

> <Gold.Chemscore.DEInternal>
1.3445

> <Gold.Chemscore.Rot>
2.5566

> <Gold.Chemscore.Internal.Correction>
   9.000000E+99

> <Gold.Chemscore.Hbonds>
donor molecule, donor type, donor heavy atom, donor atom, acceptor molecule, acceptor atom, score
      L1  H     5    58       P1  8028  0.98
      L1  H    10    34       P1  7948  0.73
      L1  H    18    56       P1  7948  0.88

> <Gold.Chemscore.Hbond.Weighted>
-8.9837

> <Gold.Chemscore.Metal.Weighted>
-0.0000

> <Gold.Chemscore.Lipo.Weighted>
-12.5060

> <Gold.Chemscore.Internal_Hbond.Weighted>
0.0000

> <Gold.Chemscore.DEClash.Weighted>
0.1221

> <Gold.Chemscore.DEInternal.Weighted>
1.3445

> <Gold.Chemscore.Rot.Weighted>
6.5450

> <Gold.Chemscore.Internal.Correction.Weighted>
   9.000000E+99

> <Gold.Protein.RotatedTorsions>
[ 6907 6896 6895 6894 ] final  -93.62 input  -60.11 | X-H torsion
[ 7974 7965 7964 7962 ] final   25.31 input  175.53 | X-H torsion
[ 8008 7997 7996 7995 ] final  143.47 input   59.86 | X-H torsion
[ 10167 10162 10161 10158 ] final    3.27 input  -65.29 | X-H torsion
[ 10718 10713 10712 10709 ] final   56.41 input   66.30 | X-H torsion
[ 10763 10752 10751 10750 ] final   -5.23 input  -60.55 | X-H torsion
[ 11005 11000 10999 10996 ] final  100.13 input  -57.11 | X-H torsion

> <Gold.Protein.ActiveResidues>
 VAL166  LYS551  ARG553  GLY616  TRP617  ASP618  TYR619  PRO620  LYS621  CYS622 
 ASP623  PHE694  ASN695  SER759  ASP760  ASP761  ALA762  ILE779  LEU786  VAL792 
 PHE793  MET794  SER795  GLU796  ALA797  LYS798  CYS799  TRP800  GLU811  SER814 

> <Gold.Protein.RotatedAtoms>
  150.6926  134.1939  159.4295 H   0  0  0  0  0  0  0  0  0  0  0  0  # atno 6907 bound_to 6896
  151.9908  134.9977  160.0570 H   0  0  0  0  0  0  0  0  0  0  0  0  # atno 6908 bound_to 6896
  152.1669  133.4583  159.4926 H   0  0  0  0  0  0  0  0  0  0  0  0  # atno 6909 bound_to 6896
  146.1895  139.7484  142.8842 H   0  0  0  0  0  0  0  0  0  0  0  0  # atno 7974 bound_to 7965
  156.2929  140.2261  156.4895 H   0  0  0  0  0  0  0  0  0  0  0  0  # atno 8008 bound_to 7997
  154.7783  140.0462  157.1128 H   0  0  0  0  0  0  0  0  0  0  0  0  # atno 8009 bound_to 7997
  154.9790  140.3076  155.4958 H   0  0  0  0  0  0  0  0  0  0  0  0  # atno 8010 bound_to 7997
  140.6594  143.7343  150.7711 H   0  0  0  0  0  0  0  0  0  0  0  0  # atno 10167 bound_to 10162
  157.5428  130.8709  149.8847 H   0  0  0  0  0  0  0  0  0  0  0  0  # atno 10718 bound_to 10713
  153.3956  135.7003  153.6463 H   0  0  0  0  0  0  0  0  0  0  0  0  # atno 10763 bound_to 10752
  153.5017  135.3651  155.2543 H   0  0  0  0  0  0  0  0  0  0  0  0  # atno 10764 bound_to 10752
  154.8706  135.4113  154.3282 H   0  0  0  0  0  0  0  0  0  0  0  0  # atno 10765 bound_to 10752
  139.8771  134.9126  156.4710 H   0  0  0  0  0  0  0  0  0  0  0  0  # atno 11005 bound_to 11000
  145.3837  141.0362  143.3163 LP  0  0  0  0  0  0  0  0  0  0  0  0  # atno 17320 bound_to 7965
  144.8459  139.5397  143.6878 LP  0  0  0  0  0  0  0  0  0  0  0  0  # atno 17321 bound_to 7965
  140.1009  143.4788  152.2426 LP  0  0  0  0  0  0  0  0  0  0  0  0  # atno 17342 bound_to 10162
  139.5824  144.7516  151.3606 LP  0  0  0  0  0  0  0  0  0  0  0  0  # atno 17343 bound_to 10162
  156.0511  130.3717  150.1200 LP  0  0  0  0  0  0  0  0  0  0  0  0  # atno 17370 bound_to 10713
  156.9378  130.9734  151.3521 LP  0  0  0  0  0  0  0  0  0  0  0  0  # atno 17371 bound_to 10713
  140.8796  133.7928  155.9452 LP  0  0  0  0  0  0  0  0  0  0  0  0  # atno 17394 bound_to 11000
  140.8868  134.2544  157.5115 LP  0  0  0  0  0  0  0  0  0  0  0  0  # atno 17395 bound_to 11000

$$$$
