AV-unprocessed.smi:628|AV-procd|sdf|3114|dock10
  -GOLD-   22720 0 33D 1   1.00000     0.00000
 Structure written by MMmdl.
 31 32  0  0  0  0  0  0  0  0  2 V2000
  151.8024  141.7576  158.1499 O   0  0  0  0  0  0  0  0  0  0  0  0
  151.1443  142.2651  157.2402 C   0  0  0  0  0  0  0  0  0  0  0  0
  150.6015  141.4212  156.0799 C   0  0  0  0  0  0  0  0  0  0  0  0
  151.0568  140.0413  156.1180 N   0  0  0  0  0  0  0  0  0  0  0  0
  151.0275  139.1636  157.1857 C   0  0  0  0  0  0  0  0  0  0  0  0
  151.5653  138.0049  156.7131 C   0  0  0  0  0  0  0  0  0  0  0  0
  151.7606  136.7339  157.4772 C   0  0  0  0  0  0  0  0  0  0  0  0
  151.3553  136.6816  158.6592 O   0  0  0  0  0  0  0  0  0  0  0  0
  152.3228  135.7747  156.9039 O   0  5  0  0  0  0  0  0  0  0  0  0
  151.9039  138.2393  155.3552 C   0  0  0  0  0  0  0  0  0  0  0  0
  151.5888  139.4778  155.0012 N   0  0  0  0  0  0  0  0  0  0  0  0
  150.8487  143.5730  157.1936 N   0  0  0  0  0  0  0  0  0  0  0  0
  151.2613  144.5643  158.1839 C   0  0  0  0  0  0  0  0  0  0  0  0
  152.7487  144.4080  158.5605 C   0  0  0  0  0  0  0  0  0  0  0  0
  152.7664  143.8393  159.9792 C   0  0  0  0  0  0  0  0  0  0  0  0
  151.5028  144.4027  160.6212 C   0  0  0  0  0  0  0  0  0  0  0  0
  150.4684  144.3923  159.4941 C   0  0  0  0  0  0  0  0  0  0  0  0
  149.5112  141.4262  156.1110 H   0  0  0  0  0  0  0  0  0  0  0  0
  150.8982  141.8693  155.1303 H   0  0  0  0  0  0  0  0  0  0  0  0
  150.6397  139.4330  158.1569 H   0  0  0  0  0  0  0  0  0  0  0  0
  152.3521  137.5723  154.6335 H   0  0  0  0  0  0  0  0  0  0  0  0
  150.3023  143.9075  156.4132 H   0  0  0  0  0  0  0  0  0  0  0  0
  151.0911  145.5668  157.7860 H   0  0  0  0  0  0  0  0  0  0  0  0
  153.3131  143.7859  157.8646 H   0  0  0  0  0  0  0  0  0  0  0  0
  153.2211  145.3912  158.5627 H   0  0  0  0  0  0  0  0  0  0  0  0
  152.7052  142.7510  159.9405 H   0  0  0  0  0  0  0  0  0  0  0  0
  153.6711  144.1040  160.5270 H   0  0  0  0  0  0  0  0  0  0  0  0
  151.1817  143.8297  161.4915 H   0  0  0  0  0  0  0  0  0  0  0  0
  151.6832  145.4283  160.9458 H   0  0  0  0  0  0  0  0  0  0  0  0
  149.7163  145.1709  159.6249 H   0  0  0  0  0  0  0  0  0  0  0  0
  149.9439  143.4352  159.5050 H   0  0  0  0  0  0  0  0  0  0  0  0
  1  2  2  0  0  0  0
  2  3  1  0  0  0  0
  2 12  1  0  0  0  0
  3  4  1  0  0  0  0
  3 18  1  0  0  0  0
  3 19  1  0  0  0  0
  4 11  1  0  0  0  0
  4  5  1  0  0  0  0
  5  6  2  0  0  0  0
  5 20  1  0  0  0  0
  6  7  1  0  0  0  0
  6 10  1  0  0  0  0
  7  8  2  0  0  0  0
  7  9  1  0  0  0  0
 10 11  2  0  0  0  0
 10 21  1  0  0  0  0
 12 13  1  0  0  0  0
 12 22  1  0  0  0  0
 13 17  1  0  0  0  0
 13 14  1  0  0  0  0
 13 23  1  0  0  0  0
 14 15  1  0  0  0  0
 14 24  1  0  0  0  0
 14 25  1  0  0  0  0
 15 16  1  0  0  0  0
 15 26  1  0  0  0  0
 15 27  1  0  0  0  0
 16 17  1  0  0  0  0
 16 28  1  0  0  0  0
 16 29  1  0  0  0  0
 17 30  1  0  0  0  0
 17 31  1  0  0  0  0
M  CHG  1   9  -1
M  END
> <s_m_source_file>
AV-unprocessed.smi

> <i_m_source_file_index>
628

> <i_lp_mmshare_version>
43012

> <i_f3d_flags>
0

> <s_epik_input>
W0NIMl0xW0NIMl1bQ0gyXVtDSDJdW0NIXTFbTkhdQyg9TylbQ0gyXW4yW2NIXWMoW2NIXW4yKUMoPU8pW09IXQ==

> <s_epik_cmdline>
J2VwaWtfcHl0aG9uJywgJy1waCcsICc3LjAnLCAnLXRuJywgJzgnLCAnLW1hJywgJzIwMCcsICctbWV0YWxfYmluZGluZycsICctaW1hZScsICc8aW5maWxlLm1hZT4nLCAnLW9tYWUnLCAnPG91dGZpbGUubWFlPic=

> <r_epik_Ionization_Penalty>
0.000955839

> <r_epik_Ionization_Penalty_Charging>
0.000925564

> <r_epik_Ionization_Penalty_Neutral>
3.02757e-05

> <r_epik_State_Penalty>
0.000600209

> <r_epik_Charging_Adjusted_Penalty>
0.00152577

> <i_epik_Tot_Q>
-1

> <i_epik_Tot_abs_Q>
1

> <r_epik_Metal_State_Penalty>
-0

> <b_epik_Metal_Only>
0

> <s_lp_Force_Field>
OPLS_2005

> <r_lp_Energy>
22.3574

> <b_lp_Chiralities_Consistent>
1

> <s_lp_Variant>
AV-unprocessed.smi:628-1

> <Gold.Version>
5.8.1

> <Gold.Id.Protein>
6NUR|6NUR_protein|mol2

> <Gold.PLP.Fitness>
51.7855

> <Gold.PLP.PLP>
-35.3734

> <Gold.PLP.part.hbond>
-4.0000

> <Gold.PLP.part.metal>
0.0000

> <Gold.PLP.part.buried>
-7.1084

> <Gold.PLP.part.nonpolar>
-25.7532

> <Gold.PLP.part.repulsive>
0.0412

> <Gold.PLP.ligand.clash>
0.0000

> <Gold.PLP.ligand.torsion>
0.2935

> <Gold.PLP.Chemscore.Hbond>
5.6640

> <Gold.PLP.Chemscore.CHOScore>
0.0000

> <Gold.PLP.Chemscore.Metal>
0.0000

> <Gold.Chemscore.Hbonds>
donor molecule, donor type, donor heavy atom, donor atom, acceptor molecule, acceptor atom, score
      L1  H    12    22       P1  8028  1.00
      P1  H  6896  6907       L1     8  1.66
      P1  H  7989  7998       L1    11  0.98
      P1  H 10752 10765       L1     9  2.00

> <Gold.PLP.Chemscore.Internal.Correction>
0.0070

> <Gold.Rescore>
     Score         DG    S(hbond)    S(metal)    S(lipo)     H(rot)  DE(clash)    DE(int)     intcor
     20.00     -23.51       3.63        0.00      85.58       1.61       0.03       3.48       ----

> <Gold.Chemscore.Fitness>
20.0027

> <Gold.Chemscore.DG>
-23.5144

> <Gold.Chemscore.ZeroCoef>
-5.4800

> <Gold.Chemscore.Hbond>
3.6348

> <Gold.Chemscore.Metal>
0.0000

> <Gold.Chemscore.Lipo>
85.5818

> <Gold.Chemscore.Internal_Hbond>
0.0000

> <Gold.Chemscore.DEClash>
0.0302

> <Gold.Chemscore.DEInternal>
3.4816

> <Gold.Chemscore.Rot>
1.6089

> <Gold.Chemscore.Internal.Correction>
   9.000000E+99

> <Gold.Chemscore.Hbonds>
donor molecule, donor type, donor heavy atom, donor atom, acceptor molecule, acceptor atom, score
      L1  H    12    22       P1  8028  0.98
      P1  H  6896  6907       L1     8  0.80
      P1  H  7989  7998       L1    11  0.67
      P1  H 10752 10765       L1     9  0.97

> <Gold.Chemscore.Hbond.Weighted>
-12.1402

> <Gold.Chemscore.Metal.Weighted>
-0.0000

> <Gold.Chemscore.Lipo.Weighted>
-10.0131

> <Gold.Chemscore.Internal_Hbond.Weighted>
0.0000

> <Gold.Chemscore.DEClash.Weighted>
0.0302

> <Gold.Chemscore.DEInternal.Weighted>
3.4816

> <Gold.Chemscore.Rot.Weighted>
4.1188

> <Gold.Chemscore.Internal.Correction.Weighted>
   9.000000E+99

> <Gold.Protein.RotatedTorsions>
[ 6907 6896 6895 6894 ] final  -17.81 input  -60.11 | X-H torsion
[ 7974 7965 7964 7962 ] final  -41.60 input  175.53 | X-H torsion
[ 8008 7997 7996 7995 ] final   14.45 input   59.86 | X-H torsion
[ 10167 10162 10161 10158 ] final   15.05 input  -65.29 | X-H torsion
[ 10718 10713 10712 10709 ] final  -28.84 input   66.30 | X-H torsion
[ 10763 10752 10751 10750 ] final -129.33 input  -60.55 | X-H torsion
[ 11005 11000 10999 10996 ] final   31.12 input  -57.11 | X-H torsion

> <Gold.Protein.ActiveResidues>
 VAL166  LYS551  ARG553  GLY616  TRP617  ASP618  TYR619  PRO620  LYS621  CYS622 
 ASP623  PHE694  ASN695  SER759  ASP760  ASP761  ALA762  ILE779  LEU786  VAL792 
 PHE793  MET794  SER795  GLU796  ALA797  LYS798  CYS799  TRP800  GLU811  SER814 

> <Gold.Protein.RotatedAtoms>
  151.2878  135.0733  159.9192 H   0  0  0  0  0  0  0  0  0  0  0  0  # atno 6907 bound_to 6896
  152.5322  133.9964  159.7885 H   0  0  0  0  0  0  0  0  0  0  0  0  # atno 6908 bound_to 6896
  151.0229  133.5810  159.2700 H   0  0  0  0  0  0  0  0  0  0  0  0  # atno 6909 bound_to 6896
  146.0196  140.6866  142.9185 H   0  0  0  0  0  0  0  0  0  0  0  0  # atno 7974 bound_to 7965
  154.8487  140.2926  155.5612 H   0  0  0  0  0  0  0  0  0  0  0  0  # atno 8008 bound_to 7997
  156.3015  140.2500  156.3374 H   0  0  0  0  0  0  0  0  0  0  0  0  # atno 8009 bound_to 7997
  154.9045  140.0390  157.1901 H   0  0  0  0  0  0  0  0  0  0  0  0  # atno 8010 bound_to 7997
  140.5894  143.8826  150.6859 H   0  0  0  0  0  0  0  0  0  0  0  0  # atno 10167 bound_to 10162
  156.4201  130.4424  149.7190 H   0  0  0  0  0  0  0  0  0  0  0  0  # atno 10718 bound_to 10713
  154.8757  135.3899  154.3902 H   0  0  0  0  0  0  0  0  0  0  0  0  # atno 10763 bound_to 10752
  153.4639  135.7029  153.6039 H   0  0  0  0  0  0  0  0  0  0  0  0  # atno 10764 bound_to 10752
  153.4525  135.3830  155.2260 H   0  0  0  0  0  0  0  0  0  0  0  0  # atno 10765 bound_to 10752
  140.2873  134.2905  155.7785 H   0  0  0  0  0  0  0  0  0  0  0  0  # atno 11005 bound_to 11000
  144.6984  140.3542  143.7176 LP  0  0  0  0  0  0  0  0  0  0  0  0  # atno 17320 bound_to 7965
  145.7214  139.1711  143.2482 LP  0  0  0  0  0  0  0  0  0  0  0  0  # atno 17321 bound_to 7965
  140.2345  143.3711  152.1538 LP  0  0  0  0  0  0  0  0  0  0  0  0  # atno 17342 bound_to 10162
  139.5218  144.7050  151.5380 LP  0  0  0  0  0  0  0  0  0  0  0  0  # atno 17343 bound_to 10162
  156.4135  130.7733  151.2747 LP  0  0  0  0  0  0  0  0  0  0  0  0  # atno 17370 bound_to 10713
  157.7508  131.0204  150.3708 LP  0  0  0  0  0  0  0  0  0  0  0  0  # atno 17371 bound_to 10713
  141.2152  133.7563  156.9571 LP  0  0  0  0  0  0  0  0  0  0  0  0  # atno 17394 bound_to 11000
  140.1228  134.9406  157.2228 LP  0  0  0  0  0  0  0  0  0  0  0  0  # atno 17395 bound_to 11000

$$$$
