AV-unprocessed.smi:244|AV-procd|sdf|1874|dock3
  -GOLD-   2262020513D 1   1.00000     0.00000
 Structure written by MMmdl.
 56 60  0  0  0  0  0  0  0  0  1 V2000
  150.5508  143.6354  159.2151 C   0  0  0  0  0  0  0  0  0  0  0  0
  151.6634  143.2242  158.3662 N   0  0  0  0  0  0  0  0  0  0  0  0
  152.7583  142.6049  159.1160 C   0  0  0  0  0  0  0  0  0  0  0  0
  152.3953  141.2034  159.6466 C   0  0  0  0  0  0  0  0  0  0  0  0
  151.9158  140.2753  158.5218 C   0  0  2  0  0  0  0  0  0  0  0  0
  153.0150  139.9425  157.6767 O   0  0  0  0  0  0  0  0  0  0  0  0
  152.6446  139.0216  156.6566 C   0  0  0  0  0  0  0  0  0  0  0  0
  151.5696  139.6503  155.7563 C   0  0  0  0  0  0  0  0  0  0  0  0
  150.4391  140.1088  156.5638 N   0  0  0  0  0  0  0  0  0  0  0  0
  149.2876  140.4373  155.9198 C   0  0  0  0  0  0  0  0  0  0  0  0
  149.2442  140.4073  154.5605 N   0  0  0  0  0  0  0  0  0  0  0  0
  148.1280  140.7476  153.9103 C   0  0  0  0  0  0  0  0  0  0  0  0
  146.9564  141.1390  154.4132 N   0  0  0  0  0  0  0  0  0  0  0  0
  146.9856  141.1585  155.7761 C   0  0  0  0  0  0  0  0  0  0  0  0
  148.0987  140.8281  156.6010 C   0  0  0  0  0  0  0  0  0  0  0  0
  147.7456  140.9593  157.9395 N   0  0  0  0  0  0  0  0  0  0  0  0
  146.5038  141.3573  157.9071 C   0  0  0  0  0  0  0  0  0  0  0  0
  145.9642  141.4924  156.6484 N   0  0  0  0  0  0  0  0  0  0  0  0
  144.6085  141.9082  156.3227 C   0  0  0  0  0  0  0  0  0  0  0  0
  144.5150  143.3260  155.7052 C   0  0  0  0  0  0  0  0  0  0  0  0
  145.1194  144.2333  156.6103 O   0  0  0  0  0  0  0  0  0  0  0  0
  145.2448  143.4354  154.3483 C   0  0  0  0  0  0  0  0  0  0  0  0
  144.9682  144.7782  153.6488 C   0  0  0  0  0  0  0  0  0  0  0  0
  143.5671  144.9782  153.5068 O   0  0  0  0  0  0  0  0  0  0  0  0
  142.8941  145.0612  154.7572 C   0  0  0  0  0  0  0  0  0  0  0  0
  143.0393  143.7331  155.5207 C   0  0  0  0  0  0  0  0  0  0  0  0
  150.8060  140.9613  157.6971 C   0  0  2  0  0  0  0  0  0  0  0  0
  151.2415  142.3804  157.2475 C   0  0  0  0  0  0  0  0  0  0  0  0
  150.8986  144.3228  159.9866 H   0  0  0  0  0  0  0  0  0  0  0  0
  150.0672  142.7927  159.7078 H   0  0  0  0  0  0  0  0  0  0  0  0
  149.7976  144.1566  158.6236 H   0  0  0  0  0  0  0  0  0  0  0  0
  153.6236  142.5278  158.4564 H   0  0  0  0  0  0  0  0  0  0  0  0
  153.0557  143.2571  159.9378 H   0  0  0  0  0  0  0  0  0  0  0  0
  153.2578  140.7621  160.1466 H   0  0  0  0  0  0  0  0  0  0  0  0
  151.6190  141.2845  160.4075 H   0  0  0  0  0  0  0  0  0  0  0  0
  151.5315  139.3570  158.9694 H   0  0  0  0  0  0  0  0  0  0  0  0
  153.5266  138.7683  156.0684 H   0  0  0  0  0  0  0  0  0  0  0  0
  152.2832  138.0938  157.1028 H   0  0  0  0  0  0  0  0  0  0  0  0
  151.9915  140.4873  155.1985 H   0  0  0  0  0  0  0  0  0  0  0  0
  151.2349  138.9131  155.0253 H   0  0  0  0  0  0  0  0  0  0  0  0
  148.1818  140.7009  152.8327 H   0  0  0  0  0  0  0  0  0  0  0  0
  145.9396  141.5543  158.8070 H   0  0  0  0  0  0  0  0  0  0  0  0
  144.1911  141.1734  155.6333 H   0  0  0  0  0  0  0  0  0  0  0  0
  144.0044  141.8490  157.2291 H   0  0  0  0  0  0  0  0  0  0  0  0
  145.9046  144.5773  156.2129 H   0  0  0  0  0  0  0  0  0  0  0  0
  146.3205  143.3059  154.4723 H   0  0  0  0  0  0  0  0  0  0  0  0
  144.9113  142.6280  153.6950 H   0  0  0  0  0  0  0  0  0  0  0  0
  145.4112  145.6075  154.2024 H   0  0  0  0  0  0  0  0  0  0  0  0
  145.4247  144.7823  152.6588 H   0  0  0  0  0  0  0  0  0  0  0  0
  143.2850  145.8966  155.3404 H   0  0  0  0  0  0  0  0  0  0  0  0
  141.8401  145.2714  154.5747 H   0  0  0  0  0  0  0  0  0  0  0  0
  142.5184  142.9563  154.9592 H   0  0  0  0  0  0  0  0  0  0  0  0
  142.5365  143.7994  156.4864 H   0  0  0  0  0  0  0  0  0  0  0  0
  149.9441  141.0606  158.3530 H   0  0  0  0  0  0  0  0  0  0  0  0
  150.4336  142.8773  156.7089 H   0  0  0  0  0  0  0  0  0  0  0  0
  152.0770  142.3113  156.5504 H   0  0  0  0  0  0  0  0  0  0  0  0
  1  2  1  0  0  0  0
  1 29  1  0  0  0  0
  1 30  1  0  0  0  0
  1 31  1  0  0  0  0
  2 28  1  0  0  0  0
  2  3  1  0  0  0  0
  3  4  1  0  0  0  0
  3 32  1  0  0  0  0
  3 33  1  0  0  0  0
  4  5  1  0  0  0  0
  4 34  1  0  0  0  0
  4 35  1  0  0  0  0
  5 27  1  0  0  0  0
  5  6  1  0  0  0  0
  5 36  1  0  0  0  0
  6  7  1  0  0  0  0
  7  8  1  0  0  0  0
  7 37  1  0  0  0  0
  7 38  1  0  0  0  0
  8  9  1  0  0  0  0
  8 39  1  0  0  0  0
  8 40  1  0  0  0  0
  9 10  1  0  0  0  0
  9 27  1  0  0  0  0
 10 15  1  0  0  0  0
 10 11  2  0  0  0  0
 11 12  1  0  0  0  0
 12 13  2  0  0  0  0
 12 41  1  0  0  0  0
 13 14  1  0  0  0  0
 14 18  1  0  0  0  0
 14 15  2  0  0  0  0
 15 16  1  0  0  0  0
 16 17  2  0  0  0  0
 17 18  1  0  0  0  0
 17 42  1  0  0  0  0
 18 19  1  0  0  0  0
 19 20  1  0  0  0  0
 19 43  1  0  0  0  0
 19 44  1  0  0  0  0
 20 26  1  0  0  0  0
 20 21  1  0  0  0  0
 20 22  1  0  0  0  0
 21 45  1  0  0  0  0
 22 23  1  0  0  0  0
 22 46  1  0  0  0  0
 22 47  1  0  0  0  0
 23 24  1  0  0  0  0
 23 48  1  0  0  0  0
 23 49  1  0  0  0  0
 24 25  1  0  0  0  0
 25 26  1  0  0  0  0
 25 50  1  0  0  0  0
 25 51  1  0  0  0  0
 26 52  1  0  0  0  0
 26 53  1  0  0  0  0
 27 28  1  0  0  0  0
 27 54  1  0  0  0  0
 28 55  1  0  0  0  0
 28 56  1  0  0  0  0
M  END
> <s_m_source_file>
AV-unprocessed.smi

> <i_m_source_file_index>
244

> <i_lp_mmshare_version>
43012

> <i_f3d_flags>
0

> <s_epik_input>
W0NIMl0xW0NIMl1OKFtDSDNdKVtDSDJdW0NAQEhdKFtDQEhdMTIpTihbQ0gyXVtDSDJdTzIpYyhuW2NIXW4zKWMoYzM0KW5bY0hdbjRbQ0gyXUM1KFtPSF0pW0NIMl1bQ0gyXU9bQ0gyXVtDSDJdNQ==

> <s_epik_cmdline>
J2VwaWtfcHl0aG9uJywgJy1waCcsICc3LjAnLCAnLXRuJywgJzgnLCAnLW1hJywgJzIwMCcsICctbWV0YWxfYmluZGluZycsICctaW1hZScsICc8aW5maWxlLm1hZT4nLCAnLW9tYWUnLCAnPG91dGZpbGUubWFlPic=

> <r_lp_tautomer_probability>
1

> <r_epik_Ionization_Penalty>
2.27765

> <r_epik_Ionization_Penalty_Charging>
0

> <r_epik_Ionization_Penalty_Neutral>
2.27765

> <r_epik_State_Penalty>
2.4114

> <r_epik_Charging_Adjusted_Penalty>
2.4114

> <i_epik_Tot_Q>
0

> <i_epik_Tot_abs_Q>
0

> <r_epik_Metal_State_Penalty>
2.39769

> <b_epik_Metal_Only>
0

> <s_lp_Force_Field>
OPLS_2005

> <r_lp_Energy>
43.9701

> <b_lp_Chiralities_Consistent>
1

> <s_lp_Variant>
AV-unprocessed.smi:244-11

> <Gold.Version>
5.8.1

> <Gold.Id.Protein>
6NUR|6NUR_protein|mol2

> <Gold.PLP.Fitness>
45.0045

> <Gold.PLP.PLP>
-39.6166

> <Gold.PLP.part.hbond>
-2.1805

> <Gold.PLP.part.metal>
0.0000

> <Gold.PLP.part.buried>
-6.1812

> <Gold.PLP.part.nonpolar>
-31.8325

> <Gold.PLP.part.repulsive>
0.5963

> <Gold.PLP.ligand.clash>
0.0000

> <Gold.PLP.ligand.torsion>
0.3828

> <Gold.PLP.Chemscore.Hbond>
1.0000

> <Gold.PLP.Chemscore.CHOScore>
0.9059

> <Gold.PLP.Chemscore.Metal>
0.0000

> <Gold.Chemscore.Hbonds>
donor molecule, donor type, donor heavy atom, donor atom, acceptor molecule, acceptor atom, score
      P1  H  7997  8009       L1     6  0.30
      L1  C    12    41       P1  7957  1.00

> <Gold.PLP.Chemscore.Internal.Correction>
0.4358

> <Gold.Rescore>
     Score         DG    S(hbond)    S(metal)    S(lipo)     H(rot)  DE(clash)    DE(int)     intcor
     11.39     -13.44       0.83        0.00      89.37       2.06       0.90       1.15       ----

> <Gold.Chemscore.Fitness>
11.3884

> <Gold.Chemscore.DG>
-13.4415

> <Gold.Chemscore.ZeroCoef>
-5.4800

> <Gold.Chemscore.Hbond>
0.8328

> <Gold.Chemscore.Metal>
0.0000

> <Gold.Chemscore.Lipo>
89.3700

> <Gold.Chemscore.Internal_Hbond>
0.0000

> <Gold.Chemscore.DEClash>
0.9040

> <Gold.Chemscore.DEInternal>
1.1490

> <Gold.Chemscore.Rot>
2.0611

> <Gold.Chemscore.Internal.Correction>
   9.000000E+99

> <Gold.Chemscore.Hbond.Weighted>
-2.7817

> <Gold.Chemscore.Metal.Weighted>
-0.0000

> <Gold.Chemscore.Lipo.Weighted>
-10.4563

> <Gold.Chemscore.Internal_Hbond.Weighted>
0.0000

> <Gold.Chemscore.DEClash.Weighted>
0.9040

> <Gold.Chemscore.DEInternal.Weighted>
1.1490

> <Gold.Chemscore.Rot.Weighted>
5.2765

> <Gold.Chemscore.Internal.Correction.Weighted>
   9.000000E+99

> <Gold.Protein.RotatedTorsions>
[ 6907 6896 6895 6894 ] final  152.15 input  -60.11 | X-H torsion
[ 7974 7965 7964 7962 ] final  -46.33 input  175.53 | X-H torsion
[ 8008 7997 7996 7995 ] final  165.77 input   59.86 | X-H torsion
[ 10167 10162 10161 10158 ] final -159.53 input  -65.29 | X-H torsion
[ 10718 10713 10712 10709 ] final  155.53 input   66.30 | X-H torsion
[ 10763 10752 10751 10750 ] final  -28.99 input  -60.55 | X-H torsion
[ 11005 11000 10999 10996 ] final    0.18 input  -57.11 | X-H torsion

> <Gold.Protein.ActiveResidues>
 VAL166  LYS551  ARG553  GLY616  TRP617  ASP618  TYR619  PRO620  LYS621  CYS622 
 ASP623  PHE694  ASN695  SER759  ASP760  ASP761  ALA762  ILE779  LEU786  VAL792 
 PHE793  MET794  SER795  GLU796  ALA797  LYS798  CYS799  TRP800  GLU811  SER814 

> <Gold.Protein.RotatedAtoms>
  152.0907  133.4199  159.4542 H   0  0  0  0  0  0  0  0  0  0  0  0  # atno 6907 bound_to 6896
  150.6862  134.2875  159.4662 H   0  0  0  0  0  0  0  0  0  0  0  0  # atno 6908 bound_to 6896
  152.0726  134.9523  160.0625 H   0  0  0  0  0  0  0  0  0  0  0  0  # atno 6909 bound_to 6896
  145.9730  140.7363  142.9401 H   0  0  0  0  0  0  0  0  0  0  0  0  # atno 7974 bound_to 7965
  156.1773  140.1661  156.8338 H   0  0  0  0  0  0  0  0  0  0  0  0  # atno 8008 bound_to 7997
  154.5321  140.0754  156.8397 H   0  0  0  0  0  0  0  0  0  0  0  0  # atno 8009 bound_to 7997
  155.3385  140.3383  155.4241 H   0  0  0  0  0  0  0  0  0  0  0  0  # atno 8010 bound_to 7997
  139.6608  143.9916  152.2224 H   0  0  0  0  0  0  0  0  0  0  0  0  # atno 10167 bound_to 10162
  157.2171  131.0710  151.1935 H   0  0  0  0  0  0  0  0  0  0  0  0  # atno 10718 bound_to 10713
  153.7574  135.6922  153.4933 H   0  0  0  0  0  0  0  0  0  0  0  0  # atno 10763 bound_to 10752
  153.1962  135.4453  155.0209 H   0  0  0  0  0  0  0  0  0  0  0  0  # atno 10764 bound_to 10752
  154.8165  135.3401  154.7091 H   0  0  0  0  0  0  0  0  0  0  0  0  # atno 10765 bound_to 10752
  140.6294  133.9589  155.8266 H   0  0  0  0  0  0  0  0  0  0  0  0  # atno 11005 bound_to 11000
  144.6841  140.2780  143.7296 LP  0  0  0  0  0  0  0  0  0  0  0  0  # atno 17320 bound_to 7965
  145.7879  139.1916  143.2120 LP  0  0  0  0  0  0  0  0  0  0  0  0  # atno 17321 bound_to 7965
  139.9654  144.6529  150.8039 LP  0  0  0  0  0  0  0  0  0  0  0  0  # atno 17342 bound_to 10162
  140.7579  143.3096  151.2877 LP  0  0  0  0  0  0  0  0  0  0  0  0  # atno 17343 bound_to 10162
  157.3614  130.7133  149.6504 LP  0  0  0  0  0  0  0  0  0  0  0  0  # atno 17370 bound_to 10713
  155.9685  130.4224  150.4516 LP  0  0  0  0  0  0  0  0  0  0  0  0  # atno 17371 bound_to 10713
  141.0686  134.0239  157.3558 LP  0  0  0  0  0  0  0  0  0  0  0  0  # atno 17394 bound_to 11000
  139.9122  135.0192  156.7738 LP  0  0  0  0  0  0  0  0  0  0  0  0  # atno 17395 bound_to 11000

$$$$
