AV-unprocessed.smi:1741|AV-procd|sdf|7019|dock5
  -GOLD-   22720 8233D 1   1.00000     0.00000
 Structure written by MMmdl.
 38 39  0  0  0  0  0  0  0  0  1 V2000
  150.2939  128.8128  153.6291 C   0  0  0  0  0  0  0  0  0  0  0  0
  149.0731  129.7234  153.8046 C   0  0  0  0  0  0  0  0  0  0  0  0
  149.4528  131.0423  154.2717 N   0  0  0  0  0  0  0  0  0  0  0  0
  149.2834  132.2554  153.6344 C   0  0  0  0  0  0  0  0  0  0  0  0
  149.7933  133.1936  154.4804 C   0  0  0  0  0  0  0  0  0  0  0  0
  149.8188  134.5870  154.2226 N   0  0  0  0  0  0  0  0  0  0  0  0
  150.4640  135.5317  154.9254 C   0  0  0  0  0  0  0  0  0  0  0  0
  151.1782  135.3196  155.9051 O   0  0  0  0  0  0  0  0  0  0  0  0
  150.2318  136.7523  154.4220 N   0  0  0  0  0  0  0  0  0  0  0  0
  150.7601  138.0087  154.9502 C   0  0  1  0  0  0  0  0  0  0  0  0
  152.2573  138.1105  154.6210 C   0  0  0  0  0  0  0  0  0  0  0  0
  149.9578  139.1941  154.3793 C   0  0  1  0  0  0  0  0  0  0  0  0
  148.4484  139.1156  154.6241 C   0  0  0  0  0  0  0  0  0  0  0  0
  148.0507  140.5722  154.5715 C   0  0  0  0  0  0  0  0  0  0  0  0
  149.2312  141.2372  155.2710 C   0  0  0  0  0  0  0  0  0  0  0  0
  150.3630  140.4169  154.9929 O   0  0  0  0  0  0  0  0  0  0  0  0
  150.2572  132.4784  155.6205 C   0  0  0  0  0  0  0  0  0  0  0  0
  150.0454  131.1781  155.4836 N   0  0  0  0  0  0  0  0  0  0  0  0
  149.9933  127.8235  153.2840 H   0  0  0  0  0  0  0  0  0  0  0  0
  150.8312  128.6889  154.5700 H   0  0  0  0  0  0  0  0  0  0  0  0
  150.9901  129.2230  152.8967 H   0  0  0  0  0  0  0  0  0  0  0  0
  148.5354  129.8244  152.8607 H   0  0  0  0  0  0  0  0  0  0  0  0
  148.3763  129.2870  154.5210 H   0  0  0  0  0  0  0  0  0  0  0  0
  148.8237  132.3409  152.6607 H   0  0  0  0  0  0  0  0  0  0  0  0
  149.2775  134.8987  153.4297 H   0  0  0  0  0  0  0  0  0  0  0  0
  149.6336  136.8223  153.6121 H   0  0  0  0  0  0  0  0  0  0  0  0
  150.6499  138.0278  156.0361 H   0  0  0  0  0  0  0  0  0  0  0  0
  152.6869  139.0285  155.0229 H   0  0  0  0  0  0  0  0  0  0  0  0
  152.4289  138.1068  153.5442 H   0  0  0  0  0  0  0  0  0  0  0  0
  152.8115  137.2753  155.0505 H   0  0  0  0  0  0  0  0  0  0  0  0
  150.1362  139.2892  153.3067 H   0  0  0  0  0  0  0  0  0  0  0  0
  147.9276  138.5041  153.8869 H   0  0  0  0  0  0  0  0  0  0  0  0
  148.2392  138.7086  155.6148 H   0  0  0  0  0  0  0  0  0  0  0  0
  147.9886  140.9066  153.5351 H   0  0  0  0  0  0  0  0  0  0  0  0
  147.0960  140.7766  155.0566 H   0  0  0  0  0  0  0  0  0  0  0  0
  149.3890  142.2628  154.9363 H   0  0  0  0  0  0  0  0  0  0  0  0
  149.0737  141.2538  156.3501 H   0  0  0  0  0  0  0  0  0  0  0  0
  150.7265  132.8387  156.5238 H   0  0  0  0  0  0  0  0  0  0  0  0
  1  2  1  0  0  0  0
  1 19  1  0  0  0  0
  1 20  1  0  0  0  0
  1 21  1  0  0  0  0
  2  3  1  0  0  0  0
  2 22  1  0  0  0  0
  2 23  1  0  0  0  0
  3 18  1  0  0  0  0
  3  4  1  0  0  0  0
  4  5  2  0  0  0  0
  4 24  1  0  0  0  0
  5  6  1  0  0  0  0
  5 17  1  0  0  0  0
  6  7  1  0  0  0  0
  6 25  1  0  0  0  0
  7  8  2  0  0  0  0
  7  9  1  0  0  0  0
  9 10  1  0  0  0  0
  9 26  1  0  0  0  0
 10 11  1  0  0  0  0
 10 12  1  0  0  0  0
 10 27  1  0  0  0  0
 11 28  1  0  0  0  0
 11 29  1  0  0  0  0
 11 30  1  0  0  0  0
 12 16  1  0  0  0  0
 12 13  1  0  0  0  0
 12 31  1  0  0  0  0
 13 14  1  0  0  0  0
 13 32  1  0  0  0  0
 13 33  1  0  0  0  0
 14 15  1  0  0  0  0
 14 34  1  0  0  0  0
 14 35  1  0  0  0  0
 15 16  1  0  0  0  0
 15 36  1  0  0  0  0
 15 37  1  0  0  0  0
 17 18  2  0  0  0  0
 17 38  1  0  0  0  0
M  END
> <s_m_source_file>
AV-unprocessed.smi

> <i_m_source_file_index>
1741

> <i_lp_mmshare_version>
43012

> <i_f3d_flags>
0

> <s_epik_input>
W0NIM11bQ0gyXW4xW2NIXWMoW2NIXW4xKVtOSF1DKD1PKVtOSF1bQ0BIXShbQ0gzXSlbQ0BASF0yW0NIMl1bQ0gyXVtDSDJdTzI=

> <s_epik_cmdline>
J2VwaWtfcHl0aG9uJywgJy1waCcsICc3LjAnLCAnLXRuJywgJzgnLCAnLW1hJywgJzIwMCcsICctbWV0YWxfYmluZGluZycsICctaW1hZScsICc8aW5maWxlLm1hZT4nLCAnLW9tYWUnLCAnPG91dGZpbGUubWFlPic=

> <r_lp_tautomer_probability>
1

> <r_epik_Ionization_Penalty>
0.000179292

> <r_epik_Ionization_Penalty_Charging>
0

> <r_epik_Ionization_Penalty_Neutral>
0.000179292

> <r_epik_State_Penalty>
-0

> <r_epik_Charging_Adjusted_Penalty>
0

> <i_epik_Tot_Q>
0

> <i_epik_Tot_abs_Q>
0

> <r_epik_Metal_State_Penalty>
-0

> <b_epik_Metal_Only>
0

> <s_lp_Force_Field>
OPLS_2005

> <r_lp_Energy>
21.0752

> <b_lp_Chiralities_Consistent>
1

> <s_lp_Variant>
AV-unprocessed.smi:1741-4

> <Gold.Version>
5.8.1

> <Gold.Id.Protein>
6NUR|6NUR_protein|mol2

> <Gold.PLP.Fitness>
44.9223

> <Gold.PLP.PLP>
-34.2086

> <Gold.PLP.part.hbond>
-4.7569

> <Gold.PLP.part.metal>
0.0000

> <Gold.PLP.part.buried>
-0.6773

> <Gold.PLP.part.nonpolar>
-28.4785

> <Gold.PLP.part.repulsive>
0.2559

> <Gold.PLP.ligand.clash>
0.0000

> <Gold.PLP.ligand.torsion>
0.2358

> <Gold.PLP.Chemscore.Hbond>
3.7238

> <Gold.PLP.Chemscore.CHOScore>
0.0000

> <Gold.PLP.Chemscore.Metal>
0.0000

> <Gold.Chemscore.Hbonds>
donor molecule, donor type, donor heavy atom, donor atom, acceptor molecule, acceptor atom, score
      L1  H     6    25       P1  7948  0.68
      L1  H     9    26       P1  7948  1.00
      P1  H  7989  7998       L1    16  0.65
      P1  H 10752 10765       L1     8  0.69
      L1  C     4    24       P1 10747  0.35

> <Gold.PLP.Chemscore.Internal.Correction>
0.0140

> <Gold.Rescore>
     Score         DG    S(hbond)    S(metal)    S(lipo)     H(rot)  DE(clash)    DE(int)     intcor
     14.88     -16.33       1.87        0.00      69.58       1.38       0.16       1.30       ----

> <Gold.Chemscore.Fitness>
14.8821

> <Gold.Chemscore.DG>
-16.3324

> <Gold.Chemscore.ZeroCoef>
-5.4800

> <Gold.Chemscore.Hbond>
1.8688

> <Gold.Chemscore.Metal>
0.0000

> <Gold.Chemscore.Lipo>
69.5804

> <Gold.Chemscore.Internal_Hbond>
0.0000

> <Gold.Chemscore.DEClash>
0.1550

> <Gold.Chemscore.DEInternal>
1.2953

> <Gold.Chemscore.Rot>
1.3790

> <Gold.Chemscore.Internal.Correction>
   9.000000E+99

> <Gold.Chemscore.Hbonds>
donor molecule, donor type, donor heavy atom, donor atom, acceptor molecule, acceptor atom, score
      L1  H     6    25       P1  7948  0.06
      L1  H     9    26       P1  7948  0.67
      P1  H  7989  7998       L1    16  0.05
      P1  H 10752 10765       L1     8  0.26

> <Gold.Chemscore.Hbond.Weighted>
-6.2417

> <Gold.Chemscore.Metal.Weighted>
-0.0000

> <Gold.Chemscore.Lipo.Weighted>
-8.1409

> <Gold.Chemscore.Internal_Hbond.Weighted>
0.0000

> <Gold.Chemscore.DEClash.Weighted>
0.1550

> <Gold.Chemscore.DEInternal.Weighted>
1.2953

> <Gold.Chemscore.Rot.Weighted>
3.5302

> <Gold.Chemscore.Internal.Correction.Weighted>
   9.000000E+99

> <Gold.Protein.RotatedTorsions>
[ 6907 6896 6895 6894 ] final  -51.07 input  -60.11 | X-H torsion
[ 7974 7965 7964 7962 ] final   60.24 input  175.53 | X-H torsion
[ 8008 7997 7996 7995 ] final -126.62 input   59.86 | X-H torsion
[ 10167 10162 10161 10158 ] final -154.42 input  -65.29 | X-H torsion
[ 10718 10713 10712 10709 ] final  100.18 input   66.30 | X-H torsion
[ 10763 10752 10751 10750 ] final -147.31 input  -60.55 | X-H torsion
[ 11005 11000 10999 10996 ] final   71.43 input  -57.11 | X-H torsion

> <Gold.Protein.ActiveResidues>
 VAL166  LYS551  ARG553  GLY616  TRP617  ASP618  TYR619  PRO620  LYS621  CYS622 
 ASP623  PHE694  ASN695  SER759  ASP760  ASP761  ALA762  ILE779  LEU786  VAL792 
 PHE793  MET794  SER795  GLU796  ALA797  LYS798  CYS799  TRP800  GLU811  SER814 

> <Gold.Protein.RotatedAtoms>
  150.8646  134.8007  159.7108 H   0  0  0  0  0  0  0  0  0  0  0  0  # atno 6907 bound_to 6896
  152.4672  134.5044  159.9744 H   0  0  0  0  0  0  0  0  0  0  0  0  # atno 6908 bound_to 6896
  151.5142  133.3440  159.2926 H   0  0  0  0  0  0  0  0  0  0  0  0  # atno 6909 bound_to 6896
  145.8982  139.3561  143.0608 H   0  0  0  0  0  0  0  0  0  0  0  0  # atno 7974 bound_to 7965
  155.2327  140.0426  157.2964 H   0  0  0  0  0  0  0  0  0  0  0  0  # atno 8008 bound_to 7997
  154.5878  140.2418  155.7933 H   0  0  0  0  0  0  0  0  0  0  0  0  # atno 8009 bound_to 7997
  156.2238  140.2961  156.0026 H   0  0  0  0  0  0  0  0  0  0  0  0  # atno 8010 bound_to 7997
  139.7015  143.9256  152.2430 H   0  0  0  0  0  0  0  0  0  0  0  0  # atno 10167 bound_to 10162
  157.6860  131.0691  150.5061 H   0  0  0  0  0  0  0  0  0  0  0  0  # atno 10718 bound_to 10713
  154.8292  135.3363  154.6798 H   0  0  0  0  0  0  0  0  0  0  0  0  # atno 10763 bound_to 10752
  153.7420  135.6945  153.4969 H   0  0  0  0  0  0  0  0  0  0  0  0  # atno 10764 bound_to 10752
  153.2237  135.4440  155.0469 H   0  0  0  0  0  0  0  0  0  0  0  0  # atno 10765 bound_to 10752
  139.9544  134.7170  156.0788 H   0  0  0  0  0  0  0  0  0  0  0  0  # atno 11005 bound_to 11000
  145.8824  140.9354  143.0594 LP  0  0  0  0  0  0  0  0  0  0  0  0  # atno 17320 bound_to 7965
  144.6734  140.0797  143.7470 LP  0  0  0  0  0  0  0  0  0  0  0  0  # atno 17321 bound_to 7965
  139.9099  144.6862  150.8573 LP  0  0  0  0  0  0  0  0  0  0  0  0  # atno 17342 bound_to 10162
  140.7711  143.3451  151.2128 LP  0  0  0  0  0  0  0  0  0  0  0  0  # atno 17343 bound_to 10162
  156.5380  130.4201  149.6168 LP  0  0  0  0  0  0  0  0  0  0  0  0  # atno 17370 bound_to 10713
  156.3010  130.7177  151.2048 LP  0  0  0  0  0  0  0  0  0  0  0  0  # atno 17371 bound_to 10713
  141.1213  133.6612  156.3221 LP  0  0  0  0  0  0  0  0  0  0  0  0  # atno 17394 bound_to 11000
  140.5644  134.5902  157.5442 LP  0  0  0  0  0  0  0  0  0  0  0  0  # atno 17395 bound_to 11000

$$$$
