#       Name:                AV-unprocessed.smi:290
#       Creating user name   scv26
#       Creation time:       Thu Mar 26 22:12:16 2020


#       File generated by GOLD software.
#

@<TRIPOS>MOLECULE
AV-unprocessed.smi:290
    69    72     1
SMALL
NO_CHARGES


@<TRIPOS>ATOM
      1 ****        -5.9806  -4.1602   0.2394 C.3            1 S1                 0.0000
      2 ****        -5.4275  -3.3448  -0.9399 C.3            1 S1                 0.0000
      3 ****        -5.3584  -4.2089  -2.0710 O.3            1 S1                 0.0000
      4 ****        -4.3013  -3.7779  -2.9092 C.3            1 S1                 0.0000
      5 ****        -3.2169  -3.4206  -1.9046 C.3            1 S1                 0.0000
      6 ****        -3.9987  -2.7521  -0.7761 C.3            1 S1                 0.0000
      7 ****        -4.0698  -1.3658  -1.0661 O.3            1 S1                 0.0000
      8 ****        -3.3382  -2.9214   0.6176 C.3            1 S1                 0.0000
      9 ****        -1.9921  -2.3742   0.6886 N.pl3          1 S1                 0.0000
     10 ****        -0.8165  -3.0336   0.4102 C.2            1 S1                 0.0000
     11 ****         0.2668  -2.3183   0.5419 N.2            1 S1                 0.0000
     12 ****        -0.1946  -1.0699   0.9447 C.ar           1 S1                 0.0000
     13 ****         0.4371   0.1684   1.2592 C.ar           1 S1                 0.0000
     14 ****         1.7830   0.3504   1.1802 N.3            1 S1                 0.0000
     15 ****         2.4467  -0.1362  -0.0289 C.3            1 S1                 0.0000
     16 ****         3.4256   0.9632  -0.4606 C.3            1 S1                 0.0000
     17 ****         2.9109   2.2058   0.2790 C.3            1 S1                 0.0000
     18 ****         3.8900   3.3214   0.4219 N.4            1 S1                 1.0000
     19 ****         3.3471   4.4788   1.1764 C.3            1 S1                 0.0000
     20 ****         4.5767   3.7272  -0.8389 C.3            1 S1                 0.0000
     21 ****         3.6838   4.4339  -1.8835 C.3            1 S1                 0.0000
     22 ****         2.8921   3.5133  -2.6027 O.3            1 S1                 0.0000
     23 ****         2.4244   1.5939   1.6065 C.3            1 S1                 0.0000
     24 ****         3.5473   1.2766   2.6170 C.3            1 S1                 0.0000
     25 ****        -0.3682   1.1930   1.6471 N.ar           1 S1                 0.0000
     26 ****        -1.6927   1.0301   1.7125 C.ar           1 S1                 0.0000
     27 ****        -2.4129  -0.0582   1.4386 N.ar           1 S1                 0.0000
     28 ****        -1.6141  -1.0944   1.0550 C.ar           1 S1                 0.0000
     29 ****         2.0364   2.5837  -0.2540 H              1 S1                 0.0000
     30 ****         1.7339   2.2834   2.0904 H              1 S1                 0.0000
     31 ****        -6.0730  -3.5501   1.1379 H              1 S1                 0.0000
     32 ****        -5.3445  -5.0152   0.4692 H              1 S1                 0.0000
     33 ****        -6.9729  -4.5470   0.0063 H              1 S1                 0.0000
     34 ****        -6.1421  -2.5537  -1.1753 H              1 S1                 0.0000
     35 ****        -3.9936  -4.5585  -3.6051 H              1 S1                 0.0000
     36 ****        -4.6140  -2.9032  -3.4820 H              1 S1                 0.0000
     37 ****        -2.7553  -4.3421  -1.5470 H              1 S1                 0.0000
     38 ****        -2.4279  -2.7966  -2.3271 H              1 S1                 0.0000
     39 ****        -4.5691  -0.9409  -0.3853 H              1 S1                 0.0000
     40 ****        -3.9422  -2.4397   1.3876 H              1 S1                 0.0000
     41 ****        -3.2785  -3.9764   0.8865 H              1 S1                 0.0000
     42 ****        -0.7869  -4.0677   0.0994 H              1 S1                 0.0000
     43 ****         2.9622  -1.0776   0.1630 H              1 S1                 0.0000
     44 ****         1.7200  -0.3074  -0.8247 H              1 S1                 0.0000
     45 ****         4.4349   0.7105  -0.1338 H              1 S1                 0.0000
     46 ****         3.4491   1.0829  -1.5435 H              1 S1                 0.0000
     47 ****         2.4394   4.8672   0.7138 H              1 S1                 0.0000
     48 ****         4.0776   5.2866   1.2301 H              1 S1                 0.0000
     49 ****         3.1003   4.2031   2.2010 H              1 S1                 0.0000
     50 ****         5.3736   4.4157  -0.5551 H              1 S1                 0.0000
     51 ****         5.0904   2.8777  -1.2894 H              1 S1                 0.0000
     52 ****         3.0520   5.2040  -1.4428 H              1 S1                 0.0000
     53 ****         4.3201   4.9405  -2.6094 H              1 S1                 0.0000
     54 ****         2.3976   3.9842  -3.2567 H              1 S1                 0.0000
     55 ****         4.0673   2.1763   2.9444 H              1 S1                 0.0000
     56 ****         4.2930   0.5950   2.2077 H              1 S1                 0.0000
     57 ****         3.1341   0.8045   3.5088 H              1 S1                 0.0000
     58 ****        -2.2561   1.8965   2.0265 H              1 S1                 0.0000
     59 ****         4.6272   2.9471   1.0021 H              1 S1                 0.0000
     60 ****        -6.2220  -4.1742  -2.5740 LP             1 S1                 0.0000
     61 ****        -5.1866  -5.1463  -1.7681 LP             1 S1                 0.0000
     62 ****        -4.5191  -1.2288  -1.9489 LP             1 S1                 0.0000
     63 ****        -3.1476  -0.9805  -1.0980 LP             1 S1                 0.0000
     64 ****         1.2130  -2.6030   0.3883 LP             1 S1                 0.0000
     65 ****         1.9395  -0.2686   1.9499 LP             1 S1                 0.0000
     66 ****         2.2654   3.0481  -1.9775 LP             1 S1                 0.0000
     67 ****         3.4811   2.8386  -3.0475 LP             1 S1                 0.0000
     68 ****         0.0346   2.0766   1.8857 LP             1 S1                 0.0000
     69 ****        -3.4094  -0.1079   1.5058 LP             1 S1                 0.0000
@<TRIPOS>BOND
    1    1    2 1     
    2    1   31 1     
    3    1   32 1     
    4    1   33 1     
    5    2    6 1     
    6    2    3 1     
    7    2   34 1     
    8    3    4 1     
    9    4    5 1     
   10    4   35 1     
   11    4   36 1     
   12    5    6 1     
   13    5   37 1     
   14    5   38 1     
   15    6    7 1     
   16    6    8 1     
   17    7   39 1     
   18    8    9 1     
   19    8   40 1     
   20    8   41 1     
   21    9   28 1     
   22    9   10 1     
   23   10   11 2     
   24   10   42 1     
   25   11   12 1     
   26   12   28 ar    
   27   12   13 ar    
   28   13   14 1     
   29   13   25 ar    
   30   14   23 1     
   31   14   15 1     
   32   15   16 1     
   33   15   43 1     
   34   15   44 1     
   35   16   17 1     
   36   16   45 1     
   37   16   46 1     
   38   17   29 1     
   39   17   18 1     
   40   17   23 1     
   41   18   19 1     
   42   18   20 1     
   43   18   59 1     
   44   19   47 1     
   45   19   48 1     
   46   19   49 1     
   47   20   21 1     
   48   20   50 1     
   49   20   51 1     
   50   21   22 1     
   51   21   52 1     
   52   21   53 1     
   53   22   54 1     
   54   23   30 1     
   55   23   24 1     
   56   24   55 1     
   57   24   56 1     
   58   24   57 1     
   59   25   26 ar    
   60   26   27 ar    
   61   26   58 1     
   62   27   28 ar    
   63    3   60 1     
   64    3   61 1     
   65    7   62 1     
   66    7   63 1     
   67   11   64 1     
   68   14   65 1     
   69   22   66 1     
   70   22   67 1     
   71   25   68 1     
   72   27   69 1     
@<TRIPOS>SUBSTRUCTURE
      1 S1             1
@<TRIPOS>SET
LONE_PAIRS      STATIC     ATOMS    <user>   **** ""
10 60 61 62 63 64 65 66 67 68 69
DONOR_HYDROGENS      STATIC     ATOMS    <user>   **** ""
3 39 59 54
ATOM$BLUE        STATIC     ATOMS    COLORGROUP SYSTEM
10 60 61 62 63 64 65 66 67 68 69
ATOM$RED        STATIC     ATOMS    COLORGROUP SYSTEM
3 39 59 54
