AV-unprocessed.smi:1912|AV-procd|sdf|7748|dock2
  -GOLD-   22720 9483D 1   1.00000     0.00000
 Structure written by MMmdl.
 43 45  0  0  0  0  0  0  0  0  1 V2000
  154.4689  138.2790  161.0749 C   0  0  0  0  0  0  0  0  0  0  0  0
  154.5564  139.6822  161.2764 O   0  0  0  0  0  0  0  0  0  0  0  0
  153.7530  140.5003  160.5111 C   0  0  0  0  0  0  0  0  0  0  0  0
  153.8886  141.8880  160.6997 C   0  0  0  0  0  0  0  0  0  0  0  0
  153.1173  142.7968  159.9531 C   0  0  0  0  0  0  0  0  0  0  0  0
  152.1800  142.3335  158.9972 C   0  0  0  0  0  0  0  0  0  0  0  0
  151.4075  143.1752  158.2222 O   0  0  0  0  0  0  0  0  0  0  0  0
  151.9297  144.4493  157.8771 C   0  0  0  0  0  0  0  0  0  0  0  0
  152.0246  140.9376  158.8130 C   0  0  0  0  0  0  0  0  0  0  0  0
  151.0241  140.4133  157.7864 C   0  0  2  0  0  0  0  0  0  0  0  0
  150.9364  139.0004  157.7672 O   0  0  0  0  0  0  0  0  0  0  0  0
  151.3550  140.9361  156.3747 C   0  0  0  0  0  0  0  0  0  0  0  0
  150.6268  140.2311  155.3293 N   0  0  0  0  0  0  0  0  0  0  0  0
  150.9550  139.0567  154.7370 C   0  0  0  0  0  0  0  0  0  0  0  0
  152.1851  138.2955  155.1204 C   0  0  0  0  0  0  0  0  0  0  0  0
  150.1132  138.6233  153.7986 N   0  0  0  0  0  0  0  0  0  0  0  0
  149.1446  139.6087  153.7827 C   0  0  0  0  0  0  0  0  0  0  0  0
  147.9735  139.7323  153.0012 C   0  0  0  0  0  0  0  0  0  0  0  0
  147.1208  140.8442  153.1638 C   0  0  0  0  0  0  0  0  0  0  0  0
  147.4270  141.8467  154.1068 C   0  0  0  0  0  0  0  0  0  0  0  0
  148.5893  141.7435  154.8950 C   0  0  0  0  0  0  0  0  0  0  0  0
  149.4361  140.6309  154.7304 C   0  0  0  0  0  0  0  0  0  0  0  0
  152.8151  140.0334  159.5589 C   0  0  0  0  0  0  0  0  0  0  0  0
  155.1658  137.7751  161.7445 H   0  0  0  0  0  0  0  0  0  0  0  0
  154.7379  138.0051  160.0538 H   0  0  0  0  0  0  0  0  0  0  0  0
  153.4686  137.9056  161.2983 H   0  0  0  0  0  0  0  0  0  0  0  0
  154.5989  142.2621  161.4224 H   0  0  0  0  0  0  0  0  0  0  0  0
  153.2683  143.8501  160.1327 H   0  0  0  0  0  0  0  0  0  0  0  0
  151.2040  144.9782  157.2592 H   0  0  0  0  0  0  0  0  0  0  0  0
  152.8509  144.3604  157.2998 H   0  0  0  0  0  0  0  0  0  0  0  0
  152.1138  145.0581  158.7632 H   0  0  0  0  0  0  0  0  0  0  0  0
  150.0299  140.7570  158.0713 H   0  0  0  0  0  0  0  0  0  0  0  0
  150.9559  138.6877  158.6587 H   0  0  0  0  0  0  0  0  0  0  0  0
  151.1206  141.9983  156.3012 H   0  0  0  0  0  0  0  0  0  0  0  0
  152.4247  140.8513  156.1788 H   0  0  0  0  0  0  0  0  0  0  0  0
  152.2811  137.3935  154.5148 H   0  0  0  0  0  0  0  0  0  0  0  0
  152.1355  137.9997  156.1683 H   0  0  0  0  0  0  0  0  0  0  0  0
  153.0749  138.9057  154.9672 H   0  0  0  0  0  0  0  0  0  0  0  0
  147.7306  138.9701  152.2758 H   0  0  0  0  0  0  0  0  0  0  0  0
  146.2279  140.9284  152.5619 H   0  0  0  0  0  0  0  0  0  0  0  0
  146.7693  142.6954  154.2247 H   0  0  0  0  0  0  0  0  0  0  0  0
  148.8283  142.5112  155.6157 H   0  0  0  0  0  0  0  0  0  0  0  0
  152.6923  138.9756  159.3843 H   0  0  0  0  0  0  0  0  0  0  0  0
  1  2  1  0  0  0  0
  1 24  1  0  0  0  0
  1 25  1  0  0  0  0
  1 26  1  0  0  0  0
  2  3  1  0  0  0  0
  3 23  1  0  0  0  0
  3  4  2  0  0  0  0
  4  5  1  0  0  0  0
  4 27  1  0  0  0  0
  5  6  2  0  0  0  0
  5 28  1  0  0  0  0
  6  7  1  0  0  0  0
  6  9  1  0  0  0  0
  7  8  1  0  0  0  0
  8 29  1  0  0  0  0
  8 30  1  0  0  0  0
  8 31  1  0  0  0  0
  9 10  1  0  0  0  0
  9 23  2  0  0  0  0
 10 11  1  0  0  0  0
 10 12  1  0  0  0  0
 10 32  1  0  0  0  0
 11 33  1  0  0  0  0
 12 13  1  0  0  0  0
 12 34  1  0  0  0  0
 12 35  1  0  0  0  0
 13 22  1  0  0  0  0
 13 14  1  0  0  0  0
 14 15  1  0  0  0  0
 14 16  2  0  0  0  0
 15 36  1  0  0  0  0
 15 37  1  0  0  0  0
 15 38  1  0  0  0  0
 16 17  1  0  0  0  0
 17 22  2  0  0  0  0
 17 18  1  0  0  0  0
 18 19  2  0  0  0  0
 18 39  1  0  0  0  0
 19 20  1  0  0  0  0
 19 40  1  0  0  0  0
 20 21  2  0  0  0  0
 20 41  1  0  0  0  0
 21 22  1  0  0  0  0
 21 42  1  0  0  0  0
 23 43  1  0  0  0  0
M  END
> <s_m_source_file>
AV-unprocessed.smi

> <i_m_source_file_index>
1912

> <i_lp_mmshare_version>
43012

> <i_f3d_flags>
0

> <s_epik_input>
W0NIM11PYzFbY0hdW2NIXWMoT1tDSDNdKWMoW2NIXTEpW0NASF0oW09IXSlbQ0gyXW4oYyhuMilbQ0gzXSljKGMyMylbY0hdW2NIXVtjSF1bY0hdMw==

> <s_epik_cmdline>
J2VwaWtfcHl0aG9uJywgJy1waCcsICc3LjAnLCAnLXRuJywgJzgnLCAnLW1hJywgJzIwMCcsICctbWV0YWxfYmluZGluZycsICctaW1hZScsICc8aW5maWxlLm1hZT4nLCAnLW9tYWUnLCAnPG91dGZpbGUubWFlPic=

> <r_lp_tautomer_probability>
1

> <r_epik_Ionization_Penalty>
0.129663

> <r_epik_Ionization_Penalty_Charging>
0

> <r_epik_Ionization_Penalty_Neutral>
0.129663

> <r_epik_State_Penalty>
0.119073

> <r_epik_Charging_Adjusted_Penalty>
0.119073

> <i_epik_Tot_Q>
0

> <i_epik_Tot_abs_Q>
0

> <r_epik_Metal_State_Penalty>
0.000131867

> <b_epik_Metal_Only>
0

> <s_lp_Force_Field>
OPLS_2005

> <r_lp_Energy>
18.8247

> <b_lp_Chiralities_Consistent>
1

> <s_lp_Variant>
AV-unprocessed.smi:1912-1

> <Gold.Version>
5.8.1

> <Gold.Id.Protein>
6NUR|6NUR_protein|mol2

> <Gold.PLP.Fitness>
46.3151

> <Gold.PLP.PLP>
-47.9311

> <Gold.PLP.part.hbond>
0.0000

> <Gold.PLP.part.metal>
0.0000

> <Gold.PLP.part.buried>
1.7342

> <Gold.PLP.part.nonpolar>
-49.9480

> <Gold.PLP.part.repulsive>
0.5700

> <Gold.PLP.ligand.clash>
0.0000

> <Gold.PLP.ligand.torsion>
0.8610

> <Gold.PLP.Chemscore.Hbond>
0.0000

> <Gold.PLP.Chemscore.CHOScore>
0.0000

> <Gold.PLP.Chemscore.Metal>
0.0000

> <Gold.PLP.Chemscore.Internal.Correction>
0.1059

> <Gold.Rescore>
     Score         DG    S(hbond)    S(metal)    S(lipo)     H(rot)  DE(clash)    DE(int)     intcor
     13.10     -15.29       0.00        0.00     131.32       2.17       0.04       2.15       ----

> <Gold.Chemscore.Fitness>
13.1012

> <Gold.Chemscore.DG>
-15.2914

> <Gold.Chemscore.ZeroCoef>
-5.4800

> <Gold.Chemscore.Hbond>
0.0000

> <Gold.Chemscore.Metal>
0.0000

> <Gold.Chemscore.Lipo>
131.3163

> <Gold.Chemscore.Internal_Hbond>
0.0000

> <Gold.Chemscore.DEClash>
0.0431

> <Gold.Chemscore.DEInternal>
2.1470

> <Gold.Chemscore.Rot>
2.1690

> <Gold.Chemscore.Internal.Correction>
   9.000000E+99

> <Gold.Chemscore.Hbond.Weighted>
-0.0000

> <Gold.Chemscore.Metal.Weighted>
-0.0000

> <Gold.Chemscore.Lipo.Weighted>
-15.3640

> <Gold.Chemscore.Internal_Hbond.Weighted>
0.0000

> <Gold.Chemscore.DEClash.Weighted>
0.0431

> <Gold.Chemscore.DEInternal.Weighted>
2.1470

> <Gold.Chemscore.Rot.Weighted>
5.5526

> <Gold.Chemscore.Internal.Correction.Weighted>
   9.000000E+99

> <Gold.Protein.RotatedTorsions>
[ 6907 6896 6895 6894 ] final   -9.81 input  -60.11 | X-H torsion
[ 7974 7965 7964 7962 ] final -147.28 input  175.53 | X-H torsion
[ 8008 7997 7996 7995 ] final  -78.23 input   59.86 | X-H torsion
[ 10167 10162 10161 10158 ] final   28.03 input  -65.29 | X-H torsion
[ 10718 10713 10712 10709 ] final   74.01 input   66.30 | X-H torsion
[ 10763 10752 10751 10750 ] final -102.60 input  -60.55 | X-H torsion
[ 11005 11000 10999 10996 ] final   19.48 input  -57.11 | X-H torsion

> <Gold.Protein.ActiveResidues>
 VAL166  LYS551  ARG553  GLY616  TRP617  ASP618  TYR619  PRO620  LYS621  CYS622 
 ASP623  PHE694  ASN695  SER759  ASP760  ASP761  ALA762  ILE779  LEU786  VAL792 
 PHE793  MET794  SER795  GLU796  ALA797  LYS798  CYS799  TRP800  GLU811  SER814 

> <Gold.Protein.RotatedAtoms>
  151.4119  135.0986  159.9587 H   0  0  0  0  0  0  0  0  0  0  0  0  # atno 6907 bound_to 6896
  152.5017  133.8789  159.7347 H   0  0  0  0  0  0  0  0  0  0  0  0  # atno 6908 bound_to 6896
  150.9286  133.6737  159.2844 H   0  0  0  0  0  0  0  0  0  0  0  0  # atno 6909 bound_to 6896
  144.8104  140.5347  143.5646 H   0  0  0  0  0  0  0  0  0  0  0  0  # atno 7974 bound_to 7965
  154.5670  140.0697  156.8907 H   0  0  0  0  0  0  0  0  0  0  0  0  # atno 8008 bound_to 7997
  155.2704  140.3365  155.4247 H   0  0  0  0  0  0  0  0  0  0  0  0  # atno 8009 bound_to 7997
  156.2088  140.1751  156.7725 H   0  0  0  0  0  0  0  0  0  0  0  0  # atno 8010 bound_to 7997
  140.4887  144.0501  150.6289 H   0  0  0  0  0  0  0  0  0  0  0  0  # atno 10167 bound_to 10162
  157.6573  130.9657  150.1150 H   0  0  0  0  0  0  0  0  0  0  0  0  # atno 10718 bound_to 10713
  154.7745  135.4855  153.9717 H   0  0  0  0  0  0  0  0  0  0  0  0  # atno 10763 bound_to 10752
  153.1411  135.6773  153.9033 H   0  0  0  0  0  0  0  0  0  0  0  0  # atno 10764 bound_to 10752
  153.8707  135.3144  155.3420 H   0  0  0  0  0  0  0  0  0  0  0  0  # atno 10765 bound_to 10752
  140.4133  134.1596  155.7668 H   0  0  0  0  0  0  0  0  0  0  0  0  # atno 11005 bound_to 11000
  145.5338  139.1475  143.3485 LP  0  0  0  0  0  0  0  0  0  0  0  0  # atno 17320 bound_to 7965
  146.2401  140.5478  142.8937 LP  0  0  0  0  0  0  0  0  0  0  0  0  # atno 17321 bound_to 7965
  140.3764  143.2826  152.0220 LP  0  0  0  0  0  0  0  0  0  0  0  0  # atno 17342 bound_to 10162
  139.4847  144.6189  151.7292 LP  0  0  0  0  0  0  0  0  0  0  0  0  # atno 17343 bound_to 10162
  156.2037  130.3662  149.8756 LP  0  0  0  0  0  0  0  0  0  0  0  0  # atno 17370 bound_to 10713
  156.6653  130.8798  151.3554 LP  0  0  0  0  0  0  0  0  0  0  0  0  # atno 17371 bound_to 10713
  141.1813  133.8408  157.1248 LP  0  0  0  0  0  0  0  0  0  0  0  0  # atno 17394 bound_to 11000
  140.0252  134.9927  157.0672 LP  0  0  0  0  0  0  0  0  0  0  0  0  # atno 17395 bound_to 11000

$$$$
