AV-unprocessed.smi:2609|AV-procd|sdf|10207|dock3
  -GOLD-   2272014213D 1   1.00000     0.00000
 Structure written by MMmdl.
 24 25  0  0  0  0  0  0  0  0  2 V2000
  152.1406  138.6815  155.5400 O   0  0  0  0  0  0  0  0  0  0  0  0
  151.7717  139.7098  156.1034 C   0  0  0  0  0  0  0  0  0  0  0  0
  150.6194  140.4435  155.5809 C   0  0  0  0  0  0  0  0  0  0  0  0
  150.2381  141.5713  156.2230 C   0  0  0  0  0  0  0  0  0  0  0  0
  150.9099  142.0457  157.3585 N   0  0  0  0  0  0  0  0  0  0  0  0
  151.9185  141.3829  157.7968 C   0  0  0  0  0  0  0  0  0  0  0  0
  152.6655  141.8806  159.0318 C   0  0  0  0  0  0  0  0  0  0  0  0
  152.7614  140.8072  160.1312 C   0  0  0  0  0  0  0  0  0  0  0  0
  153.4841  141.3693  161.3664 C   0  0  0  0  0  0  0  0  0  0  0  0
  152.8125  142.5336  161.8377 O   0  0  0  0  0  0  0  0  0  0  0  0
  152.7990  143.5923  160.8849 C   0  0  0  0  0  0  0  0  0  0  0  0
  152.0376  143.1560  159.6224 C   0  0  0  0  0  0  0  0  0  0  0  0
  152.3862  140.2196  157.2119 N   0  5  0  0  0  0  0  0  0  0  0  0
  150.0893  140.0936  154.7074 H   0  0  0  0  0  0  0  0  0  0  0  0
  149.3961  142.1579  155.8875 H   0  0  0  0  0  0  0  0  0  0  0  0
  153.6859  142.1305  158.7341 H   0  0  0  0  0  0  0  0  0  0  0  0
  151.7652  140.4723  160.4244 H   0  0  0  0  0  0  0  0  0  0  0  0
  153.2906  139.9291  159.7590 H   0  0  0  0  0  0  0  0  0  0  0  0
  153.4982  140.6244  162.1622 H   0  0  0  0  0  0  0  0  0  0  0  0
  154.5238  141.6058  161.1349 H   0  0  0  0  0  0  0  0  0  0  0  0
  152.3158  144.4616  161.3310 H   0  0  0  0  0  0  0  0  0  0  0  0
  153.8205  143.8879  160.6406 H   0  0  0  0  0  0  0  0  0  0  0  0
  152.0483  143.9604  158.8858 H   0  0  0  0  0  0  0  0  0  0  0  0
  150.9920  142.9813  159.8810 H   0  0  0  0  0  0  0  0  0  0  0  0
  1  2  2  0  0  0  0
  2  3  1  0  0  0  0
  2 13  1  0  0  0  0
  3 14  1  0  0  0  0
  3  4  2  0  0  0  0
  4 15  1  0  0  0  0
  4  5  1  0  0  0  0
  5  6  2  0  0  0  0
  6  7  1  0  0  0  0
  6 13  1  0  0  0  0
  7 12  1  0  0  0  0
  7  8  1  0  0  0  0
  7 16  1  0  0  0  0
  8  9  1  0  0  0  0
  8 17  1  0  0  0  0
  8 18  1  0  0  0  0
  9 10  1  0  0  0  0
  9 19  1  0  0  0  0
  9 20  1  0  0  0  0
 10 11  1  0  0  0  0
 11 12  1  0  0  0  0
 11 21  1  0  0  0  0
 11 22  1  0  0  0  0
 12 23  1  0  0  0  0
 12 24  1  0  0  0  0
M  CHG  1  13  -1
M  END
> <s_m_source_file>
AV-unprocessed.smi

> <i_m_source_file_index>
2609

> <i_lp_mmshare_version>
43012

> <i_f3d_flags>
0

> <s_epik_input>
Tz1jMVtjSF1bY0hdW25IXWMobjEpW0NIXTJbQ0gyXVtDSDJdT1tDSDJdW0NIMl0y

> <s_epik_cmdline>
J2VwaWtfcHl0aG9uJywgJy1waCcsICc3LjAnLCAnLXRuJywgJzgnLCAnLW1hJywgJzIwMCcsICctbWV0YWxfYmluZGluZycsICctaW1hZScsICc8aW5maWxlLm1hZT4nLCAnLW9tYWUnLCAnPG91dGZpbGUubWFlPic=

> <r_lp_tautomer_probability>
0.839158

> <r_epik_Ionization_Penalty>
6.39496

> <r_epik_Ionization_Penalty_Charging>
1.06807e-07

> <r_epik_Ionization_Penalty_Neutral>
6.39496

> <r_epik_State_Penalty>
4.27873

> <r_epik_Charging_Adjusted_Penalty>
4.27873

> <i_epik_Tot_Q>
-1

> <i_epik_Tot_abs_Q>
1

> <r_epik_Metal_State_Penalty>
0.734171

> <b_epik_Metal_Only>
1

> <s_lp_Force_Field>
OPLS_2005

> <r_lp_Energy>
16.3076

> <b_lp_Chiralities_Consistent>
1

> <s_lp_Variant>
AV-unprocessed.smi:2609-3

> <Gold.Version>
5.8.1

> <Gold.Id.Protein>
6NUR|6NUR_protein|mol2

> <Gold.PLP.Fitness>
34.6123

> <Gold.PLP.PLP>
-25.6737

> <Gold.PLP.part.hbond>
-1.0000

> <Gold.PLP.part.metal>
0.0000

> <Gold.PLP.part.buried>
-2.5897

> <Gold.PLP.part.nonpolar>
-21.2707

> <Gold.PLP.part.repulsive>
0.1341

> <Gold.PLP.ligand.clash>
0.0000

> <Gold.PLP.ligand.torsion>
0.0313

> <Gold.PLP.Chemscore.Hbond>
2.0000

> <Gold.PLP.Chemscore.CHOScore>
0.9958

> <Gold.PLP.Chemscore.Metal>
0.0000

> <Gold.Chemscore.Hbonds>
donor molecule, donor type, donor heavy atom, donor atom, acceptor molecule, acceptor atom, score
      P1  H  7997  8009       L1    13  1.70
      L1  C     4    15       P1  8028  0.77

> <Gold.PLP.Chemscore.Internal.Correction>
0.0139

> <Gold.Rescore>
     Score         DG    S(hbond)    S(metal)    S(lipo)     H(rot)  DE(clash)    DE(int)     intcor
     13.16     -13.16       0.87        0.00      62.78       1.00       0.00       0.01       ----

> <Gold.Chemscore.Fitness>
13.1567

> <Gold.Chemscore.DG>
-13.1636

> <Gold.Chemscore.ZeroCoef>
-5.4800

> <Gold.Chemscore.Hbond>
0.8676

> <Gold.Chemscore.Metal>
0.0000

> <Gold.Chemscore.Lipo>
62.7835

> <Gold.Chemscore.Internal_Hbond>
0.0000

> <Gold.Chemscore.DEClash>
0.0000

> <Gold.Chemscore.DEInternal>
0.0069

> <Gold.Chemscore.Rot>
1.0000

> <Gold.Chemscore.Internal.Correction>
   9.000000E+99

> <Gold.Chemscore.Hbonds>
donor molecule, donor type, donor heavy atom, donor atom, acceptor molecule, acceptor atom, score
      P1  H  7997  8009       L1    13  0.18

> <Gold.Chemscore.Hbond.Weighted>
-2.8979

> <Gold.Chemscore.Metal.Weighted>
-0.0000

> <Gold.Chemscore.Lipo.Weighted>
-7.3457

> <Gold.Chemscore.Internal_Hbond.Weighted>
0.0000

> <Gold.Chemscore.DEClash.Weighted>
0.0000

> <Gold.Chemscore.DEInternal.Weighted>
0.0069

> <Gold.Chemscore.Rot.Weighted>
2.5600

> <Gold.Chemscore.Internal.Correction.Weighted>
   9.000000E+99

> <Gold.Protein.RotatedTorsions>
[ 6907 6896 6895 6894 ] final   50.79 input  -60.11 | X-H torsion
[ 7974 7965 7964 7962 ] final   79.97 input  175.53 | X-H torsion
[ 8008 7997 7996 7995 ] final -175.52 input   59.86 | X-H torsion
[ 10167 10162 10161 10158 ] final   85.54 input  -65.29 | X-H torsion
[ 10718 10713 10712 10709 ] final -135.13 input   66.30 | X-H torsion
[ 10763 10752 10751 10750 ] final  -77.00 input  -60.55 | X-H torsion
[ 11005 11000 10999 10996 ] final -126.73 input  -57.11 | X-H torsion

> <Gold.Protein.ActiveResidues>
 VAL166  LYS551  ARG553  GLY616  TRP617  ASP618  TYR619  PRO620  LYS621  CYS622 
 ASP623  PHE694  ASN695  SER759  ASP760  ASP761  ALA762  ILE779  LEU786  VAL792 
 PHE793  MET794  SER795  GLU796  ALA797  LYS798  CYS799  TRP800  GLU811  SER814 

> <Gold.Protein.RotatedAtoms>
  152.3057  134.7558  160.0347 H   0  0  0  0  0  0  0  0  0  0  0  0  # atno 6907 bound_to 6896
  151.8056  133.3370  159.3548 H   0  0  0  0  0  0  0  0  0  0  0  0  # atno 6908 bound_to 6896
  150.7295  134.5642  159.5902 H   0  0  0  0  0  0  0  0  0  0  0  0  # atno 6909 bound_to 6896
  145.6573  139.2462  143.1943 H   0  0  0  0  0  0  0  0  0  0  0  0  # atno 7974 bound_to 7965
  155.9836  140.1186  157.0704 H   0  0  0  0  0  0  0  0  0  0  0  0  # atno 8008 bound_to 7997
  154.4190  140.1139  156.5537 H   0  0  0  0  0  0  0  0  0  0  0  0  # atno 8009 bound_to 7997
  155.6437  140.3473  155.4726 H   0  0  0  0  0  0  0  0  0  0  0  0  # atno 8010 bound_to 7997
  139.8967  144.6353  150.8680 H   0  0  0  0  0  0  0  0  0  0  0  0  # atno 10167 bound_to 10162
  156.2629  130.7220  151.1160 H   0  0  0  0  0  0  0  0  0  0  0  0  # atno 10718 bound_to 10713
  154.5072  135.5779  153.6576 H   0  0  0  0  0  0  0  0  0  0  0  0  # atno 10763 bound_to 10752
  152.9890  135.6150  154.2926 H   0  0  0  0  0  0  0  0  0  0  0  0  # atno 10764 bound_to 10752
  154.2838  135.2850  155.2665 H   0  0  0  0  0  0  0  0  0  0  0  0  # atno 10765 bound_to 10752
  140.9657  134.0874  157.3922 H   0  0  0  0  0  0  0  0  0  0  0  0  # atno 11005 bound_to 11000
  146.1155  140.7375  142.9483 LP  0  0  0  0  0  0  0  0  0  0  0  0  # atno 17320 bound_to 7965
  144.7101  140.4007  143.7087 LP  0  0  0  0  0  0  0  0  0  0  0  0  # atno 17321 bound_to 7965
  140.7715  143.3468  151.2095 LP  0  0  0  0  0  0  0  0  0  0  0  0  # atno 17342 bound_to 10162
  139.7061  143.9453  152.2927 LP  0  0  0  0  0  0  0  0  0  0  0  0  # atno 17343 bound_to 10162
  157.7257  131.0651  150.5942 LP  0  0  0  0  0  0  0  0  0  0  0  0  # atno 17370 bound_to 10713
  156.6031  130.4360  149.5889 LP  0  0  0  0  0  0  0  0  0  0  0  0  # atno 17371 bound_to 10713
  139.8894  135.0104  156.6675 LP  0  0  0  0  0  0  0  0  0  0  0  0  # atno 17394 bound_to 11000
  140.7402  133.8984  155.8273 LP  0  0  0  0  0  0  0  0  0  0  0  0  # atno 17395 bound_to 11000

$$$$
