AV-unprocessed.smi:3033|AV-procd|sdf|11575|dock5
  -GOLD-   2272016543D 1   1.00000     0.00000
 Structure written by MMmdl.
 32 33  0  0  0  0  0  0  0  0  2 V2000
  152.6643  145.2742  159.0795 C   0  0  0  0  0  0  0  0  0  0  0  0
  153.1106  143.9681  158.7451 O   0  0  0  0  0  0  0  0  0  0  0  0
  153.2211  143.0415  159.7597 C   0  0  0  0  0  0  0  0  0  0  0  0
  152.8664  143.2921  161.1090 C   0  0  0  0  0  0  0  0  0  0  0  0
  153.0053  142.2822  162.0805 C   0  0  0  0  0  0  0  0  0  0  0  0
  153.4994  141.0156  161.7194 C   0  0  0  0  0  0  0  0  0  0  0  0
  153.8630  140.7529  160.3830 C   0  0  0  0  0  0  0  0  0  0  0  0
  154.3852  139.3775  159.9961 C   0  0  2  0  0  0  0  0  0  0  0  0
  154.8135  139.3499  158.6483 O   0  0  0  0  0  0  0  0  0  0  0  0
  153.2991  138.2984  160.1922 C   0  0  0  0  0  0  0  0  0  0  0  0
  153.6472  137.3528  161.2624 N   0  0  0  0  0  0  0  0  0  0  0  0
  153.7078  137.8523  162.5739 C   0  0  0  0  0  0  0  0  0  0  0  0
  154.0117  137.0663  163.6250 C   0  0  0  0  0  0  0  0  0  0  0  0
  154.0760  137.7079  165.2279 Cl  0  0  0  0  0  0  0  0  0  0  0  0
  154.2825  135.6529  163.3687 C   0  0  0  0  0  0  0  0  0  0  0  0
  154.5665  134.9075  164.3052 O   0  0  0  0  0  0  0  0  0  0  0  0
  154.2057  135.2164  162.0772 N   0  5  0  0  0  0  0  0  0  0  0  0
  153.8919  136.0302  161.0224 C   0  0  0  0  0  0  0  0  0  0  0  0
  153.8191  135.6114  159.8664 O   0  0  0  0  0  0  0  0  0  0  0  0
  153.7189  141.7687  159.4127 C   0  0  0  0  0  0  0  0  0  0  0  0
  152.6105  145.8786  158.1740 H   0  0  0  0  0  0  0  0  0  0  0  0
  153.3538  145.7680  159.7654 H   0  0  0  0  0  0  0  0  0  0  0  0
  151.6673  145.2539  159.5217 H   0  0  0  0  0  0  0  0  0  0  0  0
  152.4829  144.2503  161.4249 H   0  0  0  0  0  0  0  0  0  0  0  0
  152.7293  142.4796  163.1058 H   0  0  0  0  0  0  0  0  0  0  0  0
  153.5951  140.2459  162.4716 H   0  0  0  0  0  0  0  0  0  0  0  0
  155.2523  139.1551  160.6196 H   0  0  0  0  0  0  0  0  0  0  0  0
  154.3670  138.6424  158.2091 H   0  0  0  0  0  0  0  0  0  0  0  0
  152.3535  138.7767  160.4547 H   0  0  0  0  0  0  0  0  0  0  0  0
  153.0945  137.7821  159.2529 H   0  0  0  0  0  0  0  0  0  0  0  0
  153.4879  138.9055  162.6719 H   0  0  0  0  0  0  0  0  0  0  0  0
  153.9879  141.5696  158.3855 H   0  0  0  0  0  0  0  0  0  0  0  0
  1  2  1  0  0  0  0
  1 21  1  0  0  0  0
  1 22  1  0  0  0  0
  1 23  1  0  0  0  0
  2  3  1  0  0  0  0
  3 20  1  0  0  0  0
  3  4  2  0  0  0  0
  4  5  1  0  0  0  0
  4 24  1  0  0  0  0
  5  6  2  0  0  0  0
  5 25  1  0  0  0  0
  6  7  1  0  0  0  0
  6 26  1  0  0  0  0
  7  8  1  0  0  0  0
  7 20  2  0  0  0  0
  8  9  1  0  0  0  0
  8 10  1  0  0  0  0
  8 27  1  0  0  0  0
  9 28  1  0  0  0  0
 10 11  1  0  0  0  0
 10 29  1  0  0  0  0
 10 30  1  0  0  0  0
 11 18  1  0  0  0  0
 11 12  1  0  0  0  0
 12 13  2  0  0  0  0
 12 31  1  0  0  0  0
 13 14  1  0  0  0  0
 13 15  1  0  0  0  0
 15 16  2  0  0  0  0
 15 17  1  0  0  0  0
 17 18  1  0  0  0  0
 18 19  2  0  0  0  0
 20 32  1  0  0  0  0
M  CHG  1  17  -1
M  END
> <s_m_source_file>
AV-unprocessed.smi

> <i_m_source_file_index>
3033

> <i_lp_mmshare_version>
43012

> <i_f3d_flags>
0

> <s_epik_input>
W0NIM11PYzFbY0hdW2NIXVtjSF1jKFtjSF0xKVtDQEhdKFtPSF0pW0NIMl1uMltjSF1jKENsKWMoPU8pW25IXWMyPU8=

> <s_epik_cmdline>
J2VwaWtfcHl0aG9uJywgJy1waCcsICc3LjAnLCAnLXRuJywgJzgnLCAnLW1hJywgJzIwMCcsICctbWV0YWxfYmluZGluZycsICctaW1hZScsICc8aW5maWxlLm1hZT4nLCAnLW9tYWUnLCAnPG91dGZpbGUubWFlPic=

> <r_lp_tautomer_probability>
1

> <r_epik_Ionization_Penalty>
1.7979

> <r_epik_Ionization_Penalty_Charging>
3.23819e-08

> <r_epik_Ionization_Penalty_Neutral>
1.7979

> <r_epik_State_Penalty>
1.91135

> <r_epik_Charging_Adjusted_Penalty>
1.91135

> <i_epik_Tot_Q>
-1

> <i_epik_Tot_abs_Q>
1

> <r_epik_Metal_State_Penalty>
0.014155

> <b_epik_Metal_Only>
0

> <s_lp_Force_Field>
OPLS_2005

> <r_lp_Energy>
24.094

> <b_lp_Chiralities_Consistent>
1

> <s_lp_Variant>
AV-unprocessed.smi:3033-3

> <Gold.Version>
5.8.1

> <Gold.Id.Protein>
6NUR|6NUR_protein|mol2

> <Gold.PLP.Fitness>
48.9007

> <Gold.PLP.PLP>
-44.5852

> <Gold.PLP.part.hbond>
-1.9906

> <Gold.PLP.part.metal>
0.0000

> <Gold.PLP.part.buried>
-5.8692

> <Gold.PLP.part.nonpolar>
-36.2163

> <Gold.PLP.part.repulsive>
0.0817

> <Gold.PLP.ligand.clash>
0.0000

> <Gold.PLP.ligand.torsion>
0.8345

> <Gold.PLP.Chemscore.Hbond>
1.9913

> <Gold.PLP.Chemscore.CHOScore>
0.0000

> <Gold.PLP.Chemscore.Metal>
0.0000

> <Gold.Chemscore.Hbonds>
donor molecule, donor type, donor heavy atom, donor atom, acceptor molecule, acceptor atom, score
      P1  H  6896  6909       L1    19  0.80
      P1  H  7997  8008       L1     9  0.51

> <Gold.PLP.Chemscore.Internal.Correction>
0.0108

> <Gold.Rescore>
     Score         DG    S(hbond)    S(metal)    S(lipo)     H(rot)  DE(clash)    DE(int)     intcor
     18.31     -19.16       1.98        0.00     114.14       2.45       0.05       0.80       ----

> <Gold.Chemscore.Fitness>
18.3134

> <Gold.Chemscore.DG>
-19.1621

> <Gold.Chemscore.ZeroCoef>
-5.4800

> <Gold.Chemscore.Hbond>
1.9754

> <Gold.Chemscore.Metal>
0.0000

> <Gold.Chemscore.Lipo>
114.1354

> <Gold.Chemscore.Internal_Hbond>
0.0000

> <Gold.Chemscore.DEClash>
0.0470

> <Gold.Chemscore.DEInternal>
0.8017

> <Gold.Chemscore.Rot>
2.4491

> <Gold.Chemscore.Internal.Correction>
   9.000000E+99

> <Gold.Chemscore.Hbonds>
donor molecule, donor type, donor heavy atom, donor atom, acceptor molecule, acceptor atom, score
      P1  H  6896  6909       L1    19  0.12
      P1  H  7997  8008       L1     9  0.03

> <Gold.Chemscore.Hbond.Weighted>
-6.5979

> <Gold.Chemscore.Metal.Weighted>
-0.0000

> <Gold.Chemscore.Lipo.Weighted>
-13.3538

> <Gold.Chemscore.Internal_Hbond.Weighted>
0.0000

> <Gold.Chemscore.DEClash.Weighted>
0.0470

> <Gold.Chemscore.DEInternal.Weighted>
0.8017

> <Gold.Chemscore.Rot.Weighted>
6.2696

> <Gold.Chemscore.Internal.Correction.Weighted>
   9.000000E+99

> <Gold.Protein.RotatedTorsions>
[ 6907 6896 6895 6894 ] final  165.31 input  -60.11 | X-H torsion
[ 7974 7965 7964 7962 ] final   34.31 input  175.53 | X-H torsion
[ 8008 7997 7996 7995 ] final -119.21 input   59.86 | X-H torsion
[ 10167 10162 10161 10158 ] final    5.53 input  -65.29 | X-H torsion
[ 10718 10713 10712 10709 ] final   31.98 input   66.30 | X-H torsion
[ 10763 10752 10751 10750 ] final -167.44 input  -60.55 | X-H torsion
[ 11005 11000 10999 10996 ] final    3.50 input  -57.11 | X-H torsion

> <Gold.Protein.ActiveResidues>
 VAL166  LYS551  ARG553  GLY616  TRP617  ASP618  TYR619  PRO620  LYS621  CYS622 
 ASP623  PHE694  ASN695  SER759  ASP760  ASP761  ALA762  ILE779  LEU786  VAL792 
 PHE793  MET794  SER795  GLU796  ALA797  LYS798  CYS799  TRP800  GLU811  SER814 

> <Gold.Protein.RotatedAtoms>
  151.8964  133.3528  159.3815 H   0  0  0  0  0  0  0  0  0  0  0  0  # atno 6907 bound_to 6896
  150.7090  134.4872  159.5508 H   0  0  0  0  0  0  0  0  0  0  0  0  # atno 6908 bound_to 6896
  152.2452  134.8188  160.0505 H   0  0  0  0  0  0  0  0  0  0  0  0  # atno 6909 bound_to 6896
  146.1361  139.6285  142.9194 H   0  0  0  0  0  0  0  0  0  0  0  0  # atno 7974 bound_to 7965
  155.1121  140.0397  157.2727 H   0  0  0  0  0  0  0  0  0  0  0  0  # atno 8008 bound_to 7997
  154.6678  140.2605  155.7014 H   0  0  0  0  0  0  0  0  0  0  0  0  # atno 8009 bound_to 7997
  156.2646  140.2804  156.1175 H   0  0  0  0  0  0  0  0  0  0  0  0  # atno 8010 bound_to 7997
  140.6477  143.7622  150.7524 H   0  0  0  0  0  0  0  0  0  0  0  0  # atno 10167 bound_to 10162
  157.2794  130.7247  149.6548 H   0  0  0  0  0  0  0  0  0  0  0  0  # atno 10718 bound_to 10713
  154.6732  135.2942  154.9714 H   0  0  0  0  0  0  0  0  0  0  0  0  # atno 10763 bound_to 10752
  154.0734  135.6615  153.4831 H   0  0  0  0  0  0  0  0  0  0  0  0  # atno 10764 bound_to 10752
  153.0499  135.5180  154.7738 H   0  0  0  0  0  0  0  0  0  0  0  0  # atno 10765 bound_to 10752
  140.5924  133.9912  155.8095 H   0  0  0  0  0  0  0  0  0  0  0  0  # atno 11005 bound_to 11000
  145.5152  141.0434  143.2466 LP  0  0  0  0  0  0  0  0  0  0  0  0  # atno 17320 bound_to 7965
  144.7742  139.6667  143.7182 LP  0  0  0  0  0  0  0  0  0  0  0  0  # atno 17321 bound_to 7965
  140.1266  143.4563  152.2280 LP  0  0  0  0  0  0  0  0  0  0  0  0  # atno 17342 bound_to 10162
  139.5689  144.7451  151.3946 LP  0  0  0  0  0  0  0  0  0  0  0  0  # atno 17343 bound_to 10162
  155.9664  130.4343  150.5042 LP  0  0  0  0  0  0  0  0  0  0  0  0  # atno 17370 bound_to 10713
  157.2983  131.0640  151.2086 LP  0  0  0  0  0  0  0  0  0  0  0  0  # atno 17371 bound_to 10713
  141.0926  133.9893  157.3212 LP  0  0  0  0  0  0  0  0  0  0  0  0  # atno 17394 bound_to 11000
  139.9268  135.0201  156.8263 LP  0  0  0  0  0  0  0  0  0  0  0  0  # atno 17395 bound_to 11000

$$$$
