AV-unprocessed.smi:983|AV-procd|sdf|4316|dock3
  -GOLD-   22720 2223D 1   1.00000     0.00000
 Structure written by MMmdl.
 35 36  0  0  0  0  0  0  0  0  1 V2000
  153.1755  143.0522  162.8120 C   0  0  0  0  0  0  0  0  0  0  0  0
  152.7789  143.1131  161.3514 C   0  0  0  0  0  0  0  0  0  0  0  0
  152.9901  141.9769  160.4786 C   0  0  0  0  0  0  0  0  0  0  0  0
  152.6303  142.0676  159.1889 C   0  0  0  0  0  0  0  0  0  0  0  0
  152.0520  143.2354  158.6588 N   0  0  0  0  0  0  0  0  0  0  0  0
  151.6903  143.2211  157.2317 C   0  0  0  0  0  0  0  0  0  0  0  0
  150.7756  142.0468  156.8566 C   0  0  0  0  0  0  0  0  0  0  0  0
  151.0977  140.8887  157.1256 O   0  0  0  0  0  0  0  0  0  0  0  0
  149.6426  142.3626  156.2114 N   0  0  0  0  0  0  0  0  0  0  0  0
  148.6388  141.4005  155.7653 C   0  0  0  0  0  0  0  0  0  0  0  0
  148.5400  141.3498  154.2273 C   0  0  0  0  0  0  0  0  0  0  0  0
  147.0469  141.3942  153.9015 C   0  0  0  0  0  0  0  0  0  0  0  0
  146.4420  142.2162  155.0351 C   0  0  0  0  0  0  0  0  0  0  0  0
  147.2392  141.7968  156.2714 C   0  0  0  0  0  0  0  0  0  0  0  0
  151.8210  144.3404  159.4295 C   0  0  0  0  0  0  0  0  0  0  0  0
  151.3097  145.3633  158.9725 O   0  0  0  0  0  0  0  0  0  0  0  0
  152.2213  144.2315  160.8371 C   0  0  0  0  0  0  0  0  0  0  0  0
  153.4842  142.0456  163.0949 H   0  0  0  0  0  0  0  0  0  0  0  0
  152.3376  143.3412  163.4471 H   0  0  0  0  0  0  0  0  0  0  0  0
  154.0057  143.7315  163.0070 H   0  0  0  0  0  0  0  0  0  0  0  0
  153.4279  141.0649  160.8575 H   0  0  0  0  0  0  0  0  0  0  0  0
  152.7536  141.2552  158.4874 H   0  0  0  0  0  0  0  0  0  0  0  0
  151.2113  144.1633  156.9575 H   0  0  0  0  0  0  0  0  0  0  0  0
  152.5849  143.1647  156.6101 H   0  0  0  0  0  0  0  0  0  0  0  0
  149.4573  143.3370  156.0230 H   0  0  0  0  0  0  0  0  0  0  0  0
  148.8825  140.4110  156.1572 H   0  0  0  0  0  0  0  0  0  0  0  0
  149.0231  142.2219  153.7832 H   0  0  0  0  0  0  0  0  0  0  0  0
  149.0256  140.4665  153.8115 H   0  0  0  0  0  0  0  0  0  0  0  0
  146.8436  141.8185  152.9181 H   0  0  0  0  0  0  0  0  0  0  0  0
  146.6360  140.3839  153.9206 H   0  0  0  0  0  0  0  0  0  0  0  0
  146.5960  143.2784  154.8407 H   0  0  0  0  0  0  0  0  0  0  0  0
  145.3705  142.0499  155.1500 H   0  0  0  0  0  0  0  0  0  0  0  0
  146.7638  140.9272  156.7270 H   0  0  0  0  0  0  0  0  0  0  0  0
  147.2581  142.5818  157.0288 H   0  0  0  0  0  0  0  0  0  0  0  0
  152.0611  145.0827  161.4829 H   0  0  0  0  0  0  0  0  0  0  0  0
  1  2  1  0  0  0  0
  1 18  1  0  0  0  0
  1 19  1  0  0  0  0
  1 20  1  0  0  0  0
  2 17  2  0  0  0  0
  2  3  1  0  0  0  0
  3  4  2  0  0  0  0
  3 21  1  0  0  0  0
  4  5  1  0  0  0  0
  4 22  1  0  0  0  0
  5  6  1  0  0  0  0
  5 15  1  0  0  0  0
  6  7  1  0  0  0  0
  6 23  1  0  0  0  0
  6 24  1  0  0  0  0
  7  8  2  0  0  0  0
  7  9  1  0  0  0  0
  9 10  1  0  0  0  0
  9 25  1  0  0  0  0
 10 14  1  0  0  0  0
 10 11  1  0  0  0  0
 10 26  1  0  0  0  0
 11 12  1  0  0  0  0
 11 27  1  0  0  0  0
 11 28  1  0  0  0  0
 12 13  1  0  0  0  0
 12 29  1  0  0  0  0
 12 30  1  0  0  0  0
 13 14  1  0  0  0  0
 13 31  1  0  0  0  0
 13 32  1  0  0  0  0
 14 33  1  0  0  0  0
 14 34  1  0  0  0  0
 15 16  2  0  0  0  0
 15 17  1  0  0  0  0
 17 35  1  0  0  0  0
M  END
> <s_m_source_file>
AV-unprocessed.smi

> <i_m_source_file_index>
983

> <i_lp_mmshare_version>
43012

> <i_f3d_flags>
0

> <s_epik_input>
W0NIM11jMVtjSF1bY0hdbihjKD1PKVtjSF0xKVtDSDJdQyg9TylbTkhdW0NIXTJbQ0gyXVtDSDJdW0NIMl1bQ0gyXTI=

> <s_epik_cmdline>
J2VwaWtfcHl0aG9uJywgJy1waCcsICc3LjAnLCAnLXRuJywgJzgnLCAnLW1hJywgJzIwMCcsICctbWV0YWxfYmluZGluZycsICctaW1hZScsICc8aW5maWxlLm1hZT4nLCAnLW9tYWUnLCAnPG91dGZpbGUubWFlPic=

> <r_lp_tautomer_probability>
1

> <r_epik_Ionization_Penalty>
5.52576e-07

> <r_epik_Ionization_Penalty_Charging>
5.33275e-07

> <r_epik_Ionization_Penalty_Neutral>
1.93017e-08

> <r_epik_State_Penalty>
-0

> <r_epik_Charging_Adjusted_Penalty>
5.33275e-07

> <i_epik_Tot_Q>
0

> <i_epik_Tot_abs_Q>
0

> <r_epik_Metal_State_Penalty>
-0

> <b_epik_Metal_Only>
0

> <s_lp_Force_Field>
OPLS_2005

> <r_lp_Energy>
27.4502

> <b_lp_Chiralities_Consistent>
1

> <s_lp_Variant>
AV-unprocessed.smi:983-1

> <Gold.Version>
5.8.1

> <Gold.Id.Protein>
6NUR|6NUR_protein|mol2

> <Gold.PLP.Fitness>
47.0804

> <Gold.PLP.PLP>
-44.3331

> <Gold.PLP.part.hbond>
-1.4040

> <Gold.PLP.part.metal>
0.0000

> <Gold.PLP.part.buried>
-6.4332

> <Gold.PLP.part.nonpolar>
-37.2098

> <Gold.PLP.part.repulsive>
0.2613

> <Gold.PLP.ligand.clash>
0.0000

> <Gold.PLP.ligand.torsion>
0.1152

> <Gold.PLP.Chemscore.Hbond>
0.9913

> <Gold.PLP.Chemscore.CHOScore>
0.0000

> <Gold.PLP.Chemscore.Metal>
0.0000

> <Gold.Chemscore.Hbonds>
donor molecule, donor type, donor heavy atom, donor atom, acceptor molecule, acceptor atom, score
      L1  H     9    25       P1  8028  1.00

> <Gold.PLP.Chemscore.Internal.Correction>
0.0040

> <Gold.Rescore>
     Score         DG    S(hbond)    S(metal)    S(lipo)     H(rot)  DE(clash)    DE(int)     intcor
     15.10     -16.49       0.99        0.00      96.11       1.38       0.04       1.34       ----

> <Gold.Chemscore.Fitness>
15.1048

> <Gold.Chemscore.DG>
-16.4895

> <Gold.Chemscore.ZeroCoef>
-5.4800

> <Gold.Chemscore.Hbond>
0.9863

> <Gold.Chemscore.Metal>
0.0000

> <Gold.Chemscore.Lipo>
96.1130

> <Gold.Chemscore.Internal_Hbond>
0.0000

> <Gold.Chemscore.DEClash>
0.0412

> <Gold.Chemscore.DEInternal>
1.3435

> <Gold.Chemscore.Rot>
1.3789

> <Gold.Chemscore.Internal.Correction>
   9.000000E+99

> <Gold.Chemscore.Hbonds>
donor molecule, donor type, donor heavy atom, donor atom, acceptor molecule, acceptor atom, score
      L1  H     9    25       P1  8028  0.94

> <Gold.Chemscore.Hbond.Weighted>
-3.2944

> <Gold.Chemscore.Metal.Weighted>
-0.0000

> <Gold.Chemscore.Lipo.Weighted>
-11.2452

> <Gold.Chemscore.Internal_Hbond.Weighted>
0.0000

> <Gold.Chemscore.DEClash.Weighted>
0.0412

> <Gold.Chemscore.DEInternal.Weighted>
1.3435

> <Gold.Chemscore.Rot.Weighted>
3.5301

> <Gold.Chemscore.Internal.Correction.Weighted>
   9.000000E+99

> <Gold.Protein.RotatedTorsions>
[ 6907 6896 6895 6894 ] final   -7.39 input  -60.11 | X-H torsion
[ 7974 7965 7964 7962 ] final   72.60 input  175.53 | X-H torsion
[ 8008 7997 7996 7995 ] final -114.08 input   59.86 | X-H torsion
[ 10167 10162 10161 10158 ] final  117.83 input  -65.29 | X-H torsion
[ 10718 10713 10712 10709 ] final  -63.93 input   66.30 | X-H torsion
[ 10763 10752 10751 10750 ] final   33.86 input  -60.55 | X-H torsion
[ 11005 11000 10999 10996 ] final   19.87 input  -57.11 | X-H torsion

> <Gold.Protein.ActiveResidues>
 VAL166  LYS551  ARG553  GLY616  TRP617  ASP618  TYR619  PRO620  LYS621  CYS622 
 ASP623  PHE694  ASN695  SER759  ASP760  ASP761  ALA762  ILE779  LEU786  VAL792 
 PHE793  MET794  SER795  GLU796  ALA797  LYS798  CYS799  TRP800  GLU811  SER814 

> <Gold.Protein.RotatedAtoms>
  151.4504  135.1029  159.9695 H   0  0  0  0  0  0  0  0  0  0  0  0  # atno 6907 bound_to 6896
  152.4890  133.8446  159.7180 H   0  0  0  0  0  0  0  0  0  0  0  0  # atno 6908 bound_to 6896
  150.9026  133.7039  159.2902 H   0  0  0  0  0  0  0  0  0  0  0  0  # atno 6909 bound_to 6896
  145.7513  139.2761  143.1430 H   0  0  0  0  0  0  0  0  0  0  0  0  # atno 7974 bound_to 7965
  155.0307  140.0393  157.2473 H   0  0  0  0  0  0  0  0  0  0  0  0  # atno 8008 bound_to 7997
  154.7299  140.2728  155.6442 H   0  0  0  0  0  0  0  0  0  0  0  0  # atno 8009 bound_to 7997
  156.2839  140.2686  156.1996 H   0  0  0  0  0  0  0  0  0  0  0  0  # atno 8010 bound_to 7997
  139.6152  144.7090  151.2755 H   0  0  0  0  0  0  0  0  0  0  0  0  # atno 10167 bound_to 10162
  156.0760  130.4227  150.1348 H   0  0  0  0  0  0  0  0  0  0  0  0  # atno 10718 bound_to 10713
  153.0191  135.6376  154.1578 H   0  0  0  0  0  0  0  0  0  0  0  0  # atno 10763 bound_to 10752
  154.1314  135.2840  155.3185 H   0  0  0  0  0  0  0  0  0  0  0  0  # atno 10764 bound_to 10752
  154.6191  135.5531  153.7617 H   0  0  0  0  0  0  0  0  0  0  0  0  # atno 10765 bound_to 10752
  140.4089  134.1639  155.7666 H   0  0  0  0  0  0  0  0  0  0  0  0  # atno 11005 bound_to 11000
  146.0354  140.8217  142.9855 LP  0  0  0  0  0  0  0  0  0  0  0  0  # atno 17320 bound_to 7965
  144.6849  140.2831  143.7289 LP  0  0  0  0  0  0  0  0  0  0  0  0  # atno 17321 bound_to 7965
  140.7346  143.6761  150.8041 LP  0  0  0  0  0  0  0  0  0  0  0  0  # atno 17342 bound_to 10162
  140.0362  143.5392  152.2738 LP  0  0  0  0  0  0  0  0  0  0  0  0  # atno 17343 bound_to 10162
  156.9389  130.9738  151.3520 LP  0  0  0  0  0  0  0  0  0  0  0  0  # atno 17370 bound_to 10713
  157.5855  130.8407  149.8584 LP  0  0  0  0  0  0  0  0  0  0  0  0  # atno 17371 bound_to 10713
  141.1828  133.8376  157.1195 LP  0  0  0  0  0  0  0  0  0  0  0  0  # atno 17394 bound_to 11000
  140.0282  134.9914  157.0727 LP  0  0  0  0  0  0  0  0  0  0  0  0  # atno 17395 bound_to 11000

$$$$
