AV-unprocessed.smi:2445|AV-procd|sdf|9636|dock5
  -GOLD-   2272013273D 1   1.00000     0.00000
 Structure written by MMmdl.
 40 41  0  0  0  0  0  0  0  0  1 V2000
  151.7237  141.9699  158.4340 C   0  0  0  0  0  0  0  0  0  0  0  0
  151.1782  141.3199  157.2085 C   0  0  0  0  0  0  0  0  0  0  0  0
  150.7917  141.9240  156.0380 C   0  0  0  0  0  0  0  0  0  0  0  0
  150.3270  141.0320  155.0696 N   0  0  0  0  0  0  0  0  0  0  0  0
  150.3559  139.7631  155.4869 C   0  0  0  0  0  0  0  0  0  0  0  0
  149.9646  138.5957  154.6317 C   0  0  1  0  0  0  0  0  0  0  0  0
  151.0978  137.5661  154.5132 C   0  0  0  0  0  0  0  0  0  0  0  0
  148.6160  137.9645  155.0421 C   0  0  0  0  0  0  0  0  0  0  0  0
  148.1769  136.9377  154.0982 N   0  0  0  0  0  0  0  0  0  0  0  0
  147.1377  136.1089  154.2754 C   0  0  0  0  0  0  0  0  0  0  0  0
  146.4516  136.0672  155.2964 O   0  0  0  0  0  0  0  0  0  0  0  0
  146.9237  135.3457  153.1949 N   0  0  0  0  0  0  0  0  0  0  0  0
  145.8264  134.3901  153.0402 C   0  0  1  0  0  0  0  0  0  0  0  0
  144.9136  134.8046  151.8871 C   0  0  0  0  0  0  0  0  0  0  0  0
  144.7590  133.5334  151.0589 C   0  0  0  0  0  0  0  0  0  0  0  0
  145.9856  132.8569  151.2695 O   0  0  0  0  0  0  0  0  0  0  0  0
  146.2906  132.9673  152.6522 C   0  0  1  0  0  0  0  0  0  0  0  0
  147.7645  132.6074  152.8989 C   0  0  0  0  0  0  0  0  0  0  0  0
  150.9612  139.5915  157.1308 S   0  0  0  0  0  0  0  0  0  0  0  0
  151.8547  143.0420  158.2848 H   0  0  0  0  0  0  0  0  0  0  0  0
  152.6932  141.5462  158.6969 H   0  0  0  0  0  0  0  0  0  0  0  0
  151.0505  141.8268  159.2795 H   0  0  0  0  0  0  0  0  0  0  0  0
  150.8172  142.9788  155.8069 H   0  0  0  0  0  0  0  0  0  0  0  0
  149.8202  138.9961  153.6273 H   0  0  0  0  0  0  0  0  0  0  0  0
  152.0090  138.0277  154.1313 H   0  0  0  0  0  0  0  0  0  0  0  0
  150.8261  136.7590  153.8324 H   0  0  0  0  0  0  0  0  0  0  0  0
  151.3304  137.1200  155.4806 H   0  0  0  0  0  0  0  0  0  0  0  0
  148.7105  137.4979  156.0229 H   0  0  0  0  0  0  0  0  0  0  0  0
  147.8552  138.7397  155.1487 H   0  0  0  0  0  0  0  0  0  0  0  0
  148.6791  136.8842  153.2242 H   0  0  0  0  0  0  0  0  0  0  0  0
  147.5473  135.4498  152.4081 H   0  0  0  0  0  0  0  0  0  0  0  0
  145.2411  134.3353  153.9599 H   0  0  0  0  0  0  0  0  0  0  0  0
  143.9541  135.1936  152.2291 H   0  0  0  0  0  0  0  0  0  0  0  0
  145.3826  135.5766  151.2748 H   0  0  0  0  0  0  0  0  0  0  0  0
  143.9357  132.9221  151.4323 H   0  0  0  0  0  0  0  0  0  0  0  0
  144.5856  133.7367  150.0022 H   0  0  0  0  0  0  0  0  0  0  0  0
  145.6644  132.2456  153.1801 H   0  0  0  0  0  0  0  0  0  0  0  0
  148.0200  132.7001  153.9545 H   0  0  0  0  0  0  0  0  0  0  0  0
  148.4367  133.2488  152.3284 H   0  0  0  0  0  0  0  0  0  0  0  0
  147.9636  131.5778  152.6012 H   0  0  0  0  0  0  0  0  0  0  0  0
  1  2  1  0  0  0  0
  1 20  1  0  0  0  0
  1 21  1  0  0  0  0
  1 22  1  0  0  0  0
  2 19  1  0  0  0  0
  2  3  2  0  0  0  0
  3  4  1  0  0  0  0
  3 23  1  0  0  0  0
  4  5  2  0  0  0  0
  5  6  1  0  0  0  0
  5 19  1  0  0  0  0
  6  7  1  0  0  0  0
  6  8  1  0  0  0  0
  6 24  1  0  0  0  0
  7 25  1  0  0  0  0
  7 26  1  0  0  0  0
  7 27  1  0  0  0  0
  8  9  1  0  0  0  0
  8 28  1  0  0  0  0
  8 29  1  0  0  0  0
  9 10  1  0  0  0  0
  9 30  1  0  0  0  0
 10 11  2  0  0  0  0
 10 12  1  0  0  0  0
 12 13  1  0  0  0  0
 12 31  1  0  0  0  0
 13 17  1  0  0  0  0
 13 14  1  0  0  0  0
 13 32  1  0  0  0  0
 14 15  1  0  0  0  0
 14 33  1  0  0  0  0
 14 34  1  0  0  0  0
 15 16  1  0  0  0  0
 15 35  1  0  0  0  0
 15 36  1  0  0  0  0
 16 17  1  0  0  0  0
 17 18  1  0  0  0  0
 17 37  1  0  0  0  0
 18 38  1  0  0  0  0
 18 39  1  0  0  0  0
 18 40  1  0  0  0  0
M  END
> <s_m_source_file>
AV-unprocessed.smi

> <i_m_source_file_index>
2445

> <i_lp_mmshare_version>
43012

> <i_f3d_flags>
0

> <s_epik_input>
W0NIM11jMVtjSF1uYyhzMSlbQ0BIXShbQ0gzXSlbQ0gyXVtOSF1DKD1PKVtOSF1bQ0BASF0yW0NIMl1bQ0gyXU9bQ0BIXTJbQ0gzXQ==

> <s_epik_cmdline>
J2VwaWtfcHl0aG9uJywgJy1waCcsICc3LjAnLCAnLXRuJywgJzgnLCAnLW1hJywgJzIwMCcsICctbWV0YWxfYmluZGluZycsICctaW1hZScsICc8aW5maWxlLm1hZT4nLCAnLW9tYWUnLCAnPG91dGZpbGUubWFlPic=

> <r_epik_Ionization_Penalty>
0.000649483

> <r_epik_Ionization_Penalty_Charging>
0

> <r_epik_Ionization_Penalty_Neutral>
0.000649483

> <r_epik_State_Penalty>
0.000379895

> <r_epik_Charging_Adjusted_Penalty>
0.000379895

> <i_epik_Tot_Q>
0

> <i_epik_Tot_abs_Q>
0

> <r_epik_Metal_State_Penalty>
-0

> <b_epik_Metal_Only>
0

> <s_lp_Force_Field>
OPLS_2005

> <r_lp_Energy>
6.66007

> <b_lp_Chiralities_Consistent>
1

> <s_lp_Variant>
AV-unprocessed.smi:2445-4

> <Gold.Version>
5.8.1

> <Gold.Id.Protein>
6NUR|6NUR_protein|mol2

> <Gold.PLP.Fitness>
37.0607

> <Gold.PLP.PLP>
-26.8131

> <Gold.PLP.part.hbond>
-2.8136

> <Gold.PLP.part.metal>
0.0000

> <Gold.PLP.part.buried>
-3.1097

> <Gold.PLP.part.nonpolar>
-20.7523

> <Gold.PLP.part.repulsive>
0.2769

> <Gold.PLP.ligand.clash>
0.0000

> <Gold.PLP.ligand.torsion>
0.2544

> <Gold.PLP.Chemscore.Hbond>
2.5448

> <Gold.PLP.Chemscore.CHOScore>
1.0000

> <Gold.PLP.Chemscore.Metal>
0.0000

> <Gold.Chemscore.Hbonds>
donor molecule, donor type, donor heavy atom, donor atom, acceptor molecule, acceptor atom, score
      L1  H     9    30       P1  7948  0.99
      L1  H    12    31       P1  7948  0.91
      P1  H  7989  7998       L1     4  0.70
      L1  C     3    23       P1  8028  0.84

> <Gold.PLP.Chemscore.Internal.Correction>
0.1220

> <Gold.Rescore>
     Score         DG    S(hbond)    S(metal)    S(lipo)     H(rot)  DE(clash)    DE(int)     intcor
     17.72     -18.38       2.67        0.00      67.48       1.53       0.38       0.28       ----

> <Gold.Chemscore.Fitness>
17.7171

> <Gold.Chemscore.DG>
-18.3806

> <Gold.Chemscore.ZeroCoef>
-5.4800

> <Gold.Chemscore.Hbond>
2.6732

> <Gold.Chemscore.Metal>
0.0000

> <Gold.Chemscore.Lipo>
67.4830

> <Gold.Chemscore.Internal_Hbond>
0.0000

> <Gold.Chemscore.DEClash>
0.3811

> <Gold.Chemscore.DEInternal>
0.2824

> <Gold.Chemscore.Rot>
1.5325

> <Gold.Chemscore.Internal.Correction>
   9.000000E+99

> <Gold.Chemscore.Hbonds>
donor molecule, donor type, donor heavy atom, donor atom, acceptor molecule, acceptor atom, score
      L1  H     9    30       P1  7948  0.90
      L1  H    12    31       P1  7948  0.89
      P1  H  7989  7998       L1     4  0.13

> <Gold.Chemscore.Hbond.Weighted>
-8.9284

> <Gold.Chemscore.Metal.Weighted>
-0.0000

> <Gold.Chemscore.Lipo.Weighted>
-7.8955

> <Gold.Chemscore.Internal_Hbond.Weighted>
0.0000

> <Gold.Chemscore.DEClash.Weighted>
0.3811

> <Gold.Chemscore.DEInternal.Weighted>
0.2824

> <Gold.Chemscore.Rot.Weighted>
3.9233

> <Gold.Chemscore.Internal.Correction.Weighted>
   9.000000E+99

> <Gold.Protein.RotatedTorsions>
[ 6907 6896 6895 6894 ] final -116.41 input  -60.11 | X-H torsion
[ 7974 7965 7964 7962 ] final   60.88 input  175.53 | X-H torsion
[ 8008 7997 7996 7995 ] final  -55.86 input   59.86 | X-H torsion
[ 10167 10162 10161 10158 ] final  -38.81 input  -65.29 | X-H torsion
[ 10718 10713 10712 10709 ] final   98.08 input   66.30 | X-H torsion
[ 10763 10752 10751 10750 ] final -145.78 input  -60.55 | X-H torsion
[ 11005 11000 10999 10996 ] final   70.57 input  -57.11 | X-H torsion

> <Gold.Protein.ActiveResidues>
 VAL166  LYS551  ARG553  GLY616  TRP617  ASP618  TYR619  PRO620  LYS621  CYS622 
 ASP623  PHE694  ASN695  SER759  ASP760  ASP761  ALA762  ILE779  LEU786  VAL792 
 PHE793  MET794  SER795  GLU796  ALA797  LYS798  CYS799  TRP800  GLU811  SER814 

> <Gold.Protein.RotatedAtoms>
  150.8054  133.8520  159.3207 H   0  0  0  0  0  0  0  0  0  0  0  0  # atno 6907 bound_to 6896
  151.6321  135.1020  160.0133 H   0  0  0  0  0  0  0  0  0  0  0  0  # atno 6908 bound_to 6896
  152.4144  133.6975  159.6461 H   0  0  0  0  0  0  0  0  0  0  0  0  # atno 6909 bound_to 6896
  145.8911  139.3511  143.0649 H   0  0  0  0  0  0  0  0  0  0  0  0  # atno 7974 bound_to 7965
  154.4209  140.1143  156.5545 H   0  0  0  0  0  0  0  0  0  0  0  0  # atno 8008 bound_to 7997
  155.6376  140.3496  155.4685 H   0  0  0  0  0  0  0  0  0  0  0  0  # atno 8009 bound_to 7997
  155.9897  140.1177  157.0639 H   0  0  0  0  0  0  0  0  0  0  0  0  # atno 8010 bound_to 7997
  140.7082  143.3253  151.2694 H   0  0  0  0  0  0  0  0  0  0  0  0  # atno 10167 bound_to 10162
  157.6902  131.0629  150.4742 H   0  0  0  0  0  0  0  0  0  0  0  0  # atno 10718 bound_to 10713
  154.8367  135.3404  154.6558 H   0  0  0  0  0  0  0  0  0  0  0  0  # atno 10763 bound_to 10752
  153.7172  135.6960  153.5026 H   0  0  0  0  0  0  0  0  0  0  0  0  # atno 10764 bound_to 10752
  153.2408  135.4385  155.0649 H   0  0  0  0  0  0  0  0  0  0  0  0  # atno 10765 bound_to 10752
  139.9590  134.7093  156.0687 H   0  0  0  0  0  0  0  0  0  0  0  0  # atno 11005 bound_to 11000
  145.8907  140.9305  143.0553 LP  0  0  0  0  0  0  0  0  0  0  0  0  # atno 17320 bound_to 7965
  144.6730  140.0902  143.7465 LP  0  0  0  0  0  0  0  0  0  0  0  0  # atno 17321 bound_to 7965
  139.6720  144.0004  152.2758 LP  0  0  0  0  0  0  0  0  0  0  0  0  # atno 17342 bound_to 10162
  139.9606  144.6560  150.8083 LP  0  0  0  0  0  0  0  0  0  0  0  0  # atno 17343 bound_to 10162
  156.5078  130.4132  149.6318 LP  0  0  0  0  0  0  0  0  0  0  0  0  # atno 17370 bound_to 10713
  156.3269  130.7310  151.2233 LP  0  0  0  0  0  0  0  0  0  0  0  0  # atno 17371 bound_to 10713
  141.1266  133.6598  156.3352 LP  0  0  0  0  0  0  0  0  0  0  0  0  # atno 17394 bound_to 11000
  140.5542  134.5997  157.5416 LP  0  0  0  0  0  0  0  0  0  0  0  0  # atno 17395 bound_to 11000

$$$$
