AV-unprocessed.smi:837|AV-procd|sdf|3901|dock8
  -GOLD-   22720 1363D 1   1.00000     0.00000
 Structure written by MMmdl.
 48 50  0  0  0  0  0  0  0  0  2 V2000
  145.5488  138.0663  159.8023 C   0  0  0  0  0  0  0  0  0  0  0  0
  145.6296  137.1685  161.0566 C   0  0  1  0  0  0  0  0  0  0  0  0
  144.2874  136.4305  161.2628 C   0  0  0  0  0  0  0  0  0  0  0  0
  144.2890  135.5818  162.5424 C   0  0  0  0  0  0  0  0  0  0  0  0
  145.4489  134.5782  162.5429 C   0  0  0  0  0  0  0  0  0  0  0  0
  146.7972  135.2941  162.3514 C   0  0  0  0  0  0  0  0  0  0  0  0
  146.8493  136.1869  161.0820 C   0  0  2  0  0  0  0  0  0  0  0  0
  148.0977  136.9300  161.0948 N   0  5  0  0  0  0  0  0  0  0  0  0
  148.8452  136.5619  160.0285 C   0  0  0  0  0  0  0  0  0  0  0  0
  149.9668  136.9765  159.7382 O   0  0  0  0  0  0  0  0  0  0  0  0
  148.2010  135.6473  159.2797 N   0  0  0  0  0  0  0  0  0  0  0  0
  148.7391  135.0228  158.0631 C   0  0  0  0  0  0  0  0  0  0  0  0
  148.7570  135.9612  156.8473 C   0  0  0  0  0  0  0  0  0  0  0  0
  147.9083  136.8436  156.7076 O   0  0  0  0  0  0  0  0  0  0  0  0
  149.7511  135.7579  155.9695 N   0  0  0  0  0  0  0  0  0  0  0  0
  149.9632  136.5333  154.7533 C   0  0  0  0  0  0  0  0  0  0  0  0
  151.2281  137.4019  154.8491 C   0  0  0  0  0  0  0  0  0  0  0  0
  150.8993  138.8567  155.1218 C   0  0  0  0  0  0  0  0  0  0  0  0
  151.4936  139.5403  156.2024 C   0  0  0  0  0  0  0  0  0  0  0  0
  151.1625  140.8927  156.4136 C   0  0  0  0  0  0  0  0  0  0  0  0
  150.2493  141.5051  155.5320 C   0  0  0  0  0  0  0  0  0  0  0  0
  149.6750  140.8604  154.4933 N   0  0  0  0  0  0  0  0  0  0  0  0
  149.9972  139.5635  154.2982 C   0  0  0  0  0  0  0  0  0  0  0  0
  147.0105  135.3516  159.8132 C   0  0  0  0  0  0  0  0  0  0  0  0
  146.1796  134.5531  159.3777 O   0  0  0  0  0  0  0  0  0  0  0  0
  145.3808  137.4839  158.8961 H   0  0  0  0  0  0  0  0  0  0  0  0
  146.4612  138.6461  159.6624 H   0  0  0  0  0  0  0  0  0  0  0  0
  144.7275  138.7782  159.8878 H   0  0  0  0  0  0  0  0  0  0  0  0
  145.7467  137.8427  161.9071 H   0  0  0  0  0  0  0  0  0  0  0  0
  143.4740  137.1547  161.3176 H   0  0  0  0  0  0  0  0  0  0  0  0
  144.0673  135.7967  160.4035 H   0  0  0  0  0  0  0  0  0  0  0  0
  144.3704  136.2342  163.4129 H   0  0  0  0  0  0  0  0  0  0  0  0
  143.3403  135.0532  162.6391 H   0  0  0  0  0  0  0  0  0  0  0  0
  145.4575  134.0255  163.4826 H   0  0  0  0  0  0  0  0  0  0  0  0
  145.2971  133.8371  161.7583 H   0  0  0  0  0  0  0  0  0  0  0  0
  146.9906  135.9071  163.2335 H   0  0  0  0  0  0  0  0  0  0  0  0
  147.5961  134.5507  162.3280 H   0  0  0  0  0  0  0  0  0  0  0  0
  149.7559  134.6707  158.2440 H   0  0  0  0  0  0  0  0  0  0  0  0
  148.1595  134.1320  157.8150 H   0  0  0  0  0  0  0  0  0  0  0  0
  150.4069  135.0140  156.1595 H   0  0  0  0  0  0  0  0  0  0  0  0
  150.0209  135.8660  153.8914 H   0  0  0  0  0  0  0  0  0  0  0  0
  149.0886  137.1657  154.5977 H   0  0  0  0  0  0  0  0  0  0  0  0
  151.8792  137.0298  155.6415 H   0  0  0  0  0  0  0  0  0  0  0  0
  151.8036  137.3388  153.9242 H   0  0  0  0  0  0  0  0  0  0  0  0
  152.1917  139.0391  156.8569 H   0  0  0  0  0  0  0  0  0  0  0  0
  151.5982  141.4474  157.2314 H   0  0  0  0  0  0  0  0  0  0  0  0
  149.9733  142.5407  155.6645 H   0  0  0  0  0  0  0  0  0  0  0  0
  149.5228  139.0769  153.4587 H   0  0  0  0  0  0  0  0  0  0  0  0
  1  2  1  0  0  0  0
  1 26  1  0  0  0  0
  1 27  1  0  0  0  0
  1 28  1  0  0  0  0
  2  7  1  0  0  0  0
  2  3  1  0  0  0  0
  2 29  1  0  0  0  0
  3  4  1  0  0  0  0
  3 30  1  0  0  0  0
  3 31  1  0  0  0  0
  4  5  1  0  0  0  0
  4 32  1  0  0  0  0
  4 33  1  0  0  0  0
  5  6  1  0  0  0  0
  5 34  1  0  0  0  0
  5 35  1  0  0  0  0
  6  7  1  0  0  0  0
  6 36  1  0  0  0  0
  6 37  1  0  0  0  0
  7 24  1  0  0  0  0
  7  8  1  0  0  0  0
  8  9  1  0  0  0  0
  9 10  2  0  0  0  0
  9 11  1  0  0  0  0
 11 12  1  0  0  0  0
 11 24  1  0  0  0  0
 12 13  1  0  0  0  0
 12 38  1  0  0  0  0
 12 39  1  0  0  0  0
 13 14  2  0  0  0  0
 13 15  1  0  0  0  0
 15 16  1  0  0  0  0
 15 40  1  0  0  0  0
 16 17  1  0  0  0  0
 16 41  1  0  0  0  0
 16 42  1  0  0  0  0
 17 18  1  0  0  0  0
 17 43  1  0  0  0  0
 17 44  1  0  0  0  0
 18 23  1  0  0  0  0
 18 19  2  0  0  0  0
 19 20  1  0  0  0  0
 19 45  1  0  0  0  0
 20 21  2  0  0  0  0
 20 46  1  0  0  0  0
 21 22  1  0  0  0  0
 21 47  1  0  0  0  0
 22 23  2  0  0  0  0
 23 48  1  0  0  0  0
 24 25  2  0  0  0  0
M  CHG  1   8  -1
M  END
> <s_m_source_file>
AV-unprocessed.smi

> <i_m_source_file_index>
837

> <i_lp_mmshare_version>
43012

> <i_f3d_flags>
0

> <s_epik_input>
W0NIMl0xW0NIMl1bQ0gyXVtDSDJdW0NAQEhdKFtDSDNdKVtDQEBdMTJbTkhdQyg9TylOKEMyPU8pW0NIMl1DKD1PKVtOSF1bQ0gyXVtDSDJdYzNbY0hdW2NIXVtjSF1uW2NIXTM=

> <s_epik_cmdline>
J2VwaWtfcHl0aG9uJywgJy1waCcsICc3LjAnLCAnLXRuJywgJzgnLCAnLW1hJywgJzIwMCcsICctbWV0YWxfYmluZGluZycsICctaW1hZScsICc8aW5maWxlLm1hZT4nLCAnLW9tYWUnLCAnPG91dGZpbGUubWFlPic=

> <r_lp_tautomer_probability>
1

> <r_epik_Ionization_Penalty>
6.03002

> <r_epik_Ionization_Penalty_Charging>
6.01728

> <r_epik_Ionization_Penalty_Neutral>
0.0127382

> <r_epik_State_Penalty>
6.02713

> <r_epik_Charging_Adjusted_Penalty>
12.0444

> <i_epik_Tot_Q>
-1

> <i_epik_Tot_abs_Q>
1

> <r_epik_Metal_State_Penalty>
1.99078

> <b_epik_Metal_Only>
1

> <s_lp_Force_Field>
OPLS_2005

> <r_lp_Energy>
14.5441

> <b_lp_Chiralities_Consistent>
1

> <s_lp_Variant>
AV-unprocessed.smi:837-10

> <Gold.Version>
5.8.1

> <Gold.Id.Protein>
6NUR|6NUR_protein|mol2

> <Gold.PLP.Fitness>
49.1664

> <Gold.PLP.PLP>
-36.2375

> <Gold.PLP.part.hbond>
-3.8916

> <Gold.PLP.part.metal>
0.0000

> <Gold.PLP.part.buried>
-1.0826

> <Gold.PLP.part.nonpolar>
-30.1003

> <Gold.PLP.part.repulsive>
0.1802

> <Gold.PLP.ligand.clash>
0.0000

> <Gold.PLP.ligand.torsion>
0.9056

> <Gold.PLP.Chemscore.Hbond>
2.9567

> <Gold.PLP.Chemscore.CHOScore>
1.9468

> <Gold.PLP.Chemscore.Metal>
0.0000

> <Gold.Chemscore.Hbonds>
donor molecule, donor type, donor heavy atom, donor atom, acceptor molecule, acceptor atom, score
      P1  H  6896  6909       L1    10  0.54
      P1  H  6931  6943       L1     8  2.00
      P1  H  6934  6947       L1     8  0.50
      L1  C    21    47       P1  8028  1.00
      L1  C    23    48       P1  7957  0.84

> <Gold.PLP.Chemscore.Internal.Correction>
0.0296

> <Gold.Rescore>
     Score         DG    S(hbond)    S(metal)    S(lipo)     H(rot)  DE(clash)    DE(int)     intcor
     13.33     -15.92       1.47        0.00      86.77       1.81       1.69       0.90       ----

> <Gold.Chemscore.Fitness>
13.3289

> <Gold.Chemscore.DG>
-15.9156

> <Gold.Chemscore.ZeroCoef>
-5.4800

> <Gold.Chemscore.Hbond>
1.4714

> <Gold.Chemscore.Metal>
0.0000

> <Gold.Chemscore.Lipo>
86.7692

> <Gold.Chemscore.Internal_Hbond>
0.0000

> <Gold.Chemscore.DEClash>
1.6863

> <Gold.Chemscore.DEInternal>
0.9004

> <Gold.Chemscore.Rot>
1.8090

> <Gold.Chemscore.Internal.Correction>
   9.000000E+99

> <Gold.Chemscore.Hbonds>
donor molecule, donor type, donor heavy atom, donor atom, acceptor molecule, acceptor atom, score
      P1  H  6896  6909       L1    10  0.13
      P1  H  6931  6943       L1     8  0.49
      P1  H  6934  6947       L1     8  0.04

> <Gold.Chemscore.Hbond.Weighted>
-4.9146

> <Gold.Chemscore.Metal.Weighted>
-0.0000

> <Gold.Chemscore.Lipo.Weighted>
-10.1520

> <Gold.Chemscore.Internal_Hbond.Weighted>
0.0000

> <Gold.Chemscore.DEClash.Weighted>
1.6863

> <Gold.Chemscore.DEInternal.Weighted>
0.9004

> <Gold.Chemscore.Rot.Weighted>
4.6310

> <Gold.Chemscore.Internal.Correction.Weighted>
   9.000000E+99

> <Gold.Protein.RotatedTorsions>
[ 6907 6896 6895 6894 ] final   93.16 input  -60.11 | X-H torsion
[ 7974 7965 7964 7962 ] final  -45.80 input  175.53 | X-H torsion
[ 8008 7997 7996 7995 ] final  161.88 input   59.86 | X-H torsion
[ 10167 10162 10161 10158 ] final  161.60 input  -65.29 | X-H torsion
[ 10718 10713 10712 10709 ] final -171.52 input   66.30 | X-H torsion
[ 10763 10752 10751 10750 ] final  104.66 input  -60.55 | X-H torsion
[ 11005 11000 10999 10996 ] final  -53.13 input  -57.11 | X-H torsion

> <Gold.Protein.ActiveResidues>
 VAL166  LYS551  ARG553  GLY616  TRP617  ASP618  TYR619  PRO620  LYS621  CYS622 
 ASP623  PHE694  ASN695  SER759  ASP760  ASP761  ALA762  ILE779  LEU786  VAL792 
 PHE793  MET794  SER795  GLU796  ALA797  LYS798  CYS799  TRP800  GLU811  SER814 

> <Gold.Protein.RotatedAtoms>
  152.5453  134.1391  159.8471 H   0  0  0  0  0  0  0  0  0  0  0  0  # atno 6907 bound_to 6896
  151.1429  133.4952  159.2604 H   0  0  0  0  0  0  0  0  0  0  0  0  # atno 6908 bound_to 6896
  151.1554  135.0258  159.8741 H   0  0  0  0  0  0  0  0  0  0  0  0  # atno 6909 bound_to 6896
  145.9784  140.7310  142.9376 H   0  0  0  0  0  0  0  0  0  0  0  0  # atno 7974 bound_to 7965
  156.2072  140.1765  156.7775 H   0  0  0  0  0  0  0  0  0  0  0  0  # atno 8008 bound_to 7997
  154.5671  140.0689  156.8938 H   0  0  0  0  0  0  0  0  0  0  0  0  # atno 8009 bound_to 7997
  155.2741  140.3344  155.4265 H   0  0  0  0  0  0  0  0  0  0  0  0  # atno 8010 bound_to 7997
  139.4851  144.4520  151.8817 H   0  0  0  0  0  0  0  0  0  0  0  0  # atno 10167 bound_to 10162
  156.7420  130.9346  151.3110 H   0  0  0  0  0  0  0  0  0  0  0  0  # atno 10718 bound_to 10713
  153.3690  135.3935  155.1774 H   0  0  0  0  0  0  0  0  0  0  0  0  # atno 10763 bound_to 10752
  154.8691  135.3698  154.5002 H   0  0  0  0  0  0  0  0  0  0  0  0  # atno 10764 bound_to 10752
  153.5468  135.7083  153.5670 H   0  0  0  0  0  0  0  0  0  0  0  0  # atno 10765 bound_to 10752
  141.0960  133.6624  156.4127 H   0  0  0  0  0  0  0  0  0  0  0  0  # atno 11005 bound_to 11000
  144.6855  140.2866  143.7284 LP  0  0  0  0  0  0  0  0  0  0  0  0  # atno 17320 bound_to 7965
  145.7806  139.1890  143.2160 LP  0  0  0  0  0  0  0  0  0  0  0  0  # atno 17321 bound_to 7965
  140.3977  144.2533  150.5895 LP  0  0  0  0  0  0  0  0  0  0  0  0  # atno 17342 bound_to 10162
  140.5086  143.2297  151.8569 LP  0  0  0  0  0  0  0  0  0  0  0  0  # atno 17343 bound_to 10162
  157.6814  130.9144  150.0277 LP  0  0  0  0  0  0  0  0  0  0  0  0  # atno 17370 bound_to 10713
  156.1458  130.3642  149.9512 LP  0  0  0  0  0  0  0  0  0  0  0  0  # atno 17371 bound_to 10713
  140.5138  134.6369  157.5294 LP  0  0  0  0  0  0  0  0  0  0  0  0  # atno 17394 bound_to 11000
  139.9797  134.7157  155.9882 LP  0  0  0  0  0  0  0  0  0  0  0  0  # atno 17395 bound_to 11000

$$$$
