AV-unprocessed.smi:1158|AV-procd|sdf|4911|dock8
  -GOLD-   22720 3493D 1   1.00000     0.00000
 Structure written by MMmdl.
 42 43  0  0  0  0  0  0  0  0  1 V2000
  146.1941  133.1920  151.2205 C   0  0  0  0  0  0  0  0  0  0  0  0
  147.2185  133.4726  152.1683 O   0  0  0  0  0  0  0  0  0  0  0  0
  147.7904  132.4177  152.8540 C   0  0  0  0  0  0  0  0  0  0  0  0
  147.2989  131.1708  152.6433 N   0  0  0  0  0  0  0  0  0  0  0  0
  147.8579  130.1386  153.3072 C   0  0  0  0  0  0  0  0  0  0  0  0
  148.9320  130.2905  154.2026 C   0  0  0  0  0  0  0  0  0  0  0  0
  149.4447  131.5822  154.4222 C   0  0  0  0  0  0  0  0  0  0  0  0
  148.8581  132.6795  153.7448 C   0  0  0  0  0  0  0  0  0  0  0  0
  149.3008  134.0253  153.8794 N   0  0  0  0  0  0  0  0  0  0  0  0
  150.0887  134.5675  154.8236 C   0  0  0  0  0  0  0  0  0  0  0  0
  150.5836  133.9647  155.7756 O   0  0  0  0  0  0  0  0  0  0  0  0
  150.2646  135.8789  154.6079 N   0  0  0  0  0  0  0  0  0  0  0  0
  151.0613  136.7712  155.4449 C   0  0  0  0  0  0  0  0  0  0  0  0
  150.3750  136.9660  156.8041 C   0  0  0  0  0  0  0  0  0  0  0  0
  151.1231  138.0063  157.6556 C   0  0  0  0  0  0  0  0  0  0  0  0
  151.1862  139.2931  156.9581 N   0  0  0  0  0  0  0  0  0  0  0  0
  151.8262  140.2724  157.8362 C   0  0  0  0  0  0  0  0  0  0  0  0
  151.0447  141.5954  157.9120 C   0  0  0  0  0  0  0  0  0  0  0  0
  151.6065  142.4247  158.7915 F   0  0  0  0  0  0  0  0  0  0  0  0
  151.0398  142.1761  156.7129 F   0  0  0  0  0  0  0  0  0  0  0  0
  151.9419  139.1369  155.7108 C   0  0  0  0  0  0  0  0  0  0  0  0
  151.2352  138.1428  154.7720 C   0  0  0  0  0  0  0  0  0  0  0  0
  145.8564  134.1243  150.7682 H   0  0  0  0  0  0  0  0  0  0  0  0
  145.3303  132.7222  151.6930 H   0  0  0  0  0  0  0  0  0  0  0  0
  146.5588  132.5488  150.4184 H   0  0  0  0  0  0  0  0  0  0  0  0
  147.4401  129.1616  153.1144 H   0  0  0  0  0  0  0  0  0  0  0  0
  149.3561  129.4347  154.7067 H   0  0  0  0  0  0  0  0  0  0  0  0
  150.2813  131.6981  155.0927 H   0  0  0  0  0  0  0  0  0  0  0  0
  148.9190  134.6691  153.2018 H   0  0  0  0  0  0  0  0  0  0  0  0
  149.8171  136.2919  153.8029 H   0  0  0  0  0  0  0  0  0  0  0  0
  152.0449  136.3296  155.6176 H   0  0  0  0  0  0  0  0  0  0  0  0
  149.3431  137.2909  156.6605 H   0  0  0  0  0  0  0  0  0  0  0  0
  150.3295  136.0166  157.3390 H   0  0  0  0  0  0  0  0  0  0  0  0
  150.6003  138.1290  158.6050 H   0  0  0  0  0  0  0  0  0  0  0  0
  152.1294  137.6539  157.8879 H   0  0  0  0  0  0  0  0  0  0  0  0
  151.8835  139.8608  158.8450 H   0  0  0  0  0  0  0  0  0  0  0  0
  152.8533  140.4521  157.5145 H   0  0  0  0  0  0  0  0  0  0  0  0
  150.0017  141.4637  158.1963 H   0  0  0  0  0  0  0  0  0  0  0  0
  152.0269  140.0930  155.1966 H   0  0  0  0  0  0  0  0  0  0  0  0
  152.9569  138.7981  155.9246 H   0  0  0  0  0  0  0  0  0  0  0  0
  151.8084  138.0395  153.8500 H   0  0  0  0  0  0  0  0  0  0  0  0
  150.2617  138.5455  154.4873 H   0  0  0  0  0  0  0  0  0  0  0  0
  1  2  1  0  0  0  0
  1 23  1  0  0  0  0
  1 24  1  0  0  0  0
  1 25  1  0  0  0  0
  2  3  1  0  0  0  0
  3  8  1  0  0  0  0
  3  4  2  0  0  0  0
  4  5  1  0  0  0  0
  5  6  2  0  0  0  0
  5 26  1  0  0  0  0
  6  7  1  0  0  0  0
  6 27  1  0  0  0  0
  7  8  2  0  0  0  0
  7 28  1  0  0  0  0
  8  9  1  0  0  0  0
  9 10  1  0  0  0  0
  9 29  1  0  0  0  0
 10 11  2  0  0  0  0
 10 12  1  0  0  0  0
 12 13  1  0  0  0  0
 12 30  1  0  0  0  0
 13 22  1  0  0  0  0
 13 14  1  0  0  0  0
 13 31  1  0  0  0  0
 14 15  1  0  0  0  0
 14 32  1  0  0  0  0
 14 33  1  0  0  0  0
 15 16  1  0  0  0  0
 15 34  1  0  0  0  0
 15 35  1  0  0  0  0
 16 17  1  0  0  0  0
 16 21  1  0  0  0  0
 17 18  1  0  0  0  0
 17 36  1  0  0  0  0
 17 37  1  0  0  0  0
 18 19  1  0  0  0  0
 18 20  1  0  0  0  0
 18 38  1  0  0  0  0
 21 22  1  0  0  0  0
 21 39  1  0  0  0  0
 21 40  1  0  0  0  0
 22 41  1  0  0  0  0
 22 42  1  0  0  0  0
M  END
> <s_m_source_file>
AV-unprocessed.smi

> <i_m_source_file_index>
1158

> <i_lp_mmshare_version>
43012

> <i_f3d_flags>
0

> <s_epik_input>
W0NIM11PYzFuW2NIXVtjSF1bY0hdYzFbTkhdQyg9TylbTkhdW0NIXTJbQ0gyXVtDSDJdTihbQ0gyXVtDSF0oRilGKVtDSDJdW0NIMl0y

> <s_epik_cmdline>
J2VwaWtfcHl0aG9uJywgJy1waCcsICc3LjAnLCAnLXRuJywgJzgnLCAnLW1hJywgJzIwMCcsICctbWV0YWxfYmluZGluZycsICctaW1hZScsICc8aW5maWxlLm1hZT4nLCAnLW9tYWUnLCAnPG91dGZpbGUubWFlPic=

> <r_lp_tautomer_probability>
1

> <r_epik_Ionization_Penalty>
0.177131

> <r_epik_Ionization_Penalty_Charging>
0

> <r_epik_Ionization_Penalty_Neutral>
0.177131

> <r_epik_State_Penalty>
0.166485

> <r_epik_Charging_Adjusted_Penalty>
0.166485

> <i_epik_Tot_Q>
0

> <i_epik_Tot_abs_Q>
0

> <r_epik_Metal_State_Penalty>
0.166483

> <b_epik_Metal_Only>
0

> <s_lp_Force_Field>
OPLS_2005

> <r_lp_Energy>
18.3974

> <b_lp_Chiralities_Consistent>
1

> <s_lp_Variant>
AV-unprocessed.smi:1158-1

> <Gold.Version>
5.8.1

> <Gold.Id.Protein>
6NUR|6NUR_protein|mol2

> <Gold.PLP.Fitness>
40.2204

> <Gold.PLP.PLP>
-36.1506

> <Gold.PLP.part.hbond>
-2.7586

> <Gold.PLP.part.metal>
0.0000

> <Gold.PLP.part.buried>
-5.0235

> <Gold.PLP.part.nonpolar>
-28.9914

> <Gold.PLP.part.repulsive>
0.9248

> <Gold.PLP.ligand.clash>
0.0000

> <Gold.PLP.ligand.torsion>
0.8311

> <Gold.PLP.Chemscore.Hbond>
1.9040

> <Gold.PLP.Chemscore.CHOScore>
0.0000

> <Gold.PLP.Chemscore.Metal>
0.0000

> <Gold.Chemscore.Hbonds>
donor molecule, donor type, donor heavy atom, donor atom, acceptor molecule, acceptor atom, score
      L1  H     9    29       P1  7948  0.80
      L1  H    12    30       P1  7948  0.86

> <Gold.PLP.Chemscore.Internal.Correction>
0.0200

> <Gold.Rescore>
     Score         DG    S(hbond)    S(metal)    S(lipo)     H(rot)  DE(clash)    DE(int)     intcor
     10.63     -12.57       1.01        0.00      65.65       1.55       0.02       1.92       ----

> <Gold.Chemscore.Fitness>
10.6297

> <Gold.Chemscore.DG>
-12.5677

> <Gold.Chemscore.ZeroCoef>
-5.4800

> <Gold.Chemscore.Hbond>
1.0115

> <Gold.Chemscore.Metal>
0.0000

> <Gold.Chemscore.Lipo>
65.6534

> <Gold.Chemscore.Internal_Hbond>
0.0000

> <Gold.Chemscore.DEClash>
0.0202

> <Gold.Chemscore.DEInternal>
1.9178

> <Gold.Chemscore.Rot>
1.5517

> <Gold.Chemscore.Internal.Correction>
   9.000000E+99

> <Gold.Chemscore.Hbonds>
donor molecule, donor type, donor heavy atom, donor atom, acceptor molecule, acceptor atom, score
      L1  H     9    29       P1  7948  0.11
      L1  H    12    30       P1  7948  0.24

> <Gold.Chemscore.Hbond.Weighted>
-3.3786

> <Gold.Chemscore.Metal.Weighted>
-0.0000

> <Gold.Chemscore.Lipo.Weighted>
-7.6814

> <Gold.Chemscore.Internal_Hbond.Weighted>
0.0000

> <Gold.Chemscore.DEClash.Weighted>
0.0202

> <Gold.Chemscore.DEInternal.Weighted>
1.9178

> <Gold.Chemscore.Rot.Weighted>
3.9723

> <Gold.Chemscore.Internal.Correction.Weighted>
   9.000000E+99

> <Gold.Protein.RotatedTorsions>
[ 6907 6896 6895 6894 ] final  105.12 input  -60.11 | X-H torsion
[ 7974 7965 7964 7962 ] final  -81.05 input  175.53 | X-H torsion
[ 8008 7997 7996 7995 ] final   81.81 input   59.86 | X-H torsion
[ 10167 10162 10161 10158 ] final  113.37 input  -65.29 | X-H torsion
[ 10718 10713 10712 10709 ] final  126.79 input   66.30 | X-H torsion
[ 10763 10752 10751 10750 ] final -100.94 input  -60.55 | X-H torsion
[ 11005 11000 10999 10996 ] final  165.00 input  -57.11 | X-H torsion

> <Gold.Protein.ActiveResidues>
 VAL166  LYS551  ARG553  GLY616  TRP617  ASP618  TYR619  PRO620  LYS621  CYS622 
 ASP623  PHE694  ASN695  SER759  ASP760  ASP761  ALA762  ILE779  LEU786  VAL792 
 PHE793  MET794  SER795  GLU796  ALA797  LYS798  CYS799  TRP800  GLU811  SER814 

> <Gold.Protein.RotatedAtoms>
  152.5241  133.9576  159.7701 H   0  0  0  0  0  0  0  0  0  0  0  0  # atno 6907 bound_to 6896
  150.9873  133.6176  159.2720 H   0  0  0  0  0  0  0  0  0  0  0  0  # atno 6908 bound_to 6896
  151.3332  135.0852  159.9399 H   0  0  0  0  0  0  0  0  0  0  0  0  # atno 6909 bound_to 6896
  145.5517  140.9495  143.1495 H   0  0  0  0  0  0  0  0  0  0  0  0  # atno 7974 bound_to 7965
  155.9022  140.3432  155.6035 H   0  0  0  0  0  0  0  0  0  0  0  0  # atno 8008 bound_to 7997
  155.7486  140.0817  157.2231 H   0  0  0  0  0  0  0  0  0  0  0  0  # atno 8009 bound_to 7997
  154.4045  140.1557  156.2686 H   0  0  0  0  0  0  0  0  0  0  0  0  # atno 8010 bound_to 7997
  139.6466  144.7127  151.2130 H   0  0  0  0  0  0  0  0  0  0  0  0  # atno 10167 bound_to 10162
  157.5389  131.1097  150.8891 H   0  0  0  0  0  0  0  0  0  0  0  0  # atno 10718 bound_to 10713
  154.7619  135.4916  153.9480 H   0  0  0  0  0  0  0  0  0  0  0  0  # atno 10763 bound_to 10752
  153.1261  135.6742  153.9262 H   0  0  0  0  0  0  0  0  0  0  0  0  # atno 10764 bound_to 10752
  153.8980  135.3113  155.3427 H   0  0  0  0  0  0  0  0  0  0  0  0  # atno 10765 bound_to 10752
  140.2517  134.7972  157.3507 H   0  0  0  0  0  0  0  0  0  0  0  0  # atno 11005 bound_to 11000
  144.7526  139.7155  143.7267 LP  0  0  0  0  0  0  0  0  0  0  0  0  # atno 17320 bound_to 7965
  146.1912  139.5153  142.9804 LP  0  0  0  0  0  0  0  0  0  0  0  0  # atno 17321 bound_to 7965
  140.7518  143.6220  150.8504 LP  0  0  0  0  0  0  0  0  0  0  0  0  # atno 17342 bound_to 10162
  139.9863  143.5895  152.2925 LP  0  0  0  0  0  0  0  0  0  0  0  0  # atno 17343 bound_to 10162
  156.9449  130.5398  149.5281 LP  0  0  0  0  0  0  0  0  0  0  0  0  # atno 17370 bound_to 10713
  156.0481  130.5554  150.8926 LP  0  0  0  0  0  0  0  0  0  0  0  0  # atno 17371 bound_to 10713
  140.1552  134.4799  155.7933 LP  0  0  0  0  0  0  0  0  0  0  0  0  # atno 17394 bound_to 11000
  141.2200  133.6878  156.7448 LP  0  0  0  0  0  0  0  0  0  0  0  0  # atno 17395 bound_to 11000

$$$$
