AV-unprocessed.smi:2445|AV-procd|sdf|9638|dock4
  -GOLD-   2272013273D 1   1.00000     0.00000
 Structure written by MMmdl.
 40 41  0  0  0  0  0  0  0  0  1 V2000
  139.9586  136.3161  154.1440 C   0  0  0  0  0  0  0  0  0  0  0  0
  141.2606  135.8391  153.5958 C   0  0  0  0  0  0  0  0  0  0  0  0
  141.6331  134.5469  153.3197 C   0  0  0  0  0  0  0  0  0  0  0  0
  142.9272  134.4295  152.8087 N   0  0  0  0  0  0  0  0  0  0  0  0
  143.5417  135.6099  152.6930 C   0  0  0  0  0  0  0  0  0  0  0  0
  144.9474  135.7631  152.1933 C   0  0  1  0  0  0  0  0  0  0  0  0
  145.1527  135.0714  150.8381 C   0  0  0  0  0  0  0  0  0  0  0  0
  145.4204  137.2338  152.1779 C   0  0  0  0  0  0  0  0  0  0  0  0
  146.7670  137.4013  152.7176 N   0  0  0  0  0  0  0  0  0  0  0  0
  147.0670  138.0795  153.8331 C   0  0  0  0  0  0  0  0  0  0  0  0
  146.2301  138.6093  154.5641 O   0  0  0  0  0  0  0  0  0  0  0  0
  148.3890  138.1175  154.0493 N   0  0  0  0  0  0  0  0  0  0  0  0
  149.0461  138.8166  155.1538 C   0  0  2  0  0  0  0  0  0  0  0  0
  148.6447  140.2905  155.1688 C   0  0  0  0  0  0  0  0  0  0  0  0
  149.9683  141.0338  155.3096 C   0  0  0  0  0  0  0  0  0  0  0  0
  150.8867  140.1853  154.6441 O   0  0  0  0  0  0  0  0  0  0  0  0
  150.5885  138.8541  155.0399 C   0  0  2  0  0  0  0  0  0  0  0  0
  151.2567  137.8566  154.0803 C   0  0  0  0  0  0  0  0  0  0  0  0
  142.5419  136.9611  153.2206 S   0  0  0  0  0  0  0  0  0  0  0  0
  139.2658  135.4871  154.2899 H   0  0  0  0  0  0  0  0  0  0  0  0
  139.4914  137.0290  153.4646 H   0  0  0  0  0  0  0  0  0  0  0  0
  140.1007  136.8088  155.1060 H   0  0  0  0  0  0  0  0  0  0  0  0
  141.0422  133.6531  153.4554 H   0  0  0  0  0  0  0  0  0  0  0  0
  145.5872  135.2336  152.9014 H   0  0  0  0  0  0  0  0  0  0  0  0
  144.8917  134.0142  150.8939 H   0  0  0  0  0  0  0  0  0  0  0  0
  146.1932  135.1371  150.5189 H   0  0  0  0  0  0  0  0  0  0  0  0
  144.5383  135.5262  150.0607 H   0  0  0  0  0  0  0  0  0  0  0  0
  145.3687  137.6428  151.1676 H   0  0  0  0  0  0  0  0  0  0  0  0
  144.7510  137.8402  152.7886 H   0  0  0  0  0  0  0  0  0  0  0  0
  147.5250  136.9993  152.1855 H   0  0  0  0  0  0  0  0  0  0  0  0
  148.9913  137.6446  153.3916 H   0  0  0  0  0  0  0  0  0  0  0  0
  148.7701  138.3588  156.1057 H   0  0  0  0  0  0  0  0  0  0  0  0
  148.1731  140.5767  154.2272 H   0  0  0  0  0  0  0  0  0  0  0  0
  147.9479  140.5300  155.9726 H   0  0  0  0  0  0  0  0  0  0  0  0
  149.9428  142.0296  154.8671 H   0  0  0  0  0  0  0  0  0  0  0  0
  150.2524  141.1297  156.3589 H   0  0  0  0  0  0  0  0  0  0  0  0
  151.0098  138.7110  156.0367 H   0  0  0  0  0  0  0  0  0  0  0  0
  151.0359  136.8284  154.3673 H   0  0  0  0  0  0  0  0  0  0  0  0
  152.3400  137.9767  154.0940 H   0  0  0  0  0  0  0  0  0  0  0  0
  150.9246  138.0012  153.0520 H   0  0  0  0  0  0  0  0  0  0  0  0
  1  2  1  0  0  0  0
  1 20  1  0  0  0  0
  1 21  1  0  0  0  0
  1 22  1  0  0  0  0
  2 19  1  0  0  0  0
  2  3  2  0  0  0  0
  3  4  1  0  0  0  0
  3 23  1  0  0  0  0
  4  5  2  0  0  0  0
  5  6  1  0  0  0  0
  5 19  1  0  0  0  0
  6  7  1  0  0  0  0
  6  8  1  0  0  0  0
  6 24  1  0  0  0  0
  7 25  1  0  0  0  0
  7 26  1  0  0  0  0
  7 27  1  0  0  0  0
  8  9  1  0  0  0  0
  8 28  1  0  0  0  0
  8 29  1  0  0  0  0
  9 10  1  0  0  0  0
  9 30  1  0  0  0  0
 10 11  2  0  0  0  0
 10 12  1  0  0  0  0
 12 13  1  0  0  0  0
 12 31  1  0  0  0  0
 13 17  1  0  0  0  0
 13 14  1  0  0  0  0
 13 32  1  0  0  0  0
 14 15  1  0  0  0  0
 14 33  1  0  0  0  0
 14 34  1  0  0  0  0
 15 16  1  0  0  0  0
 15 35  1  0  0  0  0
 15 36  1  0  0  0  0
 16 17  1  0  0  0  0
 17 18  1  0  0  0  0
 17 37  1  0  0  0  0
 18 38  1  0  0  0  0
 18 39  1  0  0  0  0
 18 40  1  0  0  0  0
M  END
> <s_m_source_file>
AV-unprocessed.smi

> <i_m_source_file_index>
2445

> <i_lp_mmshare_version>
43012

> <i_f3d_flags>
0

> <s_epik_input>
W0NIM11jMVtjSF1uYyhzMSlbQ0BIXShbQ0gzXSlbQ0gyXVtOSF1DKD1PKVtOSF1bQ0BASF0yW0NIMl1bQ0gyXU9bQ0BIXTJbQ0gzXQ==

> <s_epik_cmdline>
J2VwaWtfcHl0aG9uJywgJy1waCcsICc3LjAnLCAnLXRuJywgJzgnLCAnLW1hJywgJzIwMCcsICctbWV0YWxfYmluZGluZycsICctaW1hZScsICc8aW5maWxlLm1hZT4nLCAnLW9tYWUnLCAnPG91dGZpbGUubWFlPic=

> <r_epik_Ionization_Penalty>
0.000649483

> <r_epik_Ionization_Penalty_Charging>
0

> <r_epik_Ionization_Penalty_Neutral>
0.000649483

> <r_epik_State_Penalty>
0.000379895

> <r_epik_Charging_Adjusted_Penalty>
0.000379895

> <i_epik_Tot_Q>
0

> <i_epik_Tot_abs_Q>
0

> <r_epik_Metal_State_Penalty>
-0

> <b_epik_Metal_Only>
0

> <s_lp_Force_Field>
OPLS_2005

> <r_lp_Energy>
6.13351

> <b_lp_Chiralities_Consistent>
1

> <s_lp_Variant>
AV-unprocessed.smi:2445-6

> <Gold.Version>
5.8.1

> <Gold.Id.Protein>
6NUR|6NUR_protein|mol2

> <Gold.PLP.Fitness>
41.2487

> <Gold.PLP.PLP>
-33.9057

> <Gold.PLP.part.hbond>
-3.0000

> <Gold.PLP.part.metal>
0.0000

> <Gold.PLP.part.buried>
-4.5290

> <Gold.PLP.part.nonpolar>
-26.8148

> <Gold.PLP.part.repulsive>
0.4100

> <Gold.PLP.ligand.clash>
0.0000

> <Gold.PLP.ligand.torsion>
0.6865

> <Gold.PLP.Chemscore.Hbond>
2.8723

> <Gold.PLP.Chemscore.CHOScore>
0.0000

> <Gold.PLP.Chemscore.Metal>
0.0000

> <Gold.Chemscore.Hbonds>
donor molecule, donor type, donor heavy atom, donor atom, acceptor molecule, acceptor atom, score
      L1  H     9    30       P1  7948  1.00
      L1  H    12    31       P1  7948  0.80
      P1  H  7989  7998       L1    16  0.99
      L1  C     3    23       P1 10957  0.21

> <Gold.PLP.Chemscore.Internal.Correction>
0.0991

> <Gold.Rescore>
     Score         DG    S(hbond)    S(metal)    S(lipo)     H(rot)  DE(clash)    DE(int)     intcor
     17.96     -20.06       2.86        0.00      76.58       1.53       0.09       2.01       ----

> <Gold.Chemscore.Fitness>
17.9642

> <Gold.Chemscore.DG>
-20.0636

> <Gold.Chemscore.ZeroCoef>
-5.4800

> <Gold.Chemscore.Hbond>
2.8585

> <Gold.Chemscore.Metal>
0.0000

> <Gold.Chemscore.Lipo>
76.5772

> <Gold.Chemscore.Internal_Hbond>
0.0000

> <Gold.Chemscore.DEClash>
0.0908

> <Gold.Chemscore.DEInternal>
2.0085

> <Gold.Chemscore.Rot>
1.5325

> <Gold.Chemscore.Internal.Correction>
   9.000000E+99

> <Gold.Chemscore.Hbonds>
donor molecule, donor type, donor heavy atom, donor atom, acceptor molecule, acceptor atom, score
      L1  H     9    30       P1  7948  0.99
      L1  H    12    31       P1  7948  0.75
      P1  H  7989  7998       L1    16  0.79

> <Gold.Chemscore.Hbond.Weighted>
-9.5474

> <Gold.Chemscore.Metal.Weighted>
-0.0000

> <Gold.Chemscore.Lipo.Weighted>
-8.9595

> <Gold.Chemscore.Internal_Hbond.Weighted>
0.0000

> <Gold.Chemscore.DEClash.Weighted>
0.0908

> <Gold.Chemscore.DEInternal.Weighted>
2.0085

> <Gold.Chemscore.Rot.Weighted>
3.9233

> <Gold.Chemscore.Internal.Correction.Weighted>
   9.000000E+99

> <Gold.Protein.RotatedTorsions>
[ 6907 6896 6895 6894 ] final    9.18 input  -60.11 | X-H torsion
[ 7974 7965 7964 7962 ] final  -79.98 input  175.53 | X-H torsion
[ 8008 7997 7996 7995 ] final -119.50 input   59.86 | X-H torsion
[ 10167 10162 10161 10158 ] final  179.57 input  -65.29 | X-H torsion
[ 10718 10713 10712 10709 ] final  136.48 input   66.30 | X-H torsion
[ 10763 10752 10751 10750 ] final    9.69 input  -60.55 | X-H torsion
[ 11005 11000 10999 10996 ] final   79.41 input  -57.11 | X-H torsion

> <Gold.Protein.ActiveResidues>
 VAL166  LYS551  ARG553  GLY616  TRP617  ASP618  TYR619  PRO620  LYS621  CYS622 
 ASP623  PHE694  ASN695  SER759  ASP760  ASP761  ALA762  ILE779  LEU786  VAL792 
 PHE793  MET794  SER795  GLU796  ALA797  LYS798  CYS799  TRP800  GLU811  SER814 

> <Gold.Protein.RotatedAtoms>
  151.7180  135.0900  160.0278 H   0  0  0  0  0  0  0  0  0  0  0  0  # atno 6907 bound_to 6896
  152.3620  133.6304  159.6030 H   0  0  0  0  0  0  0  0  0  0  0  0  # atno 6908 bound_to 6896
  150.7611  133.9325  159.3472 H   0  0  0  0  0  0  0  0  0  0  0  0  # atno 6909 bound_to 6896
  145.5660  140.9474  143.1421 H   0  0  0  0  0  0  0  0  0  0  0  0  # atno 7974 bound_to 7965
  155.1167  140.0398  157.2739 H   0  0  0  0  0  0  0  0  0  0  0  0  # atno 8008 bound_to 7997
  154.6645  140.2598  155.7048 H   0  0  0  0  0  0  0  0  0  0  0  0  # atno 8009 bound_to 7997
  156.2633  140.2810  156.1129 H   0  0  0  0  0  0  0  0  0  0  0  0  # atno 8010 bound_to 7997
  139.5342  144.2545  152.0757 H   0  0  0  0  0  0  0  0  0  0  0  0  # atno 10167 bound_to 10162
  157.4462  131.1062  151.0086 H   0  0  0  0  0  0  0  0  0  0  0  0  # atno 10718 bound_to 10713
  153.2112  135.6869  153.8111 H   0  0  0  0  0  0  0  0  0  0  0  0  # atno 10763 bound_to 10752
  153.7343  135.3248  155.3293 H   0  0  0  0  0  0  0  0  0  0  0  0  # atno 10764 bound_to 10752
  154.8223  135.4643  154.0921 H   0  0  0  0  0  0  0  0  0  0  0  0  # atno 10765 bound_to 10752
  139.9174  134.7840  156.1775 H   0  0  0  0  0  0  0  0  0  0  0  0  # atno 11005 bound_to 11000
  144.7460  139.7319  143.7292 LP  0  0  0  0  0  0  0  0  0  0  0  0  # atno 17320 bound_to 7965
  146.1818  139.5014  142.9862 LP  0  0  0  0  0  0  0  0  0  0  0  0  # atno 17321 bound_to 7965
  140.2013  144.4655  150.6430 LP  0  0  0  0  0  0  0  0  0  0  0  0  # atno 17342 bound_to 10162
  140.6539  143.2232  151.6014 LP  0  0  0  0  0  0  0  0  0  0  0  0  # atno 17343 bound_to 10162
  157.0932  130.5951  149.5444 LP  0  0  0  0  0  0  0  0  0  0  0  0  # atno 17370 bound_to 10713
  155.9968  130.5039  150.7512 LP  0  0  0  0  0  0  0  0  0  0  0  0  # atno 17371 bound_to 10713
  141.0662  133.6818  156.2050 LP  0  0  0  0  0  0  0  0  0  0  0  0  # atno 17394 bound_to 11000
  140.6581  134.4997  157.5582 LP  0  0  0  0  0  0  0  0  0  0  0  0  # atno 17395 bound_to 11000

$$$$
