#       Name:                AV-unprocessed.smi:1891
#       Creating user name   scv26
#       Creation time:       Fri Mar 27 09:40:29 2020


#       File generated by GOLD software.
#

@<TRIPOS>MOLECULE
AV-unprocessed.smi:1891
    41    43     1
SMALL
NO_CHARGES


@<TRIPOS>ATOM
      1 ****        -1.4972   3.5583   0.7374 O.3            1 S1                 0.0000
      2 ****        -1.4759   3.0152  -0.5637 C.3            1 S1                 0.0000
      3 ****        -1.9286   1.5915  -0.5920 C.2            1 S1                 0.0000
      4 ****        -3.2277   1.1788  -0.5806 N.pl3          1 S1                 1.0000
      5 ****        -3.2832  -0.2151  -0.5994 C.ar           1 S1                 0.0000
      6 ****        -4.3693  -1.0849  -0.5946 C.ar           1 S1                 0.0000
      7 ****        -4.0754  -2.4641  -0.6157 C.ar           1 S1                 0.0000
      8 ****        -2.7451  -2.9314  -0.6410 C.ar           1 S1                 0.0000
      9 ****        -1.6522  -2.0397  -0.6452 C.ar           1 S1                 0.0000
     10 ****        -1.9519  -0.6776  -0.6239 C.ar           1 S1                 0.0000
     11 ****        -1.1501   0.4692  -0.6160 N.pl3          1 S1                 0.0000
     12 ****         0.3131   0.3100  -0.6219 C.3            1 S1                 0.0000
     13 ****         0.8887  -0.0048   0.7733 C.3            1 S1                 0.0000
     14 ****         0.5046   1.0038   1.6888 O.3            1 S1                 0.0000
     15 ****         2.3971  -0.2041   0.7088 C.ar           1 S1                 0.0000
     16 ****         3.2786   0.8871   0.8828 C.ar           1 S1                 0.0000
     17 ****         4.6717   0.6956   0.8076 C.ar           1 S1                 0.0000
     18 ****         5.1941  -0.5861   0.5519 C.ar           1 S1                 0.0000
     19 ****         6.5335  -0.7698   0.4768 F              1 S1                 0.0000
     20 ****         4.3222  -1.6762   0.3699 C.ar           1 S1                 0.0000
     21 ****         2.9284  -1.4873   0.4462 C.ar           1 S1                 0.0000
     22 ****         2.1020  -2.5446   0.2582 F              1 S1                 0.0000
     23 ****        -1.1842   4.4492   0.6970 H              1 S1                 0.0000
     24 ****        -2.1269   3.6103  -1.2046 H              1 S1                 0.0000
     25 ****        -0.4693   3.1018  -0.9704 H              1 S1                 0.0000
     26 ****        -5.3891  -0.7294  -0.5744 H              1 S1                 0.0000
     27 ****        -4.8863  -3.1782  -0.6117 H              1 S1                 0.0000
     28 ****        -2.5589  -3.9955  -0.6563 H              1 S1                 0.0000
     29 ****        -0.6368  -2.4077  -0.6623 H              1 S1                 0.0000
     30 ****         0.5685  -0.4765  -1.3333 H              1 S1                 0.0000
     31 ****         0.7545   1.2248  -1.0161 H              1 S1                 0.0000
     32 ****         0.4421  -0.9284   1.1424 H              1 S1                 0.0000
     33 ****         0.7729   0.7399   2.5558 H              1 S1                 0.0000
     34 ****         2.8929   1.8785   1.0706 H              1 S1                 0.0000
     35 ****         5.3394   1.5339   0.9432 H              1 S1                 0.0000
     36 ****         4.7227  -2.6587   0.1680 H              1 S1                 0.0000
     37 ****        -4.0174   1.8105  -0.5538 H              1 S1                 0.0000
     38 ****        -0.9051   3.0200   1.3370 LP             1 S1                 0.0000
     39 ****        -2.4319   3.5453   1.0927 LP             1 S1                 0.0000
     40 ****        -0.4882   1.1215   1.6641 LP             1 S1                 0.0000
     41 ****         0.9486   1.8664   1.4462 LP             1 S1                 0.0000
@<TRIPOS>BOND
    1    1    2 1     
    2    1   23 1     
    3    2    3 1     
    4    2   24 1     
    5    2   25 1     
    6    3   11 1     
    7    3    4 2     
    8    4    5 1     
    9    4   37 1     
   10    5   10 ar    
   11    5    6 ar    
   12    6    7 ar    
   13    6   26 1     
   14    7    8 ar    
   15    7   27 1     
   16    8    9 ar    
   17    8   28 1     
   18    9   10 ar    
   19    9   29 1     
   20   10   11 1     
   21   11   12 1     
   22   12   13 1     
   23   12   30 1     
   24   12   31 1     
   25   13   14 1     
   26   13   15 1     
   27   13   32 1     
   28   14   33 1     
   29   15   21 ar    
   30   15   16 ar    
   31   16   17 ar    
   32   16   34 1     
   33   17   18 ar    
   34   17   35 1     
   35   18   19 1     
   36   18   20 ar    
   37   20   21 ar    
   38   20   36 1     
   39   21   22 1     
   40    1   38 1     
   41    1   39 1     
   42   14   40 1     
   43   14   41 1     
@<TRIPOS>SUBSTRUCTURE
      1 S1             1
@<TRIPOS>SET
LONE_PAIRS      STATIC     ATOMS    <user>   **** ""
4 38 39 40 41
DONOR_HYDROGENS      STATIC     ATOMS    <user>   **** ""
3 23 37 33
ATOM$BLUE        STATIC     ATOMS    COLORGROUP SYSTEM
4 38 39 40 41
ATOM$RED        STATIC     ATOMS    COLORGROUP SYSTEM
3 23 37 33
