AV-unprocessed.smi:3151|AV-procd|sdf|12016|dock2
  -GOLD-   2272017423D 1   1.00000     0.00000
 Structure written by MMmdl.
 35 36  0  0  0  0  0  0  0  0  1 V2000
  153.9766  139.7075  158.9965 O   0  0  0  0  0  0  0  0  0  0  0  0
  153.1703  140.6357  159.0625 C   0  0  0  0  0  0  0  0  0  0  0  0
  153.3923  141.7857  160.0507 C   0  0  0  0  0  0  0  0  0  0  0  0
  152.4480  142.9841  159.8197 C   0  0  0  0  0  0  0  0  0  0  0  0
  152.8128  143.8686  158.6213 C   0  0  0  0  0  0  0  0  0  0  0  0
  152.1285  145.2146  158.8887 C   0  0  0  0  0  0  0  0  0  0  0  0
  151.8389  145.2618  160.3966 C   0  0  0  0  0  0  0  0  0  0  0  0
  152.4262  143.9754  160.9852 C   0  0  0  0  0  0  0  0  0  0  0  0
  152.0731  140.7119  158.2938 N   0  0  0  0  0  0  0  0  0  0  0  0
  151.6799  139.7210  157.2991 C   0  0  0  0  0  0  0  0  0  0  0  0
  151.6028  140.3331  155.8908 C   0  0  0  0  0  0  0  0  0  0  0  0
  150.2471  140.7169  155.5544 N   0  0  0  0  0  0  0  0  0  0  0  0
  149.5517  140.4097  154.3923 C   0  0  0  0  0  0  0  0  0  0  0  0
  148.3081  140.9872  154.5149 C   0  0  0  0  0  0  0  0  0  0  0  0
  148.2177  141.6515  155.7361 N   0  0  0  0  0  0  0  0  0  0  0  0
  149.4032  141.4473  156.2960 C   0  0  0  0  0  0  0  0  0  0  0  0
  153.2452  141.3940  161.0577 H   0  0  0  0  0  0  0  0  0  0  0  0
  154.4303  142.1185  159.9985 H   0  0  0  0  0  0  0  0  0  0  0  0
  151.4291  142.6190  159.6776 H   0  0  0  0  0  0  0  0  0  0  0  0
  153.8936  144.0137  158.5835 H   0  0  0  0  0  0  0  0  0  0  0  0
  152.5067  143.4321  157.6700 H   0  0  0  0  0  0  0  0  0  0  0  0
  152.7584  146.0459  158.5706 H   0  0  0  0  0  0  0  0  0  0  0  0
  151.1942  145.2823  158.3302 H   0  0  0  0  0  0  0  0  0  0  0  0
  152.2621  146.1489  160.8688 H   0  0  0  0  0  0  0  0  0  0  0  0
  150.7611  145.2878  160.5615 H   0  0  0  0  0  0  0  0  0  0  0  0
  151.8525  143.6076  161.8365 H   0  0  0  0  0  0  0  0  0  0  0  0
  153.4433  144.1667  161.3305 H   0  0  0  0  0  0  0  0  0  0  0  0
  151.4645  141.5090  158.4111 H   0  0  0  0  0  0  0  0  0  0  0  0
  152.3763  138.8804  157.3147 H   0  0  0  0  0  0  0  0  0  0  0  0
  150.7063  139.3219  157.5848 H   0  0  0  0  0  0  0  0  0  0  0  0
  152.2413  141.2147  155.8210 H   0  0  0  0  0  0  0  0  0  0  0  0
  151.9559  139.6247  155.1400 H   0  0  0  0  0  0  0  0  0  0  0  0
  149.9868  139.8229  153.5967 H   0  0  0  0  0  0  0  0  0  0  0  0
  147.4784  140.9768  153.8235 H   0  0  0  0  0  0  0  0  0  0  0  0
  149.6648  141.8398  157.2679 H   0  0  0  0  0  0  0  0  0  0  0  0
  1  2  2  0  0  0  0
  2  3  1  0  0  0  0
  2  9  1  0  0  0  0
  3  4  1  0  0  0  0
  3 17  1  0  0  0  0
  3 18  1  0  0  0  0
  4  8  1  0  0  0  0
  4  5  1  0  0  0  0
  4 19  1  0  0  0  0
  5  6  1  0  0  0  0
  5 20  1  0  0  0  0
  5 21  1  0  0  0  0
  6  7  1  0  0  0  0
  6 22  1  0  0  0  0
  6 23  1  0  0  0  0
  7  8  1  0  0  0  0
  7 24  1  0  0  0  0
  7 25  1  0  0  0  0
  8 26  1  0  0  0  0
  8 27  1  0  0  0  0
  9 10  1  0  0  0  0
  9 28  1  0  0  0  0
 10 11  1  0  0  0  0
 10 29  1  0  0  0  0
 10 30  1  0  0  0  0
 11 12  1  0  0  0  0
 11 31  1  0  0  0  0
 11 32  1  0  0  0  0
 12 16  1  0  0  0  0
 12 13  1  0  0  0  0
 13 14  2  0  0  0  0
 13 33  1  0  0  0  0
 14 15  1  0  0  0  0
 14 34  1  0  0  0  0
 15 16  2  0  0  0  0
 16 35  1  0  0  0  0
M  END
> <s_m_source_file>
AV-unprocessed.smi

> <i_m_source_file_index>
3151

> <i_lp_mmshare_version>
43012

> <i_f3d_flags>
0

> <s_epik_input>
W0NIMl0xW0NIMl1bQ0gyXVtDSDJdW0NIXTFbQ0gyXUMoPU8pW05IXVtDSDJdW0NIMl1uMltjSF1bY0hdbltjSF0y

> <s_epik_cmdline>
J2VwaWtfcHl0aG9uJywgJy1waCcsICc3LjAnLCAnLXRuJywgJzgnLCAnLW1hJywgJzIwMCcsICctbWV0YWxfYmluZGluZycsICctaW1hZScsICc8aW5maWxlLm1hZT4nLCAnLW9tYWUnLCAnPG91dGZpbGUubWFlPic=

> <r_lp_tautomer_probability>
1

> <r_epik_Ionization_Penalty>
0.596413

> <r_epik_Ionization_Penalty_Charging>
0.596413

> <r_epik_Ionization_Penalty_Neutral>
2.16921e-08

> <r_epik_State_Penalty>
0.610423

> <r_epik_Charging_Adjusted_Penalty>
1.20684

> <i_epik_Tot_Q>
0

> <i_epik_Tot_abs_Q>
0

> <r_epik_Metal_State_Penalty>
0.300145

> <b_epik_Metal_Only>
0

> <s_lp_Force_Field>
OPLS_2005

> <r_lp_Energy>
20.9474

> <b_lp_Chiralities_Consistent>
1

> <s_lp_Variant>
AV-unprocessed.smi:3151-2

> <Gold.Version>
5.8.1

> <Gold.Id.Protein>
6NUR|6NUR_protein|mol2

> <Gold.PLP.Fitness>
46.0263

> <Gold.PLP.PLP>
-41.0805

> <Gold.PLP.part.hbond>
-1.0000

> <Gold.PLP.part.metal>
0.0000

> <Gold.PLP.part.buried>
-3.5665

> <Gold.PLP.part.nonpolar>
-36.1592

> <Gold.PLP.part.repulsive>
0.4792

> <Gold.PLP.ligand.clash>
0.0000

> <Gold.PLP.ligand.torsion>
0.5703

> <Gold.PLP.Chemscore.Hbond>
1.0000

> <Gold.PLP.Chemscore.CHOScore>
1.0000

> <Gold.PLP.Chemscore.Metal>
0.0000

> <Gold.Chemscore.Hbonds>
donor molecule, donor type, donor heavy atom, donor atom, acceptor molecule, acceptor atom, score
      P1  H  7997  8008       L1     1  1.00
      L1  C    13    33       P1  7957  0.97

> <Gold.PLP.Chemscore.Internal.Correction>
0.0863

> <Gold.Rescore>
     Score         DG    S(hbond)    S(metal)    S(lipo)     H(rot)  DE(clash)    DE(int)     intcor
     14.45     -15.00       0.91        0.00      98.90       1.99       0.01       0.54       ----

> <Gold.Chemscore.Fitness>
14.4509

> <Gold.Chemscore.DG>
-15.0043

> <Gold.Chemscore.ZeroCoef>
-5.4800

> <Gold.Chemscore.Hbond>
0.9140

> <Gold.Chemscore.Metal>
0.0000

> <Gold.Chemscore.Lipo>
98.8977

> <Gold.Chemscore.Internal_Hbond>
0.0000

> <Gold.Chemscore.DEClash>
0.0121

> <Gold.Chemscore.DEInternal>
0.5412

> <Gold.Chemscore.Rot>
1.9920

> <Gold.Chemscore.Internal.Correction>
   9.000000E+99

> <Gold.Chemscore.Hbonds>
donor molecule, donor type, donor heavy atom, donor atom, acceptor molecule, acceptor atom, score
      P1  H  7997  8008       L1     1  0.43

> <Gold.Chemscore.Hbond.Weighted>
-3.0528

> <Gold.Chemscore.Metal.Weighted>
-0.0000

> <Gold.Chemscore.Lipo.Weighted>
-11.5710

> <Gold.Chemscore.Internal_Hbond.Weighted>
0.0000

> <Gold.Chemscore.DEClash.Weighted>
0.0121

> <Gold.Chemscore.DEInternal.Weighted>
0.5412

> <Gold.Chemscore.Rot.Weighted>
5.0996

> <Gold.Chemscore.Internal.Correction.Weighted>
   9.000000E+99

> <Gold.Protein.RotatedTorsions>
[ 6907 6896 6895 6894 ] final   94.56 input  -60.11 | X-H torsion
[ 7974 7965 7964 7962 ] final  -79.43 input  175.53 | X-H torsion
[ 8008 7997 7996 7995 ] final -111.49 input   59.86 | X-H torsion
[ 10167 10162 10161 10158 ] final -113.03 input  -65.29 | X-H torsion
[ 10718 10713 10712 10709 ] final  -89.07 input   66.30 | X-H torsion
[ 10763 10752 10751 10750 ] final   35.59 input  -60.55 | X-H torsion
[ 11005 11000 10999 10996 ] final   -8.23 input  -57.11 | X-H torsion

> <Gold.Protein.ActiveResidues>
 VAL166  LYS551  ARG553  GLY616  TRP617  ASP618  TYR619  PRO620  LYS621  CYS622 
 ASP623  PHE694  ASN695  SER759  ASP760  ASP761  ALA762  ILE779  LEU786  VAL792 
 PHE793  MET794  SER795  GLU796  ALA797  LYS798  CYS799  TRP800  GLU811  SER814 

> <Gold.Protein.RotatedAtoms>
  152.5449  134.1174  159.8384 H   0  0  0  0  0  0  0  0  0  0  0  0  # atno 6907 bound_to 6896
  151.1234  133.5080  159.2609 H   0  0  0  0  0  0  0  0  0  0  0  0  # atno 6908 bound_to 6896
  151.1754  135.0346  159.8824 H   0  0  0  0  0  0  0  0  0  0  0  0  # atno 6909 bound_to 6896
  145.5733  140.9462  143.1383 H   0  0  0  0  0  0  0  0  0  0  0  0  # atno 7974 bound_to 7965
  154.9906  140.0395  157.2318 H   0  0  0  0  0  0  0  0  0  0  0  0  # atno 8008 bound_to 7997
  154.7631  140.2788  155.6175 H   0  0  0  0  0  0  0  0  0  0  0  0  # atno 8009 bound_to 7997
  156.2907  140.2624  156.2415 H   0  0  0  0  0  0  0  0  0  0  0  0  # atno 8010 bound_to 7997
  140.1162  143.4483  152.1720 H   0  0  0  0  0  0  0  0  0  0  0  0  # atno 10167 bound_to 10162
  155.9984  130.4859  150.5116 H   0  0  0  0  0  0  0  0  0  0  0  0  # atno 10718 bound_to 10713
  153.0113  135.6329  154.1851 H   0  0  0  0  0  0  0  0  0  0  0  0  # atno 10763 bound_to 10752
  154.1593  135.2824  155.3115 H   0  0  0  0  0  0  0  0  0  0  0  0  # atno 10764 bound_to 10752
  154.5994  135.5592  153.7419 H   0  0  0  0  0  0  0  0  0  0  0  0  # atno 10765 bound_to 10752
  140.7213  133.8826  155.8823 H   0  0  0  0  0  0  0  0  0  0  0  0  # atno 11005 bound_to 11000
  144.7427  139.7403  143.7304 LP  0  0  0  0  0  0  0  0  0  0  0  0  # atno 17320 bound_to 7965
  146.1769  139.4943  142.9892 LP  0  0  0  0  0  0  0  0  0  0  0  0  # atno 17321 bound_to 7965
  139.5593  144.7394  151.4203 LP  0  0  0  0  0  0  0  0  0  0  0  0  # atno 17342 bound_to 10162
  140.6898  143.7889  150.7238 LP  0  0  0  0  0  0  0  0  0  0  0  0  # atno 17343 bound_to 10162
  157.3088  131.0659  151.2016 LP  0  0  0  0  0  0  0  0  0  0  0  0  # atno 17370 bound_to 10713
  157.2969  130.6823  149.6143 LP  0  0  0  0  0  0  0  0  0  0  0  0  # atno 17371 bound_to 10713
  141.0001  134.1162  157.4325 LP  0  0  0  0  0  0  0  0  0  0  0  0  # atno 17394 bound_to 11000
  139.8847  135.0066  156.6389 LP  0  0  0  0  0  0  0  0  0  0  0  0  # atno 17395 bound_to 11000

$$$$
