AV-unprocessed.smi:3028|AV-procd|sdf|11522|dock5
  -GOLD-   2272016463D 1   1.00000     0.00000
 Structure written by MMmdl.
 47 48  0  0  0  0  0  0  0  0  1 V2000
  151.7046  144.9761  157.7603 C   0  0  0  0  0  0  0  0  0  0  0  0
  152.0371  143.7886  158.6162 C   0  0  0  0  0  0  0  0  0  0  0  0
  151.3296  142.5575  158.7173 C   0  0  0  0  0  0  0  0  0  0  0  0
  151.8853  141.7133  159.5702 N   0  0  0  0  0  0  0  0  0  0  0  0
  152.9685  142.3680  160.0415 N   0  0  0  0  0  0  0  0  0  0  0  0
  153.8343  141.7267  161.0245 C   0  0  1  0  0  0  0  0  0  0  0  0
  153.5201  142.2973  162.4205 C   0  0  0  0  0  0  0  0  0  0  0  0
  153.7353  140.1756  160.9558 C   0  0  2  0  0  0  0  0  0  0  0  0
  154.6536  139.4683  161.9679 C   0  0  0  0  0  0  0  0  0  0  0  0
  154.1544  139.6989  159.6394 N   0  0  0  0  0  0  0  0  0  0  0  0
  153.2993  138.6212  159.1230 C   0  0  0  0  0  0  0  0  0  0  0  0
  152.5325  139.0281  157.8552 C   0  0  0  0  0  0  0  0  0  0  0  0
  153.1447  139.2981  156.8226 O   0  0  0  0  0  0  0  0  0  0  0  0
  151.1894  139.0712  157.8840 N   0  0  0  0  0  0  0  0  0  0  0  0
  150.2835  139.4302  156.7951 C   0  0  0  0  0  0  0  0  0  0  0  0
  150.5227  138.5060  155.5918 C   0  0  0  0  0  0  0  0  0  0  0  0
  149.6888  138.9627  154.3836 C   0  0  0  0  0  0  0  0  0  0  0  0
  149.9926  140.3164  154.0636 O   0  0  0  0  0  0  0  0  0  0  0  0
  149.6748  141.2202  155.1162 C   0  0  0  0  0  0  0  0  0  0  0  0
  150.5097  140.8887  156.3629 C   0  0  0  0  0  0  0  0  0  0  0  0
  153.0818  143.6248  159.4807 C   0  0  0  0  0  0  0  0  0  0  0  0
  150.6550  144.9812  157.4663 H   0  0  0  0  0  0  0  0  0  0  0  0
  152.2955  144.9889  156.8447 H   0  0  0  0  0  0  0  0  0  0  0  0
  151.8948  145.9149  158.2810 H   0  0  0  0  0  0  0  0  0  0  0  0
  150.4302  142.2559  158.2011 H   0  0  0  0  0  0  0  0  0  0  0  0
  154.8632  142.0101  160.7933 H   0  0  0  0  0  0  0  0  0  0  0  0
  154.2621  141.9905  163.1573 H   0  0  0  0  0  0  0  0  0  0  0  0
  152.5414  141.9722  162.7747 H   0  0  0  0  0  0  0  0  0  0  0  0
  153.5228  143.3878  162.4055 H   0  0  0  0  0  0  0  0  0  0  0  0
  152.7121  139.8617  161.1705 H   0  0  0  0  0  0  0  0  0  0  0  0
  154.3466  139.6665  162.9947 H   0  0  0  0  0  0  0  0  0  0  0  0
  155.6903  139.7897  161.8602 H   0  0  0  0  0  0  0  0  0  0  0  0
  154.6257  138.3858  161.8366 H   0  0  0  0  0  0  0  0  0  0  0  0
  155.1165  139.3958  159.6920 H   0  0  0  0  0  0  0  0  0  0  0  0
  153.9125  137.7508  158.8869 H   0  0  0  0  0  0  0  0  0  0  0  0
  152.5926  138.3241  159.8946 H   0  0  0  0  0  0  0  0  0  0  0  0
  150.7489  138.8218  158.7578 H   0  0  0  0  0  0  0  0  0  0  0  0
  149.2460  139.3034  157.1071 H   0  0  0  0  0  0  0  0  0  0  0  0
  151.5792  138.5133  155.3197 H   0  0  0  0  0  0  0  0  0  0  0  0
  150.2731  137.4764  155.8496 H   0  0  0  0  0  0  0  0  0  0  0  0
  149.9112  138.3384  153.5181 H   0  0  0  0  0  0  0  0  0  0  0  0
  148.6218  138.8570  154.5859 H   0  0  0  0  0  0  0  0  0  0  0  0
  149.8858  142.2368  154.7841 H   0  0  0  0  0  0  0  0  0  0  0  0
  148.6081  141.1733  155.3398 H   0  0  0  0  0  0  0  0  0  0  0  0
  150.2578  141.5729  157.1721 H   0  0  0  0  0  0  0  0  0  0  0  0
  151.5653  141.0503  156.1392 H   0  0  0  0  0  0  0  0  0  0  0  0
  153.8881  144.2934  159.7437 H   0  0  0  0  0  0  0  0  0  0  0  0
  1  2  1  0  0  0  0
  1 22  1  0  0  0  0
  1 23  1  0  0  0  0
  1 24  1  0  0  0  0
  2 21  2  0  0  0  0
  2  3  1  0  0  0  0
  3  4  2  0  0  0  0
  3 25  1  0  0  0  0
  4  5  1  0  0  0  0
  5  6  1  0  0  0  0
  5 21  1  0  0  0  0
  6  7  1  0  0  0  0
  6  8  1  0  0  0  0
  6 26  1  0  0  0  0
  7 27  1  0  0  0  0
  7 28  1  0  0  0  0
  7 29  1  0  0  0  0
  8  9  1  0  0  0  0
  8 10  1  0  0  0  0
  8 30  1  0  0  0  0
  9 31  1  0  0  0  0
  9 32  1  0  0  0  0
  9 33  1  0  0  0  0
 10 11  1  0  0  0  0
 10 34  1  0  0  0  0
 11 12  1  0  0  0  0
 11 35  1  0  0  0  0
 11 36  1  0  0  0  0
 12 13  2  0  0  0  0
 12 14  1  0  0  0  0
 14 15  1  0  0  0  0
 14 37  1  0  0  0  0
 15 20  1  0  0  0  0
 15 16  1  0  0  0  0
 15 38  1  0  0  0  0
 16 17  1  0  0  0  0
 16 39  1  0  0  0  0
 16 40  1  0  0  0  0
 17 18  1  0  0  0  0
 17 41  1  0  0  0  0
 17 42  1  0  0  0  0
 18 19  1  0  0  0  0
 19 20  1  0  0  0  0
 19 43  1  0  0  0  0
 19 44  1  0  0  0  0
 20 45  1  0  0  0  0
 20 46  1  0  0  0  0
 21 47  1  0  0  0  0
M  END
> <s_m_source_file>
AV-unprocessed.smi

> <i_m_source_file_index>
3028

> <i_lp_mmshare_version>
43012

> <i_f3d_flags>
0

> <s_epik_input>
W0NIM11jMVtjSF1ubihbY0hdMSlbQ0BIXShbQ0gzXSlbQ0BIXShbQ0gzXSlbTkhdW0NIMl1DKD1PKVtOSF1bQ0hdMltDSDJdW0NIMl1PW0NIMl1bQ0gyXTI=

> <s_epik_cmdline>
J2VwaWtfcHl0aG9uJywgJy1waCcsICc3LjAnLCAnLXRuJywgJzgnLCAnLW1hJywgJzIwMCcsICctbWV0YWxfYmluZGluZycsICctaW1hZScsICc8aW5maWxlLm1hZT4nLCAnLW9tYWUnLCAnPG91dGZpbGUubWFlPic=

> <r_lp_tautomer_probability>
1

> <r_epik_Ionization_Penalty>
0.88617

> <r_epik_Ionization_Penalty_Charging>
0

> <r_epik_Ionization_Penalty_Neutral>
0.88617

> <r_epik_State_Penalty>
0.921066

> <r_epik_Charging_Adjusted_Penalty>
0.921066

> <i_epik_Tot_Q>
0

> <i_epik_Tot_abs_Q>
0

> <r_epik_Metal_State_Penalty>
0.917309

> <b_epik_Metal_Only>
0

> <s_lp_Force_Field>
OPLS_2005

> <r_lp_Energy>
17.6671

> <b_lp_Chiralities_Consistent>
1

> <s_lp_Variant>
AV-unprocessed.smi:3028-6

> <Gold.Version>
5.8.1

> <Gold.Id.Protein>
6NUR|6NUR_protein|mol2

> <Gold.PLP.Fitness>
43.4084

> <Gold.PLP.PLP>
-40.9250

> <Gold.PLP.part.hbond>
-1.8486

> <Gold.PLP.part.metal>
0.0000

> <Gold.PLP.part.buried>
-6.6817

> <Gold.PLP.part.nonpolar>
-34.4081

> <Gold.PLP.part.repulsive>
1.3448

> <Gold.PLP.ligand.clash>
0.0000

> <Gold.PLP.ligand.torsion>
1.5475

> <Gold.PLP.Chemscore.Hbond>
1.8320

> <Gold.PLP.Chemscore.CHOScore>
0.0000

> <Gold.PLP.Chemscore.Metal>
0.0000

> <Gold.Chemscore.Hbonds>
donor molecule, donor type, donor heavy atom, donor atom, acceptor molecule, acceptor atom, score
      P1  H  7989  7998       L1    18  0.82
      P1  H  7997  8009       L1    13  0.98

> <Gold.PLP.Chemscore.Internal.Correction>
0.0823

> <Gold.Rescore>
     Score         DG    S(hbond)    S(metal)    S(lipo)     H(rot)  DE(clash)    DE(int)     intcor
     17.53     -19.88       1.73        0.00     115.82       1.92       0.03       2.31       ----

> <Gold.Chemscore.Fitness>
17.5318

> <Gold.Chemscore.DG>
-19.8778

> <Gold.Chemscore.ZeroCoef>
-5.4800

> <Gold.Chemscore.Hbond>
1.7276

> <Gold.Chemscore.Metal>
0.0000

> <Gold.Chemscore.Lipo>
115.8219

> <Gold.Chemscore.Internal_Hbond>
0.0000

> <Gold.Chemscore.DEClash>
0.0350

> <Gold.Chemscore.DEInternal>
2.3110

> <Gold.Chemscore.Rot>
1.9233

> <Gold.Chemscore.Internal.Correction>
   9.000000E+99

> <Gold.Chemscore.Hbonds>
donor molecule, donor type, donor heavy atom, donor atom, acceptor molecule, acceptor atom, score
      P1  H  7989  7998       L1    18  0.36
      P1  H  7997  8009       L1    13  0.89

> <Gold.Chemscore.Hbond.Weighted>
-5.7702

> <Gold.Chemscore.Metal.Weighted>
-0.0000

> <Gold.Chemscore.Lipo.Weighted>
-13.5512

> <Gold.Chemscore.Internal_Hbond.Weighted>
0.0000

> <Gold.Chemscore.DEClash.Weighted>
0.0350

> <Gold.Chemscore.DEInternal.Weighted>
2.3110

> <Gold.Chemscore.Rot.Weighted>
4.9235

> <Gold.Chemscore.Internal.Correction.Weighted>
   9.000000E+99

> <Gold.Protein.RotatedTorsions>
[ 6907 6896 6895 6894 ] final  -21.47 input  -60.11 | X-H torsion
[ 7974 7965 7964 7962 ] final   17.14 input  175.53 | X-H torsion
[ 8008 7997 7996 7995 ] final -162.38 input   59.86 | X-H torsion
[ 10167 10162 10161 10158 ] final -135.19 input  -65.29 | X-H torsion
[ 10718 10713 10712 10709 ] final -155.80 input   66.30 | X-H torsion
[ 10763 10752 10751 10750 ] final   48.53 input  -60.55 | X-H torsion
[ 11005 11000 10999 10996 ] final -173.09 input  -57.11 | X-H torsion

> <Gold.Protein.ActiveResidues>
 VAL166  LYS551  ARG553  GLY616  TRP617  ASP618  TYR619  PRO620  LYS621  CYS622 
 ASP623  PHE694  ASN695  SER759  ASP760  ASP761  ALA762  ILE779  LEU786  VAL792 
 PHE793  MET794  SER795  GLU796  ALA797  LYS798  CYS799  TRP800  GLU811  SER814 

> <Gold.Protein.RotatedAtoms>
  151.2328  135.0561  159.8994 H   0  0  0  0  0  0  0  0  0  0  0  0  # atno 6907 bound_to 6896
  152.5403  134.0518  159.8123 H   0  0  0  0  0  0  0  0  0  0  0  0  # atno 6908 bound_to 6896
  151.0700  133.5425  159.2659 H   0  0  0  0  0  0  0  0  0  0  0  0  # atno 6909 bound_to 6896
  146.2228  139.8645  142.8598 H   0  0  0  0  0  0  0  0  0  0  0  0  # atno 7974 bound_to 7965
  155.8059  140.0898  157.1931 H   0  0  0  0  0  0  0  0  0  0  0  0  # atno 8008 bound_to 7997
  154.3981  140.1463  156.3388 H   0  0  0  0  0  0  0  0  0  0  0  0  # atno 8009 bound_to 7997
  155.8415  140.3438  155.5637 H   0  0  0  0  0  0  0  0  0  0  0  0  # atno 8010 bound_to 7997
  139.8803  143.6847  152.2628 H   0  0  0  0  0  0  0  0  0  0  0  0  # atno 10167 bound_to 10162
  156.5178  130.8464  151.2671 H   0  0  0  0  0  0  0  0  0  0  0  0  # atno 10718 bound_to 10713
  152.9791  135.5941  154.3941 H   0  0  0  0  0  0  0  0  0  0  0  0  # atno 10763 bound_to 10752
  154.3593  135.2767  155.2330 H   0  0  0  0  0  0  0  0  0  0  0  0  # atno 10764 bound_to 10752
  154.4335  135.6030  153.6138 H   0  0  0  0  0  0  0  0  0  0  0  0  # atno 10765 bound_to 10752
  140.4896  134.5997  157.4950 H   0  0  0  0  0  0  0  0  0  0  0  0  # atno 11005 bound_to 11000
  145.2671  141.0096  143.3793 LP  0  0  0  0  0  0  0  0  0  0  0  0  # atno 17320 bound_to 7965
  144.9253  139.4363  143.6521 LP  0  0  0  0  0  0  0  0  0  0  0  0  # atno 17321 bound_to 7965
  139.7202  144.7604  151.0968 LP  0  0  0  0  0  0  0  0  0  0  0  0  # atno 17342 bound_to 10162
  140.7745  143.5218  150.9528 LP  0  0  0  0  0  0  0  0  0  0  0  0  # atno 17343 bound_to 10162
  157.7441  130.9928  150.2648 LP  0  0  0  0  0  0  0  0  0  0  0  0  # atno 17370 bound_to 10713
  156.3178  130.3781  149.7602 LP  0  0  0  0  0  0  0  0  0  0  0  0  # atno 17371 bound_to 10713
  139.9777  134.7188  155.9918 LP  0  0  0  0  0  0  0  0  0  0  0  0  # atno 17394 bound_to 11000
  141.1491  133.6551  156.3957 LP  0  0  0  0  0  0  0  0  0  0  0  0  # atno 17395 bound_to 11000

$$$$
