AV-unprocessed.smi:777|AV-procd|sdf|3702|dock9
  -GOLD-   22720 1123D 1   1.00000     0.00000
 Structure written by MMmdl.
 37 38  0  0  0  0  0  0  0  0  2 V2000
  147.2623  137.4694  158.6361 C   0  0  0  0  0  0  0  0  0  0  0  0
  148.3355  136.5755  159.2918 C   0  0  1  0  0  0  0  0  0  0  0  0
  149.7539  137.1631  159.2010 C   0  0  0  0  0  0  0  0  0  0  0  0
  150.5108  137.1112  160.1699 O   0  0  0  0  0  0  0  0  0  0  0  0
  150.0668  137.7142  158.0131 N   0  0  0  0  0  0  0  0  0  0  0  0
  151.3328  138.2182  157.4560 C   0  0  0  0  0  0  0  0  0  0  0  0
  152.3450  137.0544  157.5930 C   0  0  0  0  0  0  0  0  0  0  0  0
  152.5474  136.5831  158.7346 O   0  0  0  0  0  0  0  0  0  0  0  0
  152.9397  136.6727  156.5594 O   0  5  0  0  0  0  0  0  0  0  0  0
  151.2831  138.7220  155.9761 C   0  0  0  0  0  0  0  0  0  0  0  0
  150.4813  140.0256  155.7854 C   0  0  0  0  0  0  0  0  0  0  0  0
  150.9844  141.1362  156.7142 C   0  0  0  0  0  0  0  0  0  0  0  0
  150.9607  140.6721  158.1747 C   0  0  0  0  0  0  0  0  0  0  0  0
  151.7966  139.3942  158.3639 C   0  0  0  0  0  0  0  0  0  0  0  0
  148.0116  136.2574  160.6791 N   0  0  0  0  0  0  0  0  0  0  0  0
  147.8841  135.0090  161.2545 C   0  0  0  0  0  0  0  0  0  0  0  0
  147.6295  135.1924  162.5832 C   0  0  0  0  0  0  0  0  0  0  0  0
  147.6327  136.6064  162.7351 C   0  0  0  0  0  0  0  0  0  0  0  0
  147.8676  137.2403  161.5985 N   0  0  0  0  0  0  0  0  0  0  0  0
  147.4822  137.6389  157.5815 H   0  0  0  0  0  0  0  0  0  0  0  0
  147.1905  138.4448  159.1194 H   0  0  0  0  0  0  0  0  0  0  0  0
  146.2796  137.0007  158.6919 H   0  0  0  0  0  0  0  0  0  0  0  0
  148.3491  135.6332  158.7418 H   0  0  0  0  0  0  0  0  0  0  0  0
  149.3099  137.7279  157.3458 H   0  0  0  0  0  0  0  0  0  0  0  0
  152.3028  138.9163  155.6393 H   0  0  0  0  0  0  0  0  0  0  0  0
  150.9101  137.9536  155.2993 H   0  0  0  0  0  0  0  0  0  0  0  0
  150.5544  140.3517  154.7478 H   0  0  0  0  0  0  0  0  0  0  0  0
  149.4221  139.8543  155.9738 H   0  0  0  0  0  0  0  0  0  0  0  0
  152.0002  141.4185  156.4344 H   0  0  0  0  0  0  0  0  0  0  0  0
  150.3689  142.0283  156.5954 H   0  0  0  0  0  0  0  0  0  0  0  0
  151.3459  141.4629  158.8186 H   0  0  0  0  0  0  0  0  0  0  0  0
  149.9312  140.4935  158.4888 H   0  0  0  0  0  0  0  0  0  0  0  0
  151.7597  139.1083  159.4166 H   0  0  0  0  0  0  0  0  0  0  0  0
  152.8413  139.6319  158.1545 H   0  0  0  0  0  0  0  0  0  0  0  0
  147.9887  134.1029  160.6763 H   0  0  0  0  0  0  0  0  0  0  0  0
  147.4731  134.4318  163.3336 H   0  0  0  0  0  0  0  0  0  0  0  0
  147.4777  137.1871  163.6324 H   0  0  0  0  0  0  0  0  0  0  0  0
  1  2  1  0  0  0  0
  1 20  1  0  0  0  0
  1 21  1  0  0  0  0
  1 22  1  0  0  0  0
  2  3  1  0  0  0  0
  2 15  1  0  0  0  0
  2 23  1  0  0  0  0
  3  4  2  0  0  0  0
  3  5  1  0  0  0  0
  5  6  1  0  0  0  0
  5 24  1  0  0  0  0
  6 14  1  0  0  0  0
  6  7  1  0  0  0  0
  6 10  1  0  0  0  0
  7  8  2  0  0  0  0
  7  9  1  0  0  0  0
 10 11  1  0  0  0  0
 10 25  1  0  0  0  0
 10 26  1  0  0  0  0
 11 12  1  0  0  0  0
 11 27  1  0  0  0  0
 11 28  1  0  0  0  0
 12 13  1  0  0  0  0
 12 29  1  0  0  0  0
 12 30  1  0  0  0  0
 13 14  1  0  0  0  0
 13 31  1  0  0  0  0
 13 32  1  0  0  0  0
 14 33  1  0  0  0  0
 14 34  1  0  0  0  0
 15 19  1  0  0  0  0
 15 16  1  0  0  0  0
 16 17  2  0  0  0  0
 16 35  1  0  0  0  0
 17 18  1  0  0  0  0
 17 36  1  0  0  0  0
 18 19  2  0  0  0  0
 18 37  1  0  0  0  0
M  CHG  1   9  -1
M  END
> <s_m_source_file>
AV-unprocessed.smi

> <i_m_source_file_index>
777

> <i_lp_mmshare_version>
43012

> <i_f3d_flags>
0

> <s_epik_input>
bjFbY0hdW2NIXVtjSF1uMVtDQEhdKFtDSDNdKUMoPU8pW05IXUMyKEMoPU8pW09IXSlbQ0gyXVtDSDJdW0NIMl1bQ0gyXVtDSDJdMg==

> <s_epik_cmdline>
J2VwaWtfcHl0aG9uJywgJy1waCcsICc3LjAnLCAnLXRuJywgJzgnLCAnLW1hJywgJzIwMCcsICctbWV0YWxfYmluZGluZycsICctaW1hZScsICc8aW5maWxlLm1hZT4nLCAnLW9tYWUnLCAnPG91dGZpbGUubWFlPic=

> <r_lp_tautomer_probability>
1

> <r_epik_Ionization_Penalty>
0.000371068

> <r_epik_Ionization_Penalty_Charging>
0.000323848

> <r_epik_Ionization_Penalty_Neutral>
4.72198e-05

> <r_epik_State_Penalty>
0.000195685

> <r_epik_Charging_Adjusted_Penalty>
0.000519533

> <i_epik_Tot_Q>
-1

> <i_epik_Tot_abs_Q>
1

> <r_epik_Metal_State_Penalty>
-0

> <b_epik_Metal_Only>
0

> <s_lp_Force_Field>
OPLS_2005

> <r_lp_Energy>
12.5044

> <b_lp_Chiralities_Consistent>
1

> <s_lp_Variant>
AV-unprocessed.smi:777-2

> <Gold.Version>
5.8.1

> <Gold.Id.Protein>
6NUR|6NUR_protein|mol2

> <Gold.PLP.Fitness>
45.7473

> <Gold.PLP.PLP>
-31.5203

> <Gold.PLP.part.hbond>
-5.7339

> <Gold.PLP.part.metal>
0.0000

> <Gold.PLP.part.buried>
-4.4551

> <Gold.PLP.part.nonpolar>
-22.5081

> <Gold.PLP.part.repulsive>
0.0901

> <Gold.PLP.ligand.clash>
0.0000

> <Gold.PLP.ligand.torsion>
0.4982

> <Gold.PLP.Chemscore.Hbond>
5.0160

> <Gold.PLP.Chemscore.CHOScore>
0.0000

> <Gold.PLP.Chemscore.Metal>
0.0000

> <Gold.Chemscore.Hbonds>
donor molecule, donor type, donor heavy atom, donor atom, acceptor molecule, acceptor atom, score
      P1  H  6896  6907       L1     8  1.29
      P1  H  6931  6943       L1    19  1.00
      P1  H  6934  6947       L1    19  0.66
      P1  H 10752 10765       L1     9  1.66

> <Gold.PLP.Chemscore.Internal.Correction>
0.1755

> <Gold.Rescore>
     Score         DG    S(hbond)    S(metal)    S(lipo)     H(rot)  DE(clash)    DE(int)     intcor
     14.68     -18.46       3.31        0.00      59.67       1.98       0.02       3.76       ----

> <Gold.Chemscore.Fitness>
14.6773

> <Gold.Chemscore.DG>
-18.4613

> <Gold.Chemscore.ZeroCoef>
-5.4800

> <Gold.Chemscore.Hbond>
3.3119

> <Gold.Chemscore.Metal>
0.0000

> <Gold.Chemscore.Lipo>
59.6718

> <Gold.Chemscore.Internal_Hbond>
0.0000

> <Gold.Chemscore.DEClash>
0.0222

> <Gold.Chemscore.DEInternal>
3.7618

> <Gold.Chemscore.Rot>
1.9774

> <Gold.Chemscore.Internal.Correction>
   9.000000E+99

> <Gold.Chemscore.Hbonds>
donor molecule, donor type, donor heavy atom, donor atom, acceptor molecule, acceptor atom, score
      P1  H  6896  6907       L1     8  0.63
      P1  H  6931  6943       L1    19  0.51
      P1  H  6934  6947       L1    19  0.60
      P1  H 10752 10765       L1     9  0.83

> <Gold.Chemscore.Hbond.Weighted>
-11.0618

> <Gold.Chemscore.Metal.Weighted>
-0.0000

> <Gold.Chemscore.Lipo.Weighted>
-6.9816

> <Gold.Chemscore.Internal_Hbond.Weighted>
0.0000

> <Gold.Chemscore.DEClash.Weighted>
0.0222

> <Gold.Chemscore.DEInternal.Weighted>
3.7618

> <Gold.Chemscore.Rot.Weighted>
5.0620

> <Gold.Chemscore.Internal.Correction.Weighted>
   9.000000E+99

> <Gold.Protein.RotatedTorsions>
[ 6907 6896 6895 6894 ] final    9.12 input  -60.11 | X-H torsion
[ 7974 7965 7964 7962 ] final  -74.79 input  175.53 | X-H torsion
[ 8008 7997 7996 7995 ] final  -12.90 input   59.86 | X-H torsion
[ 10167 10162 10161 10158 ] final  163.98 input  -65.29 | X-H torsion
[ 10718 10713 10712 10709 ] final  118.00 input   66.30 | X-H torsion
[ 10763 10752 10751 10750 ] final -149.54 input  -60.55 | X-H torsion
[ 11005 11000 10999 10996 ] final -123.99 input  -57.11 | X-H torsion

> <Gold.Protein.ActiveResidues>
 VAL166  LYS551  ARG553  GLY616  TRP617  ASP618  TYR619  PRO620  LYS621  CYS622 
 ASP623  PHE694  ASN695  SER759  ASP760  ASP761  ALA762  ILE779  LEU786  VAL792 
 PHE793  MET794  SER795  GLU796  ALA797  LYS798  CYS799  TRP800  GLU811  SER814 

> <Gold.Protein.RotatedAtoms>
  151.7170  135.0901  160.0277 H   0  0  0  0  0  0  0  0  0  0  0  0  # atno 6907 bound_to 6896
  152.3626  133.6311  159.6034 H   0  0  0  0  0  0  0  0  0  0  0  0  # atno 6908 bound_to 6896
  150.7615  133.9316  159.3470 H   0  0  0  0  0  0  0  0  0  0  0  0  # atno 6909 bound_to 6896
  145.6345  140.9328  143.1069 H   0  0  0  0  0  0  0  0  0  0  0  0  # atno 7974 bound_to 7965
  154.5338  140.2264  155.8759 H   0  0  0  0  0  0  0  0  0  0  0  0  # atno 8008 bound_to 7997
  156.1790  140.3104  155.9077 H   0  0  0  0  0  0  0  0  0  0  0  0  # atno 8009 bound_to 7997
  155.3397  140.0450  157.3035 H   0  0  0  0  0  0  0  0  0  0  0  0  # atno 8010 bound_to 7997
  139.4882  144.4281  151.9104 H   0  0  0  0  0  0  0  0  0  0  0  0  # atno 10167 bound_to 10162
  157.6059  131.1043  150.7694 H   0  0  0  0  0  0  0  0  0  0  0  0  # atno 10718 bound_to 10713
  154.8171  135.3306  154.7144 H   0  0  0  0  0  0  0  0  0  0  0  0  # atno 10763 bound_to 10752
  153.7783  135.6920  153.4897 H   0  0  0  0  0  0  0  0  0  0  0  0  # atno 10764 bound_to 10752
  153.1997  135.4520  155.0199 H   0  0  0  0  0  0  0  0  0  0  0  0  # atno 10765 bound_to 10752
  140.9876  134.0585  157.3693 H   0  0  0  0  0  0  0  0  0  0  0  0  # atno 11005 bound_to 11000
  144.7181  139.8126  143.7392 LP  0  0  0  0  0  0  0  0  0  0  0  0  # atno 17320 bound_to 7965
  146.1330  139.4369  143.0157 LP  0  0  0  0  0  0  0  0  0  0  0  0  # atno 17321 bound_to 7965
  140.3728  144.2834  150.5918 LP  0  0  0  0  0  0  0  0  0  0  0  0  # atno 17342 bound_to 10162
  140.5303  143.2245  151.8248 LP  0  0  0  0  0  0  0  0  0  0  0  0  # atno 17343 bound_to 10162
  156.8082  130.4943  149.5359 LP  0  0  0  0  0  0  0  0  0  0  0  0  # atno 17370 bound_to 10713
  156.1146  130.6065  151.0100 LP  0  0  0  0  0  0  0  0  0  0  0  0  # atno 17371 bound_to 10713
  139.8977  135.0151  156.7115 LP  0  0  0  0  0  0  0  0  0  0  0  0  # atno 17394 bound_to 11000
  140.7090  133.9239  155.8072 LP  0  0  0  0  0  0  0  0  0  0  0  0  # atno 17395 bound_to 11000

$$$$
