AV-unprocessed.smi:639|AV-procd|sdf|3148|dock6
  -GOLD-   22720 0 73D 1   1.00000     0.00000
 Structure written by MMmdl.
 23 24  0  0  0  0  0  0  0  0  2 V2000
  151.9958  144.0796  158.6403 C   0  0  0  0  0  0  0  0  0  0  0  0
  151.7895  142.7983  158.0002 N   0  0  0  0  0  0  0  0  0  0  0  0
  151.0341  142.5048  156.8861 C   0  0  0  0  0  0  0  0  0  0  0  0
  151.1366  141.1595  156.6537 C   0  0  0  0  0  0  0  0  0  0  0  0
  150.4999  140.3162  155.5627 C   0  0  1  0  0  0  0  0  0  0  0  0
  149.5071  141.1470  154.7264 C   0  0  0  0  0  0  0  0  0  0  0  0
  151.4810  139.6920  154.6859 N   0  5  0  0  0  0  0  0  0  0  0  0
  151.3902  138.3470  154.8160 C   0  0  0  0  0  0  0  0  0  0  0  0
  152.0609  137.4889  154.2468 O   0  0  0  0  0  0  0  0  0  0  0  0
  150.4284  138.0214  155.6848 N   0  0  0  0  0  0  0  0  0  0  0  0
  149.8236  139.0982  156.1769 C   0  0  0  0  0  0  0  0  0  0  0  0
  148.8879  139.1247  156.9762 O   0  0  0  0  0  0  0  0  0  0  0  0
  151.9923  140.7202  157.7075 C   0  0  0  0  0  0  0  0  0  0  0  0
  152.3823  141.6994  158.5072 N   0  0  0  0  0  0  0  0  0  0  0  0
  151.4591  144.8588  158.0983 H   0  0  0  0  0  0  0  0  0  0  0  0
  153.0589  144.3216  158.6490 H   0  0  0  0  0  0  0  0  0  0  0  0
  151.6267  144.0430  159.6657 H   0  0  0  0  0  0  0  0  0  0  0  0
  150.4880  143.2693  156.3530 H   0  0  0  0  0  0  0  0  0  0  0  0
  148.7162  141.5692  155.3473 H   0  0  0  0  0  0  0  0  0  0  0  0
  149.0283  140.5453  153.9522 H   0  0  0  0  0  0  0  0  0  0  0  0
  150.0114  141.9773  154.2306 H   0  0  0  0  0  0  0  0  0  0  0  0
  150.1831  137.0730  155.9263 H   0  0  0  0  0  0  0  0  0  0  0  0
  152.3407  139.7182  157.9105 H   0  0  0  0  0  0  0  0  0  0  0  0
  1  2  1  0  0  0  0
  1 15  1  0  0  0  0
  1 16  1  0  0  0  0
  1 17  1  0  0  0  0
  2 14  1  0  0  0  0
  2  3  1  0  0  0  0
  3  4  2  0  0  0  0
  3 18  1  0  0  0  0
  4  5  1  0  0  0  0
  4 13  1  0  0  0  0
  5 11  1  0  0  0  0
  5  6  1  0  0  0  0
  5  7  1  0  0  0  0
  6 19  1  0  0  0  0
  6 20  1  0  0  0  0
  6 21  1  0  0  0  0
  7  8  1  0  0  0  0
  8  9  2  0  0  0  0
  8 10  1  0  0  0  0
 10 11  1  0  0  0  0
 10 22  1  0  0  0  0
 11 12  2  0  0  0  0
 13 14  2  0  0  0  0
 13 23  1  0  0  0  0
M  CHG  1   7  -1
M  END
> <s_m_source_file>
AV-unprocessed.smi

> <i_m_source_file_index>
639

> <i_lp_mmshare_version>
43012

> <i_f3d_flags>
0

> <s_epik_input>
W0NIM11uMVtjSF1jKFtjSF1uMSlbQ0BAXTIoW0NIM10pW05IXUMoPU8pW05IXUMyPU8=

> <s_epik_cmdline>
J2VwaWtfcHl0aG9uJywgJy1waCcsICc3LjAnLCAnLXRuJywgJzgnLCAnLW1hJywgJzIwMCcsICctbWV0YWxfYmluZGluZycsICctaW1hZScsICc8aW5maWxlLm1hZT4nLCAnLW9tYWUnLCAnPG91dGZpbGUubWFlPic=

> <r_lp_tautomer_probability>
1

> <r_epik_Ionization_Penalty>
4.83415

> <r_epik_Ionization_Penalty_Charging>
4.8337

> <r_epik_Ionization_Penalty_Neutral>
0.000449923

> <r_epik_State_Penalty>
4.85653

> <r_epik_Charging_Adjusted_Penalty>
9.69023

> <i_epik_Tot_Q>
-1

> <i_epik_Tot_abs_Q>
1

> <r_epik_Metal_State_Penalty>
1.31841

> <b_epik_Metal_Only>
1

> <s_lp_Force_Field>
OPLS_2005

> <r_lp_Energy>
8.78459

> <b_lp_Chiralities_Consistent>
1

> <s_lp_Variant>
AV-unprocessed.smi:639-5

> <Gold.Version>
5.8.1

> <Gold.Id.Protein>
6NUR|6NUR_protein|mol2

> <Gold.PLP.Fitness>
33.8242

> <Gold.PLP.PLP>
-25.4788

> <Gold.PLP.part.hbond>
-2.0000

> <Gold.PLP.part.metal>
0.0000

> <Gold.PLP.part.buried>
-4.0576

> <Gold.PLP.part.nonpolar>
-20.1991

> <Gold.PLP.part.repulsive>
0.2481

> <Gold.PLP.ligand.clash>
0.0000

> <Gold.PLP.ligand.torsion>
0.1522

> <Gold.PLP.Chemscore.Hbond>
1.8640

> <Gold.PLP.Chemscore.CHOScore>
1.0000

> <Gold.PLP.Chemscore.Metal>
0.0000

> <Gold.Chemscore.Hbonds>
donor molecule, donor type, donor heavy atom, donor atom, acceptor molecule, acceptor atom, score
      P1  H  7989  7998       L1     7  1.00
      P1  H 10752 10763       L1     9  0.88
      L1  C     3    18       P1  8028  1.00

> <Gold.PLP.Chemscore.Internal.Correction>
0.0579

> <Gold.Rescore>
     Score         DG    S(hbond)    S(metal)    S(lipo)     H(rot)  DE(clash)    DE(int)     intcor
     13.56     -13.74       1.64        0.00      45.73       1.00       0.00       0.18       ----

> <Gold.Chemscore.Fitness>
13.5581

> <Gold.Chemscore.DG>
-13.7418

> <Gold.Chemscore.ZeroCoef>
-5.4800

> <Gold.Chemscore.Hbond>
1.6380

> <Gold.Chemscore.Metal>
0.0000

> <Gold.Chemscore.Lipo>
45.7344

> <Gold.Chemscore.Internal_Hbond>
0.0000

> <Gold.Chemscore.DEClash>
0.0015

> <Gold.Chemscore.DEInternal>
0.1822

> <Gold.Chemscore.Rot>
1.0000

> <Gold.Chemscore.Internal.Correction>
   9.000000E+99

> <Gold.Chemscore.Hbonds>
donor molecule, donor type, donor heavy atom, donor atom, acceptor molecule, acceptor atom, score
      P1  H  7989  7998       L1     7  0.35
      P1  H 10752 10763       L1     9  0.82

> <Gold.Chemscore.Hbond.Weighted>
-5.4709

> <Gold.Chemscore.Metal.Weighted>
-0.0000

> <Gold.Chemscore.Lipo.Weighted>
-5.3509

> <Gold.Chemscore.Internal_Hbond.Weighted>
0.0000

> <Gold.Chemscore.DEClash.Weighted>
0.0015

> <Gold.Chemscore.DEInternal.Weighted>
0.1822

> <Gold.Chemscore.Rot.Weighted>
2.5600

> <Gold.Chemscore.Internal.Correction.Weighted>
   9.000000E+99

> <Gold.Protein.RotatedTorsions>
[ 6907 6896 6895 6894 ] final -125.37 input  -60.11 | X-H torsion
[ 7974 7965 7964 7962 ] final   39.83 input  175.53 | X-H torsion
[ 8008 7997 7996 7995 ] final  144.32 input   59.86 | X-H torsion
[ 10167 10162 10161 10158 ] final -169.00 input  -65.29 | X-H torsion
[ 10718 10713 10712 10709 ] final  138.91 input   66.30 | X-H torsion
[ 10763 10752 10751 10750 ] final   36.26 input  -60.55 | X-H torsion
[ 11005 11000 10999 10996 ] final  148.50 input  -57.11 | X-H torsion

> <Gold.Protein.ActiveResidues>
 VAL166  LYS551  ARG553  GLY616  TRP617  ASP618  TYR619  PRO620  LYS621  CYS622 
 ASP623  PHE694  ASN695  SER759  ASP760  ASP761  ALA762  ILE779  LEU786  VAL792 
 PHE793  MET794  SER795  GLU796  ALA797  LYS798  CYS799  TRP800  GLU811  SER814 

> <Gold.Protein.RotatedAtoms>
  150.8860  133.7307  159.2917 H   0  0  0  0  0  0  0  0  0  0  0  0  # atno 6907 bound_to 6896
  151.4872  135.1054  159.9803 H   0  0  0  0  0  0  0  0  0  0  0  0  # atno 6908 bound_to 6896
  152.4790  133.8162  159.7085 H   0  0  0  0  0  0  0  0  0  0  0  0  # atno 6909 bound_to 6896
  146.0953  139.5604  142.9449 H   0  0  0  0  0  0  0  0  0  0  0  0  # atno 7974 bound_to 7965
  156.2911  140.2239  156.5034 H   0  0  0  0  0  0  0  0  0  0  0  0  # atno 8008 bound_to 7997
  154.7670  140.0469  157.1042 H   0  0  0  0  0  0  0  0  0  0  0  0  # atno 8009 bound_to 7997
  154.9920  140.3091  155.4905 H   0  0  0  0  0  0  0  0  0  0  0  0  # atno 8010 bound_to 7997
  139.5950  144.1132  152.1678 H   0  0  0  0  0  0  0  0  0  0  0  0  # atno 10167 bound_to 10162
  157.4202  131.1038  151.0362 H   0  0  0  0  0  0  0  0  0  0  0  0  # atno 10718 bound_to 10713
  153.0084  135.6311  154.1957 H   0  0  0  0  0  0  0  0  0  0  0  0  # atno 10763 bound_to 10752
  154.1699  135.2819  155.3085 H   0  0  0  0  0  0  0  0  0  0  0  0  # atno 10764 bound_to 10752
  154.5916  135.5616  153.7344 H   0  0  0  0  0  0  0  0  0  0  0  0  # atno 10765 bound_to 10752
  140.0965  134.9009  157.1731 H   0  0  0  0  0  0  0  0  0  0  0  0  # atno 11005 bound_to 11000
  145.5961  141.0362  143.2044 LP  0  0  0  0  0  0  0  0  0  0  0  0  # atno 17320 bound_to 7965
  144.7390  139.7501  143.7318 LP  0  0  0  0  0  0  0  0  0  0  0  0  # atno 17321 bound_to 7965
  140.0715  144.5775  150.7188 LP  0  0  0  0  0  0  0  0  0  0  0  0  # atno 17342 bound_to 10162
  140.7204  143.2583  151.4296 LP  0  0  0  0  0  0  0  0  0  0  0  0  # atno 17343 bound_to 10162
  157.1295  130.6096  149.5525 LP  0  0  0  0  0  0  0  0  0  0  0  0  # atno 17370 bound_to 10713
  155.9878  130.4919  150.7142 LP  0  0  0  0  0  0  0  0  0  0  0  0  # atno 17371 bound_to 10713
  140.3279  134.2843  155.7233 LP  0  0  0  0  0  0  0  0  0  0  0  0  # atno 17394 bound_to 11000
  141.2093  133.7751  157.0002 LP  0  0  0  0  0  0  0  0  0  0  0  0  # atno 17395 bound_to 11000

$$$$
