AV-unprocessed.smi:1929|AV-procd|sdf|7808|dock10
  -GOLD-   22720 9553D 1   1.00000     0.00000
 Structure written by MMmdl.
 43 44  0  0  0  0  0  0  0  0  4 V2000
  146.2285  129.0218  151.6207 C   0  0  0  0  0  0  0  0  0  0  0  0
  145.9258  130.1415  152.5041 N   0  5  0  0  0  0  0  0  0  0  0  0
  146.8769  130.8553  153.1644 C   0  0  0  0  0  0  0  0  0  0  0  0
  148.1063  130.7342  153.1868 O   0  0  0  0  0  0  0  0  0  0  0  0
  146.2424  131.9591  154.0186 C   0  0  0  0  0  0  0  0  0  0  0  0
  145.6421  133.0066  153.1541 N   0  3  2  0  0  0  0  0  0  0  0  0
  146.4972  133.3712  151.9916 C   0  0  0  0  0  0  0  0  0  0  0  0
  145.7832  134.3723  151.0668 C   0  0  0  0  0  0  0  0  0  0  0  0
  145.3394  135.6390  151.8241 C   0  0  2  0  0  0  0  0  0  0  0  0
  146.4825  136.4602  152.2242 N   0  0  0  0  0  0  0  0  0  0  0  0
  146.4037  137.6434  152.8507 C   0  0  0  0  0  0  0  0  0  0  0  0
  145.3391  138.1666  153.1780 O   0  0  0  0  0  0  0  0  0  0  0  0
  147.6230  138.1760  153.0439 N   0  0  0  0  0  0  0  0  0  0  0  0
  147.9571  139.4320  153.6200 C   0  0  0  0  0  0  0  0  0  0  0  0
  147.0676  140.5078  153.4029 C   0  0  0  0  0  0  0  0  0  0  0  0
  147.3620  141.7750  153.9461 C   0  0  0  0  0  0  0  0  0  0  0  0
  148.4948  141.9542  154.6587 N   0  3  0  0  0  0  0  0  0  0  0  0
  149.3826  140.9613  154.8800 C   0  0  0  0  0  0  0  0  0  0  0  0
  149.1414  139.6722  154.3627 C   0  0  0  0  0  0  0  0  0  0  0  0
  144.5074  135.2345  153.0531 C   0  0  0  0  0  0  0  0  0  0  0  0
  145.2378  134.2042  153.9343 C   0  0  0  0  0  0  0  0  0  0  0  0
  145.3236  128.5182  151.2812 H   0  0  0  0  0  0  0  0  0  0  0  0
  146.8414  128.2608  152.1051 H   0  0  0  0  0  0  0  0  0  0  0  0
  146.7630  129.3348  150.7238 H   0  0  0  0  0  0  0  0  0  0  0  0
  145.4647  131.4845  154.6185 H   0  0  0  0  0  0  0  0  0  0  0  0
  146.9461  132.4048  154.7254 H   0  0  0  0  0  0  0  0  0  0  0  0
  147.4398  133.7895  152.3478 H   0  0  0  0  0  0  0  0  0  0  0  0
  146.7501  132.4831  151.4123 H   0  0  0  0  0  0  0  0  0  0  0  0
  146.4287  134.6304  150.2267 H   0  0  0  0  0  0  0  0  0  0  0  0
  144.9067  133.8902  150.6318 H   0  0  0  0  0  0  0  0  0  0  0  0
  144.7059  136.2395  151.1686 H   0  0  0  0  0  0  0  0  0  0  0  0
  147.3991  136.1046  151.9947 H   0  0  0  0  0  0  0  0  0  0  0  0
  148.3983  137.6577  152.6572 H   0  0  0  0  0  0  0  0  0  0  0  0
  146.1614  140.3654  152.8318 H   0  0  0  0  0  0  0  0  0  0  0  0
  146.7307  142.6441  153.8320 H   0  0  0  0  0  0  0  0  0  0  0  0
  150.2568  141.2263  155.4567 H   0  0  0  0  0  0  0  0  0  0  0  0
  149.8742  138.8992  154.5368 H   0  0  0  0  0  0  0  0  0  0  0  0
  144.2482  136.1151  153.6422 H   0  0  0  0  0  0  0  0  0  0  0  0
  143.5614  134.8063  152.7181 H   0  0  0  0  0  0  0  0  0  0  0  0
  144.5785  133.9041  154.7498 H   0  0  0  0  0  0  0  0  0  0  0  0
  146.1198  134.6539  154.3926 H   0  0  0  0  0  0  0  0  0  0  0  0
  144.7937  132.6050  152.7809 H   0  0  0  0  0  0  0  0  0  0  0  0
  148.6904  142.8796  155.0421 H   0  0  0  0  0  0  0  0  0  0  0  0
  1  2  1  0  0  0  0
  1 22  1  0  0  0  0
  1 23  1  0  0  0  0
  1 24  1  0  0  0  0
  2  3  1  0  0  0  0
  3  4  2  0  0  0  0
  3  5  1  0  0  0  0
  5  6  1  0  0  0  0
  5 25  1  0  0  0  0
  5 26  1  0  0  0  0
  6 21  1  0  0  0  0
  6  7  1  0  0  0  0
  6 42  1  0  0  0  0
  7  8  1  0  0  0  0
  7 27  1  0  0  0  0
  7 28  1  0  0  0  0
  8  9  1  0  0  0  0
  8 29  1  0  0  0  0
  8 30  1  0  0  0  0
  9 10  1  0  0  0  0
  9 20  1  0  0  0  0
  9 31  1  0  0  0  0
 10 11  1  0  0  0  0
 10 32  1  0  0  0  0
 11 12  2  0  0  0  0
 11 13  1  0  0  0  0
 13 14  1  0  0  0  0
 13 33  1  0  0  0  0
 14 19  1  0  0  0  0
 14 15  2  0  0  0  0
 15 16  1  0  0  0  0
 15 34  1  0  0  0  0
 16 17  2  0  0  0  0
 16 35  1  0  0  0  0
 17 18  1  0  0  0  0
 17 43  1  0  0  0  0
 18 19  2  0  0  0  0
 18 36  1  0  0  0  0
 19 37  1  0  0  0  0
 20 21  1  0  0  0  0
 20 38  1  0  0  0  0
 20 39  1  0  0  0  0
 21 40  1  0  0  0  0
 21 41  1  0  0  0  0
M  CHG  1   2  -1
M  CHG  1   6   1
M  CHG  1  17   1
M  END
> <s_m_source_file>
AV-unprocessed.smi

> <i_m_source_file_index>
1929

> <i_lp_mmshare_version>
43012

> <i_f3d_flags>
0

> <s_epik_input>
W0NIM11bTkhdQyg9TylbQ0gyXU4xW0NIMl1bQ0gyXVtDSF0oW0NIMl1bQ0gyXTEpW05IXUMoPU8pW05IXWMyW2NIXVtjSF1uW2NIXVtjSF0y

> <s_epik_cmdline>
J2VwaWtfcHl0aG9uJywgJy1waCcsICc3LjAnLCAnLXRuJywgJzgnLCAnLW1hJywgJzIwMCcsICctbWV0YWxfYmluZGluZycsICctaW1hZScsICc8aW5maWxlLm1hZT4nLCAnLW9tYWUnLCAnPG91dGZpbGUubWFlPic=

> <r_epik_Ionization_Penalty>
7.25133

> <r_epik_Ionization_Penalty_Charging>
7.25131

> <r_epik_Ionization_Penalty_Neutral>
1.84563e-05

> <r_epik_State_Penalty>
8.093

> <r_epik_Charging_Adjusted_Penalty>
15.3443

> <i_epik_Tot_Q>
1

> <i_epik_Tot_abs_Q>
3

> <r_epik_Metal_State_Penalty>
4.12368

> <b_epik_Metal_Only>
1

> <s_lp_Force_Field>
OPLS_2005

> <r_lp_Energy>
20.7097

> <b_lp_Chiralities_Consistent>
1

> <s_lp_Variant>
AV-unprocessed.smi:1929-10

> <Gold.Version>
5.8.1

> <Gold.Id.Protein>
6NUR|6NUR_protein|mol2

> <Gold.PLP.Fitness>
41.0342

> <Gold.PLP.PLP>
-29.8284

> <Gold.PLP.part.hbond>
-3.0908

> <Gold.PLP.part.metal>
0.0000

> <Gold.PLP.part.buried>
-4.1145

> <Gold.PLP.part.nonpolar>
-25.1082

> <Gold.PLP.part.repulsive>
2.5193

> <Gold.PLP.ligand.clash>
0.0000

> <Gold.PLP.ligand.torsion>
0.3845

> <Gold.PLP.Chemscore.Hbond>
3.9760

> <Gold.PLP.Chemscore.CHOScore>
0.0000

> <Gold.PLP.Chemscore.Metal>
0.0000

> <Gold.Chemscore.Hbonds>
donor molecule, donor type, donor heavy atom, donor atom, acceptor molecule, acceptor atom, score
      L1  H    10    32       P1  7948  1.00
      L1  H    13    33       P1  7948  0.98
      L1  H    17    43       P1  8028  2.00

> <Gold.PLP.Chemscore.Internal.Correction>
0.0469

> <Gold.Rescore>
     Score         DG    S(hbond)    S(metal)    S(lipo)     H(rot)  DE(clash)    DE(int)     intcor
     16.32     -18.55       2.92        0.00      64.67       1.66       0.08       2.14       ----

> <Gold.Chemscore.Fitness>
16.3240

> <Gold.Chemscore.DG>
-18.5459

> <Gold.Chemscore.ZeroCoef>
-5.4800

> <Gold.Chemscore.Hbond>
2.9169

> <Gold.Chemscore.Metal>
0.0000

> <Gold.Chemscore.Lipo>
64.6716

> <Gold.Chemscore.Internal_Hbond>
0.0000

> <Gold.Chemscore.DEClash>
0.0847

> <Gold.Chemscore.DEInternal>
2.1372

> <Gold.Chemscore.Rot>
1.6574

> <Gold.Chemscore.Internal.Correction>
   9.000000E+99

> <Gold.Chemscore.Hbonds>
donor molecule, donor type, donor heavy atom, donor atom, acceptor molecule, acceptor atom, score
      L1  H    10    32       P1  7948  0.92
      L1  H    13    33       P1  7948  0.93
      L1  H    17    43       P1  8028  0.99

> <Gold.Chemscore.Hbond.Weighted>
-9.7423

> <Gold.Chemscore.Metal.Weighted>
-0.0000

> <Gold.Chemscore.Lipo.Weighted>
-7.5666

> <Gold.Chemscore.Internal_Hbond.Weighted>
0.0000

> <Gold.Chemscore.DEClash.Weighted>
0.0847

> <Gold.Chemscore.DEInternal.Weighted>
2.1372

> <Gold.Chemscore.Rot.Weighted>
4.2430

> <Gold.Chemscore.Internal.Correction.Weighted>
   9.000000E+99

> <Gold.Protein.RotatedTorsions>
[ 6907 6896 6895 6894 ] final -109.50 input  -60.11 | X-H torsion
[ 7974 7965 7964 7962 ] final  -24.67 input  175.53 | X-H torsion
[ 8008 7997 7996 7995 ] final   34.01 input   59.86 | X-H torsion
[ 10167 10162 10161 10158 ] final   65.26 input  -65.29 | X-H torsion
[ 10718 10713 10712 10709 ] final  -19.33 input   66.30 | X-H torsion
[ 10763 10752 10751 10750 ] final  126.06 input  -60.55 | X-H torsion
[ 11005 11000 10999 10996 ] final -119.57 input  -57.11 | X-H torsion

> <Gold.Protein.ActiveResidues>
 VAL166  LYS551  ARG553  GLY616  TRP617  ASP618  TYR619  PRO620  LYS621  CYS622 
 ASP623  PHE694  ASN695  SER759  ASP760  ASP761  ALA762  ILE779  LEU786  VAL792 
 PHE793  MET794  SER795  GLU796  ALA797  LYS798  CYS799  TRP800  GLU811  SER814 

> <Gold.Protein.RotatedAtoms>
  150.7566  133.9519  159.3488 H   0  0  0  0  0  0  0  0  0  0  0  0  # atno 6907 bound_to 6896
  151.7438  135.0846  160.0329 H   0  0  0  0  0  0  0  0  0  0  0  0  # atno 6908 bound_to 6896
  152.3511  133.6144  159.5981 H   0  0  0  0  0  0  0  0  0  0  0  0  # atno 6909 bound_to 6896
  146.1540  140.4784  142.8599 H   0  0  0  0  0  0  0  0  0  0  0  0  # atno 7974 bound_to 7965
  155.1479  140.3272  155.4438 H   0  0  0  0  0  0  0  0  0  0  0  0  # atno 8008 bound_to 7997
  156.2584  140.1982  156.6541 H   0  0  0  0  0  0  0  0  0  0  0  0  # atno 8009 bound_to 7997
  154.6495  140.0560  156.9925 H   0  0  0  0  0  0  0  0  0  0  0  0  # atno 8010 bound_to 7997
  140.1132  144.4799  150.6965 H   0  0  0  0  0  0  0  0  0  0  0  0  # atno 10167 bound_to 10162
  156.5471  130.4692  149.6470 H   0  0  0  0  0  0  0  0  0  0  0  0  # atno 10718 bound_to 10713
  153.6872  135.3304  155.3193 H   0  0  0  0  0  0  0  0  0  0  0  0  # atno 10763 bound_to 10752
  154.8450  135.4423  154.1545 H   0  0  0  0  0  0  0  0  0  0  0  0  # atno 10764 bound_to 10752
  153.2577  135.6988  153.7689 H   0  0  0  0  0  0  0  0  0  0  0  0  # atno 10765 bound_to 10752
  141.0206  134.0129  157.3287 H   0  0  0  0  0  0  0  0  0  0  0  0  # atno 11005 bound_to 11000
  144.7939  140.6085  143.6523 LP  0  0  0  0  0  0  0  0  0  0  0  0  # atno 17320 bound_to 7965
  145.4755  139.1500  143.3791 LP  0  0  0  0  0  0  0  0  0  0  0  0  # atno 17321 bound_to 7965
  140.6914  143.2378  151.5121 LP  0  0  0  0  0  0  0  0  0  0  0  0  # atno 17342 bound_to 10162
  139.5608  144.2161  152.1688 LP  0  0  0  0  0  0  0  0  0  0  0  0  # atno 17343 bound_to 10162
  156.2918  130.7128  151.1979 LP  0  0  0  0  0  0  0  0  0  0  0  0  # atno 17370 bound_to 10713
  157.7394  131.0529  150.5230 LP  0  0  0  0  0  0  0  0  0  0  0  0  # atno 17371 bound_to 10713
  139.9144  135.0195  156.7821 LP  0  0  0  0  0  0  0  0  0  0  0  0  # atno 17394 bound_to 11000
  140.6579  133.9672  155.7789 LP  0  0  0  0  0  0  0  0  0  0  0  0  # atno 17395 bound_to 11000

$$$$
