AV-unprocessed.smi:1486|AV-procd|sdf|6006|dock7
  -GOLD-   22720 6103D 1   1.00000     0.00000
 Structure written by MMmdl.
 39 40  0  0  0  0  0  0  0  0  1 V2000
  151.1748  138.5325  154.7956 C   0  0  0  0  0  0  0  0  0  0  0  0
  151.0855  139.9438  154.8818 O   0  0  0  0  0  0  0  0  0  0  0  0
  151.6348  140.4501  156.0879 C   0  0  0  0  0  0  0  0  0  0  0  0
  150.6162  141.3814  156.7625 C   0  0  1  0  0  0  0  0  0  0  0  0
  149.6379  140.5970  157.6514 C   0  0  0  0  0  0  0  0  0  0  0  0
  151.3192  142.3847  157.5574 N   0  0  0  0  0  0  0  0  0  0  0  0
  150.7335  143.3607  158.2691 C   0  0  0  0  0  0  0  0  0  0  0  0
  149.5143  143.5213  158.3272 O   0  0  0  0  0  0  0  0  0  0  0  0
  151.6645  144.2982  159.0385 C   0  0  0  0  0  0  0  0  0  0  0  0
  152.2639  143.5846  160.2160 C   0  0  0  0  0  0  0  0  0  0  0  0
  152.2768  144.0139  161.5211 C   0  0  0  0  0  0  0  0  0  0  0  0
  153.0809  142.8834  162.5741 S   0  0  0  0  0  0  0  0  0  0  0  0
  153.3861  141.8493  161.1753 C   0  0  0  0  0  0  0  0  0  0  0  0
  154.0788  140.6017  161.1810 N   0  0  0  0  0  0  0  0  0  0  0  0
  154.8001  140.1281  162.3587 C   0  0  0  0  0  0  0  0  0  0  0  0
  155.1931  138.6782  162.0561 C   0  0  0  0  0  0  0  0  0  0  0  0
  155.0118  138.5180  160.5483 C   0  0  0  0  0  0  0  0  0  0  0  0
  154.1895  139.7353  160.1581 C   0  0  0  0  0  0  0  0  0  0  0  0
  153.7162  139.8548  159.0291 O   0  0  0  0  0  0  0  0  0  0  0  0
  152.9007  142.3519  160.0344 N   0  0  0  0  0  0  0  0  0  0  0  0
  150.7396  138.1941  153.8554 H   0  0  0  0  0  0  0  0  0  0  0  0
  150.6306  138.0525  155.6099 H   0  0  0  0  0  0  0  0  0  0  0  0
  152.2135  138.2005  154.8253 H   0  0  0  0  0  0  0  0  0  0  0  0
  151.8712  139.6178  156.7530 H   0  0  0  0  0  0  0  0  0  0  0  0
  152.5662  140.9826  155.8878 H   0  0  0  0  0  0  0  0  0  0  0  0
  150.0445  141.8783  155.9764 H   0  0  0  0  0  0  0  0  0  0  0  0
  149.0966  139.8487  157.0722 H   0  0  0  0  0  0  0  0  0  0  0  0
  148.8975  141.2572  158.1046 H   0  0  0  0  0  0  0  0  0  0  0  0
  150.1606  140.0803  158.4571 H   0  0  0  0  0  0  0  0  0  0  0  0
  152.3277  142.3330  157.5656 H   0  0  0  0  0  0  0  0  0  0  0  0
  152.4395  144.6715  158.3674 H   0  0  0  0  0  0  0  0  0  0  0  0
  151.1000  145.1705  159.3698 H   0  0  0  0  0  0  0  0  0  0  0  0
  151.8581  144.9240  161.9248 H   0  0  0  0  0  0  0  0  0  0  0  0
  155.6869  140.7460  162.5064 H   0  0  0  0  0  0  0  0  0  0  0  0
  154.1878  140.1913  163.2593 H   0  0  0  0  0  0  0  0  0  0  0  0
  156.2129  138.4585  162.3738 H   0  0  0  0  0  0  0  0  0  0  0  0
  154.5288  137.9916  162.5829 H   0  0  0  0  0  0  0  0  0  0  0  0
  155.9694  138.5471  160.0274 H   0  0  0  0  0  0  0  0  0  0  0  0
  154.5007  137.5899  160.2907 H   0  0  0  0  0  0  0  0  0  0  0  0
  1  2  1  0  0  0  0
  1 21  1  0  0  0  0
  1 22  1  0  0  0  0
  1 23  1  0  0  0  0
  2  3  1  0  0  0  0
  3  4  1  0  0  0  0
  3 24  1  0  0  0  0
  3 25  1  0  0  0  0
  4  5  1  0  0  0  0
  4  6  1  0  0  0  0
  4 26  1  0  0  0  0
  5 27  1  0  0  0  0
  5 28  1  0  0  0  0
  5 29  1  0  0  0  0
  6  7  1  0  0  0  0
  6 30  1  0  0  0  0
  7  8  2  0  0  0  0
  7  9  1  0  0  0  0
  9 10  1  0  0  0  0
  9 31  1  0  0  0  0
  9 32  1  0  0  0  0
 10 20  1  0  0  0  0
 10 11  2  0  0  0  0
 11 12  1  0  0  0  0
 11 33  1  0  0  0  0
 12 13  1  0  0  0  0
 13 14  1  0  0  0  0
 13 20  2  0  0  0  0
 14 18  1  0  0  0  0
 14 15  1  0  0  0  0
 15 16  1  0  0  0  0
 15 34  1  0  0  0  0
 15 35  1  0  0  0  0
 16 17  1  0  0  0  0
 16 36  1  0  0  0  0
 16 37  1  0  0  0  0
 17 18  1  0  0  0  0
 17 38  1  0  0  0  0
 17 39  1  0  0  0  0
 18 19  2  0  0  0  0
M  END
> <s_m_source_file>
AV-unprocessed.smi

> <i_m_source_file_index>
1486

> <i_lp_mmshare_version>
43012

> <i_f3d_flags>
0

> <s_epik_input>
W0NIM11PW0NIMl1bQ0BIXShbQ0gzXSlbTkhdQyg9TylbQ0gyXWMxW2NIXXNjKG4xKU4yW0NIMl1bQ0gyXVtDSDJdQzI9Tw==

> <s_epik_cmdline>
J2VwaWtfcHl0aG9uJywgJy1waCcsICc3LjAnLCAnLXRuJywgJzgnLCAnLW1hJywgJzIwMCcsICctbWV0YWxfYmluZGluZycsICctaW1hZScsICc8aW5maWxlLm1hZT4nLCAnLW9tYWUnLCAnPG91dGZpbGUubWFlPic=

> <r_lp_tautomer_probability>
1

> <r_epik_Ionization_Penalty>
3.00988e-05

> <r_epik_Ionization_Penalty_Charging>
0

> <r_epik_Ionization_Penalty_Neutral>
3.00988e-05

> <r_epik_State_Penalty>
-0

> <r_epik_Charging_Adjusted_Penalty>
0

> <i_epik_Tot_Q>
0

> <i_epik_Tot_abs_Q>
0

> <r_epik_Metal_State_Penalty>
-0

> <b_epik_Metal_Only>
0

> <s_lp_Force_Field>
OPLS_2005

> <r_lp_Energy>
17.9426

> <b_lp_Chiralities_Consistent>
1

> <s_lp_Variant>
AV-unprocessed.smi:1486-2

> <Gold.Version>
5.8.1

> <Gold.Id.Protein>
6NUR|6NUR_protein|mol2

> <Gold.PLP.Fitness>
48.1132

> <Gold.PLP.PLP>
-43.8869

> <Gold.PLP.part.hbond>
-2.0000

> <Gold.PLP.part.metal>
0.0000

> <Gold.PLP.part.buried>
-7.1514

> <Gold.PLP.part.nonpolar>
-35.0127

> <Gold.PLP.part.repulsive>
1.1651

> <Gold.PLP.ligand.clash>
0.0000

> <Gold.PLP.ligand.torsion>
0.9142

> <Gold.PLP.Chemscore.Hbond>
2.0000

> <Gold.PLP.Chemscore.CHOScore>
0.0000

> <Gold.PLP.Chemscore.Metal>
0.0000

> <Gold.Chemscore.Hbonds>
donor molecule, donor type, donor heavy atom, donor atom, acceptor molecule, acceptor atom, score
      P1  H  7989  7998       L1     2  1.00
      P1  H  7997  8009       L1    19  0.76

> <Gold.PLP.Chemscore.Internal.Correction>
0.0548

> <Gold.Rescore>
     Score         DG    S(hbond)    S(metal)    S(lipo)     H(rot)  DE(clash)    DE(int)     intcor
     13.05     -16.87       1.88        0.00      85.97       1.94       0.04       3.78       ----

> <Gold.Chemscore.Fitness>
13.0537

> <Gold.Chemscore.DG>
-16.8718

> <Gold.Chemscore.ZeroCoef>
-5.4800

> <Gold.Chemscore.Hbond>
1.8841

> <Gold.Chemscore.Metal>
0.0000

> <Gold.Chemscore.Lipo>
85.9677

> <Gold.Chemscore.Internal_Hbond>
0.0000

> <Gold.Chemscore.DEClash>
0.0417

> <Gold.Chemscore.DEInternal>
3.7764

> <Gold.Chemscore.Rot>
1.9373

> <Gold.Chemscore.Internal.Correction>
   9.000000E+99

> <Gold.Chemscore.Hbonds>
donor molecule, donor type, donor heavy atom, donor atom, acceptor molecule, acceptor atom, score
      P1  H  7989  7998       L1     2  0.74
      P1  H  7997  8009       L1    19  0.74

> <Gold.Chemscore.Hbond.Weighted>
-6.2930

> <Gold.Chemscore.Metal.Weighted>
-0.0000

> <Gold.Chemscore.Lipo.Weighted>
-10.0582

> <Gold.Chemscore.Internal_Hbond.Weighted>
0.0000

> <Gold.Chemscore.DEClash.Weighted>
0.0417

> <Gold.Chemscore.DEInternal.Weighted>
3.7764

> <Gold.Chemscore.Rot.Weighted>
4.9594

> <Gold.Chemscore.Internal.Correction.Weighted>
   9.000000E+99

> <Gold.Protein.RotatedTorsions>
[ 6907 6896 6895 6894 ] final -115.67 input  -60.11 | X-H torsion
[ 7974 7965 7964 7962 ] final   24.16 input  175.53 | X-H torsion
[ 8008 7997 7996 7995 ] final  142.00 input   59.86 | X-H torsion
[ 10167 10162 10161 10158 ] final -134.94 input  -65.29 | X-H torsion
[ 10718 10713 10712 10709 ] final  -93.68 input   66.30 | X-H torsion
[ 10763 10752 10751 10750 ] final   39.16 input  -60.55 | X-H torsion
[ 11005 11000 10999 10996 ] final  115.11 input  -57.11 | X-H torsion

> <Gold.Protein.ActiveResidues>
 VAL166  LYS551  ARG553  GLY616  TRP617  ASP618  TYR619  PRO620  LYS621  CYS622 
 ASP623  PHE694  ASN695  SER759  ASP760  ASP761  ALA762  ILE779  LEU786  VAL792 
 PHE793  MET794  SER795  GLU796  ALA797  LYS798  CYS799  TRP800  GLU811  SER814 

> <Gold.Protein.RotatedAtoms>
  150.7996  133.8625  159.3235 H   0  0  0  0  0  0  0  0  0  0  0  0  # atno 6907 bound_to 6896
  151.6441  135.1007  160.0157 H   0  0  0  0  0  0  0  0  0  0  0  0  # atno 6908 bound_to 6896
  152.4082  133.6882  159.6409 H   0  0  0  0  0  0  0  0  0  0  0  0  # atno 6909 bound_to 6896
  146.1950  139.7643  142.8804 H   0  0  0  0  0  0  0  0  0  0  0  0  # atno 7974 bound_to 7965
  156.2957  140.2300  156.4656 H   0  0  0  0  0  0  0  0  0  0  0  0  # atno 8008 bound_to 7997
  154.7980  140.0450  157.1272 H   0  0  0  0  0  0  0  0  0  0  0  0  # atno 8009 bound_to 7997
  154.9567  140.3049  155.5053 H   0  0  0  0  0  0  0  0  0  0  0  0  # atno 8010 bound_to 7997
  139.8829  143.6816  152.2624 H   0  0  0  0  0  0  0  0  0  0  0  0  # atno 10167 bound_to 10162
  156.0016  130.5036  150.5812 H   0  0  0  0  0  0  0  0  0  0  0  0  # atno 10718 bound_to 10713
  152.9976  135.6229  154.2420 H   0  0  0  0  0  0  0  0  0  0  0  0  # atno 10763 bound_to 10752
  154.2160  135.2798  155.2943 H   0  0  0  0  0  0  0  0  0  0  0  0  # atno 10764 bound_to 10752
  154.5567  135.5717  153.7029 H   0  0  0  0  0  0  0  0  0  0  0  0  # atno 10765 bound_to 10752
  139.9000  134.9579  156.6994 H   0  0  0  0  0  0  0  0  0  0  0  0  # atno 11005 bound_to 11000
  145.3671  141.0336  143.3252 LP  0  0  0  0  0  0  0  0  0  0  0  0  # atno 17320 bound_to 7965
  144.8563  139.5245  143.6833 LP  0  0  0  0  0  0  0  0  0  0  0  0  # atno 17321 bound_to 7965
  139.7179  144.7608  151.1003 LP  0  0  0  0  0  0  0  0  0  0  0  0  # atno 17342 bound_to 10162
  140.7741  143.5245  150.9496 LP  0  0  0  0  0  0  0  0  0  0  0  0  # atno 17343 bound_to 10162
  157.3692  131.0763  151.1572 LP  0  0  0  0  0  0  0  0  0  0  0  0  # atno 17370 bound_to 10713
  157.2331  130.6534  149.5858 LP  0  0  0  0  0  0  0  0  0  0  0  0  # atno 17371 bound_to 10713
  140.7162  133.9180  155.8117 LP  0  0  0  0  0  0  0  0  0  0  0  0  # atno 17394 bound_to 11000
  141.0262  134.0820  157.4065 LP  0  0  0  0  0  0  0  0  0  0  0  0  # atno 17395 bound_to 11000

$$$$
