#       Name:                AV-unprocessed.smi:2138
#       Creating user name   scv26
#       Creation time:       Fri Mar 27 11:47:37 2020


#       File generated by GOLD software.
#

@<TRIPOS>MOLECULE
AV-unprocessed.smi:2138
    55    56     1
SMALL
NO_CHARGES


@<TRIPOS>ATOM
      1 ****        -8.9667   3.5646   0.6693 C.3            1 S1                 0.0000
      2 ****        -7.5500   3.5790   0.6721 O.3            1 S1                 0.0000
      3 ****        -6.9942   2.2826   0.5300 C.3            1 S1                 0.0000
      4 ****        -5.4670   2.3892   0.5446 C.3            1 S1                 0.0000
      5 ****        -4.9162   1.0884   0.3614 O.3            1 S1                 0.0000
      6 ****        -3.5432   0.9527   0.3288 C.ar           1 S1                 0.0000
      7 ****        -2.9972  -0.3287   0.1177 C.ar           1 S1                 0.0000
      8 ****        -1.5972  -0.4763   0.0775 C.ar           1 S1                 0.0000
      9 ****        -0.7825   0.6680   0.2580 C.ar           1 S1                 0.0000
     10 ****         0.6394   0.6694   0.2246 N.am           1 S1                 0.0000
     11 ****         1.4983  -0.3668   0.2529 C.2            1 S1                 0.0000
     12 ****         1.1711  -1.5500   0.3405 O.2            1 S1                 0.0000
     13 ****         2.9887   0.0042   0.1810 C.3            1 S1                 0.0000
     14 ****         3.7632  -0.5057   1.4110 C.3            1 S1                 0.0000
     15 ****         4.6854  -1.5758   0.8508 C.2            1 S1                 0.0000
     16 ****         5.4001  -2.2716   1.5706 O.2            1 S1                 0.0000
     17 ****         4.5953  -1.6431  -0.4856 N.am           1 S1                 0.0000
     18 ****         5.3125  -2.5449  -1.3959 C.3            1 S1                 0.0000
     19 ****         4.9591  -4.0182  -1.1274 C.3            1 S1                 0.0000
     20 ****         6.8304  -2.2967  -1.3565 C.3            1 S1                 0.0000
     21 ****         3.6950  -0.6389  -1.0312 C.3            1 S1                 0.0000
     22 ****        -1.4295   1.9053   0.4575 C.ar           1 S1                 0.0000
     23 ****        -2.7702   2.0537   0.4958 N.ar           1 S1                 0.0000
     24 ****        -9.3434   4.5818   0.7775 H              1 S1                 0.0000
     25 ****        -9.3569   2.9713   1.4972 H              1 S1                 0.0000
     26 ****        -9.3556   3.1594  -0.2659 H              1 S1                 0.0000
     27 ****        -7.3313   1.6376   1.3429 H              1 S1                 0.0000
     28 ****        -7.3273   1.8347  -0.4076 H              1 S1                 0.0000
     29 ****        -5.1388   3.0545  -0.2558 H              1 S1                 0.0000
     30 ****        -5.1375   2.8134   1.4947 H              1 S1                 0.0000
     31 ****        -3.6420  -1.1847  -0.0173 H              1 S1                 0.0000
     32 ****        -1.1889  -1.4578  -0.1015 H              1 S1                 0.0000
     33 ****         1.0644   1.5852   0.2044 H              1 S1                 0.0000
     34 ****         3.0829   1.0897   0.1171 H              1 S1                 0.0000
     35 ****         4.3600   0.2904   1.8570 H              1 S1                 0.0000
     36 ****         3.1246  -0.9239   2.1910 H              1 S1                 0.0000
     37 ****         4.9787  -2.3172  -2.4094 H              1 S1                 0.0000
     38 ****         5.4161  -4.6687  -1.8733 H              1 S1                 0.0000
     39 ****         3.8808  -4.1766  -1.1691 H              1 S1                 0.0000
     40 ****         5.3073  -4.3492  -0.1488 H              1 S1                 0.0000
     41 ****         7.3420  -2.8962  -2.1099 H              1 S1                 0.0000
     42 ****         7.2596  -2.5547  -0.3882 H              1 S1                 0.0000
     43 ****         7.0621  -1.2503  -1.5575 H              1 S1                 0.0000
     44 ****         2.9976  -1.0937  -1.7374 H              1 S1                 0.0000
     45 ****         4.2762   0.1046  -1.5782 H              1 S1                 0.0000
     46 ****        -0.8535   2.8093   0.5917 H              1 S1                 0.0000
     47 ****        -7.2349   3.9701   1.5368 LP             1 S1                 0.0000
     48 ****        -7.2335   4.1487  -0.0864 LP             1 S1                 0.0000
     49 ****        -5.2680   0.7386  -0.5069 LP             1 S1                 0.0000
     50 ****        -5.2515   0.5178   1.1110 LP             1 S1                 0.0000
     51 ****         0.2041  -1.7985   0.3968 LP             1 S1                 0.0000
     52 ****         1.8722  -2.2629   0.3553 LP             1 S1                 0.0000
     53 ****         5.3872  -2.1429   2.5622 LP             1 S1                 0.0000
     54 ****         5.9939  -2.9660   1.1642 LP             1 S1                 0.0000
     55 ****        -3.1828   2.9526   0.6435 LP             1 S1                 0.0000
@<TRIPOS>BOND
    1    1    2 1     
    2    1   24 1     
    3    1   25 1     
    4    1   26 1     
    5    2    3 1     
    6    3    4 1     
    7    3   27 1     
    8    3   28 1     
    9    4    5 1     
   10    4   29 1     
   11    4   30 1     
   12    5    6 1     
   13    6   23 ar    
   14    6    7 ar    
   15    7    8 ar    
   16    7   31 1     
   17    8    9 ar    
   18    8   32 1     
   19    9   10 1     
   20    9   22 ar    
   21   10   11 am    
   22   10   33 1     
   23   11   12 2     
   24   11   13 1     
   25   13   21 1     
   26   13   14 1     
   27   13   34 1     
   28   14   15 1     
   29   14   35 1     
   30   14   36 1     
   31   15   16 2     
   32   15   17 am    
   33   17   18 1     
   34   17   21 1     
   35   18   19 1     
   36   18   20 1     
   37   18   37 1     
   38   19   38 1     
   39   19   39 1     
   40   19   40 1     
   41   20   41 1     
   42   20   42 1     
   43   20   43 1     
   44   21   44 1     
   45   21   45 1     
   46   22   23 ar    
   47   22   46 1     
   48    2   47 1     
   49    2   48 1     
   50    5   49 1     
   51    5   50 1     
   52   12   51 1     
   53   12   52 1     
   54   16   53 1     
   55   16   54 1     
   56   23   55 1     
@<TRIPOS>SUBSTRUCTURE
      1 S1             1
@<TRIPOS>SET
LONE_PAIRS      STATIC     ATOMS    <user>   **** ""
9 47 48 49 50 51 52 53 54 55
DONOR_HYDROGENS      STATIC     ATOMS    <user>   **** ""
1 33
ATOM$BLUE        STATIC     ATOMS    COLORGROUP SYSTEM
9 47 48 49 50 51 52 53 54 55
ATOM$RED        STATIC     ATOMS    COLORGROUP SYSTEM
1 33
