AV-unprocessed.smi:3173|AV-procd|sdf|12120|dock5
  -GOLD-   2272017563D 1   1.00000     0.00000
 Structure written by MMmdl.
 36 37  0  0  0  0  0  0  0  0  2 V2000
  150.4845  142.2087  158.5596 O   0  0  0  0  0  0  0  0  0  0  0  0
  151.4486  141.4687  158.7578 C   0  0  0  0  0  0  0  0  0  0  0  0
  152.3992  141.7264  159.9323 C   0  0  0  0  0  0  0  0  0  0  0  0
  152.8816  143.1890  160.0259 C   0  0  1  0  0  0  0  0  0  0  0  0
  152.8219  143.8947  158.6957 C   0  0  0  0  0  0  0  0  0  0  0  0
  152.1792  145.0590  158.7579 C   0  0  0  0  0  0  0  0  0  0  0  0
  151.6779  145.3662  160.1414 C   0  0  0  0  0  0  0  0  0  0  0  0
  152.0207  144.0941  160.9482 C   0  0  0  0  0  0  0  0  0  0  0  0
  151.7294  140.4073  157.9862 N   0  0  0  0  0  0  0  0  0  0  0  0
  150.9593  139.9972  156.8176 C   0  0  0  0  0  0  0  0  0  0  0  0
  150.6461  141.1885  155.8963 C   0  0  0  0  0  0  0  0  0  0  0  0
  149.3568  140.9917  155.1230 C   0  0  0  0  0  0  0  0  0  0  0  0
  149.0023  139.7452  154.5628 C   0  0  0  0  0  0  0  0  0  0  0  0
  147.7843  139.6264  153.8614 C   0  0  0  0  0  0  0  0  0  0  0  0
  146.9475  140.7544  153.7352 C   0  0  0  0  0  0  0  0  0  0  0  0
  147.3499  141.9745  154.3161 C   0  0  0  0  0  0  0  0  0  0  0  0
  148.5238  142.0483  154.9812 N   0  3  0  0  0  0  0  0  0  0  0  0
  151.8772  141.4526  160.8497 H   0  0  0  0  0  0  0  0  0  0  0  0
  153.2606  141.0606  159.8574 H   0  0  0  0  0  0  0  0  0  0  0  0
  153.9231  143.2163  160.3506 H   0  0  0  0  0  0  0  0  0  0  0  0
  153.2761  143.4842  157.8056 H   0  0  0  0  0  0  0  0  0  0  0  0
  152.0318  145.7345  157.9282 H   0  0  0  0  0  0  0  0  0  0  0  0
  152.1911  146.2445  160.5344 H   0  0  0  0  0  0  0  0  0  0  0  0
  150.6054  145.5631  160.1294 H   0  0  0  0  0  0  0  0  0  0  0  0
  151.0959  143.5900  161.2319 H   0  0  0  0  0  0  0  0  0  0  0  0
  152.5477  144.3359  161.8717 H   0  0  0  0  0  0  0  0  0  0  0  0
  152.5399  139.8519  158.2205 H   0  0  0  0  0  0  0  0  0  0  0  0
  151.5005  139.2232  156.2702 H   0  0  0  0  0  0  0  0  0  0  0  0
  150.0327  139.5403  157.1661 H   0  0  0  0  0  0  0  0  0  0  0  0
  150.5723  142.1057  156.4822 H   0  0  0  0  0  0  0  0  0  0  0  0
  151.4599  141.3428  155.1864 H   0  0  0  0  0  0  0  0  0  0  0  0
  149.6533  138.8896  154.6703 H   0  0  0  0  0  0  0  0  0  0  0  0
  147.4953  138.6810  153.4258 H   0  0  0  0  0  0  0  0  0  0  0  0
  146.0106  140.6841  153.2019 H   0  0  0  0  0  0  0  0  0  0  0  0
  146.7724  142.8862  154.2696 H   0  0  0  0  0  0  0  0  0  0  0  0
  148.7940  142.9414  155.3939 H   0  0  0  0  0  0  0  0  0  0  0  0
  1  2  2  0  0  0  0
  2  3  1  0  0  0  0
  2  9  1  0  0  0  0
  3  4  1  0  0  0  0
  3 18  1  0  0  0  0
  3 19  1  0  0  0  0
  4  8  1  0  0  0  0
  4  5  1  0  0  0  0
  4 20  1  0  0  0  0
  5  6  2  0  0  0  0
  5 21  1  0  0  0  0
  6  7  1  0  0  0  0
  6 22  1  0  0  0  0
  7  8  1  0  0  0  0
  7 23  1  0  0  0  0
  7 24  1  0  0  0  0
  8 25  1  0  0  0  0
  8 26  1  0  0  0  0
  9 10  1  0  0  0  0
  9 27  1  0  0  0  0
 10 11  1  0  0  0  0
 10 28  1  0  0  0  0
 10 29  1  0  0  0  0
 11 12  1  0  0  0  0
 11 30  1  0  0  0  0
 11 31  1  0  0  0  0
 12 17  1  0  0  0  0
 12 13  2  0  0  0  0
 13 14  1  0  0  0  0
 13 32  1  0  0  0  0
 14 15  2  0  0  0  0
 14 33  1  0  0  0  0
 15 16  1  0  0  0  0
 15 34  1  0  0  0  0
 16 17  2  0  0  0  0
 16 35  1  0  0  0  0
 17 36  1  0  0  0  0
M  CHG  1  17   1
M  END
> <s_m_source_file>
AV-unprocessed.smi

> <i_m_source_file_index>
3173

> <i_lp_mmshare_version>
43012

> <i_f3d_flags>
0

> <s_epik_input>
W0NIMl0xW0NIMl1bQ0hdPVtDSF1bQ0BIXTFbQ0gyXUMoPU8pW05IXVtDSDJdW0NIMl1jMltjSF1bY0hdW2NIXVtjSF1uMg==

> <s_epik_cmdline>
J2VwaWtfcHl0aG9uJywgJy1waCcsICc3LjAnLCAnLXRuJywgJzgnLCAnLW1hJywgJzIwMCcsICctbWV0YWxfYmluZGluZycsICctaW1hZScsICc8aW5maWxlLm1hZT4nLCAnLW9tYWUnLCAnPG91dGZpbGUubWFlPic=

> <r_epik_Ionization_Penalty>
1.86798

> <r_epik_Ionization_Penalty_Charging>
1.86798

> <r_epik_Ionization_Penalty_Neutral>
1.53848e-08

> <r_epik_State_Penalty>
1.98677

> <r_epik_Charging_Adjusted_Penalty>
3.85475

> <i_epik_Tot_Q>
1

> <i_epik_Tot_abs_Q>
1

> <r_epik_Metal_State_Penalty>
2.01174

> <b_epik_Metal_Only>
0

> <s_lp_Force_Field>
OPLS_2005

> <r_lp_Energy>
20.3145

> <b_lp_Chiralities_Consistent>
1

> <s_lp_Variant>
AV-unprocessed.smi:3173-4

> <Gold.Version>
5.8.1

> <Gold.Id.Protein>
6NUR|6NUR_protein|mol2

> <Gold.PLP.Fitness>
49.1149

> <Gold.PLP.PLP>
-45.2498

> <Gold.PLP.part.hbond>
-1.0000

> <Gold.PLP.part.metal>
0.0000

> <Gold.PLP.part.buried>
-4.0919

> <Gold.PLP.part.nonpolar>
-41.0879

> <Gold.PLP.part.repulsive>
0.3448

> <Gold.PLP.ligand.clash>
0.0000

> <Gold.PLP.ligand.torsion>
1.0870

> <Gold.PLP.Chemscore.Hbond>
2.0000

> <Gold.PLP.Chemscore.CHOScore>
0.0000

> <Gold.PLP.Chemscore.Metal>
0.0000

> <Gold.Chemscore.Hbonds>
donor molecule, donor type, donor heavy atom, donor atom, acceptor molecule, acceptor atom, score
      L1  H    17    36       P1  8028  2.00

> <Gold.PLP.Chemscore.Internal.Correction>
0.0391

> <Gold.Rescore>
     Score         DG    S(hbond)    S(metal)    S(lipo)     H(rot)  DE(clash)    DE(int)     intcor
     16.75     -19.00       0.99        0.00     122.59       1.61       0.12       2.12       ----

> <Gold.Chemscore.Fitness>
16.7524

> <Gold.Chemscore.DG>
-18.9984

> <Gold.Chemscore.ZeroCoef>
-5.4800

> <Gold.Chemscore.Hbond>
0.9886

> <Gold.Chemscore.Metal>
0.0000

> <Gold.Chemscore.Lipo>
122.5947

> <Gold.Chemscore.Internal_Hbond>
0.0000

> <Gold.Chemscore.DEClash>
0.1249

> <Gold.Chemscore.DEInternal>
2.1211

> <Gold.Chemscore.Rot>
1.6122

> <Gold.Chemscore.Internal.Correction>
   9.000000E+99

> <Gold.Chemscore.Hbonds>
donor molecule, donor type, donor heavy atom, donor atom, acceptor molecule, acceptor atom, score
      L1  H    17    36       P1  8028  0.99

> <Gold.Chemscore.Hbond.Weighted>
-3.3019

> <Gold.Chemscore.Metal.Weighted>
-0.0000

> <Gold.Chemscore.Lipo.Weighted>
-14.3436

> <Gold.Chemscore.Internal_Hbond.Weighted>
0.0000

> <Gold.Chemscore.DEClash.Weighted>
0.1249

> <Gold.Chemscore.DEInternal.Weighted>
2.1211

> <Gold.Chemscore.Rot.Weighted>
4.1271

> <Gold.Chemscore.Internal.Correction.Weighted>
   9.000000E+99

> <Gold.Protein.RotatedTorsions>
[ 6907 6896 6895 6894 ] final   78.93 input  -60.11 | X-H torsion
[ 7974 7965 7964 7962 ] final  125.96 input  175.53 | X-H torsion
[ 8008 7997 7996 7995 ] final -158.70 input   59.86 | X-H torsion
[ 10167 10162 10161 10158 ] final  100.27 input  -65.29 | X-H torsion
[ 10718 10713 10712 10709 ] final   88.72 input   66.30 | X-H torsion
[ 10763 10752 10751 10750 ] final  168.38 input  -60.55 | X-H torsion
[ 11005 11000 10999 10996 ] final    6.16 input  -57.11 | X-H torsion

> <Gold.Protein.ActiveResidues>
 VAL166  LYS551  ARG553  GLY616  TRP617  ASP618  TYR619  PRO620  LYS621  CYS622 
 ASP623  PHE694  ASN695  SER759  ASP760  ASP761  ALA762  ILE779  LEU786  VAL792 
 PHE793  MET794  SER795  GLU796  ALA797  LYS798  CYS799  TRP800  GLU811  SER814 

> <Gold.Protein.RotatedAtoms>
  152.5179  134.3589  159.9277 H   0  0  0  0  0  0  0  0  0  0  0  0  # atno 6907 bound_to 6896
  151.3540  133.3908  159.2691 H   0  0  0  0  0  0  0  0  0  0  0  0  # atno 6908 bound_to 6896
  150.9704  134.9096  159.7842 H   0  0  0  0  0  0  0  0  0  0  0  0  # atno 6909 bound_to 6896
  145.0670  139.3759  143.4977 H   0  0  0  0  0  0  0  0  0  0  0  0  # atno 7974 bound_to 7965
  155.7515  140.0827  157.2199 H   0  0  0  0  0  0  0  0  0  0  0  0  # atno 8008 bound_to 7997
  154.4012  140.1559  156.2785 H   0  0  0  0  0  0  0  0  0  0  0  0  # atno 8009 bound_to 7997
  155.8926  140.3414  155.5970 H   0  0  0  0  0  0  0  0  0  0  0  0  # atno 8010 bound_to 7997
  139.7542  144.6974  151.0386 H   0  0  0  0  0  0  0  0  0  0  0  0  # atno 10167 bound_to 10162
  157.6951  131.0305  150.3317 H   0  0  0  0  0  0  0  0  0  0  0  0  # atno 10718 bound_to 10713
  154.3678  135.2753  155.2284 H   0  0  0  0  0  0  0  0  0  0  0  0  # atno 10763 bound_to 10752
  154.4444  135.5946  153.6154 H   0  0  0  0  0  0  0  0  0  0  0  0  # atno 10764 bound_to 10752
  152.9840  135.6026  154.3905 H   0  0  0  0  0  0  0  0  0  0  0  0  # atno 10765 bound_to 10752
  140.5626  134.0178  155.7977 H   0  0  0  0  0  0  0  0  0  0  0  0  # atno 11005 bound_to 11000
  146.3527  140.0397  142.8644 LP  0  0  0  0  0  0  0  0  0  0  0  0  # atno 17320 bound_to 7965
  145.1338  140.9533  143.4528 LP  0  0  0  0  0  0  0  0  0  0  0  0  # atno 17321 bound_to 7965
  140.7801  143.4772  151.0066 LP  0  0  0  0  0  0  0  0  0  0  0  0  # atno 17342 bound_to 10162
  139.8459  143.7501  152.3179 LP  0  0  0  0  0  0  0  0  0  0  0  0  # atno 17343 bound_to 10162
  156.3790  130.3877  149.7116 LP  0  0  0  0  0  0  0  0  0  0  0  0  # atno 17370 bound_to 10713
  156.4505  130.7904  151.2925 LP  0  0  0  0  0  0  0  0  0  0  0  0  # atno 17371 bound_to 10713
  141.1105  133.9624  157.2918 LP  0  0  0  0  0  0  0  0  0  0  0  0  # atno 17394 bound_to 11000
  139.9400  135.0192  156.8679 LP  0  0  0  0  0  0  0  0  0  0  0  0  # atno 17395 bound_to 11000

$$$$
