AV-unprocessed.smi:82|AV-procd|sdf|798|dock7
  -GOLD-   2262017183D 1   1.00000     0.00000
 Structure written by MMmdl.
 58 61  0  0  0  0  0  0  0  0  1 V2000
  152.6922  143.2677  161.8210 C   0  0  0  0  0  0  0  0  0  0  0  0
  151.6438  143.5922  160.9246 O   0  0  0  0  0  0  0  0  0  0  0  0
  152.0769  144.4189  159.8576 C   0  0  0  0  0  0  0  0  0  0  0  0
  152.9544  143.5786  158.9150 C   0  0  0  0  0  0  0  0  0  0  0  0
  152.2863  142.4150  158.3186 N   0  0  0  0  0  0  0  0  0  0  0  0
  150.9904  142.8218  157.7670 C   0  0  0  0  0  0  0  0  0  0  0  0
  150.2645  141.6756  157.0494 C   0  0  0  0  0  0  0  0  0  0  0  0
  150.0828  140.5569  157.9675 N   0  0  0  0  0  0  0  0  0  0  0  0
  149.2164  139.6032  157.5399 C   0  0  0  0  0  0  0  0  0  0  0  0
  148.5747  138.8123  158.4418 N   0  0  0  0  0  0  0  0  0  0  0  0
  147.7247  137.8680  158.0280 C   0  0  0  0  0  0  0  0  0  0  0  0
  147.3748  137.5483  156.7808 N   0  0  0  0  0  0  0  0  0  0  0  0
  148.0104  138.3401  155.8703 C   0  0  0  0  0  0  0  0  0  0  0  0
  148.9332  139.3847  156.1617 C   0  0  0  0  0  0  0  0  0  0  0  0
  149.3485  139.9898  154.9813 N   0  0  0  0  0  0  0  0  0  0  0  0
  148.7120  139.3379  154.0471 C   0  0  0  0  0  0  0  0  0  0  0  0
  147.9100  138.3102  154.4897 N   0  0  0  0  0  0  0  0  0  0  0  0
  147.0740  137.4671  153.6851 C   0  0  0  0  0  0  0  0  0  0  0  0
  146.0890  138.0642  152.6755 C   0  0  0  0  0  0  0  0  0  0  0  0
  145.0621  136.9561  153.0007 C   0  0  0  0  0  0  0  0  0  0  0  0
  143.6283  137.4656  153.2154 C   0  0  0  0  0  0  0  0  0  0  0  0
  143.5770  138.4589  154.2196 O   0  0  0  0  0  0  0  0  0  0  0  0
  144.9828  135.7819  151.9998 C   0  0  0  0  0  0  0  0  0  0  0  0
  144.5135  136.1656  150.7232 O   0  0  0  0  0  0  0  0  0  0  0  0
  145.8777  136.7275  154.2925 C   0  0  0  0  0  0  0  0  0  0  0  0
  151.3338  140.1236  158.5885 C   0  0  0  0  0  0  0  0  0  0  0  0
  152.0541  141.3083  159.2736 C   0  0  1  0  0  0  0  0  0  0  0  0
  153.3160  140.7618  159.9635 C   0  0  0  0  0  0  0  0  0  0  0  0
  152.3082  142.6337  162.6200 H   0  0  0  0  0  0  0  0  0  0  0  0
  153.1138  144.1649  162.2763 H   0  0  0  0  0  0  0  0  0  0  0  0
  153.4904  142.7240  161.3140 H   0  0  0  0  0  0  0  0  0  0  0  0
  151.2118  144.7982  159.3112 H   0  0  0  0  0  0  0  0  0  0  0  0
  152.6063  145.2800  160.2594 H   0  0  0  0  0  0  0  0  0  0  0  0
  153.3875  144.2064  158.1351 H   0  0  0  0  0  0  0  0  0  0  0  0
  153.8011  143.2439  159.5161 H   0  0  0  0  0  0  0  0  0  0  0  0
  150.3548  143.2165  158.5616 H   0  0  0  0  0  0  0  0  0  0  0  0
  151.1327  143.6340  157.0531 H   0  0  0  0  0  0  0  0  0  0  0  0
  149.3114  142.0376  156.6658 H   0  0  0  0  0  0  0  0  0  0  0  0
  150.8465  141.3424  156.1889 H   0  0  0  0  0  0  0  0  0  0  0  0
  147.2606  137.2829  158.8083 H   0  0  0  0  0  0  0  0  0  0  0  0
  148.8158  139.5899  153.0016 H   0  0  0  0  0  0  0  0  0  0  0  0
  147.7488  136.7654  153.1935 H   0  0  0  0  0  0  0  0  0  0  0  0
  145.7511  139.0591  152.9697 H   0  0  0  0  0  0  0  0  0  0  0  0
  146.4507  138.0683  151.6467 H   0  0  0  0  0  0  0  0  0  0  0  0
  143.2288  137.9010  152.2989 H   0  0  0  0  0  0  0  0  0  0  0  0
  142.9560  136.6513  153.4880 H   0  0  0  0  0  0  0  0  0  0  0  0
  143.5364  139.3060  153.8022 H   0  0  0  0  0  0  0  0  0  0  0  0
  145.9609  135.3211  151.8600 H   0  0  0  0  0  0  0  0  0  0  0  0
  144.3207  135.0000  152.3738 H   0  0  0  0  0  0  0  0  0  0  0  0
  144.3024  137.0865  150.7455 H   0  0  0  0  0  0  0  0  0  0  0  0
  146.0704  135.6812  154.5319 H   0  0  0  0  0  0  0  0  0  0  0  0
  145.4567  137.2516  155.1522 H   0  0  0  0  0  0  0  0  0  0  0  0
  151.1191  139.3493  159.3264 H   0  0  0  0  0  0  0  0  0  0  0  0
  151.9813  139.6785  157.8312 H   0  0  0  0  0  0  0  0  0  0  0  0
  151.3957  141.6710  160.0651 H   0  0  0  0  0  0  0  0  0  0  0  0
  153.0863  139.8744  160.5541 H   0  0  0  0  0  0  0  0  0  0  0  0
  153.7402  141.4879  160.6563 H   0  0  0  0  0  0  0  0  0  0  0  0
  154.0801  140.4836  159.2369 H   0  0  0  0  0  0  0  0  0  0  0  0
  1  2  1  0  0  0  0
  1 29  1  0  0  0  0
  1 30  1  0  0  0  0
  1 31  1  0  0  0  0
  2  3  1  0  0  0  0
  3  4  1  0  0  0  0
  3 32  1  0  0  0  0
  3 33  1  0  0  0  0
  4  5  1  0  0  0  0
  4 34  1  0  0  0  0
  4 35  1  0  0  0  0
  5 27  1  0  0  0  0
  5  6  1  0  0  0  0
  6  7  1  0  0  0  0
  6 36  1  0  0  0  0
  6 37  1  0  0  0  0
  7  8  1  0  0  0  0
  7 38  1  0  0  0  0
  7 39  1  0  0  0  0
  8  9  1  0  0  0  0
  8 26  1  0  0  0  0
  9 14  1  0  0  0  0
  9 10  2  0  0  0  0
 10 11  1  0  0  0  0
 11 12  2  0  0  0  0
 11 40  1  0  0  0  0
 12 13  1  0  0  0  0
 13 17  1  0  0  0  0
 13 14  2  0  0  0  0
 14 15  1  0  0  0  0
 15 16  2  0  0  0  0
 16 17  1  0  0  0  0
 16 41  1  0  0  0  0
 17 18  1  0  0  0  0
 18 25  1  0  0  0  0
 18 19  1  0  0  0  0
 18 42  1  0  0  0  0
 19 20  1  0  0  0  0
 19 43  1  0  0  0  0
 19 44  1  0  0  0  0
 20 21  1  0  0  0  0
 20 23  1  0  0  0  0
 20 25  1  0  0  0  0
 21 22  1  0  0  0  0
 21 45  1  0  0  0  0
 21 46  1  0  0  0  0
 22 47  1  0  0  0  0
 23 24  1  0  0  0  0
 23 48  1  0  0  0  0
 23 49  1  0  0  0  0
 24 50  1  0  0  0  0
 25 51  1  0  0  0  0
 25 52  1  0  0  0  0
 26 27  1  0  0  0  0
 26 53  1  0  0  0  0
 26 54  1  0  0  0  0
 27 28  1  0  0  0  0
 27 55  1  0  0  0  0
 28 56  1  0  0  0  0
 28 57  1  0  0  0  0
 28 58  1  0  0  0  0
M  END
> <s_m_source_file>
AV-unprocessed.smi

> <i_m_source_file_index>
82

> <i_lp_mmshare_version>
43012

> <i_f3d_flags>
0

> <s_epik_input>
W0NIM11PW0NIMl1bQ0gyXU4xW0NIMl1bQ0gyXU4oW0NIMl1bQ0BIXTFbQ0gzXSljKG5bY0hdbjIpYyhjMjMpbltjSF1uM1tDSF0oW0NIMl00KVtDSDJdQzQoW0NIMl1bT0hdKVtDSDJdW09IXQ==

> <s_epik_cmdline>
J2VwaWtfcHl0aG9uJywgJy1waCcsICc3LjAnLCAnLXRuJywgJzgnLCAnLW1hJywgJzIwMCcsICctbWV0YWxfYmluZGluZycsICctaW1hZScsICc8aW5maWxlLm1hZT4nLCAnLW9tYWUnLCAnPG91dGZpbGUubWFlPic=

> <r_lp_tautomer_probability>
1

> <r_epik_Ionization_Penalty>
0.549054

> <r_epik_Ionization_Penalty_Charging>
0

> <r_epik_Ionization_Penalty_Neutral>
0.549054

> <r_epik_State_Penalty>
0.552556

> <r_epik_Charging_Adjusted_Penalty>
0.552556

> <i_epik_Tot_Q>
0

> <i_epik_Tot_abs_Q>
0

> <r_epik_Metal_State_Penalty>
0.545162

> <b_epik_Metal_Only>
0

> <s_lp_Force_Field>
OPLS_2005

> <r_lp_Energy>
72.4409

> <b_lp_Chiralities_Consistent>
1

> <s_lp_Variant>
AV-unprocessed.smi:82-5

> <Gold.Version>
5.8.1

> <Gold.Id.Protein>
6NUR|6NUR_protein|mol2

> <Gold.PLP.Fitness>
45.5779

> <Gold.PLP.PLP>
-37.6949

> <Gold.PLP.part.hbond>
-3.5308

> <Gold.PLP.part.metal>
0.0000

> <Gold.PLP.part.buried>
-2.5164

> <Gold.PLP.part.nonpolar>
-31.8659

> <Gold.PLP.part.repulsive>
0.2001

> <Gold.PLP.ligand.clash>
0.0000

> <Gold.PLP.ligand.torsion>
0.9975

> <Gold.PLP.Chemscore.Hbond>
2.0000

> <Gold.PLP.Chemscore.CHOScore>
1.0000

> <Gold.PLP.Chemscore.Metal>
0.0000

> <Gold.Chemscore.Hbonds>
donor molecule, donor type, donor heavy atom, donor atom, acceptor molecule, acceptor atom, score
      L1  H    22    47       P1 10175  1.00
      L1  H    24    50       P1 10171  0.94
      L1  C    16    41       P1  7957  1.00

> <Gold.PLP.Chemscore.Internal.Correction>
0.8780

> <Gold.Rescore>
     Score         DG    S(hbond)    S(metal)    S(lipo)     H(rot)  DE(clash)    DE(int)     intcor
      9.41     -13.24       1.97        0.00      94.21       3.84       0.36       3.46       ----

> <Gold.Chemscore.Fitness>
9.4121

> <Gold.Chemscore.DG>
-13.2360

> <Gold.Chemscore.ZeroCoef>
-5.4800

> <Gold.Chemscore.Hbond>
1.9679

> <Gold.Chemscore.Metal>
0.0000

> <Gold.Chemscore.Lipo>
94.2073

> <Gold.Chemscore.Internal_Hbond>
0.0000

> <Gold.Chemscore.DEClash>
0.3601

> <Gold.Chemscore.DEInternal>
3.4638

> <Gold.Chemscore.Rot>
3.8434

> <Gold.Chemscore.Internal.Correction>
   9.000000E+99

> <Gold.Chemscore.Hbonds>
donor molecule, donor type, donor heavy atom, donor atom, acceptor molecule, acceptor atom, score
      L1  H    22    47       P1 10175  0.99
      L1  H    24    50       P1 10171  0.91

> <Gold.Chemscore.Hbond.Weighted>
-6.5728

> <Gold.Chemscore.Metal.Weighted>
-0.0000

> <Gold.Chemscore.Lipo.Weighted>
-11.0223

> <Gold.Chemscore.Internal_Hbond.Weighted>
0.0000

> <Gold.Chemscore.DEClash.Weighted>
0.3601

> <Gold.Chemscore.DEInternal.Weighted>
3.4638

> <Gold.Chemscore.Rot.Weighted>
9.8391

> <Gold.Chemscore.Internal.Correction.Weighted>
   9.000000E+99

> <Gold.Protein.RotatedTorsions>
[ 6907 6896 6895 6894 ] final   11.64 input  -60.11 | X-H torsion
[ 7974 7965 7964 7962 ] final  -96.23 input  175.53 | X-H torsion
[ 8008 7997 7996 7995 ] final -158.75 input   59.86 | X-H torsion
[ 10167 10162 10161 10158 ] final   -8.61 input  -65.29 | X-H torsion
[ 10718 10713 10712 10709 ] final  -73.03 input   66.30 | X-H torsion
[ 10763 10752 10751 10750 ] final  121.69 input  -60.55 | X-H torsion
[ 11005 11000 10999 10996 ] final  -87.57 input  -57.11 | X-H torsion

> <Gold.Protein.ActiveResidues>
 VAL166  LYS551  ARG553  GLY616  TRP617  ASP618  TYR619  PRO620  LYS621  CYS622 
 ASP623  PHE694  ASN695  SER759  ASP760  ASP761  ALA762  ILE779  LEU786  VAL792 
 PHE793  MET794  SER795  GLU796  ALA797  LYS798  CYS799  TRP800  GLU811  SER814 

> <Gold.Protein.RotatedAtoms>
  151.7576  135.0818  160.0340 H   0  0  0  0  0  0  0  0  0  0  0  0  # atno 6907 bound_to 6896
  152.3375  133.6024  159.5861 H   0  0  0  0  0  0  0  0  0  0  0  0  # atno 6908 bound_to 6896
  150.7459  133.9690  159.3581 H   0  0  0  0  0  0  0  0  0  0  0  0  # atno 6909 bound_to 6896
  145.3496  140.9474  143.2562 H   0  0  0  0  0  0  0  0  0  0  0  0  # atno 7974 bound_to 7965
  155.7522  140.0828  157.2195 H   0  0  0  0  0  0  0  0  0  0  0  0  # atno 8008 bound_to 7997
  154.4011  140.1558  156.2793 H   0  0  0  0  0  0  0  0  0  0  0  0  # atno 8009 bound_to 7997
  155.8919  140.3415  155.5965 H   0  0  0  0  0  0  0  0  0  0  0  0  # atno 8010 bound_to 7997
  140.7064  143.5950  150.8855 H   0  0  0  0  0  0  0  0  0  0  0  0  # atno 10167 bound_to 10162
  156.0296  130.4385  150.2682 H   0  0  0  0  0  0  0  0  0  0  0  0  # atno 10718 bound_to 10713
  153.6181  135.3418  155.3001 H   0  0  0  0  0  0  0  0  0  0  0  0  # atno 10763 bound_to 10752
  154.8605  135.4266  154.2237 H   0  0  0  0  0  0  0  0  0  0  0  0  # atno 10764 bound_to 10752
  153.3103  135.7031  153.7194 H   0  0  0  0  0  0  0  0  0  0  0  0  # atno 10765 bound_to 10752
  141.1615  133.7519  156.9326 H   0  0  0  0  0  0  0  0  0  0  0  0  # atno 11005 bound_to 11000
  144.8728  139.5014  143.6760 LP  0  0  0  0  0  0  0  0  0  0  0  0  # atno 17320 bound_to 7965
  146.2973  139.7318  142.9117 LP  0  0  0  0  0  0  0  0  0  0  0  0  # atno 17321 bound_to 7965
  139.9675  143.6094  152.2984 LP  0  0  0  0  0  0  0  0  0  0  0  0  # atno 17342 bound_to 10162
  139.6669  144.7662  151.1857 LP  0  0  0  0  0  0  0  0  0  0  0  0  # atno 17343 bound_to 10162
  157.0784  131.0136  151.3165 LP  0  0  0  0  0  0  0  0  0  0  0  0  # atno 17370 bound_to 10713
  157.4946  130.7843  149.7542 LP  0  0  0  0  0  0  0  0  0  0  0  0  # atno 17371 bound_to 10713
  140.1376  134.9315  157.2423 LP  0  0  0  0  0  0  0  0  0  0  0  0  # atno 17394 bound_to 11000
  140.2876  134.3278  155.7324 LP  0  0  0  0  0  0  0  0  0  0  0  0  # atno 17395 bound_to 11000

$$$$
