AV-unprocessed.smi:2620|AV-procd|sdf|10224|dock8
  -GOLD-   2272014233D 1   1.00000     0.00000
 Structure written by MMmdl.
 35 36  0  0  0  0  0  0  0  0  2 V2000
  150.0504  143.2909  159.1189 C   0  0  0  0  0  0  0  0  0  0  0  0
  150.7622  142.0657  159.1272 O   0  0  0  0  0  0  0  0  0  0  0  0
  151.6281  141.9340  158.0130 C   0  0  0  0  0  0  0  0  0  0  0  0
  150.8062  142.0885  156.7249 C   0  0  0  0  0  0  0  0  0  0  0  0
  150.4087  140.7824  156.1833 N   0  0  0  0  0  0  0  0  0  0  0  0
  149.0313  140.5722  155.9791 C   0  0  0  0  0  0  0  0  0  0  0  0
  148.5460  139.4164  155.4878 C   0  0  0  0  0  0  0  0  0  0  0  0
  147.0858  139.2347  155.2994 C   0  0  0  0  0  0  0  0  0  0  0  0
  146.6473  138.4294  154.4765 O   0  0  0  0  0  0  0  0  0  0  0  0
  146.1638  140.0396  156.1566 C   0  0  0  0  0  0  0  0  0  0  0  0
  144.9890  140.5785  155.5799 C   0  0  0  0  0  0  0  0  0  0  0  0
  144.0993  141.3527  156.3479 C   0  0  0  0  0  0  0  0  0  0  0  0
  144.3734  141.5983  157.7049 C   0  0  0  0  0  0  0  0  0  0  0  0
  145.5359  141.0665  158.2922 C   0  0  0  0  0  0  0  0  0  0  0  0
  146.4321  140.2891  157.5302 C   0  0  0  0  0  0  0  0  0  0  0  0
  147.5340  139.7793  158.1611 O   0  5  0  0  0  0  0  0  0  0  0  0
  149.4966  138.3650  155.1806 C   0  0  0  0  0  0  0  0  0  0  0  0
  150.8151  138.5561  155.3843 C   0  0  0  0  0  0  0  0  0  0  0  0
  151.7655  137.5332  155.0975 C   0  0  0  0  0  0  0  0  0  0  0  0
  152.5248  136.6959  154.8478 N   0  0  0  0  0  0  0  0  0  0  0  0
  151.3430  139.8198  155.9175 C   0  0  0  0  0  0  0  0  0  0  0  0
  152.5444  140.0068  156.1182 O   0  0  0  0  0  0  0  0  0  0  0  0
  149.4028  143.3442  159.9940 H   0  0  0  0  0  0  0  0  0  0  0  0
  149.4234  143.3768  158.2304 H   0  0  0  0  0  0  0  0  0  0  0  0
  150.7306  144.1428  159.1514 H   0  0  0  0  0  0  0  0  0  0  0  0
  152.4101  142.6939  158.0579 H   0  0  0  0  0  0  0  0  0  0  0  0
  152.1149  140.9576  158.0331 H   0  0  0  0  0  0  0  0  0  0  0  0
  149.9221  142.6949  156.9279 H   0  0  0  0  0  0  0  0  0  0  0  0
  151.3740  142.6572  155.9865 H   0  0  0  0  0  0  0  0  0  0  0  0
  148.4041  141.4101  156.2503 H   0  0  0  0  0  0  0  0  0  0  0  0
  144.7653  140.4089  154.5366 H   0  0  0  0  0  0  0  0  0  0  0  0
  143.2082  141.7609  155.8947 H   0  0  0  0  0  0  0  0  0  0  0  0
  143.6929  142.1930  158.2959 H   0  0  0  0  0  0  0  0  0  0  0  0
  145.7376  141.2552  159.3368 H   0  0  0  0  0  0  0  0  0  0  0  0
  149.1564  137.4130  154.7986 H   0  0  0  0  0  0  0  0  0  0  0  0
  1  2  1  0  0  0  0
  1 23  1  0  0  0  0
  1 24  1  0  0  0  0
  1 25  1  0  0  0  0
  2  3  1  0  0  0  0
  3  4  1  0  0  0  0
  3 26  1  0  0  0  0
  3 27  1  0  0  0  0
  4  5  1  0  0  0  0
  4 28  1  0  0  0  0
  4 29  1  0  0  0  0
  5 21  1  0  0  0  0
  5  6  1  0  0  0  0
  6  7  2  0  0  0  0
  6 30  1  0  0  0  0
  7  8  1  0  0  0  0
  7 17  1  0  0  0  0
  8  9  2  0  0  0  0
  8 10  1  0  0  0  0
 10 15  1  0  0  0  0
 10 11  2  0  0  0  0
 11 12  1  0  0  0  0
 11 31  1  0  0  0  0
 12 13  2  0  0  0  0
 12 32  1  0  0  0  0
 13 14  1  0  0  0  0
 13 33  1  0  0  0  0
 14 15  2  0  0  0  0
 14 34  1  0  0  0  0
 15 16  1  0  0  0  0
 17 18  2  0  0  0  0
 17 35  1  0  0  0  0
 18 19  1  0  0  0  0
 18 21  1  0  0  0  0
 19 20  3  0  0  0  0
 21 22  2  0  0  0  0
M  CHG  1  16  -1
M  END
> <s_m_source_file>
AV-unprocessed.smi

> <i_m_source_file_index>
2620

> <i_lp_mmshare_version>
43012

> <i_f3d_flags>
0

> <s_epik_input>
W0NIM11PW0NIMl1bQ0gyXW4xW2NIXWMoW2NIXWMoQyNOKWMxPU8pQyg9TyljMltjSF1bY0hdW2NIXVtjSF1jMltPSF0=

> <s_epik_cmdline>
J2VwaWtfcHl0aG9uJywgJy1waCcsICc3LjAnLCAnLXRuJywgJzgnLCAnLW1hJywgJzIwMCcsICctbWV0YWxfYmluZGluZycsICctaW1hZScsICc8aW5maWxlLm1hZT4nLCAnLW9tYWUnLCAnPG91dGZpbGUubWFlPic=

> <r_epik_Ionization_Penalty>
0.694682

> <r_epik_Ionization_Penalty_Charging>
0.694682

> <r_epik_Ionization_Penalty_Neutral>
1.08437e-11

> <r_epik_State_Penalty>
0.716871

> <r_epik_Charging_Adjusted_Penalty>
1.41155

> <i_epik_Tot_Q>
-1

> <i_epik_Tot_abs_Q>
1

> <r_epik_Metal_State_Penalty>
0.716871

> <b_epik_Metal_Only>
0

> <s_lp_Force_Field>
OPLS_2005

> <r_lp_Energy>
23.3851

> <b_lp_Chiralities_Consistent>
1

> <s_lp_Variant>
AV-unprocessed.smi:2620-2

> <Gold.Version>
5.8.1

> <Gold.Id.Protein>
6NUR|6NUR_protein|mol2

> <Gold.PLP.Fitness>
51.9736

> <Gold.PLP.PLP>
-43.6341

> <Gold.PLP.part.hbond>
-2.5108

> <Gold.PLP.part.metal>
0.0000

> <Gold.PLP.part.buried>
-4.6614

> <Gold.PLP.part.nonpolar>
-35.8672

> <Gold.PLP.part.repulsive>
1.6819

> <Gold.PLP.ligand.clash>
0.0000

> <Gold.PLP.ligand.torsion>
1.1714

> <Gold.PLP.Chemscore.Hbond>
2.0000

> <Gold.PLP.Chemscore.CHOScore>
1.0000

> <Gold.PLP.Chemscore.Metal>
0.0000

> <Gold.Chemscore.Hbonds>
donor molecule, donor type, donor heavy atom, donor atom, acceptor molecule, acceptor atom, score
      P1  H  7997  8008       L1    22  1.00
      P1  H 10752 10765       L1    20  0.17

> <Gold.PLP.Chemscore.Internal.Correction>
1.6823

> <Gold.Rescore>
     Score         DG    S(hbond)    S(metal)    S(lipo)     H(rot)  DE(clash)    DE(int)     intcor
     14.19     -17.49       1.95        0.00      78.56       1.44       0.61       2.69       ----

> <Gold.Chemscore.Fitness>
14.1930

> <Gold.Chemscore.DG>
-17.4904

> <Gold.Chemscore.ZeroCoef>
-5.4800

> <Gold.Chemscore.Hbond>
1.9458

> <Gold.Chemscore.Metal>
0.0000

> <Gold.Chemscore.Lipo>
78.5569

> <Gold.Chemscore.Internal_Hbond>
0.0000

> <Gold.Chemscore.DEClash>
0.6062

> <Gold.Chemscore.DEInternal>
2.6912

> <Gold.Chemscore.Rot>
1.4374

> <Gold.Chemscore.Internal.Correction>
   9.000000E+99

> <Gold.Chemscore.Hbonds>
donor molecule, donor type, donor heavy atom, donor atom, acceptor molecule, acceptor atom, score
      P1  H  7997  8008       L1    22  0.99
      P1  H 10752 10765       L1    20  0.17

> <Gold.Chemscore.Hbond.Weighted>
-6.4990

> <Gold.Chemscore.Metal.Weighted>
-0.0000

> <Gold.Chemscore.Lipo.Weighted>
-9.1912

> <Gold.Chemscore.Internal_Hbond.Weighted>
0.0000

> <Gold.Chemscore.DEClash.Weighted>
0.6062

> <Gold.Chemscore.DEInternal.Weighted>
2.6912

> <Gold.Chemscore.Rot.Weighted>
3.6797

> <Gold.Chemscore.Internal.Correction.Weighted>
   9.000000E+99

> <Gold.Protein.RotatedTorsions>
[ 6907 6896 6895 6894 ] final   95.26 input  -60.11 | X-H torsion
[ 7974 7965 7964 7962 ] final -148.15 input  175.53 | X-H torsion
[ 8008 7997 7996 7995 ] final  -27.65 input   59.86 | X-H torsion
[ 10167 10162 10161 10158 ] final -168.25 input  -65.29 | X-H torsion
[ 10718 10713 10712 10709 ] final  -86.75 input   66.30 | X-H torsion
[ 10763 10752 10751 10750 ] final  160.48 input  -60.55 | X-H torsion
[ 11005 11000 10999 10996 ] final    9.59 input  -57.11 | X-H torsion

> <Gold.Protein.ActiveResidues>
 VAL166  LYS551  ARG553  GLY616  TRP617  ASP618  TYR619  PRO620  LYS621  CYS622 
 ASP623  PHE694  ASN695  SER759  ASP760  ASP761  ALA762  ILE779  LEU786  VAL792 
 PHE793  MET794  SER795  GLU796  ALA797  LYS798  CYS799  TRP800  GLU811  SER814 

> <Gold.Protein.RotatedAtoms>
  152.5445  134.1067  159.8340 H   0  0  0  0  0  0  0  0  0  0  0  0  # atno 6907 bound_to 6896
  151.1138  133.5146  159.2612 H   0  0  0  0  0  0  0  0  0  0  0  0  # atno 6908 bound_to 6896
  151.1854  135.0389  159.8864 H   0  0  0  0  0  0  0  0  0  0  0  0  # atno 6909 bound_to 6896
  144.8047  140.5234  143.5683 H   0  0  0  0  0  0  0  0  0  0  0  0  # atno 7974 bound_to 7965
  154.4368  140.1866  156.0965 H   0  0  0  0  0  0  0  0  0  0  0  0  # atno 8008 bound_to 7997
  156.0325  140.3329  155.7129 H   0  0  0  0  0  0  0  0  0  0  0  0  # atno 8009 bound_to 7997
  155.5818  140.0622  157.2772 H   0  0  0  0  0  0  0  0  0  0  0  0  # atno 8010 bound_to 7997
  139.5997  144.1037  152.1729 H   0  0  0  0  0  0  0  0  0  0  0  0  # atno 10167 bound_to 10162
  155.9988  130.4776  150.4762 H   0  0  0  0  0  0  0  0  0  0  0  0  # atno 10718 bound_to 10713
  154.2481  135.2772  155.2827 H   0  0  0  0  0  0  0  0  0  0  0  0  # atno 10763 bound_to 10752
  154.5488  135.5681  153.6907 H   0  0  0  0  0  0  0  0  0  0  0  0  # atno 10764 bound_to 10752
  152.9986  135.6269  154.2627 H   0  0  0  0  0  0  0  0  0  0  0  0  # atno 10765 bound_to 10752
  140.5240  134.0531  155.7853 H   0  0  0  0  0  0  0  0  0  0  0  0  # atno 11005 bound_to 11000
  145.5466  139.1476  143.3417 LP  0  0  0  0  0  0  0  0  0  0  0  0  # atno 17320 bound_to 7965
  146.2336  140.5605  142.8964 LP  0  0  0  0  0  0  0  0  0  0  0  0  # atno 17321 bound_to 7965
  140.0630  144.5841  150.7249 LP  0  0  0  0  0  0  0  0  0  0  0  0  # atno 17342 bound_to 10162
  140.7240  143.2617  151.4183 LP  0  0  0  0  0  0  0  0  0  0  0  0  # atno 17343 bound_to 10162
  157.2772  131.0599  151.2221 LP  0  0  0  0  0  0  0  0  0  0  0  0  # atno 17370 bound_to 10713
  157.3280  130.6971  149.6308 LP  0  0  0  0  0  0  0  0  0  0  0  0  # atno 17371 bound_to 10713
  141.1318  133.9289  157.2519 LP  0  0  0  0  0  0  0  0  0  0  0  0  # atno 17394 bound_to 11000
  139.9590  135.0159  156.9208 LP  0  0  0  0  0  0  0  0  0  0  0  0  # atno 17395 bound_to 11000

$$$$
