AV-unprocessed.smi:2665|AV-procd|sdf|10330|dock4
  -GOLD-   2272014343D 1   1.00000     0.00000
 Structure written by MMmdl.
 29 30  0  0  0  0  0  0  0  0  2 V2000
  153.2450  141.8715  161.2517 C   0  0  0  0  0  0  0  0  0  0  0  0
  152.9294  142.6105  159.9469 C   0  0  2  0  0  0  0  0  0  0  0  0
  152.5674  141.6411  158.8050 C   0  0  0  0  0  0  0  0  0  0  0  0
  152.3634  142.3813  157.5661 N   0  0  0  0  0  0  0  0  0  0  0  0
  151.9111  141.5838  156.5053 C   0  0  0  0  0  0  0  0  0  0  0  0
  152.1836  140.2004  156.5270 C   0  0  0  0  0  0  0  0  0  0  0  0
  151.7304  139.3927  155.4589 C   0  0  0  0  0  0  0  0  0  0  0  0
  151.9971  137.9127  155.4382 C   0  0  0  0  0  0  0  0  0  0  0  0
  152.9495  137.4620  156.1133 O   0  0  0  0  0  0  0  0  0  0  0  0
  151.2590  137.1756  154.7470 O   0  5  0  0  0  0  0  0  0  0  0  0
  151.0188  140.0191  154.4110 C   0  0  0  0  0  0  0  0  0  0  0  0
  150.7963  141.4075  154.4799 C   0  0  0  0  0  0  0  0  0  0  0  0
  151.2283  142.1793  155.4989 N   0  0  0  0  0  0  0  0  0  0  0  0
  153.5070  143.2153  157.2201 C   0  0  0  0  0  0  0  0  0  0  0  0
  153.8534  144.1441  158.3959 C   0  0  0  0  0  0  0  0  0  0  0  0
  154.0781  143.3671  159.5694 O   0  0  0  0  0  0  0  0  0  0  0  0
  152.3889  141.2856  161.5872 H   0  0  0  0  0  0  0  0  0  0  0  0
  153.4990  142.5741  162.0458 H   0  0  0  0  0  0  0  0  0  0  0  0
  154.0877  141.1912  161.1259 H   0  0  0  0  0  0  0  0  0  0  0  0
  152.0964  143.2927  160.1268 H   0  0  0  0  0  0  0  0  0  0  0  0
  153.3655  140.9094  158.6696 H   0  0  0  0  0  0  0  0  0  0  0  0
  151.6609  141.0882  159.0539 H   0  0  0  0  0  0  0  0  0  0  0  0
  152.7329  139.7713  157.3527 H   0  0  0  0  0  0  0  0  0  0  0  0
  150.6468  139.4550  153.5681 H   0  0  0  0  0  0  0  0  0  0  0  0
  150.2548  141.9130  153.6942 H   0  0  0  0  0  0  0  0  0  0  0  0
  154.3652  142.5857  156.9805 H   0  0  0  0  0  0  0  0  0  0  0  0
  153.2791  143.8045  156.3309 H   0  0  0  0  0  0  0  0  0  0  0  0
  154.7533  144.7164  158.1707 H   0  0  0  0  0  0  0  0  0  0  0  0
  153.0528  144.8644  158.5721 H   0  0  0  0  0  0  0  0  0  0  0  0
  1  2  1  0  0  0  0
  1 17  1  0  0  0  0
  1 18  1  0  0  0  0
  1 19  1  0  0  0  0
  2 16  1  0  0  0  0
  2  3  1  0  0  0  0
  2 20  1  0  0  0  0
  3  4  1  0  0  0  0
  3 21  1  0  0  0  0
  3 22  1  0  0  0  0
  4  5  1  0  0  0  0
  4 14  1  0  0  0  0
  5 13  1  0  0  0  0
  5  6  2  0  0  0  0
  6  7  1  0  0  0  0
  6 23  1  0  0  0  0
  7  8  1  0  0  0  0
  7 11  2  0  0  0  0
  8  9  2  0  0  0  0
  8 10  1  0  0  0  0
 11 12  1  0  0  0  0
 11 24  1  0  0  0  0
 12 13  2  0  0  0  0
 12 25  1  0  0  0  0
 14 15  1  0  0  0  0
 14 26  1  0  0  0  0
 14 27  1  0  0  0  0
 15 16  1  0  0  0  0
 15 28  1  0  0  0  0
 15 29  1  0  0  0  0
M  CHG  1  10  -1
M  END
> <s_m_source_file>
AV-unprocessed.smi

> <i_m_source_file_index>
2665

> <i_lp_mmshare_version>
43012

> <i_f3d_flags>
0

> <s_epik_input>
W0NIM11bQ0BASF0xW0NIMl1OKFtDSDJdW0NIMl1PMSljMltjSF1jKEMoPU8pW09IXSlbY0hdW2NIXW4y

> <s_epik_cmdline>
J2VwaWtfcHl0aG9uJywgJy1waCcsICc3LjAnLCAnLXRuJywgJzgnLCAnLW1hJywgJzIwMCcsICctbWV0YWxfYmluZGluZycsICctaW1hZScsICc8aW5maWxlLm1hZT4nLCAnLW9tYWUnLCAnPG91dGZpbGUubWFlPic=

> <r_epik_Ionization_Penalty>
0.00511367

> <r_epik_Ionization_Penalty_Charging>
0.00135522

> <r_epik_Ionization_Penalty_Neutral>
0.00375844

> <r_epik_State_Penalty>
0.00357724

> <r_epik_Charging_Adjusted_Penalty>
0.00493246

> <i_epik_Tot_Q>
-1

> <i_epik_Tot_abs_Q>
1

> <r_epik_Metal_State_Penalty>
-0

> <b_epik_Metal_Only>
0

> <s_lp_Force_Field>
OPLS_2005

> <r_lp_Energy>
17.7567

> <b_lp_Chiralities_Consistent>
1

> <s_lp_Variant>
AV-unprocessed.smi:2665-1

> <Gold.Version>
5.8.1

> <Gold.Id.Protein>
6NUR|6NUR_protein|mol2

> <Gold.PLP.Fitness>
45.6909

> <Gold.PLP.PLP>
-37.0937

> <Gold.PLP.part.hbond>
-2.0000

> <Gold.PLP.part.metal>
0.0000

> <Gold.PLP.part.buried>
-5.7681

> <Gold.PLP.part.nonpolar>
-30.0444

> <Gold.PLP.part.repulsive>
0.5055

> <Gold.PLP.ligand.clash>
0.9922

> <Gold.PLP.ligand.torsion>
0.7292

> <Gold.PLP.Chemscore.Hbond>
3.6480

> <Gold.PLP.Chemscore.CHOScore>
0.0000

> <Gold.PLP.Chemscore.Metal>
0.0000

> <Gold.Chemscore.Hbonds>
donor molecule, donor type, donor heavy atom, donor atom, acceptor molecule, acceptor atom, score
      P1  H 10752 10764       L1    10  0.18

> <Gold.PLP.Chemscore.Internal.Correction>
0.1037

> <Gold.Rescore>
     Score         DG    S(hbond)    S(metal)    S(lipo)     H(rot)  DE(clash)    DE(int)     intcor
     17.08     -17.84       1.62        0.00      81.25       1.00       0.06       0.70       ----

> <Gold.Chemscore.Fitness>
17.0805

> <Gold.Chemscore.DG>
-17.8440

> <Gold.Chemscore.ZeroCoef>
-5.4800

> <Gold.Chemscore.Hbond>
1.6221

> <Gold.Chemscore.Metal>
0.0000

> <Gold.Chemscore.Lipo>
81.2497

> <Gold.Chemscore.Internal_Hbond>
0.0000

> <Gold.Chemscore.DEClash>
0.0602

> <Gold.Chemscore.DEInternal>
0.7032

> <Gold.Chemscore.Rot>
1.0000

> <Gold.Chemscore.Internal.Correction>
   9.000000E+99

> <Gold.Chemscore.Hbonds>
donor molecule, donor type, donor heavy atom, donor atom, acceptor molecule, acceptor atom, score
      P1  H 10752 10764       L1    10  0.01

> <Gold.Chemscore.Hbond.Weighted>
-5.4178

> <Gold.Chemscore.Metal.Weighted>
-0.0000

> <Gold.Chemscore.Lipo.Weighted>
-9.5062

> <Gold.Chemscore.Internal_Hbond.Weighted>
0.0000

> <Gold.Chemscore.DEClash.Weighted>
0.0602

> <Gold.Chemscore.DEInternal.Weighted>
0.7032

> <Gold.Chemscore.Rot.Weighted>
2.5600

> <Gold.Chemscore.Internal.Correction.Weighted>
   9.000000E+99

> <Gold.Protein.RotatedTorsions>
[ 6907 6896 6895 6894 ] final -114.23 input  -60.11 | X-H torsion
[ 7974 7965 7964 7962 ] final  100.92 input  175.53 | X-H torsion
[ 8008 7997 7996 7995 ] final -130.18 input   59.86 | X-H torsion
[ 10167 10162 10161 10158 ] final -149.82 input  -65.29 | X-H torsion
[ 10718 10713 10712 10709 ] final -134.51 input   66.30 | X-H torsion
[ 10763 10752 10751 10750 ] final  -91.40 input  -60.55 | X-H torsion
[ 11005 11000 10999 10996 ] final   65.93 input  -57.11 | X-H torsion

> <Gold.Protein.ActiveResidues>
 VAL166  LYS551  ARG553  GLY616  TRP617  ASP618  TYR619  PRO620  LYS621  CYS622 
 ASP623  PHE694  ASN695  SER759  ASP760  ASP761  ALA762  ILE779  LEU786  VAL792 
 PHE793  MET794  SER795  GLU796  ALA797  LYS798  CYS799  TRP800  GLU811  SER814 

> <Gold.Protein.RotatedAtoms>
  150.7887  133.8831  159.3291 H   0  0  0  0  0  0  0  0  0  0  0  0  # atno 6907 bound_to 6896
  151.6675  135.0979  160.0201 H   0  0  0  0  0  0  0  0  0  0  0  0  # atno 6908 bound_to 6896
  152.3956  133.6703  159.6309 H   0  0  0  0  0  0  0  0  0  0  0  0  # atno 6909 bound_to 6896
  145.3792  139.2383  143.3413 H   0  0  0  0  0  0  0  0  0  0  0  0  # atno 7974 bound_to 7965
  155.2915  140.0448  157.3023 H   0  0  0  0  0  0  0  0  0  0  0  0  # atno 8008 bound_to 7997
  154.5538  140.2325  155.8410 H   0  0  0  0  0  0  0  0  0  0  0  0  # atno 8009 bound_to 7997
  156.1990  140.3031  155.9494 H   0  0  0  0  0  0  0  0  0  0  0  0  # atno 8010 bound_to 7997
  139.7408  143.8664  152.2562 H   0  0  0  0  0  0  0  0  0  0  0  0  # atno 10167 bound_to 10162
  156.2562  130.7183  151.1100 H   0  0  0  0  0  0  0  0  0  0  0  0  # atno 10718 bound_to 10713
  154.6756  135.5269  153.8195 H   0  0  0  0  0  0  0  0  0  0  0  0  # atno 10763 bound_to 10752
  153.0530  135.6540  154.0656 H   0  0  0  0  0  0  0  0  0  0  0  0  # atno 10764 bound_to 10752
  154.0550  135.2966  155.3314 H   0  0  0  0  0  0  0  0  0  0  0  0  # atno 10765 bound_to 10752
  139.9864  134.6662  156.0169 H   0  0  0  0  0  0  0  0  0  0  0  0  # atno 11005 bound_to 11000
  146.2850  140.4457  142.8761 LP  0  0  0  0  0  0  0  0  0  0  0  0  # atno 17320 bound_to 7965
  144.8520  140.7015  143.6162 LP  0  0  0  0  0  0  0  0  0  0  0  0  # atno 17321 bound_to 7965
  139.8614  144.7115  150.9095 LP  0  0  0  0  0  0  0  0  0  0  0  0  # atno 17342 bound_to 10162
  140.7785  143.3814  151.1470 LP  0  0  0  0  0  0  0  0  0  0  0  0  # atno 17343 bound_to 10162
  157.7233  131.0667  150.6040 LP  0  0  0  0  0  0  0  0  0  0  0  0  # atno 17370 bound_to 10713
  156.6124  130.4383  149.5854 LP  0  0  0  0  0  0  0  0  0  0  0  0  # atno 17371 bound_to 10713
  141.1528  133.6546  156.4066 LP  0  0  0  0  0  0  0  0  0  0  0  0  # atno 17394 bound_to 11000
  140.4995  134.6499  157.5243 LP  0  0  0  0  0  0  0  0  0  0  0  0  # atno 17395 bound_to 11000

$$$$
