AV-unprocessed.smi:2440|AV-procd|sdf|9618|dock4
  -GOLD-   2272013253D 1   1.00000     0.00000
 Structure written by MMmdl.
 53 55  0  0  0  0  0  0  0  0  3 V2000
  147.6587  132.9561  152.4519 C   0  0  0  0  0  0  0  0  0  0  0  0
  146.4018  133.0382  151.6029 C   0  0  0  0  0  0  0  0  0  0  0  0
  145.8261  131.8527  151.0957 C   0  0  0  0  0  0  0  0  0  0  0  0
  144.7107  131.9104  150.3377 N   0  3  0  0  0  0  0  0  0  0  0  0
  144.1005  133.0724  150.0248 C   0  0  0  0  0  0  0  0  0  0  0  0
  144.6244  134.2909  150.4994 C   0  0  0  0  0  0  0  0  0  0  0  0
  145.7863  134.2833  151.3134 C   0  0  0  0  0  0  0  0  0  0  0  0
  146.3866  135.4745  151.8112 N   0  0  0  0  0  0  0  0  0  0  0  0
  145.7843  136.6005  152.2310 C   0  0  0  0  0  0  0  0  0  0  0  0
  144.5672  136.7777  152.2765 O   0  0  0  0  0  0  0  0  0  0  0  0
  146.6842  137.5157  152.6202 N   0  0  0  0  0  0  0  0  0  0  0  0
  146.3783  138.8475  153.1376 C   0  0  2  0  0  0  0  0  0  0  0  0
  147.5362  139.8115  152.8197 C   0  0  0  0  0  0  0  0  0  0  0  0
  147.3170  141.1798  153.4936 C   0  0  0  0  0  0  0  0  0  0  0  0
  147.1625  141.0498  154.9715 N   0  3  2  0  0  0  0  0  0  0  0  0
  148.4142  140.6951  155.7269 C   0  0  0  0  0  0  0  0  0  0  0  0
  148.2971  141.0470  157.2349 C   0  0  0  0  0  0  0  0  0  0  0  0
  149.5859  140.7577  158.0204 C   0  0  0  0  0  0  0  0  0  0  0  0
  150.7864  141.4889  157.4131 C   0  0  0  0  0  0  0  0  0  0  0  0
  150.9493  141.1050  155.9399 C   0  0  0  0  0  0  0  0  0  0  0  0
  149.6699  141.3956  155.1395 C   0  0  0  0  0  0  0  0  0  0  0  0
  145.9765  140.1912  155.2588 C   0  0  0  0  0  0  0  0  0  0  0  0
  146.1275  138.7803  154.6558 C   0  0  0  0  0  0  0  0  0  0  0  0
  147.9886  131.9237  152.5726 H   0  0  0  0  0  0  0  0  0  0  0  0
  147.4754  133.3687  153.4444 H   0  0  0  0  0  0  0  0  0  0  0  0
  148.4711  133.5168  151.9886 H   0  0  0  0  0  0  0  0  0  0  0  0
  146.2226  130.8629  151.2701 H   0  0  0  0  0  0  0  0  0  0  0  0
  143.2207  132.9945  149.4027 H   0  0  0  0  0  0  0  0  0  0  0  0
  144.1324  135.2098  150.2190 H   0  0  0  0  0  0  0  0  0  0  0  0
  147.3894  135.4393  151.9225 H   0  0  0  0  0  0  0  0  0  0  0  0
  147.6620  137.2727  152.5530 H   0  0  0  0  0  0  0  0  0  0  0  0
  145.4780  139.2440  152.6642 H   0  0  0  0  0  0  0  0  0  0  0  0
  148.4859  139.3844  153.1437 H   0  0  0  0  0  0  0  0  0  0  0  0
  147.6175  139.9448  151.7401 H   0  0  0  0  0  0  0  0  0  0  0  0
  148.0983  141.8846  153.2178 H   0  0  0  0  0  0  0  0  0  0  0  0
  146.4029  141.6234  153.0963 H   0  0  0  0  0  0  0  0  0  0  0  0
  148.5741  139.6196  155.6500 H   0  0  0  0  0  0  0  0  0  0  0  0
  148.0330  142.0993  157.3481 H   0  0  0  0  0  0  0  0  0  0  0  0
  147.5062  140.4724  157.7136 H   0  0  0  0  0  0  0  0  0  0  0  0
  149.4602  141.0558  159.0617 H   0  0  0  0  0  0  0  0  0  0  0  0
  149.7769  139.6837  158.0283 H   0  0  0  0  0  0  0  0  0  0  0  0
  150.6489  142.5673  157.5030 H   0  0  0  0  0  0  0  0  0  0  0  0
  151.6934  141.2429  157.9662 H   0  0  0  0  0  0  0  0  0  0  0  0
  151.7889  141.6497  155.5070 H   0  0  0  0  0  0  0  0  0  0  0  0
  151.1968  140.0453  155.8626 H   0  0  0  0  0  0  0  0  0  0  0  0
  149.8616  141.0666  154.1195 H   0  0  0  0  0  0  0  0  0  0  0  0
  149.5058  142.4732  155.0979 H   0  0  0  0  0  0  0  0  0  0  0  0
  145.7484  140.1397  156.3209 H   0  0  0  0  0  0  0  0  0  0  0  0
  145.1005  140.6686  154.8171 H   0  0  0  0  0  0  0  0  0  0  0  0
  145.2249  138.2007  154.8538 H   0  0  0  0  0  0  0  0  0  0  0  0
  146.9408  138.2492  155.1513 H   0  0  0  0  0  0  0  0  0  0  0  0
  146.9161  141.9731  155.2992 H   0  0  0  0  0  0  0  0  0  0  0  0
  144.3153  131.0395  149.9822 H   0  0  0  0  0  0  0  0  0  0  0  0
  1  2  1  0  0  0  0
  1 24  1  0  0  0  0
  1 25  1  0  0  0  0
  1 26  1  0  0  0  0
  2  7  1  0  0  0  0
  2  3  2  0  0  0  0
  3  4  1  0  0  0  0
  3 27  1  0  0  0  0
  4  5  2  0  0  0  0
  4 53  1  0  0  0  0
  5  6  1  0  0  0  0
  5 28  1  0  0  0  0
  6  7  2  0  0  0  0
  6 29  1  0  0  0  0
  7  8  1  0  0  0  0
  8  9  1  0  0  0  0
  8 30  1  0  0  0  0
  9 10  2  0  0  0  0
  9 11  1  0  0  0  0
 11 12  1  0  0  0  0
 11 31  1  0  0  0  0
 12 23  1  0  0  0  0
 12 13  1  0  0  0  0
 12 32  1  0  0  0  0
 13 14  1  0  0  0  0
 13 33  1  0  0  0  0
 13 34  1  0  0  0  0
 14 15  1  0  0  0  0
 14 35  1  0  0  0  0
 14 36  1  0  0  0  0
 15 16  1  0  0  0  0
 15 22  1  0  0  0  0
 15 52  1  0  0  0  0
 16 21  1  0  0  0  0
 16 17  1  0  0  0  0
 16 37  1  0  0  0  0
 17 18  1  0  0  0  0
 17 38  1  0  0  0  0
 17 39  1  0  0  0  0
 18 19  1  0  0  0  0
 18 40  1  0  0  0  0
 18 41  1  0  0  0  0
 19 20  1  0  0  0  0
 19 42  1  0  0  0  0
 19 43  1  0  0  0  0
 20 21  1  0  0  0  0
 20 44  1  0  0  0  0
 20 45  1  0  0  0  0
 21 46  1  0  0  0  0
 21 47  1  0  0  0  0
 22 23  1  0  0  0  0
 22 48  1  0  0  0  0
 22 49  1  0  0  0  0
 23 50  1  0  0  0  0
 23 51  1  0  0  0  0
M  CHG  1   4   1
M  CHG  1  15   1
M  END
> <s_m_source_file>
AV-unprocessed.smi

> <i_m_source_file_index>
2440

> <i_lp_mmshare_version>
43012

> <i_f3d_flags>
0

> <s_epik_input>
W0NIM11jMVtjSF1uW2NIXVtjSF1jMVtOSF1DKD1PKVtOSF1bQ0hdMltDSDJdW0NIMl1OKFtDSDJdW0NIMl0yKVtDSF0zW0NIMl1bQ0gyXVtDSDJdW0NIMl1bQ0gyXTM=

> <s_epik_cmdline>
J2VwaWtfcHl0aG9uJywgJy1waCcsICc3LjAnLCAnLXRuJywgJzgnLCAnLW1hJywgJzIwMCcsICctbWV0YWxfYmluZGluZycsICctaW1hZScsICc8aW5maWxlLm1hZT4nLCAnLW9tYWUnLCAnPG91dGZpbGUubWFlPic=

> <r_epik_Ionization_Penalty>
0.799454

> <r_epik_Ionization_Penalty_Charging>
0.799436

> <r_epik_Ionization_Penalty_Neutral>
1.84398e-05

> <r_epik_State_Penalty>
0.81805

> <r_epik_Charging_Adjusted_Penalty>
1.61749

> <i_epik_Tot_Q>
2

> <i_epik_Tot_abs_Q>
2

> <r_epik_Metal_State_Penalty>
0.955144

> <b_epik_Metal_Only>
0

> <s_lp_Force_Field>
OPLS_2005

> <r_lp_Energy>
43.248

> <b_lp_Chiralities_Consistent>
1

> <s_lp_Variant>
AV-unprocessed.smi:2440-4

> <Gold.Version>
5.8.1

> <Gold.Id.Protein>
6NUR|6NUR_protein|mol2

> <Gold.PLP.Fitness>
40.0533

> <Gold.PLP.PLP>
-35.8251

> <Gold.PLP.part.hbond>
-2.0000

> <Gold.PLP.part.metal>
0.0000

> <Gold.PLP.part.buried>
-2.3166

> <Gold.PLP.part.nonpolar>
-31.6744

> <Gold.PLP.part.repulsive>
0.3979

> <Gold.PLP.ligand.clash>
0.0000

> <Gold.PLP.ligand.torsion>
0.8969

> <Gold.PLP.Chemscore.Hbond>
1.9920

> <Gold.PLP.Chemscore.CHOScore>
0.0000

> <Gold.PLP.Chemscore.Metal>
0.0000

> <Gold.Chemscore.Hbonds>
donor molecule, donor type, donor heavy atom, donor atom, acceptor molecule, acceptor atom, score
      L1  H     8    30       P1  7948  1.00
      L1  H    11    31       P1  7948  0.99

> <Gold.PLP.Chemscore.Internal.Correction>
0.0461

> <Gold.Rescore>
     Score         DG    S(hbond)    S(metal)    S(lipo)     H(rot)  DE(clash)    DE(int)     intcor
     17.78     -19.75       1.93        0.00      92.92       1.18       0.64       1.33       ----

> <Gold.Chemscore.Fitness>
17.7794

> <Gold.Chemscore.DG>
-19.7510

> <Gold.Chemscore.ZeroCoef>
-5.4800

> <Gold.Chemscore.Hbond>
1.9256

> <Gold.Chemscore.Metal>
0.0000

> <Gold.Chemscore.Lipo>
92.9224

> <Gold.Chemscore.Internal_Hbond>
0.0000

> <Gold.Chemscore.DEClash>
0.6368

> <Gold.Chemscore.DEInternal>
1.3347

> <Gold.Chemscore.Rot>
1.1846

> <Gold.Chemscore.Internal.Correction>
   9.000000E+99

> <Gold.Chemscore.Hbonds>
donor molecule, donor type, donor heavy atom, donor atom, acceptor molecule, acceptor atom, score
      L1  H     8    30       P1  7948  0.94
      L1  H    11    31       P1  7948  0.93

> <Gold.Chemscore.Hbond.Weighted>
-6.4316

> <Gold.Chemscore.Metal.Weighted>
-0.0000

> <Gold.Chemscore.Lipo.Weighted>
-10.8719

> <Gold.Chemscore.Internal_Hbond.Weighted>
0.0000

> <Gold.Chemscore.DEClash.Weighted>
0.6368

> <Gold.Chemscore.DEInternal.Weighted>
1.3347

> <Gold.Chemscore.Rot.Weighted>
3.0326

> <Gold.Chemscore.Internal.Correction.Weighted>
   9.000000E+99

> <Gold.Protein.RotatedTorsions>
[ 6907 6896 6895 6894 ] final  -53.08 input  -60.11 | X-H torsion
[ 7974 7965 7964 7962 ] final  -67.67 input  175.53 | X-H torsion
[ 8008 7997 7996 7995 ] final  -11.84 input   59.86 | X-H torsion
[ 10167 10162 10161 10158 ] final -125.11 input  -65.29 | X-H torsion
[ 10718 10713 10712 10709 ] final  -32.63 input   66.30 | X-H torsion
[ 10763 10752 10751 10750 ] final  -51.63 input  -60.55 | X-H torsion
[ 11005 11000 10999 10996 ] final  -37.58 input  -57.11 | X-H torsion

> <Gold.Protein.ActiveResidues>
 VAL166  LYS551  ARG553  GLY616  TRP617  ASP618  TYR619  PRO620  LYS621  CYS622 
 ASP623  PHE694  ASN695  SER759  ASP760  ASP761  ALA762  ILE779  LEU786  VAL792 
 PHE793  MET794  SER795  GLU796  ALA797  LYS798  CYS799  TRP800  GLU811  SER814 

> <Gold.Protein.RotatedAtoms>
  150.8459  134.7768  159.6969 H   0  0  0  0  0  0  0  0  0  0  0  0  # atno 6907 bound_to 6896
  152.4536  134.5337  159.9828 H   0  0  0  0  0  0  0  0  0  0  0  0  # atno 6908 bound_to 6896
  151.5467  133.3386  159.2981 H   0  0  0  0  0  0  0  0  0  0  0  0  # atno 6909 bound_to 6896
  145.7263  140.9017  143.0604 H   0  0  0  0  0  0  0  0  0  0  0  0  # atno 7974 bound_to 7965
  154.5429  140.2292  155.8610 H   0  0  0  0  0  0  0  0  0  0  0  0  # atno 8008 bound_to 7997
  156.1876  140.3085  155.9230 H   0  0  0  0  0  0  0  0  0  0  0  0  # atno 8009 bound_to 7997
  155.3221  140.0441  157.3030 H   0  0  0  0  0  0  0  0  0  0  0  0  # atno 8010 bound_to 7997
  139.9856  143.5696  152.2362 H   0  0  0  0  0  0  0  0  0  0  0  0  # atno 10167 bound_to 10162
  156.3726  130.4342  149.7533 H   0  0  0  0  0  0  0  0  0  0  0  0  # atno 10718 bound_to 10713
  154.1297  135.6522  153.4919 H   0  0  0  0  0  0  0  0  0  0  0  0  # atno 10763 bound_to 10752
  153.0199  135.5290  154.7014 H   0  0  0  0  0  0  0  0  0  0  0  0  # atno 10764 bound_to 10752
  154.6245  135.2968  155.0259 H   0  0  0  0  0  0  0  0  0  0  0  0  # atno 10765 bound_to 10752
  140.9963  133.6979  156.1940 H   0  0  0  0  0  0  0  0  0  0  0  0  # atno 11005 bound_to 11000
  144.6904  139.9270  143.7470 LP  0  0  0  0  0  0  0  0  0  0  0  0  # atno 17320 bound_to 7965
  146.0579  139.3575  143.0599 LP  0  0  0  0  0  0  0  0  0  0  0  0  # atno 17321 bound_to 7965
  139.6378  144.7651  151.2402 LP  0  0  0  0  0  0  0  0  0  0  0  0  # atno 17342 bound_to 10162
  140.7473  143.6369  150.8371 LP  0  0  0  0  0  0  0  0  0  0  0  0  # atno 17343 bound_to 10162
  156.4655  130.7972  151.2991 LP  0  0  0  0  0  0  0  0  0  0  0  0  # atno 17370 bound_to 10713
  157.7485  131.0052  150.3106 LP  0  0  0  0  0  0  0  0  0  0  0  0  # atno 17371 bound_to 10713
  140.6961  134.4614  157.5587 LP  0  0  0  0  0  0  0  0  0  0  0  0  # atno 17394 bound_to 11000
  139.9016  134.8543  156.1872 LP  0  0  0  0  0  0  0  0  0  0  0  0  # atno 17395 bound_to 11000

$$$$
