#       Name:                AV-unprocessed.smi:760
#       Creating user name   scv26
#       Creation time:       Fri Mar 27 01:02:18 2020


#       File generated by GOLD software.
#

@<TRIPOS>MOLECULE
AV-unprocessed.smi:760
    47    48     1
SMALL
NO_CHARGES


@<TRIPOS>ATOM
      1 ****        -4.8308   3.7175   0.7928 C.2            1 S1                 0.0000
      2 ****        -4.8367   2.5867   0.0681 C.2            1 S1                 0.0000
      3 ****        -5.4593   2.5218  -1.3151 C.3            1 S1                 0.0000
      4 ****        -4.2423   1.2925   0.6042 C.3            1 S1                 0.0000
      5 ****        -2.7834   1.2103   0.4979 N.3            1 S1                 0.0000
      6 ****        -2.3028   1.3240  -0.8829 C.3            1 S1                 0.0000
      7 ****        -0.7650   1.2823  -0.9299 C.3            1 S1                 0.0000
      8 ****        -0.2186  -0.0022  -0.2912 C.3            1 S1                 0.0000
      9 ****         1.2390   0.0544  -0.2368 N.am           1 S1                 0.0000
     10 ****         2.0525  -1.0072  -0.1471 C.2            1 S1                 0.0000
     11 ****         1.6528  -2.1709  -0.1033 O.2            1 S1                 0.0000
     12 ****         3.3413  -0.6310  -0.1101 N.am           1 S1                 0.0000
     13 ****         4.4808  -1.4688  -0.0114 C.2            1 S1                 0.0000
     14 ****         5.8230  -1.0086   0.0198 C.2            1 S1                 0.0000
     15 ****         6.6740  -2.0189   0.1159 N.2            1 S1                 0.0000
     16 ****         5.8974  -3.1292   0.1492 N.pl3          1 S1                 0.0000
     17 ****         6.5247  -4.4293   0.2527 C.3            1 S1                 0.0000
     18 ****         4.5515  -2.8307   0.0730 C.2            1 S1                 0.0000
     19 ****        -0.8160  -0.1514   1.1176 C.3            1 S1                 0.0000
     20 ****        -2.3509  -0.0637   1.0774 C.3            1 S1                 0.0000
     21 ****        -5.2630   4.6317   0.4128 H              1 S1                 0.0000
     22 ****        -4.3912   3.7443   1.7792 H              1 S1                 0.0000
     23 ****        -6.3007   1.8285  -1.3123 H              1 S1                 0.0000
     24 ****        -4.7421   2.1789  -2.0597 H              1 S1                 0.0000
     25 ****        -5.8291   3.4986  -1.6289 H              1 S1                 0.0000
     26 ****        -4.5174   1.2117   1.6569 H              1 S1                 0.0000
     27 ****        -4.7082   0.4470   0.0954 H              1 S1                 0.0000
     28 ****        -2.7261   0.5254  -1.4940 H              1 S1                 0.0000
     29 ****        -2.6245   2.2705  -1.3151 H              1 S1                 0.0000
     30 ****        -0.4273   1.3576  -1.9642 H              1 S1                 0.0000
     31 ****        -0.3668   2.1558  -0.4108 H              1 S1                 0.0000
     32 ****        -0.5268  -0.8515  -0.9044 H              1 S1                 0.0000
     33 ****         1.6579   0.9722  -0.2681 H              1 S1                 0.0000
     34 ****         3.5275   0.3601  -0.1551 H              1 S1                 0.0000
     35 ****         6.2006   0.0023  -0.0235 H              1 S1                 0.0000
     36 ****         5.7644  -5.2050   0.3491 H              1 S1                 0.0000
     37 ****         7.1734  -4.4588   1.1289 H              1 S1                 0.0000
     38 ****         7.1189  -4.6237  -0.6407 H              1 S1                 0.0000
     39 ****         3.7912  -3.5976   0.0860 H              1 S1                 0.0000
     40 ****        -0.5162  -1.1040   1.5554 H              1 S1                 0.0000
     41 ****        -0.4256   0.6276   1.7745 H              1 S1                 0.0000
     42 ****        -2.7386  -0.1551   2.0929 H              1 S1                 0.0000
     43 ****        -2.7612  -0.8958   0.5029 H              1 S1                 0.0000
     44 ****        -2.3915   1.9841   0.9956 LP             1 S1                 0.0000
     45 ****         0.6722  -2.3642  -0.1346 LP             1 S1                 0.0000
     46 ****         2.3088  -2.9227  -0.0364 LP             1 S1                 0.0000
     47 ****         7.6721  -1.9726   0.1554 LP             1 S1                 0.0000
@<TRIPOS>BOND
    1    1    2 2     
    2    1   21 1     
    3    1   22 1     
    4    2    3 1     
    5    2    4 1     
    6    3   23 1     
    7    3   24 1     
    8    3   25 1     
    9    4    5 1     
   10    4   26 1     
   11    4   27 1     
   12    5   20 1     
   13    5    6 1     
   14    6    7 1     
   15    6   28 1     
   16    6   29 1     
   17    7    8 1     
   18    7   30 1     
   19    7   31 1     
   20    8    9 1     
   21    8   19 1     
   22    8   32 1     
   23    9   10 am    
   24    9   33 1     
   25   10   11 2     
   26   10   12 am    
   27   12   13 1     
   28   12   34 1     
   29   13   18 2     
   30   13   14 1     
   31   14   15 2     
   32   14   35 1     
   33   15   16 1     
   34   16   17 1     
   35   16   18 1     
   36   17   36 1     
   37   17   37 1     
   38   17   38 1     
   39   18   39 1     
   40   19   20 1     
   41   19   40 1     
   42   19   41 1     
   43   20   42 1     
   44   20   43 1     
   45    5   44 1     
   46   11   45 1     
   47   11   46 1     
   48   15   47 1     
@<TRIPOS>SUBSTRUCTURE
      1 S1             1
@<TRIPOS>SET
LONE_PAIRS      STATIC     ATOMS    <user>   **** ""
4 44 45 46 47
DONOR_HYDROGENS      STATIC     ATOMS    <user>   **** ""
2 33 34
ATOM$BLUE        STATIC     ATOMS    COLORGROUP SYSTEM
4 44 45 46 47
ATOM$RED        STATIC     ATOMS    COLORGROUP SYSTEM
2 33 34
