AV-unprocessed.smi:3341|AV-procd|sdf|12885|dock7
  -GOLD-   2272019293D 1   1.00000     0.00000
 Structure written by MMmdl.
 46 47  0  0  0  0  0  0  0  0  2 V2000
  151.2622  140.7410  158.7601 C   0  0  0  0  0  0  0  0  0  0  0  0
  152.2294  140.9635  157.5914 C   0  0  0  0  0  0  0  0  0  0  0  0
  151.8626  140.1739  156.4320 N   0  0  0  0  0  0  0  0  0  0  0  0
  150.6710  140.1844  155.7343 C   0  0  0  0  0  0  0  0  0  0  0  0
  150.8222  139.2684  154.7318 C   0  0  0  0  0  0  0  0  0  0  0  0
  149.9039  138.8758  153.7253 N   0  0  0  0  0  0  0  0  0  0  0  0
  148.6340  139.2858  153.5752 C   0  0  0  0  0  0  0  0  0  0  0  0
  148.0612  140.1008  154.2986 O   0  0  0  0  0  0  0  0  0  0  0  0
  148.0524  138.6976  152.5205 N   0  0  0  0  0  0  0  0  0  0  0  0
  146.6780  138.9251  152.0893 C   0  0  0  0  0  0  0  0  0  0  0  0
  146.2459  137.9065  151.0167 C   0  0  0  0  0  0  0  0  0  0  0  0
  145.9129  136.5805  151.5956 N   0  3  1  0  0  0  0  0  0  0  0  0
  145.1325  136.6982  152.8546 C   0  0  0  0  0  0  0  0  0  0  0  0
  144.9339  135.3252  153.5153 C   0  0  0  0  0  0  0  0  0  0  0  0
  144.2686  134.3377  152.5465 C   0  0  0  0  0  0  0  0  0  0  0  0
  145.0391  134.2566  151.2159 C   0  0  2  0  0  0  0  0  0  0  0  0
  146.3586  133.4739  151.3362 C   0  0  0  0  0  0  0  0  0  0  0  0
  145.2495  135.6665  150.6256 C   0  0  0  0  0  0  0  0  0  0  0  0
  152.1307  138.7406  154.8837 C   0  0  0  0  0  0  0  0  0  0  0  0
  152.7542  139.2940  155.9127 N   0  0  0  0  0  0  0  0  0  0  0  0
  151.5568  141.3348  159.6254 H   0  0  0  0  0  0  0  0  0  0  0  0
  151.2472  139.6939  159.0642 H   0  0  0  0  0  0  0  0  0  0  0  0
  150.2449  141.0271  158.4912 H   0  0  0  0  0  0  0  0  0  0  0  0
  152.2475  142.0168  157.3082 H   0  0  0  0  0  0  0  0  0  0  0  0
  153.2448  140.6974  157.8873 H   0  0  0  0  0  0  0  0  0  0  0  0
  149.8491  140.8271  156.0131 H   0  0  0  0  0  0  0  0  0  0  0  0
  150.2521  138.2110  153.0501 H   0  0  0  0  0  0  0  0  0  0  0  0
  148.5974  138.0394  151.9824 H   0  0  0  0  0  0  0  0  0  0  0  0
  146.0480  138.8516  152.9745 H   0  0  0  0  0  0  0  0  0  0  0  0
  146.5687  139.9444  151.7146 H   0  0  0  0  0  0  0  0  0  0  0  0
  145.3657  138.3008  150.5067 H   0  0  0  0  0  0  0  0  0  0  0  0
  147.0173  137.7940  150.2533 H   0  0  0  0  0  0  0  0  0  0  0  0
  145.6522  137.3549  153.5533 H   0  0  0  0  0  0  0  0  0  0  0  0
  144.1665  137.1598  152.6435 H   0  0  0  0  0  0  0  0  0  0  0  0
  145.8961  134.9330  153.8462 H   0  0  0  0  0  0  0  0  0  0  0  0
  144.3235  135.4305  154.4128 H   0  0  0  0  0  0  0  0  0  0  0  0
  144.1885  133.3515  153.0050 H   0  0  0  0  0  0  0  0  0  0  0  0
  143.2470  134.6663  152.3499 H   0  0  0  0  0  0  0  0  0  0  0  0
  144.4159  133.6992  150.5151 H   0  0  0  0  0  0  0  0  0  0  0  0
  147.0666  133.9667  152.0024 H   0  0  0  0  0  0  0  0  0  0  0  0
  146.8413  133.3704  150.3638 H   0  0  0  0  0  0  0  0  0  0  0  0
  146.1842  132.4691  151.7220 H   0  0  0  0  0  0  0  0  0  0  0  0
  144.2862  136.0924  150.3400 H   0  0  0  0  0  0  0  0  0  0  0  0
  145.8333  135.5864  149.7093 H   0  0  0  0  0  0  0  0  0  0  0  0
  152.6383  137.9909  154.2950 H   0  0  0  0  0  0  0  0  0  0  0  0
  146.7914  136.1526  151.8512 H   0  0  0  0  0  0  0  0  0  0  0  0
  1  2  1  0  0  0  0
  1 21  1  0  0  0  0
  1 22  1  0  0  0  0
  1 23  1  0  0  0  0
  2  3  1  0  0  0  0
  2 24  1  0  0  0  0
  2 25  1  0  0  0  0
  3 20  1  0  0  0  0
  3  4  1  0  0  0  0
  4  5  2  0  0  0  0
  4 26  1  0  0  0  0
  5  6  1  0  0  0  0
  5 19  1  0  0  0  0
  6  7  1  0  0  0  0
  6 27  1  0  0  0  0
  7  8  2  0  0  0  0
  7  9  1  0  0  0  0
  9 10  1  0  0  0  0
  9 28  1  0  0  0  0
 10 11  1  0  0  0  0
 10 29  1  0  0  0  0
 10 30  1  0  0  0  0
 11 12  1  0  0  0  0
 11 31  1  0  0  0  0
 11 32  1  0  0  0  0
 12 18  1  0  0  0  0
 12 13  1  0  0  0  0
 12 46  1  0  0  0  0
 13 14  1  0  0  0  0
 13 33  1  0  0  0  0
 13 34  1  0  0  0  0
 14 15  1  0  0  0  0
 14 35  1  0  0  0  0
 14 36  1  0  0  0  0
 15 16  1  0  0  0  0
 15 37  1  0  0  0  0
 15 38  1  0  0  0  0
 16 17  1  0  0  0  0
 16 18  1  0  0  0  0
 16 39  1  0  0  0  0
 17 40  1  0  0  0  0
 17 41  1  0  0  0  0
 17 42  1  0  0  0  0
 18 43  1  0  0  0  0
 18 44  1  0  0  0  0
 19 20  2  0  0  0  0
 19 45  1  0  0  0  0
M  CHG  1  12   1
M  END
> <s_m_source_file>
AV-unprocessed.smi

> <i_m_source_file_index>
3341

> <i_lp_mmshare_version>
43012

> <i_f3d_flags>
0

> <s_epik_input>
W0NIM11bQ0gyXW4xW2NIXWMoW2NIXW4xKVtOSF1DKD1PKVtOSF1bQ0gyXVtDSDJdTjJbQ0gyXVtDSDJdW0NIMl1bQ0BASF0oW0NIM10pW0NIMl0y

> <s_epik_cmdline>
J2VwaWtfcHl0aG9uJywgJy1waCcsICc3LjAnLCAnLXRuJywgJzgnLCAnLW1hJywgJzIwMCcsICctbWV0YWxfYmluZGluZycsICctaW1hZScsICc8aW5maWxlLm1hZT4nLCAnLW9tYWUnLCAnPG91dGZpbGUubWFlPic=

> <r_lp_tautomer_probability>
1

> <r_epik_Ionization_Penalty>
0.00203389

> <r_epik_Ionization_Penalty_Charging>
0.00188267

> <r_epik_Ionization_Penalty_Neutral>
0.000151224

> <r_epik_State_Penalty>
0.0012808

> <r_epik_Charging_Adjusted_Penalty>
0.00316346

> <i_epik_Tot_Q>
1

> <i_epik_Tot_abs_Q>
1

> <r_epik_Metal_State_Penalty>
-0

> <b_epik_Metal_Only>
0

> <s_lp_Force_Field>
OPLS_2005

> <r_lp_Energy>
23.1635

> <b_lp_Chiralities_Consistent>
1

> <s_lp_Variant>
AV-unprocessed.smi:3341-3

> <Gold.Version>
5.8.1

> <Gold.Id.Protein>
6NUR|6NUR_protein|mol2

> <Gold.PLP.Fitness>
46.9189

> <Gold.PLP.PLP>
-36.0519

> <Gold.PLP.part.hbond>
-5.0000

> <Gold.PLP.part.metal>
0.0000

> <Gold.PLP.part.buried>
0.1362

> <Gold.PLP.part.nonpolar>
-31.3303

> <Gold.PLP.part.repulsive>
0.3018

> <Gold.PLP.ligand.clash>
0.0000

> <Gold.PLP.ligand.torsion>
0.2460

> <Gold.PLP.Chemscore.Hbond>
3.7680

> <Gold.PLP.Chemscore.CHOScore>
0.0000

> <Gold.PLP.Chemscore.Metal>
0.0000

> <Gold.Chemscore.Hbonds>
donor molecule, donor type, donor heavy atom, donor atom, acceptor molecule, acceptor atom, score
      L1  H     9    28       P1  7948  0.86
      L1  H    12    46       P1  7948  1.43
      P1  H  7997  8008       L1    20  1.00

> <Gold.PLP.Chemscore.Internal.Correction>
0.0550

> <Gold.Rescore>
     Score         DG    S(hbond)    S(metal)    S(lipo)     H(rot)  DE(clash)    DE(int)     intcor
     17.01     -19.29       2.60        0.00      78.50       1.59       0.97       1.31       ----

> <Gold.Chemscore.Fitness>
17.0111

> <Gold.Chemscore.DG>
-19.2914

> <Gold.Chemscore.ZeroCoef>
-5.4800

> <Gold.Chemscore.Hbond>
2.6046

> <Gold.Chemscore.Metal>
0.0000

> <Gold.Chemscore.Lipo>
78.5021

> <Gold.Chemscore.Internal_Hbond>
0.0000

> <Gold.Chemscore.DEClash>
0.9737

> <Gold.Chemscore.DEInternal>
1.3066

> <Gold.Chemscore.Rot>
1.5909

> <Gold.Chemscore.Internal.Correction>
   9.000000E+99

> <Gold.Chemscore.Hbonds>
donor molecule, donor type, donor heavy atom, donor atom, acceptor molecule, acceptor atom, score
      L1  H     9    28       P1  7948  0.85
      L1  H    12    46       P1  7948  0.67
      P1  H  7997  8008       L1    20  0.25

> <Gold.Chemscore.Hbond.Weighted>
-8.6994

> <Gold.Chemscore.Metal.Weighted>
-0.0000

> <Gold.Chemscore.Lipo.Weighted>
-9.1847

> <Gold.Chemscore.Internal_Hbond.Weighted>
0.0000

> <Gold.Chemscore.DEClash.Weighted>
0.9737

> <Gold.Chemscore.DEInternal.Weighted>
1.3066

> <Gold.Chemscore.Rot.Weighted>
4.0728

> <Gold.Chemscore.Internal.Correction.Weighted>
   9.000000E+99

> <Gold.Protein.RotatedTorsions>
[ 6907 6896 6895 6894 ] final  160.70 input  -60.11 | X-H torsion
[ 7974 7965 7964 7962 ] final -112.64 input  175.53 | X-H torsion
[ 8008 7997 7996 7995 ] final  -50.64 input   59.86 | X-H torsion
[ 10167 10162 10161 10158 ] final  142.63 input  -65.29 | X-H torsion
[ 10718 10713 10712 10709 ] final -105.87 input   66.30 | X-H torsion
[ 10763 10752 10751 10750 ] final    4.32 input  -60.55 | X-H torsion
[ 11005 11000 10999 10996 ] final   -2.30 input  -57.11 | X-H torsion

> <Gold.Protein.ActiveResidues>
 VAL166  LYS551  ARG553  GLY616  TRP617  ASP618  TYR619  PRO620  LYS621  CYS622 
 ASP623  PHE694  ASN695  SER759  ASP760  ASP761  ALA762  ILE779  LEU786  VAL792 
 PHE793  MET794  SER795  GLU796  ALA797  LYS798  CYS799  TRP800  GLU811  SER814 

> <Gold.Protein.RotatedAtoms>
  151.9667  133.3712  159.4055 H   0  0  0  0  0  0  0  0  0  0  0  0  # atno 6907 bound_to 6896
  150.6955  134.4183  159.5202 H   0  0  0  0  0  0  0  0  0  0  0  0  # atno 6908 bound_to 6896
  152.1880  134.8696  160.0571 H   0  0  0  0  0  0  0  0  0  0  0  0  # atno 6909 bound_to 6896
  145.1416  140.8781  143.3699 H   0  0  0  0  0  0  0  0  0  0  0  0  # atno 7974 bound_to 7965
  154.4066  140.1267  156.4699 H   0  0  0  0  0  0  0  0  0  0  0  0  # atno 8008 bound_to 7997
  155.7190  140.3493  155.4988 H   0  0  0  0  0  0  0  0  0  0  0  0  # atno 8009 bound_to 7997
  155.9232  140.1056  157.1181 H   0  0  0  0  0  0  0  0  0  0  0  0  # atno 8010 bound_to 7997
  139.4989  144.6094  151.6306 H   0  0  0  0  0  0  0  0  0  0  0  0  # atno 10167 bound_to 10162
  156.0365  130.5585  150.7600 H   0  0  0  0  0  0  0  0  0  0  0  0  # atno 10718 bound_to 10713
  153.2727  135.6933  153.7465 H   0  0  0  0  0  0  0  0  0  0  0  0  # atno 10763 bound_to 10752
  153.6482  135.3381  155.3093 H   0  0  0  0  0  0  0  0  0  0  0  0  # atno 10764 bound_to 10752
  154.8469  135.4448  154.1754 H   0  0  0  0  0  0  0  0  0  0  0  0  # atno 10765 bound_to 10752
  140.6569  133.9355  155.8413 H   0  0  0  0  0  0  0  0  0  0  0  0  # atno 11005 bound_to 11000
  145.0526  139.3169  143.5921 LP  0  0  0  0  0  0  0  0  0  0  0  0  # atno 17320 bound_to 7965
  146.3504  139.9940  142.8683 LP  0  0  0  0  0  0  0  0  0  0  0  0  # atno 17321 bound_to 7965
  140.5764  144.0021  150.6244 LP  0  0  0  0  0  0  0  0  0  0  0  0  # atno 17342 bound_to 10162
  140.3155  143.3170  152.0836 LP  0  0  0  0  0  0  0  0  0  0  0  0  # atno 17343 bound_to 10162
  157.5122  131.0926  151.0184 LP  0  0  0  0  0  0  0  0  0  0  0  0  # atno 17370 bound_to 10713
  157.0537  130.5797  149.5374 LP  0  0  0  0  0  0  0  0  0  0  0  0  # atno 17371 bound_to 10713
  141.0495  134.0506  157.3802 LP  0  0  0  0  0  0  0  0  0  0  0  0  # atno 17394 bound_to 11000
  139.9026  135.0170  156.7341 LP  0  0  0  0  0  0  0  0  0  0  0  0  # atno 17395 bound_to 11000

$$$$
