AV-unprocessed.smi:560|AV-procd|sdf|2935|dock3
  -GOLD-   2262023433D 1   1.00000     0.00000
 Structure written by MMmdl.
 41 42  0  0  0  0  0  0  0  0  3 V2000
  149.9944  140.2908  158.4796 C   0  0  0  0  0  0  0  0  0  0  0  0
  151.3381  140.5968  157.7866 C   0  0  1  0  0  0  0  0  0  0  0  0
  151.3644  140.1664  156.3105 C   0  0  0  0  0  0  0  0  0  0  0  0
  152.4115  140.1909  155.6627 O   0  0  0  0  0  0  0  0  0  0  0  0
  150.1902  139.7783  155.7873 N   0  0  0  0  0  0  0  0  0  0  0  0
  149.9823  139.3157  154.4163 C   0  0  2  0  0  0  0  0  0  0  0  0
  148.4987  139.0071  154.1351 C   0  0  0  0  0  0  0  0  0  0  0  0
  148.0187  137.7534  154.8873 C   0  0  0  0  0  0  0  0  0  0  0  0
  148.8666  136.5767  154.5688 N   0  3  2  0  0  0  0  0  0  0  0  0
  148.3426  135.3275  155.1754 C   0  0  0  0  0  0  0  0  0  0  0  0
  148.8369  134.1074  154.3913 C   0  0  0  0  0  0  0  0  0  0  0  0
  148.2250  133.9802  153.1986 N   0  5  0  0  0  0  0  0  0  0  0  0
  149.6896  133.3726  154.8854 O   0  0  0  0  0  0  0  0  0  0  0  0
  150.2980  136.8279  154.8894 C   0  0  0  0  0  0  0  0  0  0  0  0
  150.8307  138.0632  154.1401 C   0  0  0  0  0  0  0  0  0  0  0  0
  151.7132  142.0004  157.9174 N   0  0  0  0  0  0  0  0  0  0  0  0
  151.1603  143.0910  157.2766 C   0  0  0  0  0  0  0  0  0  0  0  0
  151.8068  144.2050  157.7295 C   0  0  0  0  0  0  0  0  0  0  0  0
  152.7464  143.6931  158.6669 C   0  0  0  0  0  0  0  0  0  0  0  0
  152.6824  142.3772  158.7837 N   0  0  0  0  0  0  0  0  0  0  0  0
  149.7532  139.2290  158.4223 H   0  0  0  0  0  0  0  0  0  0  0  0
  149.1673  140.8415  158.0299 H   0  0  0  0  0  0  0  0  0  0  0  0
  150.0329  140.5591  159.5357 H   0  0  0  0  0  0  0  0  0  0  0  0
  152.1033  140.0113  158.2994 H   0  0  0  0  0  0  0  0  0  0  0  0
  149.3826  139.7833  156.3932 H   0  0  0  0  0  0  0  0  0  0  0  0
  150.3141  140.1055  153.7399 H   0  0  0  0  0  0  0  0  0  0  0  0
  147.8715  139.8609  154.3937 H   0  0  0  0  0  0  0  0  0  0  0  0
  148.3644  138.8504  153.0641 H   0  0  0  0  0  0  0  0  0  0  0  0
  148.0259  137.9291  155.9643 H   0  0  0  0  0  0  0  0  0  0  0  0
  146.9844  137.5470  154.6086 H   0  0  0  0  0  0  0  0  0  0  0  0
  148.5987  135.2815  156.2363 H   0  0  0  0  0  0  0  0  0  0  0  0
  147.2532  135.3153  155.1203 H   0  0  0  0  0  0  0  0  0  0  0  0
  148.3320  134.7323  152.5070 H   0  0  0  0  0  0  0  0  0  0  0  0
  150.4119  136.9592  155.9666 H   0  0  0  0  0  0  0  0  0  0  0  0
  150.9037  135.9635  154.6159 H   0  0  0  0  0  0  0  0  0  0  0  0
  150.8264  137.8573  153.0689 H   0  0  0  0  0  0  0  0  0  0  0  0
  151.8723  138.2446  154.4086 H   0  0  0  0  0  0  0  0  0  0  0  0
  150.3612  142.9849  156.5576 H   0  0  0  0  0  0  0  0  0  0  0  0
  151.6335  145.2300  157.4374 H   0  0  0  0  0  0  0  0  0  0  0  0
  153.4658  144.2342  159.2640 H   0  0  0  0  0  0  0  0  0  0  0  0
  148.8070  136.4428  153.5691 H   0  0  0  0  0  0  0  0  0  0  0  0
  1  2  1  0  0  0  0
  1 21  1  0  0  0  0
  1 22  1  0  0  0  0
  1 23  1  0  0  0  0
  2  3  1  0  0  0  0
  2 16  1  0  0  0  0
  2 24  1  0  0  0  0
  3  4  2  0  0  0  0
  3  5  1  0  0  0  0
  5  6  1  0  0  0  0
  5 25  1  0  0  0  0
  6 15  1  0  0  0  0
  6  7  1  0  0  0  0
  6 26  1  0  0  0  0
  7  8  1  0  0  0  0
  7 27  1  0  0  0  0
  7 28  1  0  0  0  0
  8  9  1  0  0  0  0
  8 29  1  0  0  0  0
  8 30  1  0  0  0  0
  9 10  1  0  0  0  0
  9 14  1  0  0  0  0
  9 41  1  0  0  0  0
 10 11  1  0  0  0  0
 10 31  1  0  0  0  0
 10 32  1  0  0  0  0
 11 12  1  0  0  0  0
 11 13  2  0  0  0  0
 12 33  1  0  0  0  0
 14 15  1  0  0  0  0
 14 34  1  0  0  0  0
 14 35  1  0  0  0  0
 15 36  1  0  0  0  0
 15 37  1  0  0  0  0
 16 20  1  0  0  0  0
 16 17  1  0  0  0  0
 17 18  2  0  0  0  0
 17 38  1  0  0  0  0
 18 19  1  0  0  0  0
 18 39  1  0  0  0  0
 19 20  2  0  0  0  0
 19 40  1  0  0  0  0
M  CHG  1   9   1
M  CHG  1  12  -1
M  END
> <s_m_source_file>
AV-unprocessed.smi

> <i_m_source_file_index>
560

> <i_lp_mmshare_version>
43012

> <i_f3d_flags>
0

> <s_epik_input>
bjFbY0hdW2NIXVtjSF1uMVtDQEhdKFtDSDNdKUMoPU8pW05IXVtDSF0yW0NIMl1bQ0gyXU4oW0NIMl1bQ0gyXTIpW0NIMl1DKD1PKVtOSDJd

> <s_epik_cmdline>
J2VwaWtfcHl0aG9uJywgJy1waCcsICc3LjAnLCAnLXRuJywgJzgnLCAnLW1hJywgJzIwMCcsICctbWV0YWxfYmluZGluZycsICctaW1hZScsICc8aW5maWxlLm1hZT4nLCAnLW9tYWUnLCAnPG91dGZpbGUubWFlPic=

> <r_lp_tautomer_probability>
1

> <r_epik_Ionization_Penalty>
5.71084

> <r_epik_Ionization_Penalty_Charging>
5.71081

> <r_epik_Ionization_Penalty_Neutral>
3.04611e-05

> <r_epik_State_Penalty>
6.71277

> <r_epik_Charging_Adjusted_Penalty>
12.4236

> <i_epik_Tot_Q>
0

> <i_epik_Tot_abs_Q>
2

> <r_epik_Metal_State_Penalty>
2.67562

> <b_epik_Metal_Only>
1

> <s_lp_Force_Field>
OPLS_2005

> <r_lp_Energy>
9.86513

> <b_lp_Chiralities_Consistent>
1

> <s_lp_Variant>
AV-unprocessed.smi:560-10

> <Gold.Version>
5.8.1

> <Gold.Id.Protein>
6NUR|6NUR_protein|mol2

> <Gold.PLP.Fitness>
46.5336

> <Gold.PLP.PLP>
-32.4217

> <Gold.PLP.part.hbond>
-3.9594

> <Gold.PLP.part.metal>
0.0000

> <Gold.PLP.part.buried>
-0.7090

> <Gold.PLP.part.nonpolar>
-27.7990

> <Gold.PLP.part.repulsive>
0.1290

> <Gold.PLP.ligand.clash>
0.0877

> <Gold.PLP.ligand.torsion>
0.6515

> <Gold.PLP.Chemscore.Hbond>
4.1778

> <Gold.PLP.Chemscore.CHOScore>
0.9437

> <Gold.PLP.Chemscore.Metal>
0.0000

> <Gold.Chemscore.Hbonds>
donor molecule, donor type, donor heavy atom, donor atom, acceptor molecule, acceptor atom, score
      L1  H     9    41       P1  7948  2.00
      L1  H    12    33       P1  7948  1.00
      P1  H  7989  7998       L1     4  0.09
      P1  H  7997  8008       L1     4  1.00
      L1  C    17    38       P1  8028  0.96

> <Gold.PLP.Chemscore.Internal.Correction>
0.1381

> <Gold.Rescore>
     Score         DG    S(hbond)    S(metal)    S(lipo)     H(rot)  DE(clash)    DE(int)     intcor
     16.50     -17.90       2.93        0.00      76.67       2.47       0.13       1.26       ----

> <Gold.Chemscore.Fitness>
16.5025

> <Gold.Chemscore.DG>
-17.8974

> <Gold.Chemscore.ZeroCoef>
-5.4800

> <Gold.Chemscore.Hbond>
2.9279

> <Gold.Chemscore.Metal>
0.0000

> <Gold.Chemscore.Lipo>
76.6659

> <Gold.Chemscore.Internal_Hbond>
0.0000

> <Gold.Chemscore.DEClash>
0.1321

> <Gold.Chemscore.DEInternal>
1.2629

> <Gold.Chemscore.Rot>
2.4734

> <Gold.Chemscore.Internal.Correction>
   9.000000E+99

> <Gold.Chemscore.Hbonds>
donor molecule, donor type, donor heavy atom, donor atom, acceptor molecule, acceptor atom, score
      L1  H     9    41       P1  7948  1.00
      L1  H    12    33       P1  7948  0.30
      P1  H  7989  7998       L1     4  0.04
      P1  H  7997  8008       L1     4  0.95

> <Gold.Chemscore.Hbond.Weighted>
-9.7793

> <Gold.Chemscore.Metal.Weighted>
-0.0000

> <Gold.Chemscore.Lipo.Weighted>
-8.9699

> <Gold.Chemscore.Internal_Hbond.Weighted>
0.0000

> <Gold.Chemscore.DEClash.Weighted>
0.1321

> <Gold.Chemscore.DEInternal.Weighted>
1.2629

> <Gold.Chemscore.Rot.Weighted>
6.3318

> <Gold.Chemscore.Internal.Correction.Weighted>
   9.000000E+99

> <Gold.Protein.RotatedTorsions>
[ 6907 6896 6895 6894 ] final -101.40 input  -60.11 | X-H torsion
[ 7974 7965 7964 7962 ] final -112.91 input  175.53 | X-H torsion
[ 8008 7997 7996 7995 ] final  -26.00 input   59.86 | X-H torsion
[ 10167 10162 10161 10158 ] final -110.44 input  -65.29 | X-H torsion
[ 10718 10713 10712 10709 ] final  -21.52 input   66.30 | X-H torsion
[ 10763 10752 10751 10750 ] final   76.11 input  -60.55 | X-H torsion
[ 11005 11000 10999 10996 ] final -116.02 input  -57.11 | X-H torsion

> <Gold.Protein.ActiveResidues>
 VAL166  LYS551  ARG553  GLY616  TRP617  ASP618  TYR619  PRO620  LYS621  CYS622 
 ASP623  PHE694  ASN695  SER759  ASP760  ASP761  ALA762  ILE779  LEU786  VAL792 
 PHE793  MET794  SER795  GLU796  ALA797  LYS798  CYS799  TRP800  GLU811  SER814 

> <Gold.Protein.RotatedAtoms>
  150.7153  134.0740  159.3874 H   0  0  0  0  0  0  0  0  0  0  0  0  # atno 6907 bound_to 6896
  151.8723  135.0482  160.0490 H   0  0  0  0  0  0  0  0  0  0  0  0  # atno 6908 bound_to 6896
  152.2633  133.5281  159.5431 H   0  0  0  0  0  0  0  0  0  0  0  0  # atno 6909 bound_to 6896
  145.1384  140.8764  143.3717 H   0  0  0  0  0  0  0  0  0  0  0  0  # atno 7974 bound_to 7965
  154.4447  140.1911  156.0707 H   0  0  0  0  0  0  0  0  0  0  0  0  # atno 8008 bound_to 7997
  156.0513  140.3308  155.7328 H   0  0  0  0  0  0  0  0  0  0  0  0  # atno 8009 bound_to 7997
  155.5552  140.0598  157.2832 H   0  0  0  0  0  0  0  0  0  0  0  0  # atno 8010 bound_to 7997
  140.1445  143.4251  152.1539 H   0  0  0  0  0  0  0  0  0  0  0  0  # atno 10167 bound_to 10162
  156.5170  130.4623  149.6617 H   0  0  0  0  0  0  0  0  0  0  0  0  # atno 10718 bound_to 10713
  153.0702  135.4963  154.8288 H   0  0  0  0  0  0  0  0  0  0  0  0  # atno 10763 bound_to 10752
  154.7012  135.3002  154.9341 H   0  0  0  0  0  0  0  0  0  0  0  0  # atno 10764 bound_to 10752
  154.0064  135.6760  153.4815 H   0  0  0  0  0  0  0  0  0  0  0  0  # atno 10765 bound_to 10752
  141.0450  133.9777  157.2933 H   0  0  0  0  0  0  0  0  0  0  0  0  # atno 11005 bound_to 11000
  145.0559  139.3144  143.5905 LP  0  0  0  0  0  0  0  0  0  0  0  0  # atno 17320 bound_to 7965
  146.3507  139.9984  142.8678 LP  0  0  0  0  0  0  0  0  0  0  0  0  # atno 17321 bound_to 7965
  139.5456  144.7295  151.4595 LP  0  0  0  0  0  0  0  0  0  0  0  0  # atno 17342 bound_to 10162
  140.6740  143.8230  150.7035 LP  0  0  0  0  0  0  0  0  0  0  0  0  # atno 17343 bound_to 10162
  156.3185  130.7268  151.2175 LP  0  0  0  0  0  0  0  0  0  0  0  0  # atno 17370 bound_to 10713
  157.7442  131.0462  150.4881 LP  0  0  0  0  0  0  0  0  0  0  0  0  # atno 17371 bound_to 10713
  139.9305  135.0200  156.8382 LP  0  0  0  0  0  0  0  0  0  0  0  0  # atno 17394 bound_to 11000
  140.6164  134.0035  155.7599 LP  0  0  0  0  0  0  0  0  0  0  0  0  # atno 17395 bound_to 11000

$$$$
