AV-unprocessed.smi:1867|AV-procd|sdf|7578|dock3
  -GOLD-   22720 9293D 1   1.00000     0.00000
 Structure written by MMmdl.
 52 55  0  0  0  0  0  0  0  0  4 V2000
  146.4546  140.1247  154.1443 O   0  0  0  0  0  0  0  0  0  0  0  0
  147.1924  139.5089  153.3779 C   0  0  0  0  0  0  0  0  0  0  0  0
  148.5357  139.5911  153.5464 N   0  0  0  0  0  0  0  0  0  0  0  0
  149.2843  140.3561  154.4809 C   0  0  0  0  0  0  0  0  0  0  0  0
  150.4515  139.7749  155.0178 C   0  0  0  0  0  0  0  0  0  0  0  0
  151.2415  140.5030  155.9305 C   0  0  0  0  0  0  0  0  0  0  0  0
  150.8636  141.8185  156.2900 C   0  0  0  0  0  0  0  0  0  0  0  0
  151.6015  142.6047  157.1955 N   0  0  0  0  0  0  0  0  0  0  0  0
  151.4016  144.0417  157.2873 C   0  0  0  0  0  0  0  0  0  0  0  0
  152.2256  144.4725  158.5001 C   0  0  0  0  0  0  0  0  0  0  0  0
  152.1582  143.2527  159.4188 C   0  0  0  0  0  0  0  0  0  0  0  0
  152.0982  142.0632  158.4541 C   0  0  0  0  0  0  0  0  0  0  0  0
  149.7401  142.3400  155.7423 N   0  3  0  0  0  0  0  0  0  0  0  0
  148.9553  141.6776  154.8653 C   0  0  0  0  0  0  0  0  0  0  0  0
  146.6801  138.7249  152.3810 N   0  5  0  0  0  0  0  0  0  0  0  0
  145.5509  137.7793  152.4309 C   0  0  2  0  0  0  0  0  0  0  0  0
  145.2595  137.4089  153.8861 C   0  0  0  0  0  0  0  0  0  0  0  0
  146.2362  136.2721  154.2065 C   0  0  0  0  0  0  0  0  0  0  0  0
  146.5996  135.6497  152.9115 N   0  3  1  0  0  0  0  0  0  0  0  0
  146.4018  134.1758  152.8612 C   0  0  0  0  0  0  0  0  0  0  0  0
  146.4149  133.6688  151.4107 C   0  0  0  0  0  0  0  0  0  0  0  0
  145.2736  134.2922  150.5831 C   0  0  0  0  0  0  0  0  0  0  0  0
  144.7905  135.6354  151.1656 C   0  0  0  0  0  0  0  0  0  0  0  0
  145.9597  136.4253  151.8090 C   0  0  1  0  0  0  0  0  0  0  0  0
  149.0812  138.9900  152.9467 H   0  0  0  0  0  0  0  0  0  0  0  0
  150.7407  138.7723  154.7374 H   0  0  0  0  0  0  0  0  0  0  0  0
  152.1266  140.0414  156.3415 H   0  0  0  0  0  0  0  0  0  0  0  0
  151.7256  144.5539  156.3808 H   0  0  0  0  0  0  0  0  0  0  0  0
  150.3429  144.2523  157.4466 H   0  0  0  0  0  0  0  0  0  0  0  0
  153.2593  144.6501  158.2004 H   0  0  0  0  0  0  0  0  0  0  0  0
  151.8486  145.3823  158.9684 H   0  0  0  0  0  0  0  0  0  0  0  0
  152.9981  143.1937  160.1117 H   0  0  0  0  0  0  0  0  0  0  0  0
  151.2408  143.2922  160.0079 H   0  0  0  0  0  0  0  0  0  0  0  0
  151.4617  141.2718  158.8517 H   0  0  0  0  0  0  0  0  0  0  0  0
  153.0937  141.6502  158.2880 H   0  0  0  0  0  0  0  0  0  0  0  0
  148.1083  142.2385  154.4997 H   0  0  0  0  0  0  0  0  0  0  0  0
  144.6574  138.1830  151.9528 H   0  0  0  0  0  0  0  0  0  0  0  0
  145.3459  138.2486  154.5775 H   0  0  0  0  0  0  0  0  0  0  0  0
  144.2374  137.0349  153.9602 H   0  0  0  0  0  0  0  0  0  0  0  0
  147.1468  136.6612  154.6661 H   0  0  0  0  0  0  0  0  0  0  0  0
  145.7995  135.5640  154.9123 H   0  0  0  0  0  0  0  0  0  0  0  0
  147.1855  133.6930  153.4458 H   0  0  0  0  0  0  0  0  0  0  0  0
  145.4504  133.9082  153.3243 H   0  0  0  0  0  0  0  0  0  0  0  0
  147.3745  133.9222  150.9573 H   0  0  0  0  0  0  0  0  0  0  0  0
  146.3438  132.5811  151.3840 H   0  0  0  0  0  0  0  0  0  0  0  0
  145.6146  134.4307  149.5564 H   0  0  0  0  0  0  0  0  0  0  0  0
  144.4286  133.6047  150.5316 H   0  0  0  0  0  0  0  0  0  0  0  0
  144.3085  136.2120  150.3734 H   0  0  0  0  0  0  0  0  0  0  0  0
  144.0148  135.4339  151.9081 H   0  0  0  0  0  0  0  0  0  0  0  0
  146.7055  136.5794  151.0267 H   0  0  0  0  0  0  0  0  0  0  0  0
  147.5903  135.8144  152.8014 H   0  0  0  0  0  0  0  0  0  0  0  0
  149.4726  143.2896  156.0007 H   0  0  0  0  0  0  0  0  0  0  0  0
  1  2  2  0  0  0  0
  2  3  1  0  0  0  0
  2 15  1  0  0  0  0
  3  4  1  0  0  0  0
  3 25  1  0  0  0  0
  4 14  1  0  0  0  0
  4  5  2  0  0  0  0
  5  6  1  0  0  0  0
  5 26  1  0  0  0  0
  6  7  2  0  0  0  0
  6 27  1  0  0  0  0
  7  8  1  0  0  0  0
  7 13  1  0  0  0  0
  8 12  1  0  0  0  0
  8  9  1  0  0  0  0
  9 10  1  0  0  0  0
  9 28  1  0  0  0  0
  9 29  1  0  0  0  0
 10 11  1  0  0  0  0
 10 30  1  0  0  0  0
 10 31  1  0  0  0  0
 11 12  1  0  0  0  0
 11 32  1  0  0  0  0
 11 33  1  0  0  0  0
 12 34  1  0  0  0  0
 12 35  1  0  0  0  0
 13 14  2  0  0  0  0
 13 52  1  0  0  0  0
 14 36  1  0  0  0  0
 15 16  1  0  0  0  0
 16 24  1  0  0  0  0
 16 17  1  0  0  0  0
 16 37  1  0  0  0  0
 17 18  1  0  0  0  0
 17 38  1  0  0  0  0
 17 39  1  0  0  0  0
 18 19  1  0  0  0  0
 18 40  1  0  0  0  0
 18 41  1  0  0  0  0
 19 24  1  0  0  0  0
 19 20  1  0  0  0  0
 19 51  1  0  0  0  0
 20 21  1  0  0  0  0
 20 42  1  0  0  0  0
 20 43  1  0  0  0  0
 21 22  1  0  0  0  0
 21 44  1  0  0  0  0
 21 45  1  0  0  0  0
 22 23  1  0  0  0  0
 22 46  1  0  0  0  0
 22 47  1  0  0  0  0
 23 24  1  0  0  0  0
 23 48  1  0  0  0  0
 23 49  1  0  0  0  0
 24 50  1  0  0  0  0
M  CHG  1  13   1
M  CHG  1  15  -1
M  CHG  1  19   1
M  END
> <s_m_source_file>
AV-unprocessed.smi

> <i_m_source_file_index>
1867

> <i_lp_mmshare_version>
43012

> <i_f3d_flags>
0

> <s_epik_input>
W0NIMl0xW0NIMl1bQ0gyXVtDSDJdW0NASF0oTjEyKVtDQEBIXShbQ0gyXVtDSDJdMilbTkhdQyg9TylbTkhdYzNbY0hdW2NIXWMobltjSF0zKU40W0NIMl1bQ0gyXVtDSDJdW0NIMl00

> <s_epik_cmdline>
J2VwaWtfcHl0aG9uJywgJy1waCcsICc3LjAnLCAnLXRuJywgJzgnLCAnLW1hJywgJzIwMCcsICctbWV0YWxfYmluZGluZycsICctaW1hZScsICc8aW5maWxlLm1hZT4nLCAnLW9tYWUnLCAnPG91dGZpbGUubWFlPic=

> <r_lp_tautomer_probability>
0.999994

> <r_epik_Ionization_Penalty>
8.56137

> <r_epik_Ionization_Penalty_Charging>
8.56136

> <r_epik_Ionization_Penalty_Neutral>
3.91889e-06

> <r_epik_State_Penalty>
8.16255

> <r_epik_Charging_Adjusted_Penalty>
16.7239

> <i_epik_Tot_Q>
1

> <i_epik_Tot_abs_Q>
3

> <r_epik_Metal_State_Penalty>
4.14279

> <b_epik_Metal_Only>
1

> <s_lp_Force_Field>
OPLS_2005

> <r_lp_Energy>
71.5854

> <b_lp_Chiralities_Consistent>
1

> <s_lp_Variant>
AV-unprocessed.smi:1867-19

> <Gold.Version>
5.8.1

> <Gold.Id.Protein>
6NUR|6NUR_protein|mol2

> <Gold.PLP.Fitness>
55.1267

> <Gold.PLP.PLP>
-44.8074

> <Gold.PLP.part.hbond>
-3.0000

> <Gold.PLP.part.metal>
0.0000

> <Gold.PLP.part.buried>
-0.1810

> <Gold.PLP.part.nonpolar>
-41.7334

> <Gold.PLP.part.repulsive>
0.7053

> <Gold.PLP.ligand.clash>
0.0000

> <Gold.PLP.ligand.torsion>
1.2710

> <Gold.PLP.Chemscore.Hbond>
4.1893

> <Gold.PLP.Chemscore.CHOScore>
0.0000

> <Gold.PLP.Chemscore.Metal>
0.0000

> <Gold.Chemscore.Hbonds>
donor molecule, donor type, donor heavy atom, donor atom, acceptor molecule, acceptor atom, score
      L1  H     3    25       P1  7957  0.16
      L1  H    13    52       P1  8028  2.00
      L1  H    19    51       P1  7948  2.00

> <Gold.PLP.Chemscore.Internal.Correction>
0.2935

> <Gold.Rescore>
     Score         DG    S(hbond)    S(metal)    S(lipo)     H(rot)  DE(clash)    DE(int)     intcor
     18.72     -23.50       2.18        0.00     113.71       1.00       1.43       3.34       ----

> <Gold.Chemscore.Fitness>
18.7221

> <Gold.Chemscore.DG>
-23.4971

> <Gold.Chemscore.ZeroCoef>
-5.4800

> <Gold.Chemscore.Hbond>
2.1774

> <Gold.Chemscore.Metal>
0.0000

> <Gold.Chemscore.Lipo>
113.7147

> <Gold.Chemscore.Internal_Hbond>
0.0000

> <Gold.Chemscore.DEClash>
1.4324

> <Gold.Chemscore.DEInternal>
3.3426

> <Gold.Chemscore.Rot>
1.0000

> <Gold.Chemscore.Internal.Correction>
   9.000000E+99

> <Gold.Chemscore.Hbonds>
donor molecule, donor type, donor heavy atom, donor atom, acceptor molecule, acceptor atom, score
      L1  H     3    25       P1  7957  0.15
      L1  H    13    52       P1  8028  0.94
      L1  H    19    51       P1  7948  0.95

> <Gold.Chemscore.Hbond.Weighted>
-7.2725

> <Gold.Chemscore.Metal.Weighted>
-0.0000

> <Gold.Chemscore.Lipo.Weighted>
-13.3046

> <Gold.Chemscore.Internal_Hbond.Weighted>
0.0000

> <Gold.Chemscore.DEClash.Weighted>
1.4324

> <Gold.Chemscore.DEInternal.Weighted>
3.3426

> <Gold.Chemscore.Rot.Weighted>
2.5600

> <Gold.Chemscore.Internal.Correction.Weighted>
   9.000000E+99

> <Gold.Protein.RotatedTorsions>
[ 6907 6896 6895 6894 ] final  -53.15 input  -60.11 | X-H torsion
[ 7974 7965 7964 7962 ] final -156.72 input  175.53 | X-H torsion
[ 8008 7997 7996 7995 ] final   48.92 input   59.86 | X-H torsion
[ 10167 10162 10161 10158 ] final   75.33 input  -65.29 | X-H torsion
[ 10718 10713 10712 10709 ] final -132.68 input   66.30 | X-H torsion
[ 10763 10752 10751 10750 ] final -116.98 input  -60.55 | X-H torsion
[ 11005 11000 10999 10996 ] final  121.53 input  -57.11 | X-H torsion

> <Gold.Protein.ActiveResidues>
 VAL166  LYS551  ARG553  GLY616  TRP617  ASP618  TYR619  PRO620  LYS621  CYS622 
 ASP623  PHE694  ASN695  SER759  ASP760  ASP761  ALA762  ILE779  LEU786  VAL792 
 PHE793  MET794  SER795  GLU796  ALA797  LYS798  CYS799  TRP800  GLU811  SER814 

> <Gold.Protein.RotatedAtoms>
  150.8452  134.7759  159.6964 H   0  0  0  0  0  0  0  0  0  0  0  0  # atno 6907 bound_to 6896
  152.4531  134.5348  159.9831 H   0  0  0  0  0  0  0  0  0  0  0  0  # atno 6908 bound_to 6896
  151.5480  133.3384  159.2983 H   0  0  0  0  0  0  0  0  0  0  0  0  # atno 6909 bound_to 6896
  144.7580  140.4069  143.5998 H   0  0  0  0  0  0  0  0  0  0  0  0  # atno 7974 bound_to 7965
  155.3937  140.3434  155.4253 H   0  0  0  0  0  0  0  0  0  0  0  0  # atno 8008 bound_to 7997
  156.1543  140.1580  156.8751 H   0  0  0  0  0  0  0  0  0  0  0  0  # atno 8009 bound_to 7997
  154.5080  140.0797  156.7915 H   0  0  0  0  0  0  0  0  0  0  0  0  # atno 8010 bound_to 7997
  140.0041  144.5663  150.7712 H   0  0  0  0  0  0  0  0  0  0  0  0  # atno 10167 bound_to 10162
  156.2371  130.7073  151.0918 H   0  0  0  0  0  0  0  0  0  0  0  0  # atno 10718 bound_to 10713
  154.8539  135.4326  154.1906 H   0  0  0  0  0  0  0  0  0  0  0  0  # atno 10763 bound_to 10752
  153.2975  135.6966  153.7240 H   0  0  0  0  0  0  0  0  0  0  0  0  # atno 10764 bound_to 10752
  153.6383  135.3472  155.3038 H   0  0  0  0  0  0  0  0  0  0  0  0  # atno 10765 bound_to 10752
  139.9230  134.9639  156.7972 H   0  0  0  0  0  0  0  0  0  0  0  0  # atno 11005 bound_to 11000
  145.6714  139.1600  143.2752 LP  0  0  0  0  0  0  0  0  0  0  0  0  # atno 17320 bound_to 7965
  146.1612  140.6785  142.9276 LP  0  0  0  0  0  0  0  0  0  0  0  0  # atno 17321 bound_to 7965
  140.7407  143.2808  151.3604 LP  0  0  0  0  0  0  0  0  0  0  0  0  # atno 17342 bound_to 10162
  139.6251  144.0831  152.2426 LP  0  0  0  0  0  0  0  0  0  0  0  0  # atno 17343 bound_to 10162
  157.7159  131.0710  150.6329 LP  0  0  0  0  0  0  0  0  0  0  0  0  # atno 17370 bound_to 10713
  156.6400  130.4455  149.5756 LP  0  0  0  0  0  0  0  0  0  0  0  0  # atno 17371 bound_to 10713
  140.6419  133.9810  155.7712 LP  0  0  0  0  0  0  0  0  0  0  0  0  # atno 17394 bound_to 11000
  141.0765  134.0127  157.3449 LP  0  0  0  0  0  0  0  0  0  0  0  0  # atno 17395 bound_to 11000

$$$$
