AV-unprocessed.smi:316|AV-procd|sdf|2324|dock2
  -GOLD-   2262022223D 1   1.00000     0.00000
 Structure written by MMmdl.
 42 43  0  0  0  0  0  0  0  0  1 V2000
  147.0225  139.0463  153.1859 C   0  0  0  0  0  0  0  0  0  0  0  0
  148.3751  138.5851  153.4579 N   0  0  0  0  0  0  0  0  0  0  0  0
  149.2259  139.1937  154.2965 C   0  0  0  0  0  0  0  0  0  0  0  0
  148.9375  140.2091  154.9303 O   0  0  0  0  0  0  0  0  0  0  0  0
  150.6096  138.5575  154.4466 C   0  0  0  0  0  0  0  0  0  0  0  0
  150.5500  137.1913  155.1568 C   0  0  0  0  0  0  0  0  0  0  0  0
  149.7664  136.2224  154.3989 N   0  0  0  0  0  0  0  0  0  0  0  0
  149.6191  134.9305  154.7246 C   0  0  0  0  0  0  0  0  0  0  0  0
  150.1458  134.4140  155.7103 O   0  0  0  0  0  0  0  0  0  0  0  0
  148.8482  134.2891  153.8308 N   0  0  0  0  0  0  0  0  0  0  0  0
  148.5242  132.9035  153.7824 C   0  0  0  0  0  0  0  0  0  0  0  0
  149.2214  131.9494  154.5635 C   0  0  0  0  0  0  0  0  0  0  0  0
  148.8209  130.6029  154.5276 C   0  0  0  0  0  0  0  0  0  0  0  0
  147.7224  130.2576  153.7232 C   0  0  0  0  0  0  0  0  0  0  0  0
  147.0381  131.1553  152.9865 N   0  0  0  0  0  0  0  0  0  0  0  0
  147.4218  132.4557  152.9989 C   0  0  0  0  0  0  0  0  0  0  0  0
  146.6780  133.3489  152.1940 N   0  0  0  0  0  0  0  0  0  0  0  0
  145.9961  134.4927  152.7909 C   0  0  0  0  0  0  0  0  0  0  0  0
  145.0063  134.9612  151.7283 C   0  0  0  0  0  0  0  0  0  0  0  0
  144.5745  133.6474  151.0842 C   0  0  0  0  0  0  0  0  0  0  0  0
  145.8395  132.7842  151.1405 C   0  0  0  0  0  0  0  0  0  0  0  0
  146.5478  138.3946  152.4524 H   0  0  0  0  0  0  0  0  0  0  0  0
  147.0310  140.0609  152.7852 H   0  0  0  0  0  0  0  0  0  0  0  0
  146.4189  139.0350  154.0942 H   0  0  0  0  0  0  0  0  0  0  0  0
  148.6876  137.7557  152.9737 H   0  0  0  0  0  0  0  0  0  0  0  0
  151.0466  138.4440  153.4539 H   0  0  0  0  0  0  0  0  0  0  0  0
  151.2612  139.2380  154.9973 H   0  0  0  0  0  0  0  0  0  0  0  0
  151.5551  136.8000  155.3260 H   0  0  0  0  0  0  0  0  0  0  0  0
  150.0884  137.2965  156.1392 H   0  0  0  0  0  0  0  0  0  0  0  0
  149.3005  136.5618  153.5699 H   0  0  0  0  0  0  0  0  0  0  0  0
  148.5549  134.8281  153.0291 H   0  0  0  0  0  0  0  0  0  0  0  0
  150.0415  132.2298  155.2065 H   0  0  0  0  0  0  0  0  0  0  0  0
  149.3355  129.8556  155.1132 H   0  0  0  0  0  0  0  0  0  0  0  0
  147.3791  129.2349  153.6743 H   0  0  0  0  0  0  0  0  0  0  0  0
  145.4502  134.1961  153.6877 H   0  0  0  0  0  0  0  0  0  0  0  0
  146.7017  135.2781  153.0628 H   0  0  0  0  0  0  0  0  0  0  0  0
  144.1737  135.5295  152.1436 H   0  0  0  0  0  0  0  0  0  0  0  0
  145.5144  135.5873  150.9934 H   0  0  0  0  0  0  0  0  0  0  0  0
  143.7887  133.1873  151.6849 H   0  0  0  0  0  0  0  0  0  0  0  0
  144.1921  133.7739  150.0709 H   0  0  0  0  0  0  0  0  0  0  0  0
  146.3750  132.8498  150.1932 H   0  0  0  0  0  0  0  0  0  0  0  0
  145.5990  131.7356  151.3215 H   0  0  0  0  0  0  0  0  0  0  0  0
  1  2  1  0  0  0  0
  1 22  1  0  0  0  0
  1 23  1  0  0  0  0
  1 24  1  0  0  0  0
  2  3  1  0  0  0  0
  2 25  1  0  0  0  0
  3  4  2  0  0  0  0
  3  5  1  0  0  0  0
  5  6  1  0  0  0  0
  5 26  1  0  0  0  0
  5 27  1  0  0  0  0
  6  7  1  0  0  0  0
  6 28  1  0  0  0  0
  6 29  1  0  0  0  0
  7  8  1  0  0  0  0
  7 30  1  0  0  0  0
  8  9  2  0  0  0  0
  8 10  1  0  0  0  0
 10 11  1  0  0  0  0
 10 31  1  0  0  0  0
 11 16  1  0  0  0  0
 11 12  2  0  0  0  0
 12 13  1  0  0  0  0
 12 32  1  0  0  0  0
 13 14  2  0  0  0  0
 13 33  1  0  0  0  0
 14 15  1  0  0  0  0
 14 34  1  0  0  0  0
 15 16  2  0  0  0  0
 16 17  1  0  0  0  0
 17 21  1  0  0  0  0
 17 18  1  0  0  0  0
 18 19  1  0  0  0  0
 18 35  1  0  0  0  0
 18 36  1  0  0  0  0
 19 20  1  0  0  0  0
 19 37  1  0  0  0  0
 19 38  1  0  0  0  0
 20 21  1  0  0  0  0
 20 39  1  0  0  0  0
 20 40  1  0  0  0  0
 21 41  1  0  0  0  0
 21 42  1  0  0  0  0
M  END
> <s_m_source_file>
AV-unprocessed.smi

> <i_m_source_file_index>
316

> <i_lp_mmshare_version>
43012

> <i_f3d_flags>
0

> <s_epik_input>
W0NIM11bTkhdQyg9TylbQ0gyXVtDSDJdW05IXUMoPU8pW05IXWMxW2NIXVtjSF1bY0hdbmMxTjJbQ0gyXVtDSDJdW0NIMl1bQ0gyXTI=

> <s_epik_cmdline>
J2VwaWtfcHl0aG9uJywgJy1waCcsICc3LjAnLCAnLXRuJywgJzgnLCAnLW1hJywgJzIwMCcsICctbWV0YWxfYmluZGluZycsICctaW1hZScsICc8aW5maWxlLm1hZT4nLCAnLW9tYWUnLCAnPG91dGZpbGUubWFlPic=

> <r_lp_tautomer_probability>
1

> <r_epik_Ionization_Penalty>
0.0916714

> <r_epik_Ionization_Penalty_Charging>
0

> <r_epik_Ionization_Penalty_Neutral>
0.0916714

> <r_epik_State_Penalty>
0.0814442

> <r_epik_Charging_Adjusted_Penalty>
0.0814442

> <i_epik_Tot_Q>
0

> <i_epik_Tot_abs_Q>
0

> <r_epik_Metal_State_Penalty>
0.0705089

> <b_epik_Metal_Only>
0

> <s_lp_Force_Field>
OPLS_2005

> <r_lp_Energy>
29.6087

> <b_lp_Chiralities_Consistent>
1

> <s_lp_Variant>
AV-unprocessed.smi:316-1

> <Gold.Version>
5.8.1

> <Gold.Id.Protein>
6NUR|6NUR_protein|mol2

> <Gold.PLP.Fitness>
43.5590

> <Gold.PLP.PLP>
-34.9665

> <Gold.PLP.part.hbond>
-4.3246

> <Gold.PLP.part.metal>
0.0000

> <Gold.PLP.part.buried>
-2.8902

> <Gold.PLP.part.nonpolar>
-28.2161

> <Gold.PLP.part.repulsive>
0.6943

> <Gold.PLP.ligand.clash>
0.0000

> <Gold.PLP.ligand.torsion>
0.3692

> <Gold.PLP.Chemscore.Hbond>
2.9920

> <Gold.PLP.Chemscore.CHOScore>
0.0000

> <Gold.PLP.Chemscore.Metal>
0.0000

> <Gold.Chemscore.Hbonds>
donor molecule, donor type, donor heavy atom, donor atom, acceptor molecule, acceptor atom, score
      L1  H     2    25       P1  7948  1.00
      L1  H     7    30       P1  7948  0.88
      L1  H    10    31       P1  7948  0.93

> <Gold.PLP.Chemscore.Internal.Correction>
0.3548

> <Gold.Rescore>
     Score         DG    S(hbond)    S(metal)    S(lipo)     H(rot)  DE(clash)    DE(int)     intcor
     11.73     -15.84       2.40        0.00      62.54       1.94       0.12       4.00       ----

> <Gold.Chemscore.Fitness>
11.7281

> <Gold.Chemscore.DG>
-15.8421

> <Gold.Chemscore.ZeroCoef>
-5.4800

> <Gold.Chemscore.Hbond>
2.4015

> <Gold.Chemscore.Metal>
0.0000

> <Gold.Chemscore.Lipo>
62.5367

> <Gold.Chemscore.Internal_Hbond>
0.0000

> <Gold.Chemscore.DEClash>
0.1171

> <Gold.Chemscore.DEInternal>
3.9968

> <Gold.Chemscore.Rot>
1.9437

> <Gold.Chemscore.Internal.Correction>
   9.000000E+99

> <Gold.Chemscore.Hbonds>
donor molecule, donor type, donor heavy atom, donor atom, acceptor molecule, acceptor atom, score
      L1  H     2    25       P1  7948  1.00
      L1  H     7    30       P1  7948  0.80
      L1  H    10    31       P1  7948  0.40

> <Gold.Chemscore.Hbond.Weighted>
-8.0212

> <Gold.Chemscore.Metal.Weighted>
-0.0000

> <Gold.Chemscore.Lipo.Weighted>
-7.3168

> <Gold.Chemscore.Internal_Hbond.Weighted>
0.0000

> <Gold.Chemscore.DEClash.Weighted>
0.1171

> <Gold.Chemscore.DEInternal.Weighted>
3.9968

> <Gold.Chemscore.Rot.Weighted>
4.9759

> <Gold.Chemscore.Internal.Correction.Weighted>
   9.000000E+99

> <Gold.Protein.RotatedTorsions>
[ 6907 6896 6895 6894 ] final  136.63 input  -60.11 | X-H torsion
[ 7974 7965 7964 7962 ] final  146.00 input  175.53 | X-H torsion
[ 8008 7997 7996 7995 ] final  -66.87 input   59.86 | X-H torsion
[ 10167 10162 10161 10158 ] final -176.99 input  -65.29 | X-H torsion
[ 10718 10713 10712 10709 ] final   17.93 input   66.30 | X-H torsion
[ 10763 10752 10751 10750 ] final   99.55 input  -60.55 | X-H torsion
[ 11005 11000 10999 10996 ] final -127.58 input  -57.11 | X-H torsion

> <Gold.Protein.ActiveResidues>
 VAL166  LYS551  ARG553  GLY616  TRP617  ASP618  TYR619  PRO620  LYS621  CYS622 
 ASP623  PHE694  ASN695  SER759  ASP760  ASP761  ALA762  ILE779  LEU786  VAL792 
 PHE793  MET794  SER795  GLU796  ALA797  LYS798  CYS799  TRP800  GLU811  SER814 

> <Gold.Protein.RotatedAtoms>
  152.2872  133.5526  159.5534 H   0  0  0  0  0  0  0  0  0  0  0  0  # atno 6907 bound_to 6896
  150.7220  134.0480  159.3797 H   0  0  0  0  0  0  0  0  0  0  0  0  # atno 6908 bound_to 6896
  151.8388  135.0597  160.0496 H   0  0  0  0  0  0  0  0  0  0  0  0  # atno 6909 bound_to 6896
  144.8706  139.5852  143.5888 H   0  0  0  0  0  0  0  0  0  0  0  0  # atno 7974 bound_to 7965
  154.4762  140.0904  156.7269 H   0  0  0  0  0  0  0  0  0  0  0  0  # atno 8008 bound_to 7997
  155.4589  140.3460  155.4292 H   0  0  0  0  0  0  0  0  0  0  0  0  # atno 8009 bound_to 7997
  156.1121  140.1450  156.9313 H   0  0  0  0  0  0  0  0  0  0  0  0  # atno 8010 bound_to 7997
  139.5502  144.2130  152.1063 H   0  0  0  0  0  0  0  0  0  0  0  0  # atno 10167 bound_to 10162
  157.0892  130.6420  149.5844 H   0  0  0  0  0  0  0  0  0  0  0  0  # atno 10718 bound_to 10713
  153.3029  135.4109  155.1268 H   0  0  0  0  0  0  0  0  0  0  0  0  # atno 10763 bound_to 10752
  154.8554  135.3545  154.5828 H   0  0  0  0  0  0  0  0  0  0  0  0  # atno 10764 bound_to 10752
  153.6254  135.7063  153.5353 H   0  0  0  0  0  0  0  0  0  0  0  0  # atno 10765 bound_to 10752
  140.9588  134.0965  157.3989 H   0  0  0  0  0  0  0  0  0  0  0  0  # atno 11005 bound_to 11000
  146.2927  139.7188  142.9149 LP  0  0  0  0  0  0  0  0  0  0  0  0  # atno 17320 bound_to 7965
  145.4137  141.0399  143.3002 LP  0  0  0  0  0  0  0  0  0  0  0  0  # atno 17321 bound_to 7965
  140.1623  144.5014  150.6625 LP  0  0  0  0  0  0  0  0  0  0  0  0  # atno 17342 bound_to 10162
  140.6762  143.2306  151.5501 LP  0  0  0  0  0  0  0  0  0  0  0  0  # atno 17343 bound_to 10162
  155.9903  130.4953  150.7249 LP  0  0  0  0  0  0  0  0  0  0  0  0  # atno 17370 bound_to 10713
  157.4736  131.0895  151.0615 LP  0  0  0  0  0  0  0  0  0  0  0  0  # atno 17371 bound_to 10713
  139.8871  135.0087  156.6539 LP  0  0  0  0  0  0  0  0  0  0  0  0  # atno 17394 bound_to 11000
  140.7498  133.8907  155.8338 LP  0  0  0  0  0  0  0  0  0  0  0  0  # atno 17395 bound_to 11000

$$$$
