AV-unprocessed.smi:266|AV-procd|sdf|2034|dock1
  -GOLD-   2262021243D 1   1.00000     0.00000
 Structure written by MMmdl.
 52 55  0  0  0  0  0  0  0  0  1 V2000
  146.4177  134.0737  152.3681 C   0  0  0  0  0  0  0  0  0  0  0  0
  145.7294  133.6996  151.0460 C   0  0  1  0  0  0  0  0  0  0  0  0
  145.4828  132.2960  151.0723 O   0  0  0  0  0  0  0  0  0  0  0  0
  144.3099  132.0212  150.3266 C   0  0  0  0  0  0  0  0  0  0  0  0
  143.3986  133.1755  150.7139 C   0  0  0  0  0  0  0  0  0  0  0  0
  144.3532  134.3656  150.7589 C   0  0  2  0  0  0  0  0  0  0  0  0
  144.4111  134.9238  149.4563 O   0  0  0  0  0  0  0  0  0  0  0  0
  143.9089  135.4838  151.7385 C   0  0  0  0  0  0  0  0  0  0  0  0
  144.9302  136.4957  151.9665 N   0  0  0  0  0  0  0  0  0  0  0  0
  146.0002  136.7826  151.1526 C   0  0  0  0  0  0  0  0  0  0  0  0
  146.7788  137.7377  151.5787 N   0  0  0  0  0  0  0  0  0  0  0  0
  146.2149  138.1434  152.7852 C   0  0  0  0  0  0  0  0  0  0  0  0
  146.5417  139.1272  153.7723 C   0  0  0  0  0  0  0  0  0  0  0  0
  147.6135  139.9739  153.7170 N   0  0  0  0  0  0  0  0  0  0  0  0
  147.4175  141.4136  153.8395 C   0  0  0  0  0  0  0  0  0  0  0  0
  148.9287  139.4864  153.2902 C   0  0  0  0  0  0  0  0  0  0  0  0
  149.7741  138.9256  154.4525 C   0  0  2  0  0  0  0  0  0  0  0  0
  150.2180  140.0335  155.4271 C   0  0  0  0  0  0  0  0  0  0  0  0
  151.2585  139.4526  156.3894 C   0  0  0  0  0  0  0  0  0  0  0  0
  152.2072  138.2331  155.4075 S   0  0  0  0  0  0  0  0  0  0  0  0
  153.4699  138.8398  154.9591 O   0  0  0  0  0  0  0  0  0  0  0  0
  152.1950  136.9401  156.1078 O   0  0  0  0  0  0  0  0  0  0  0  0
  151.0393  138.1790  153.9955 C   0  0  0  0  0  0  0  0  0  0  0  0
  145.7040  139.2146  154.8416 N   0  0  0  0  0  0  0  0  0  0  0  0
  144.6420  138.4141  154.9550 C   0  0  0  0  0  0  0  0  0  0  0  0
  144.2266  137.4613  154.1225 N   0  0  0  0  0  0  0  0  0  0  0  0
  145.0480  137.3620  153.0398 C   0  0  0  0  0  0  0  0  0  0  0  0
  146.6456  135.1389  152.4126 H   0  0  0  0  0  0  0  0  0  0  0  0
  147.3594  133.5351  152.4757 H   0  0  0  0  0  0  0  0  0  0  0  0
  145.7977  133.8192  153.2281 H   0  0  0  0  0  0  0  0  0  0  0  0
  146.4256  133.8972  150.2286 H   0  0  0  0  0  0  0  0  0  0  0  0
  144.5363  132.0370  149.2594 H   0  0  0  0  0  0  0  0  0  0  0  0
  143.8901  131.0476  150.5796 H   0  0  0  0  0  0  0  0  0  0  0  0
  142.5567  133.3084  150.0328 H   0  0  0  0  0  0  0  0  0  0  0  0
  142.9947  132.9802  151.7079 H   0  0  0  0  0  0  0  0  0  0  0  0
  145.1971  134.6146  149.0326 H   0  0  0  0  0  0  0  0  0  0  0  0
  143.0203  135.9906  151.3618 H   0  0  0  0  0  0  0  0  0  0  0  0
  143.6339  135.0569  152.7039 H   0  0  0  0  0  0  0  0  0  0  0  0
  146.1840  136.2614  150.2245 H   0  0  0  0  0  0  0  0  0  0  0  0
  147.0302  141.6663  154.8266 H   0  0  0  0  0  0  0  0  0  0  0  0
  146.7224  141.7757  153.0815 H   0  0  0  0  0  0  0  0  0  0  0  0
  148.3562  141.9523  153.7100 H   0  0  0  0  0  0  0  0  0  0  0  0
  148.7924  138.7133  152.5331 H   0  0  0  0  0  0  0  0  0  0  0  0
  149.4722  140.2831  152.7809 H   0  0  0  0  0  0  0  0  0  0  0  0
  149.1675  138.2253  155.0285 H   0  0  0  0  0  0  0  0  0  0  0  0
  150.6755  140.8469  154.8621 H   0  0  0  0  0  0  0  0  0  0  0  0
  149.3716  140.4580  155.9678 H   0  0  0  0  0  0  0  0  0  0  0  0
  151.9260  140.2067  156.8061 H   0  0  0  0  0  0  0  0  0  0  0  0
  150.7732  138.9216  157.2086 H   0  0  0  0  0  0  0  0  0  0  0  0
  150.8429  137.1451  153.7113 H   0  0  0  0  0  0  0  0  0  0  0  0
  151.5141  138.6862  153.1555 H   0  0  0  0  0  0  0  0  0  0  0  0
  144.0392  138.5589  155.8395 H   0  0  0  0  0  0  0  0  0  0  0  0
  1  2  1  0  0  0  0
  1 28  1  0  0  0  0
  1 29  1  0  0  0  0
  1 30  1  0  0  0  0
  2  6  1  0  0  0  0
  2  3  1  0  0  0  0
  2 31  1  0  0  0  0
  3  4  1  0  0  0  0
  4  5  1  0  0  0  0
  4 32  1  0  0  0  0
  4 33  1  0  0  0  0
  5  6  1  0  0  0  0
  5 34  1  0  0  0  0
  5 35  1  0  0  0  0
  6  7  1  0  0  0  0
  6  8  1  0  0  0  0
  7 36  1  0  0  0  0
  8  9  1  0  0  0  0
  8 37  1  0  0  0  0
  8 38  1  0  0  0  0
  9 27  1  0  0  0  0
  9 10  1  0  0  0  0
 10 11  2  0  0  0  0
 10 39  1  0  0  0  0
 11 12  1  0  0  0  0
 12 27  2  0  0  0  0
 12 13  1  0  0  0  0
 13 14  1  0  0  0  0
 13 24  2  0  0  0  0
 14 15  1  0  0  0  0
 14 16  1  0  0  0  0
 15 40  1  0  0  0  0
 15 41  1  0  0  0  0
 15 42  1  0  0  0  0
 16 17  1  0  0  0  0
 16 43  1  0  0  0  0
 16 44  1  0  0  0  0
 17 23  1  0  0  0  0
 17 18  1  0  0  0  0
 17 45  1  0  0  0  0
 18 19  1  0  0  0  0
 18 46  1  0  0  0  0
 18 47  1  0  0  0  0
 19 20  1  0  0  0  0
 19 48  1  0  0  0  0
 19 49  1  0  0  0  0
 20 21  2  0  0  0  0
 20 22  2  0  0  0  0
 20 23  1  0  0  0  0
 23 50  1  0  0  0  0
 23 51  1  0  0  0  0
 24 25  1  0  0  0  0
 25 26  2  0  0  0  0
 25 52  1  0  0  0  0
 26 27  1  0  0  0  0
M  END
> <s_m_source_file>
AV-unprocessed.smi

> <i_m_source_file_index>
266

> <i_lp_mmshare_version>
43012

> <i_f3d_flags>
0

> <s_epik_input>
W0NIMl0xW0NIMl1PW0NAQEhdKFtDSDNdKVtDQEBdMShbT0hdKVtDSDJdbihbY0hdbjIpYyhjMjMpbltjSF1uYzNOKFtDSDNdKVtDSDJdW0NAQEhdKFtDSDJdNClbQ0gyXVtDSDJdUzQoPU8pPU8=

> <s_epik_cmdline>
J2VwaWtfcHl0aG9uJywgJy1waCcsICc3LjAnLCAnLXRuJywgJzgnLCAnLW1hJywgJzIwMCcsICctbWV0YWxfYmluZGluZycsICctaW1hZScsICc8aW5maWxlLm1hZT4nLCAnLW9tYWUnLCAnPG91dGZpbGUubWFlPic=

> <r_lp_tautomer_probability>
1

> <r_epik_Ionization_Penalty>
0.00155497

> <r_epik_Ionization_Penalty_Charging>
0

> <r_epik_Ionization_Penalty_Neutral>
0.00155497

> <r_epik_State_Penalty>
-0

> <r_epik_Charging_Adjusted_Penalty>
0

> <i_epik_Tot_Q>
0

> <i_epik_Tot_abs_Q>
0

> <r_epik_Metal_State_Penalty>
-0

> <b_epik_Metal_Only>
0

> <s_lp_Force_Field>
OPLS_2005

> <r_lp_Energy>
30.3558

> <b_lp_Chiralities_Consistent>
1

> <s_lp_Variant>
AV-unprocessed.smi:266-4

> <Gold.Version>
5.8.1

> <Gold.Id.Protein>
6NUR|6NUR_protein|mol2

> <Gold.PLP.Fitness>
44.6461

> <Gold.PLP.PLP>
-38.2339

> <Gold.PLP.part.hbond>
-3.4571

> <Gold.PLP.part.metal>
0.0000

> <Gold.PLP.part.buried>
2.4990

> <Gold.PLP.part.nonpolar>
-39.9696

> <Gold.PLP.part.repulsive>
3.1671

> <Gold.PLP.ligand.clash>
0.8474

> <Gold.PLP.ligand.torsion>
1.5673

> <Gold.PLP.Chemscore.Hbond>
3.4255

> <Gold.PLP.Chemscore.CHOScore>
0.0000

> <Gold.PLP.Chemscore.Metal>
0.0000

> <Gold.Chemscore.Hbonds>
donor molecule, donor type, donor heavy atom, donor atom, acceptor molecule, acceptor atom, score
      L1  H     7    36       P1  7921  0.85
      P1  H  7954  7966       L1    11  0.62
      P1  H  7997  8008       L1    21  1.00
      P1  H 10752 10764       L1    22  1.00

> <Gold.PLP.Chemscore.Internal.Correction>
0.1175

> <Gold.Rescore>
     Score         DG    S(hbond)    S(metal)    S(lipo)     H(rot)  DE(clash)    DE(int)     intcor
     11.08     -17.77       2.85        0.00      77.07       2.45       2.91       3.77       ----

> <Gold.Chemscore.Fitness>
11.0839

> <Gold.Chemscore.DG>
-17.7654

> <Gold.Chemscore.ZeroCoef>
-5.4800

> <Gold.Chemscore.Hbond>
2.8540

> <Gold.Chemscore.Metal>
0.0000

> <Gold.Chemscore.Lipo>
77.0738

> <Gold.Chemscore.Internal_Hbond>
0.0000

> <Gold.Chemscore.DEClash>
2.9076

> <Gold.Chemscore.DEInternal>
3.7739

> <Gold.Chemscore.Rot>
2.4471

> <Gold.Chemscore.Internal.Correction>
   9.000000E+99

> <Gold.Chemscore.Hbonds>
donor molecule, donor type, donor heavy atom, donor atom, acceptor molecule, acceptor atom, score
      L1  H     7    36       P1  7921  0.83
      P1  H  7954  7966       L1    11  0.16
      P1  H  7997  8008       L1    21  0.95
      P1  H 10752 10764       L1    22  0.70

> <Gold.Chemscore.Hbond.Weighted>
-9.5323

> <Gold.Chemscore.Metal.Weighted>
-0.0000

> <Gold.Chemscore.Lipo.Weighted>
-9.0176

> <Gold.Chemscore.Internal_Hbond.Weighted>
0.0000

> <Gold.Chemscore.DEClash.Weighted>
2.9076

> <Gold.Chemscore.DEInternal.Weighted>
3.7739

> <Gold.Chemscore.Rot.Weighted>
6.2645

> <Gold.Chemscore.Internal.Correction.Weighted>
   9.000000E+99

> <Gold.Protein.RotatedTorsions>
[ 6907 6896 6895 6894 ] final   51.02 input  -60.11 | X-H torsion
[ 7974 7965 7964 7962 ] final  157.64 input  175.53 | X-H torsion
[ 8008 7997 7996 7995 ] final   -7.56 input   59.86 | X-H torsion
[ 10167 10162 10161 10158 ] final  -37.70 input  -65.29 | X-H torsion
[ 10718 10713 10712 10709 ] final   56.27 input   66.30 | X-H torsion
[ 10763 10752 10751 10750 ] final  -32.36 input  -60.55 | X-H torsion
[ 11005 11000 10999 10996 ] final -143.16 input  -57.11 | X-H torsion

> <Gold.Protein.ActiveResidues>
 VAL166  LYS551  ARG553  GLY616  TRP617  ASP618  TYR619  PRO620  LYS621  CYS622 
 ASP623  PHE694  ASN695  SER759  ASP760  ASP761  ALA762  ILE779  LEU786  VAL792 
 PHE793  MET794  SER795  GLU796  ALA797  LYS798  CYS799  TRP800  GLU811  SER814 

> <Gold.Protein.RotatedAtoms>
  152.3082  134.7530  160.0342 H   0  0  0  0  0  0  0  0  0  0  0  0  # atno 6907 bound_to 6896
  151.8020  133.3366  159.3538 H   0  0  0  0  0  0  0  0  0  0  0  0  # atno 6908 bound_to 6896
  150.7307  134.5675  159.5918 H   0  0  0  0  0  0  0  0  0  0  0  0  # atno 6909 bound_to 6896
  144.7892  139.7368  143.6228 H   0  0  0  0  0  0  0  0  0  0  0  0  # atno 7974 bound_to 7965
  154.5827  140.2404  155.8031 H   0  0  0  0  0  0  0  0  0  0  0  0  # atno 8008 bound_to 7997
  156.2190  140.3003  155.9864 H   0  0  0  0  0  0  0  0  0  0  0  0  # atno 8009 bound_to 7997
  155.2513  140.0411  157.2977 H   0  0  0  0  0  0  0  0  0  0  0  0  # atno 8010 bound_to 7997
  140.7111  143.3325  151.2537 H   0  0  0  0  0  0  0  0  0  0  0  0  # atno 10167 bound_to 10162
  157.5416  130.8701  149.8831 H   0  0  0  0  0  0  0  0  0  0  0  0  # atno 10718 bound_to 10713
  153.8125  135.6881  153.4839 H   0  0  0  0  0  0  0  0  0  0  0  0  # atno 10763 bound_to 10752
  153.1619  135.4576  154.9782 H   0  0  0  0  0  0  0  0  0  0  0  0  # atno 10764 bound_to 10752
  154.7961  135.3320  154.7605 H   0  0  0  0  0  0  0  0  0  0  0  0  # atno 10765 bound_to 10752
  140.8153  134.2695  157.4923 H   0  0  0  0  0  0  0  0  0  0  0  0  # atno 11005 bound_to 11000
  146.2136  139.5510  142.9664 LP  0  0  0  0  0  0  0  0  0  0  0  0  # atno 17320 bound_to 7965
  145.5841  141.0378  143.2106 LP  0  0  0  0  0  0  0  0  0  0  0  0  # atno 17321 bound_to 7965
  139.6811  143.9853  152.2809 LP  0  0  0  0  0  0  0  0  0  0  0  0  # atno 17342 bound_to 10162
  139.9484  144.6637  150.8197 LP  0  0  0  0  0  0  0  0  0  0  0  0  # atno 17343 bound_to 10162
  156.0501  130.3719  150.1221 LP  0  0  0  0  0  0  0  0  0  0  0  0  # atno 17370 bound_to 10713
  156.9400  130.9741  151.3518 LP  0  0  0  0  0  0  0  0  0  0  0  0  # atno 17371 bound_to 10713
  139.8711  134.9506  156.4059 LP  0  0  0  0  0  0  0  0  0  0  0  0  # atno 17394 bound_to 11000
  140.9155  133.7681  155.9843 LP  0  0  0  0  0  0  0  0  0  0  0  0  # atno 17395 bound_to 11000

$$$$
