AV-unprocessed.smi:2976|AV-procd|sdf|11364|dock3
  -GOLD-   2272016283D 1   1.00000     0.00000
 Structure written by MMmdl.
 40 41  0  0  0  0  0  0  0  0  1 V2000
  151.9851  144.9523  160.6805 C   0  0  0  0  0  0  0  0  0  0  0  0
  152.5880  143.6819  160.0521 C   0  0  1  0  0  0  0  0  0  0  0  0
  152.7745  142.6083  161.1431 C   0  0  0  0  0  0  0  0  0  0  0  0
  153.3988  141.3253  160.5838 C   0  0  0  0  0  0  0  0  0  0  0  0
  152.5481  140.7665  159.4394 C   0  0  0  0  0  0  0  0  0  0  0  0
  152.3584  141.8073  158.3217 C   0  0  1  0  0  0  0  0  0  0  0  0
  151.5028  141.2246  157.2876 N   0  0  0  0  0  0  0  0  0  0  0  0
  151.8187  140.1923  156.4899 C   0  0  0  0  0  0  0  0  0  0  0  0
  152.8999  139.6038  156.5390 O   0  0  0  0  0  0  0  0  0  0  0  0
  150.7378  139.7827  155.4777 C   0  0  0  0  0  0  0  0  0  0  0  0
  149.4483  140.4605  155.6800 N   0  0  0  0  0  0  0  0  0  0  0  0
  148.9735  140.3888  156.9781 N   0  0  0  0  0  0  0  0  0  0  0  0
  147.8602  140.9632  157.2792 C   0  0  0  0  0  0  0  0  0  0  0  0
  147.0767  141.6854  156.3015 C   0  0  0  0  0  0  0  0  0  0  0  0
  145.5909  142.4369  156.7652 Cl  0  0  0  0  0  0  0  0  0  0  0  0
  147.5475  141.7440  155.0302 C   0  0  0  0  0  0  0  0  0  0  0  0
  146.6643  142.5877  153.8043 Cl  0  0  0  0  0  0  0  0  0  0  0  0
  148.8129  141.1008  154.6503 C   0  0  0  0  0  0  0  0  0  0  0  0
  149.2734  141.1309  153.5083 O   0  0  0  0  0  0  0  0  0  0  0  0
  151.7530  143.1332  158.8595 C   0  0  2  0  0  0  0  0  0  0  0  0
  151.6076  144.1762  157.7292 C   0  0  0  0  0  0  0  0  0  0  0  0
  150.9533  144.7886  160.9928 H   0  0  0  0  0  0  0  0  0  0  0  0
  151.9992  145.7953  159.9905 H   0  0  0  0  0  0  0  0  0  0  0  0
  152.5514  145.2597  161.5602 H   0  0  0  0  0  0  0  0  0  0  0  0
  153.5789  143.9428  159.6770 H   0  0  0  0  0  0  0  0  0  0  0  0
  153.4083  142.9955  161.9420 H   0  0  0  0  0  0  0  0  0  0  0  0
  151.8117  142.3751  161.6002 H   0  0  0  0  0  0  0  0  0  0  0  0
  154.4092  141.5302  160.2275 H   0  0  0  0  0  0  0  0  0  0  0  0
  153.4926  140.5813  161.3753 H   0  0  0  0  0  0  0  0  0  0  0  0
  153.0203  139.8686  159.0385 H   0  0  0  0  0  0  0  0  0  0  0  0
  151.5766  140.4575  159.8282 H   0  0  0  0  0  0  0  0  0  0  0  0
  153.3440  142.0332  157.9101 H   0  0  0  0  0  0  0  0  0  0  0  0
  150.5929  141.6458  157.1689 H   0  0  0  0  0  0  0  0  0  0  0  0
  151.1090  139.9687  154.4682 H   0  0  0  0  0  0  0  0  0  0  0  0
  150.6033  138.7013  155.5426 H   0  0  0  0  0  0  0  0  0  0  0  0
  147.4490  140.9350  158.2884 H   0  0  0  0  0  0  0  0  0  0  0  0
  150.7508  142.9128  159.2313 H   0  0  0  0  0  0  0  0  0  0  0  0
  152.5815  144.4736  157.3395 H   0  0  0  0  0  0  0  0  0  0  0  0
  151.0936  145.0744  158.0685 H   0  0  0  0  0  0  0  0  0  0  0  0
  151.0228  143.7918  156.8938 H   0  0  0  0  0  0  0  0  0  0  0  0
  1  2  1  0  0  0  0
  1 22  1  0  0  0  0
  1 23  1  0  0  0  0
  1 24  1  0  0  0  0
  2 20  1  0  0  0  0
  2  3  1  0  0  0  0
  2 25  1  0  0  0  0
  3  4  1  0  0  0  0
  3 26  1  0  0  0  0
  3 27  1  0  0  0  0
  4  5  1  0  0  0  0
  4 28  1  0  0  0  0
  4 29  1  0  0  0  0
  5  6  1  0  0  0  0
  5 30  1  0  0  0  0
  5 31  1  0  0  0  0
  6  7  1  0  0  0  0
  6 20  1  0  0  0  0
  6 32  1  0  0  0  0
  7  8  1  0  0  0  0
  7 33  1  0  0  0  0
  8  9  2  0  0  0  0
  8 10  1  0  0  0  0
 10 11  1  0  0  0  0
 10 34  1  0  0  0  0
 10 35  1  0  0  0  0
 11 18  1  0  0  0  0
 11 12  1  0  0  0  0
 12 13  2  0  0  0  0
 13 14  1  0  0  0  0
 13 36  1  0  0  0  0
 14 15  1  0  0  0  0
 14 16  2  0  0  0  0
 16 17  1  0  0  0  0
 16 18  1  0  0  0  0
 18 19  2  0  0  0  0
 20 21  1  0  0  0  0
 20 37  1  0  0  0  0
 21 38  1  0  0  0  0
 21 39  1  0  0  0  0
 21 40  1  0  0  0  0
M  END
> <s_m_source_file>
AV-unprocessed.smi

> <i_m_source_file_index>
2976

> <i_lp_mmshare_version>
43012

> <i_f3d_flags>
0

> <s_epik_input>
W0NIM11bQ0BASF0xW0NIMl1bQ0gyXVtDSDJdW0NASF0oW0NASF0xW0NIM10pW05IXUMoPU8pW0NIMl1uMm5bY0hdYyhDbCljKENsKWMyPU8=

> <s_epik_cmdline>
J2VwaWtfcHl0aG9uJywgJy1waCcsICc3LjAnLCAnLXRuJywgJzgnLCAnLW1hJywgJzIwMCcsICctbWV0YWxfYmluZGluZycsICctaW1hZScsICc8aW5maWxlLm1hZT4nLCAnLW9tYWUnLCAnPG91dGZpbGUubWFlPic=

> <r_lp_tautomer_probability>
1

> <r_epik_Ionization_Penalty>
1.90777e-08

> <r_epik_Ionization_Penalty_Charging>
3.07942e-11

> <r_epik_Ionization_Penalty_Neutral>
1.90469e-08

> <r_epik_State_Penalty>
-0

> <r_epik_Charging_Adjusted_Penalty>
3.07942e-11

> <i_epik_Tot_Q>
0

> <i_epik_Tot_abs_Q>
0

> <r_epik_Metal_State_Penalty>
-0

> <b_epik_Metal_Only>
0

> <s_lp_Force_Field>
OPLS_2005

> <r_lp_Energy>
26.9637

> <b_lp_Chiralities_Consistent>
1

> <s_lp_Variant>
AV-unprocessed.smi:2976-6

> <Gold.Version>
5.8.1

> <Gold.Id.Protein>
6NUR|6NUR_protein|mol2

> <Gold.PLP.Fitness>
48.8618

> <Gold.PLP.PLP>
-43.1130

> <Gold.PLP.part.hbond>
-3.0000

> <Gold.PLP.part.metal>
0.0000

> <Gold.PLP.part.buried>
-7.2220

> <Gold.PLP.part.nonpolar>
-36.6881

> <Gold.PLP.part.repulsive>
3.5522

> <Gold.PLP.ligand.clash>
0.0000

> <Gold.PLP.ligand.torsion>
0.2110

> <Gold.PLP.Chemscore.Hbond>
2.0546

> <Gold.PLP.Chemscore.CHOScore>
0.0000

> <Gold.PLP.Chemscore.Metal>
0.0000

> <Gold.Chemscore.Hbonds>
donor molecule, donor type, donor heavy atom, donor atom, acceptor molecule, acceptor atom, score
      P1  H  7989  7998       L1    19  0.05
      P1  H  7997  8009       L1     9  1.00
      P1  H  8011  8017       L1    19  1.00

> <Gold.PLP.Chemscore.Internal.Correction>
0.0070

> <Gold.Rescore>
     Score         DG    S(hbond)    S(metal)    S(lipo)     H(rot)  DE(clash)    DE(int)     intcor
     17.24     -20.49       1.90        0.00     106.69       1.49       1.23       2.02       ----

> <Gold.Chemscore.Fitness>
17.2354

> <Gold.Chemscore.DG>
-20.4875

> <Gold.Chemscore.ZeroCoef>
-5.4800

> <Gold.Chemscore.Hbond>
1.8954

> <Gold.Chemscore.Metal>
0.0000

> <Gold.Chemscore.Lipo>
106.6892

> <Gold.Chemscore.Internal_Hbond>
0.0000

> <Gold.Chemscore.DEClash>
1.2306

> <Gold.Chemscore.DEInternal>
2.0214

> <Gold.Chemscore.Rot>
1.4866

> <Gold.Chemscore.Internal.Correction>
   9.000000E+99

> <Gold.Chemscore.Hbonds>
donor molecule, donor type, donor heavy atom, donor atom, acceptor molecule, acceptor atom, score
      P1  H  7989  7998       L1    19  0.05
      P1  H  7997  8009       L1     9  0.95
      P1  H  8011  8017       L1    19  0.96

> <Gold.Chemscore.Hbond.Weighted>
-6.3305

> <Gold.Chemscore.Metal.Weighted>
-0.0000

> <Gold.Chemscore.Lipo.Weighted>
-12.4826

> <Gold.Chemscore.Internal_Hbond.Weighted>
0.0000

> <Gold.Chemscore.DEClash.Weighted>
1.2306

> <Gold.Chemscore.DEInternal.Weighted>
2.0214

> <Gold.Chemscore.Rot.Weighted>
3.8057

> <Gold.Chemscore.Internal.Correction.Weighted>
   9.000000E+99

> <Gold.Protein.RotatedTorsions>
[ 6907 6896 6895 6894 ] final  -10.53 input  -60.11 | X-H torsion
[ 7974 7965 7964 7962 ] final -119.79 input  175.53 | X-H torsion
[ 8008 7997 7996 7995 ] final -152.06 input   59.86 | X-H torsion
[ 10167 10162 10161 10158 ] final  -50.65 input  -65.29 | X-H torsion
[ 10718 10713 10712 10709 ] final  178.30 input   66.30 | X-H torsion
[ 10763 10752 10751 10750 ] final  -62.52 input  -60.55 | X-H torsion
[ 11005 11000 10999 10996 ] final   38.92 input  -57.11 | X-H torsion

> <Gold.Protein.ActiveResidues>
 VAL166  LYS551  ARG553  GLY616  TRP617  ASP618  TYR619  PRO620  LYS621  CYS622 
 ASP623  PHE694  ASN695  SER759  ASP760  ASP761  ALA762  ILE779  LEU786  VAL792 
 PHE793  MET794  SER795  GLU796  ALA797  LYS798  CYS799  TRP800  GLU811  SER814 

> <Gold.Protein.RotatedAtoms>
  151.4005  135.0970  159.9553 H   0  0  0  0  0  0  0  0  0  0  0  0  # atno 6907 bound_to 6896
  152.5052  133.8893  159.7396 H   0  0  0  0  0  0  0  0  0  0  0  0  # atno 6908 bound_to 6896
  150.9366  133.6648  159.2828 H   0  0  0  0  0  0  0  0  0  0  0  0  # atno 6909 bound_to 6896
  145.0586  140.8273  143.4166 H   0  0  0  0  0  0  0  0  0  0  0  0  # atno 7974 bound_to 7965
  155.6492  140.0710  157.2592 H   0  0  0  0  0  0  0  0  0  0  0  0  # atno 8008 bound_to 7997
  154.4166  140.1736  156.1706 H   0  0  0  0  0  0  0  0  0  0  0  0  # atno 8009 bound_to 7997
  155.9791  140.3355  155.6649 H   0  0  0  0  0  0  0  0  0  0  0  0  # atno 8010 bound_to 7997
  140.6627  143.2649  151.4390 H   0  0  0  0  0  0  0  0  0  0  0  0  # atno 10167 bound_to 10162
  156.8926  130.9852  151.3047 H   0  0  0  0  0  0  0  0  0  0  0  0  # atno 10718 bound_to 10713
  154.3011  135.6234  153.5425 H   0  0  0  0  0  0  0  0  0  0  0  0  # atno 10763 bound_to 10752
  152.9840  135.5679  154.5282 H   0  0  0  0  0  0  0  0  0  0  0  0  # atno 10764 bound_to 10752
  154.4913  135.2867  155.1470 H   0  0  0  0  0  0  0  0  0  0  0  0  # atno 10765 bound_to 10752
  140.2079  134.3791  155.8063 H   0  0  0  0  0  0  0  0  0  0  0  0  # atno 11005 bound_to 11000
  145.1437  139.2556  143.5477 LP  0  0  0  0  0  0  0  0  0  0  0  0  # atno 17320 bound_to 7965
  146.3523  140.1121  142.8603 LP  0  0  0  0  0  0  0  0  0  0  0  0  # atno 17321 bound_to 7965
  139.5866  144.1591  152.2036 LP  0  0  0  0  0  0  0  0  0  0  0  0  # atno 17342 bound_to 10162
  140.0933  144.5602  150.7039 LP  0  0  0  0  0  0  0  0  0  0  0  0  # atno 17343 bound_to 10162
  157.6075  130.8558  149.8898 LP  0  0  0  0  0  0  0  0  0  0  0  0  # atno 17370 bound_to 10713
  156.0621  130.3698  150.0958 LP  0  0  0  0  0  0  0  0  0  0  0  0  # atno 17371 bound_to 10713
  141.2227  133.7127  156.8367 LP  0  0  0  0  0  0  0  0  0  0  0  0  # atno 17394 bound_to 11000
  140.1983  134.8915  157.3140 LP  0  0  0  0  0  0  0  0  0  0  0  0  # atno 17395 bound_to 11000

$$$$
