AV-unprocessed.smi:1565|AV-procd|sdf|6299|dock7
  -GOLD-   22720 6503D 1   1.00000     0.00000
 Structure written by MMmdl.
 40 41  0  0  0  0  0  0  0  0  1 V2000
  152.3448  144.9632  158.9505 C   0  0  0  0  0  0  0  0  0  0  0  0
  152.0566  143.6145  158.2828 C   0  0  1  0  0  0  0  0  0  0  0  0
  152.4142  142.4325  159.2015 C   0  0  0  0  0  0  0  0  0  0  0  0
  152.0076  141.1722  158.5887 N   0  0  0  0  0  0  0  0  0  0  0  0
  152.5639  140.0076  159.1597 C   0  0  0  0  0  0  0  0  0  0  0  0
  153.4864  140.1112  160.2272 C   0  0  0  0  0  0  0  0  0  0  0  0
  154.0258  138.9369  160.7862 C   0  0  0  0  0  0  0  0  0  0  0  0
  153.6286  137.6848  160.2724 C   0  0  0  0  0  0  0  0  0  0  0  0
  154.1998  136.4131  160.8300 C   0  0  0  0  0  0  0  0  0  0  0  0
  154.2292  135.3856  160.1525 O   0  0  0  0  0  0  0  0  0  0  0  0
  154.7156  136.5008  162.0665 N   0  0  0  0  0  0  0  0  0  0  0  0
  155.3695  135.4107  162.7831 C   0  0  0  0  0  0  0  0  0  0  0  0
  155.1435  135.5023  164.3017 C   0  0  0  0  0  0  0  0  0  0  0  0
  153.8649  135.7945  164.5360 F   0  0  0  0  0  0  0  0  0  0  0  0
  155.4307  134.3451  164.8973 F   0  0  0  0  0  0  0  0  0  0  0  0
  155.9037  136.4653  164.8233 F   0  0  0  0  0  0  0  0  0  0  0  0
  152.7170  137.6815  159.1932 C   0  0  0  0  0  0  0  0  0  0  0  0
  152.1977  138.8043  158.6538 N   0  0  0  0  0  0  0  0  0  0  0  0
  150.5965  141.1461  158.2101 C   0  0  0  0  0  0  0  0  0  0  0  0
  150.2369  142.3602  157.3317 C   0  0  2  0  0  0  0  0  0  0  0  0
  150.7501  142.2433  155.8851 C   0  0  0  0  0  0  0  0  0  0  0  0
  150.6668  143.5691  157.9616 O   0  0  0  0  0  0  0  0  0  0  0  0
  153.4000  145.0556  159.2089 H   0  0  0  0  0  0  0  0  0  0  0  0
  151.7637  145.0827  159.8655 H   0  0  0  0  0  0  0  0  0  0  0  0
  152.0921  145.7889  158.2849 H   0  0  0  0  0  0  0  0  0  0  0  0
  152.6478  143.5591  157.3685 H   0  0  0  0  0  0  0  0  0  0  0  0
  153.4828  142.4542  159.4110 H   0  0  0  0  0  0  0  0  0  0  0  0
  151.9029  142.5336  160.1598 H   0  0  0  0  0  0  0  0  0  0  0  0
  153.7958  141.0718  160.6114 H   0  0  0  0  0  0  0  0  0  0  0  0
  154.7335  139.0057  161.5997 H   0  0  0  0  0  0  0  0  0  0  0  0
  154.6704  137.3923  162.5381 H   0  0  0  0  0  0  0  0  0  0  0  0
  154.9599  134.4722  162.4080 H   0  0  0  0  0  0  0  0  0  0  0  0
  156.4372  135.3893  162.5581 H   0  0  0  0  0  0  0  0  0  0  0  0
  152.3910  136.7568  158.7398 H   0  0  0  0  0  0  0  0  0  0  0  0
  150.3584  140.2247  157.6766 H   0  0  0  0  0  0  0  0  0  0  0  0
  149.9905  141.1589  159.1173 H   0  0  0  0  0  0  0  0  0  0  0  0
  149.1496  142.4171  157.2754 H   0  0  0  0  0  0  0  0  0  0  0  0
  150.2988  141.3867  155.3843 H   0  0  0  0  0  0  0  0  0  0  0  0
  151.8306  142.1109  155.8385 H   0  0  0  0  0  0  0  0  0  0  0  0
  150.4957  143.1332  155.3093 H   0  0  0  0  0  0  0  0  0  0  0  0
  1  2  1  0  0  0  0
  1 23  1  0  0  0  0
  1 24  1  0  0  0  0
  1 25  1  0  0  0  0
  2 22  1  0  0  0  0
  2  3  1  0  0  0  0
  2 26  1  0  0  0  0
  3  4  1  0  0  0  0
  3 27  1  0  0  0  0
  3 28  1  0  0  0  0
  4  5  1  0  0  0  0
  4 19  1  0  0  0  0
  5 18  1  0  0  0  0
  5  6  2  0  0  0  0
  6  7  1  0  0  0  0
  6 29  1  0  0  0  0
  7  8  2  0  0  0  0
  7 30  1  0  0  0  0
  8  9  1  0  0  0  0
  8 17  1  0  0  0  0
  9 10  2  0  0  0  0
  9 11  1  0  0  0  0
 11 12  1  0  0  0  0
 11 31  1  0  0  0  0
 12 13  1  0  0  0  0
 12 32  1  0  0  0  0
 12 33  1  0  0  0  0
 13 14  1  0  0  0  0
 13 15  1  0  0  0  0
 13 16  1  0  0  0  0
 17 18  2  0  0  0  0
 17 34  1  0  0  0  0
 19 20  1  0  0  0  0
 19 35  1  0  0  0  0
 19 36  1  0  0  0  0
 20 21  1  0  0  0  0
 20 22  1  0  0  0  0
 20 37  1  0  0  0  0
 21 38  1  0  0  0  0
 21 39  1  0  0  0  0
 21 40  1  0  0  0  0
M  END
> <s_m_source_file>
AV-unprocessed.smi

> <i_m_source_file_index>
1565

> <i_lp_mmshare_version>
43012

> <i_f3d_flags>
0

> <s_epik_input>
W0NIM11bQ0BASF0xW0NIMl1OKFtDSDJdW0NASF0oTzEpW0NIM10pYzJbY0hdW2NIXWMoW2NIXW4yKUMoPU8pW05IXVtDSDJdQyhGKShGKUY=

> <s_epik_cmdline>
J2VwaWtfcHl0aG9uJywgJy1waCcsICc3LjAnLCAnLXRuJywgJzgnLCAnLW1hJywgJzIwMCcsICctbWV0YWxfYmluZGluZycsICctaW1hZScsICc8aW5maWxlLm1hZT4nLCAnLW9tYWUnLCAnPG91dGZpbGUubWFlPic=

> <r_lp_tautomer_probability>
1

> <r_epik_Ionization_Penalty>
1.48031e-05

> <r_epik_Ionization_Penalty_Charging>
0

> <r_epik_Ionization_Penalty_Neutral>
1.48031e-05

> <r_epik_State_Penalty>
-0

> <r_epik_Charging_Adjusted_Penalty>
0

> <i_epik_Tot_Q>
0

> <i_epik_Tot_abs_Q>
0

> <r_epik_Metal_State_Penalty>
0.00620302

> <b_epik_Metal_Only>
0

> <s_lp_Force_Field>
OPLS_2005

> <r_lp_Energy>
19.4369

> <b_lp_Chiralities_Consistent>
1

> <s_lp_Variant>
AV-unprocessed.smi:1565-3

> <Gold.Version>
5.8.1

> <Gold.Id.Protein>
6NUR|6NUR_protein|mol2

> <Gold.PLP.Fitness>
36.8408

> <Gold.PLP.PLP>
-35.2424

> <Gold.PLP.part.hbond>
-1.0000

> <Gold.PLP.part.metal>
0.0000

> <Gold.PLP.part.buried>
-4.0141

> <Gold.PLP.part.nonpolar>
-29.9065

> <Gold.PLP.part.repulsive>
0.1909

> <Gold.PLP.ligand.clash>
0.0000

> <Gold.PLP.ligand.torsion>
0.8695

> <Gold.PLP.Chemscore.Hbond>
1.0000

> <Gold.PLP.Chemscore.CHOScore>
0.0000

> <Gold.PLP.Chemscore.Metal>
0.0000

> <Gold.Chemscore.Hbonds>
donor molecule, donor type, donor heavy atom, donor atom, acceptor molecule, acceptor atom, score
      P1  H  6896  6908       L1    10  1.00

> <Gold.PLP.Chemscore.Internal.Correction>
0.3375

> <Gold.Rescore>
     Score         DG    S(hbond)    S(metal)    S(lipo)     H(rot)  DE(clash)    DE(int)     intcor
     15.57     -16.15       0.99        0.00      91.36       1.31       0.02       0.56       ----

> <Gold.Chemscore.Fitness>
15.5714

> <Gold.Chemscore.DG>
-16.1493

> <Gold.Chemscore.ZeroCoef>
-5.4800

> <Gold.Chemscore.Hbond>
0.9945

> <Gold.Chemscore.Metal>
0.0000

> <Gold.Chemscore.Lipo>
91.3594

> <Gold.Chemscore.Internal_Hbond>
0.0000

> <Gold.Chemscore.DEClash>
0.0155

> <Gold.Chemscore.DEInternal>
0.5623

> <Gold.Chemscore.Rot>
1.3052

> <Gold.Chemscore.Internal.Correction>
   9.000000E+99

> <Gold.Chemscore.Hbonds>
donor molecule, donor type, donor heavy atom, donor atom, acceptor molecule, acceptor atom, score
      P1  H  6896  6908       L1    10  0.82

> <Gold.Chemscore.Hbond.Weighted>
-3.3217

> <Gold.Chemscore.Metal.Weighted>
-0.0000

> <Gold.Chemscore.Lipo.Weighted>
-10.6891

> <Gold.Chemscore.Internal_Hbond.Weighted>
0.0000

> <Gold.Chemscore.DEClash.Weighted>
0.0155

> <Gold.Chemscore.DEInternal.Weighted>
0.5623

> <Gold.Chemscore.Rot.Weighted>
3.3414

> <Gold.Chemscore.Internal.Correction.Weighted>
   9.000000E+99

> <Gold.Protein.RotatedTorsions>
[ 6907 6896 6895 6894 ] final  -54.84 input  -60.11 | X-H torsion
[ 7974 7965 7964 7962 ] final  -36.65 input  175.53 | X-H torsion
[ 8008 7997 7996 7995 ] final  -34.79 input   59.86 | X-H torsion
[ 10167 10162 10161 10158 ] final -144.58 input  -65.29 | X-H torsion
[ 10718 10713 10712 10709 ] final   25.84 input   66.30 | X-H torsion
[ 10763 10752 10751 10750 ] final -141.01 input  -60.55 | X-H torsion
[ 11005 11000 10999 10996 ] final -151.95 input  -57.11 | X-H torsion

> <Gold.Protein.ActiveResidues>
 VAL166  LYS551  ARG553  GLY616  TRP617  ASP618  TYR619  PRO620  LYS621  CYS622 
 ASP623  PHE694  ASN695  SER759  ASP760  ASP761  ALA762  ILE779  LEU786  VAL792 
 PHE793  MET794  SER795  GLU796  ALA797  LYS798  CYS799  TRP800  GLU811  SER814 

> <Gold.Protein.RotatedAtoms>
  150.8303  134.7553  159.6847 H   0  0  0  0  0  0  0  0  0  0  0  0  # atno 6907 bound_to 6896
  152.4408  134.5591  159.9898 H   0  0  0  0  0  0  0  0  0  0  0  0  # atno 6908 bound_to 6896
  151.5753  133.3347  159.3033 H   0  0  0  0  0  0  0  0  0  0  0  0  # atno 6909 bound_to 6896
  146.0643  140.6303  142.8982 H   0  0  0  0  0  0  0  0  0  0  0  0  # atno 7974 bound_to 7965
  154.4112  140.1674  156.2106 H   0  0  0  0  0  0  0  0  0  0  0  0  # atno 8008 bound_to 7997
  155.9447  140.3405  155.6333 H   0  0  0  0  0  0  0  0  0  0  0  0  # atno 8009 bound_to 7997
  155.6945  140.0737  157.2425 H   0  0  0  0  0  0  0  0  0  0  0  0  # atno 8010 bound_to 7997
  139.7886  143.7999  152.2647 H   0  0  0  0  0  0  0  0  0  0  0  0  # atno 10167 bound_to 10162
  157.1988  130.6880  149.6180 H   0  0  0  0  0  0  0  0  0  0  0  0  # atno 10718 bound_to 10713
  154.8559  135.3536  154.5800 H   0  0  0  0  0  0  0  0  0  0  0  0  # atno 10763 bound_to 10752
  153.6411  135.6998  153.5246 H   0  0  0  0  0  0  0  0  0  0  0  0  # atno 10764 bound_to 10752
  153.2971  135.4217  155.1178 H   0  0  0  0  0  0  0  0  0  0  0  0  # atno 10765 bound_to 10752
  140.7241  134.3694  157.5178 H   0  0  0  0  0  0  0  0  0  0  0  0  # atno 11005 bound_to 11000
  144.7193  140.4319  143.7020 LP  0  0  0  0  0  0  0  0  0  0  0  0  # atno 17320 bound_to 7965
  145.6504  139.1564  143.2865 LP  0  0  0  0  0  0  0  0  0  0  0  0  # atno 17321 bound_to 7965
  139.8083  144.7346  150.9731 LP  0  0  0  0  0  0  0  0  0  0  0  0  # atno 17342 bound_to 10162
  140.7820  143.4276  151.0744 LP  0  0  0  0  0  0  0  0  0  0  0  0  # atno 17343 bound_to 10162
  155.9703  130.4590  150.6019 LP  0  0  0  0  0  0  0  0  0  0  0  0  # atno 17370 bound_to 10713
  157.3788  131.0777  151.1495 LP  0  0  0  0  0  0  0  0  0  0  0  0  # atno 17371 bound_to 10713
  139.8841  134.8974  156.2723 LP  0  0  0  0  0  0  0  0  0  0  0  0  # atno 17394 bound_to 11000
  140.9978  133.7169  156.0913 LP  0  0  0  0  0  0  0  0  0  0  0  0  # atno 17395 bound_to 11000

$$$$
