AV-unprocessed.smi:2721|AV-procd|sdf|10501|dock2
  -GOLD-   2272014543D 1   1.00000     0.00000
 Structure written by MMmdl.
 29 30  0  0  0  0  0  0  0  0  2 V2000
  148.0563  140.6753  157.4381 C   0  0  0  0  0  0  0  0  0  0  0  0
  149.4032  140.9950  157.8599 N   0  0  0  0  0  0  0  0  0  0  0  0
  150.0350  142.2189  157.8683 C   0  0  0  0  0  0  0  0  0  0  0  0
  151.3034  142.0309  158.3493 C   0  0  0  0  0  0  0  0  0  0  0  0
  152.4454  143.0073  158.5606 C   0  0  2  0  0  0  0  0  0  0  0  0
  152.8996  143.0605  159.9153 O   0  0  0  0  0  0  0  0  0  0  0  0
  152.0515  143.7427  160.8375 C   0  0  0  0  0  0  0  0  0  0  0  0
  151.8259  145.1955  160.3922 C   0  0  0  0  0  0  0  0  0  0  0  0
  151.2706  145.2479  158.9656 C   0  0  0  0  0  0  0  0  0  0  0  0
  152.1816  144.4396  158.0305 C   0  0  2  0  0  0  0  0  0  0  0  0
  151.6704  144.4319  156.6469 N   0  3  0  0  0  0  0  0  0  0  0  0
  151.3402  140.6297  158.6075 C   0  0  0  0  0  0  0  0  0  0  0  0
  150.2081  140.0141  158.3123 N   0  0  0  0  0  0  0  0  0  0  0  0
  153.3052  142.6312  158.0045 H   0  0  0  0  0  0  0  0  0  0  0  0
  153.1421  144.9559  157.9989 H   0  0  0  0  0  0  0  0  0  0  0  0
  147.5244  141.5860  157.1613 H   0  0  0  0  0  0  0  0  0  0  0  0
  147.5199  140.1856  158.2517 H   0  0  0  0  0  0  0  0  0  0  0  0
  148.0887  140.0075  156.5769 H   0  0  0  0  0  0  0  0  0  0  0  0
  149.5260  143.1093  157.5314 H   0  0  0  0  0  0  0  0  0  0  0  0
  151.1048  143.2184  160.9556 H   0  0  0  0  0  0  0  0  0  0  0  0
  152.5296  143.7288  161.8171 H   0  0  0  0  0  0  0  0  0  0  0  0
  151.1463  145.6996  161.0800 H   0  0  0  0  0  0  0  0  0  0  0  0
  152.7715  145.7376  160.4352 H   0  0  0  0  0  0  0  0  0  0  0  0
  150.2526  144.8607  158.9467 H   0  0  0  0  0  0  0  0  0  0  0  0
  151.2090  146.2844  158.6320 H   0  0  0  0  0  0  0  0  0  0  0  0
  152.1546  145.1335  156.1050 H   0  0  0  0  0  0  0  0  0  0  0  0
  150.6815  144.6371  156.6520 H   0  0  0  0  0  0  0  0  0  0  0  0
  152.1594  140.0423  158.9955 H   0  0  0  0  0  0  0  0  0  0  0  0
  151.8228  143.5224  156.2348 H   0  0  0  0  0  0  0  0  0  0  0  0
  1  2  1  0  0  0  0
  1 16  1  0  0  0  0
  1 17  1  0  0  0  0
  1 18  1  0  0  0  0
  2 13  1  0  0  0  0
  2  3  1  0  0  0  0
  3  4  2  0  0  0  0
  3 19  1  0  0  0  0
  4  5  1  0  0  0  0
  4 12  1  0  0  0  0
  5 14  1  0  0  0  0
  5 10  1  0  0  0  0
  5  6  1  0  0  0  0
  6  7  1  0  0  0  0
  7  8  1  0  0  0  0
  7 20  1  0  0  0  0
  7 21  1  0  0  0  0
  8  9  1  0  0  0  0
  8 22  1  0  0  0  0
  8 23  1  0  0  0  0
  9 10  1  0  0  0  0
  9 24  1  0  0  0  0
  9 25  1  0  0  0  0
 10 15  1  0  0  0  0
 10 11  1  0  0  0  0
 11 26  1  0  0  0  0
 11 27  1  0  0  0  0
 11 29  1  0  0  0  0
 12 13  2  0  0  0  0
 12 28  1  0  0  0  0
M  CHG  1  11   1
M  END
> <s_m_source_file>
AV-unprocessed.smi

> <i_m_source_file_index>
2721

> <i_lp_mmshare_version>
43012

> <i_f3d_flags>
0

> <s_epik_input>
W0NIM11uMVtjSF1jKFtjSF1uMSlbQ0BIXTJPW0NIMl1bQ0gyXVtDSDJdW0NAQEhdMltOSDJd

> <s_epik_cmdline>
J2VwaWtfcHl0aG9uJywgJy1waCcsICc3LjAnLCAnLXRuJywgJzgnLCAnLW1hJywgJzIwMCcsICctbWV0YWxfYmluZGluZycsICctaW1hZScsICc8aW5maWxlLm1hZT4nLCAnLW9tYWUnLCAnPG91dGZpbGUubWFlPic=

> <r_lp_tautomer_probability>
1

> <r_epik_Ionization_Penalty>
0.0061467

> <r_epik_Ionization_Penalty_Charging>
0.00611941

> <r_epik_Ionization_Penalty_Neutral>
2.72888e-05

> <r_epik_State_Penalty>
0.00451057

> <r_epik_Charging_Adjusted_Penalty>
0.01063

> <i_epik_Tot_Q>
1

> <i_epik_Tot_abs_Q>
1

> <r_epik_Metal_State_Penalty>
-0

> <b_epik_Metal_Only>
0

> <s_lp_Force_Field>
OPLS_2005

> <r_lp_Energy>
14.6487

> <b_lp_Chiralities_Consistent>
1

> <s_lp_Variant>
AV-unprocessed.smi:2721-2

> <Gold.Version>
5.8.1

> <Gold.Id.Protein>
6NUR|6NUR_protein|mol2

> <Gold.PLP.Fitness>
37.3145

> <Gold.PLP.PLP>
-28.3437

> <Gold.PLP.part.hbond>
-1.0000

> <Gold.PLP.part.metal>
0.0000

> <Gold.PLP.part.buried>
-3.0175

> <Gold.PLP.part.nonpolar>
-23.8283

> <Gold.PLP.part.repulsive>
0.0636

> <Gold.PLP.ligand.clash>
0.0000

> <Gold.PLP.ligand.torsion>
0.0450

> <Gold.PLP.Chemscore.Hbond>
2.0000

> <Gold.PLP.Chemscore.CHOScore>
1.0000

> <Gold.PLP.Chemscore.Metal>
0.0000

> <Gold.Chemscore.Hbonds>
donor molecule, donor type, donor heavy atom, donor atom, acceptor molecule, acceptor atom, score
      L1  H    11    27       P1  8028  1.98
      L1  C     3    19       P1  8028  0.98

> <Gold.PLP.Chemscore.Internal.Correction>
0.0607

> <Gold.Rescore>
     Score         DG    S(hbond)    S(metal)    S(lipo)     H(rot)  DE(clash)    DE(int)     intcor
     14.97     -15.33       0.99        0.00      77.88       1.00       0.01       0.34       ----

> <Gold.Chemscore.Fitness>
14.9721

> <Gold.Chemscore.DG>
-15.3253

> <Gold.Chemscore.ZeroCoef>
-5.4800

> <Gold.Chemscore.Hbond>
0.9859

> <Gold.Chemscore.Metal>
0.0000

> <Gold.Chemscore.Lipo>
77.8849

> <Gold.Chemscore.Internal_Hbond>
0.0000

> <Gold.Chemscore.DEClash>
0.0104

> <Gold.Chemscore.DEInternal>
0.3428

> <Gold.Chemscore.Rot>
1.0000

> <Gold.Chemscore.Internal.Correction>
   9.000000E+99

> <Gold.Chemscore.Hbonds>
donor molecule, donor type, donor heavy atom, donor atom, acceptor molecule, acceptor atom, score
      L1  H    11    27       P1  8028  0.84

> <Gold.Chemscore.Hbond.Weighted>
-3.2927

> <Gold.Chemscore.Metal.Weighted>
-0.0000

> <Gold.Chemscore.Lipo.Weighted>
-9.1125

> <Gold.Chemscore.Internal_Hbond.Weighted>
0.0000

> <Gold.Chemscore.DEClash.Weighted>
0.0104

> <Gold.Chemscore.DEInternal.Weighted>
0.3428

> <Gold.Chemscore.Rot.Weighted>
2.5600

> <Gold.Chemscore.Internal.Correction.Weighted>
   9.000000E+99

> <Gold.Protein.RotatedTorsions>
[ 6907 6896 6895 6894 ] final   25.68 input  -60.11 | X-H torsion
[ 7974 7965 7964 7962 ] final  -27.81 input  175.53 | X-H torsion
[ 8008 7997 7996 7995 ] final -103.88 input   59.86 | X-H torsion
[ 10167 10162 10161 10158 ] final   -9.04 input  -65.29 | X-H torsion
[ 10718 10713 10712 10709 ] final  -18.00 input   66.30 | X-H torsion
[ 10763 10752 10751 10750 ] final   23.86 input  -60.55 | X-H torsion
[ 11005 11000 10999 10996 ] final   34.46 input  -57.11 | X-H torsion

> <Gold.Protein.ActiveResidues>
 VAL166  LYS551  ARG553  GLY616  TRP617  ASP618  TYR619  PRO620  LYS621  CYS622 
 ASP623  PHE694  ASN695  SER759  ASP760  ASP761  ALA762  ILE779  LEU786  VAL792 
 PHE793  MET794  SER795  GLU796  ALA797  LYS798  CYS799  TRP800  GLU811  SER814 

> <Gold.Protein.RotatedAtoms>
  151.9762  135.0052  160.0554 H   0  0  0  0  0  0  0  0  0  0  0  0  # atno 6907 bound_to 6896
  152.1738  133.4656  159.4931 H   0  0  0  0  0  0  0  0  0  0  0  0  # atno 6908 bound_to 6896
  150.6906  134.1837  159.4301 H   0  0  0  0  0  0  0  0  0  0  0  0  # atno 6909 bound_to 6896
  146.1332  140.5201  142.8684 H   0  0  0  0  0  0  0  0  0  0  0  0  # atno 7974 bound_to 7965
  154.8773  140.0420  157.1761 H   0  0  0  0  0  0  0  0  0  0  0  0  # atno 8008 bound_to 7997
  154.8676  140.2953  155.5480 H   0  0  0  0  0  0  0  0  0  0  0  0  # atno 8009 bound_to 7997
  156.2999  140.2435  156.3660 H   0  0  0  0  0  0  0  0  0  0  0  0  # atno 8010 bound_to 7997
  140.7076  143.5902  150.8902 H   0  0  0  0  0  0  0  0  0  0  0  0  # atno 10167 bound_to 10162
  156.5656  130.4736  149.6386 H   0  0  0  0  0  0  0  0  0  0  0  0  # atno 10718 bound_to 10713
  153.0807  135.6618  154.0052 H   0  0  0  0  0  0  0  0  0  0  0  0  # atno 10763 bound_to 10752
  153.9674  135.2968  155.3431 H   0  0  0  0  0  0  0  0  0  0  0  0  # atno 10764 bound_to 10752
  154.7205  135.5166  153.8876 H   0  0  0  0  0  0  0  0  0  0  0  0  # atno 10765 bound_to 10752
  140.2527  134.3285  155.7885 H   0  0  0  0  0  0  0  0  0  0  0  0  # atno 11005 bound_to 11000
  144.7712  140.5641  143.6669 LP  0  0  0  0  0  0  0  0  0  0  0  0  # atno 17320 bound_to 7965
  145.5215  139.1476  143.3549 LP  0  0  0  0  0  0  0  0  0  0  0  0  # atno 17321 bound_to 7965
  139.9627  143.6145  152.2997 LP  0  0  0  0  0  0  0  0  0  0  0  0  # atno 17342 bound_to 10162
  139.6704  144.7661  151.1795 LP  0  0  0  0  0  0  0  0  0  0  0  0  # atno 17343 bound_to 10162
  156.2760  130.7044  151.1854 LP  0  0  0  0  0  0  0  0  0  0  0  0  # atno 17370 bound_to 10713
  157.7359  131.0567  150.5443 LP  0  0  0  0  0  0  0  0  0  0  0  0  # atno 17371 bound_to 10713
  141.2199  133.7363  156.9062 LP  0  0  0  0  0  0  0  0  0  0  0  0  # atno 17394 bound_to 11000
  140.1542  134.9209  157.2632 LP  0  0  0  0  0  0  0  0  0  0  0  0  # atno 17395 bound_to 11000

$$$$
