AV-unprocessed.smi:2593|AV-procd|sdf|10163|dock6
  -GOLD-   2272014173D 1   1.00000     0.00000
 Structure written by MMmdl.
 40 42  0  0  0  0  0  0  0  0  1 V2000
  147.8713  141.6764  154.1210 C   0  0  0  0  0  0  0  0  0  0  0  0
  149.2530  141.4669  154.3509 O   0  0  0  0  0  0  0  0  0  0  0  0
  149.5610  141.3306  155.7289 C   0  0  0  0  0  0  0  0  0  0  0  0
  151.0756  141.1538  155.9034 C   0  0  0  0  0  0  0  0  0  0  0  0
  151.4837  141.2794  157.2947 N   0  0  0  0  0  0  0  0  0  0  0  0
  151.7494  140.2850  158.1755 C   0  0  0  0  0  0  0  0  0  0  0  0
  151.6401  138.5863  157.7293 S   0  0  0  0  0  0  0  0  0  0  0  0
  150.8475  137.9979  159.2495 C   0  0  0  0  0  0  0  0  0  0  0  0
  149.5744  137.2527  158.9046 C   0  0  0  0  0  0  0  0  0  0  0  0
  148.5046  137.9163  158.2672 C   0  0  0  0  0  0  0  0  0  0  0  0
  147.3404  137.1811  157.9731 C   0  0  0  0  0  0  0  0  0  0  0  0
  147.2906  135.8189  158.3269 C   0  0  0  0  0  0  0  0  0  0  0  0
  148.4122  135.2485  158.9630 C   0  0  0  0  0  0  0  0  0  0  0  0
  148.3985  133.9052  159.3297 N   0  0  0  0  0  0  0  0  0  0  0  0
  149.5331  135.9454  159.2479 N   0  0  0  0  0  0  0  0  0  0  0  0
  152.1009  140.6740  159.4009 N   0  0  0  0  0  0  0  0  0  0  0  0
  152.0697  142.0514  159.3029 C   0  0  0  0  0  0  0  0  0  0  0  0
  152.3490  143.0473  160.2662 C   0  0  0  0  0  0  0  0  0  0  0  0
  152.2516  144.4133  159.9295 C   0  0  0  0  0  0  0  0  0  0  0  0
  151.8761  144.8024  158.6275 C   0  0  0  0  0  0  0  0  0  0  0  0
  151.5919  143.8264  157.6530 C   0  0  0  0  0  0  0  0  0  0  0  0
  151.6887  142.4641  157.9947 C   0  0  0  0  0  0  0  0  0  0  0  0
  147.6894  141.7774  153.0511 H   0  0  0  0  0  0  0  0  0  0  0  0
  147.5241  142.5877  154.6094 H   0  0  0  0  0  0  0  0  0  0  0  0
  147.2797  140.8356  154.4852 H   0  0  0  0  0  0  0  0  0  0  0  0
  149.2269  142.2136  156.2753 H   0  0  0  0  0  0  0  0  0  0  0  0
  149.0341  140.4712  156.1462 H   0  0  0  0  0  0  0  0  0  0  0  0
  151.3801  140.1730  155.5376 H   0  0  0  0  0  0  0  0  0  0  0  0
  151.6182  141.8845  155.3031 H   0  0  0  0  0  0  0  0  0  0  0  0
  151.5293  137.3385  159.7877 H   0  0  0  0  0  0  0  0  0  0  0  0
  150.6305  138.8459  159.9006 H   0  0  0  0  0  0  0  0  0  0  0  0
  148.5736  138.9636  158.0119 H   0  0  0  0  0  0  0  0  0  0  0  0
  146.5001  137.6537  157.4864 H   0  0  0  0  0  0  0  0  0  0  0  0
  146.4106  135.2298  158.1137 H   0  0  0  0  0  0  0  0  0  0  0  0
  147.5975  133.3169  159.1515 H   0  0  0  0  0  0  0  0  0  0  0  0
  149.1806  133.4837  159.8096 H   0  0  0  0  0  0  0  0  0  0  0  0
  152.6396  142.7595  161.2658 H   0  0  0  0  0  0  0  0  0  0  0  0
  152.4675  145.1662  160.6733 H   0  0  0  0  0  0  0  0  0  0  0  0
  151.8064  145.8508  158.3768 H   0  0  0  0  0  0  0  0  0  0  0  0
  151.3068  144.1212  156.6542 H   0  0  0  0  0  0  0  0  0  0  0  0
  1  2  1  0  0  0  0
  1 23  1  0  0  0  0
  1 24  1  0  0  0  0
  1 25  1  0  0  0  0
  2  3  1  0  0  0  0
  3  4  1  0  0  0  0
  3 26  1  0  0  0  0
  3 27  1  0  0  0  0
  4  5  1  0  0  0  0
  4 28  1  0  0  0  0
  4 29  1  0  0  0  0
  5 22  1  0  0  0  0
  5  6  1  0  0  0  0
  6  7  1  0  0  0  0
  6 16  2  0  0  0  0
  7  8  1  0  0  0  0
  8  9  1  0  0  0  0
  8 30  1  0  0  0  0
  8 31  1  0  0  0  0
  9 15  1  0  0  0  0
  9 10  2  0  0  0  0
 10 11  1  0  0  0  0
 10 32  1  0  0  0  0
 11 12  2  0  0  0  0
 11 33  1  0  0  0  0
 12 13  1  0  0  0  0
 12 34  1  0  0  0  0
 13 14  1  0  0  0  0
 13 15  2  0  0  0  0
 14 35  1  0  0  0  0
 14 36  1  0  0  0  0
 16 17  1  0  0  0  0
 17 22  2  0  0  0  0
 17 18  1  0  0  0  0
 18 19  2  0  0  0  0
 18 37  1  0  0  0  0
 19 20  1  0  0  0  0
 19 38  1  0  0  0  0
 20 21  2  0  0  0  0
 20 39  1  0  0  0  0
 21 22  1  0  0  0  0
 21 40  1  0  0  0  0
M  END
> <s_m_source_file>
AV-unprocessed.smi

> <i_m_source_file_index>
2593

> <i_lp_mmshare_version>
43012

> <i_f3d_flags>
0

> <s_epik_input>
W2NIXTFbY0hdW2NIXVtjSF1jKGMxMiluKFtDSDJdW0NIMl1PW0NIM10pYyhuMilTW0NIMl1jM1tjSF1bY0hdW2NIXWMobjMpW05IMl0=

> <s_epik_cmdline>
J2VwaWtfcHl0aG9uJywgJy1waCcsICc3LjAnLCAnLXRuJywgJzgnLCAnLW1hJywgJzIwMCcsICctbWV0YWxfYmluZGluZycsICctaW1hZScsICc8aW5maWxlLm1hZT4nLCAnLW9tYWUnLCAnPG91dGZpbGUubWFlPic=

> <r_lp_tautomer_probability>
1

> <r_epik_Ionization_Penalty>
0.0555631

> <r_epik_Ionization_Penalty_Charging>
0

> <r_epik_Ionization_Penalty_Neutral>
0.0555631

> <r_epik_State_Penalty>
0.0451694

> <r_epik_Charging_Adjusted_Penalty>
0.0451694

> <i_epik_Tot_Q>
0

> <i_epik_Tot_abs_Q>
0

> <r_epik_Metal_State_Penalty>
0.0431775

> <b_epik_Metal_Only>
0

> <s_lp_Force_Field>
OPLS_2005

> <r_lp_Energy>
6.83129

> <b_lp_Chiralities_Consistent>
1

> <s_lp_Variant>
AV-unprocessed.smi:2593-1

> <Gold.Version>
5.8.1

> <Gold.Id.Protein>
6NUR|6NUR_protein|mol2

> <Gold.PLP.Fitness>
43.5728

> <Gold.PLP.PLP>
-41.8869

> <Gold.PLP.part.hbond>
-2.6438

> <Gold.PLP.part.metal>
0.0000

> <Gold.PLP.part.buried>
-6.1916

> <Gold.PLP.part.nonpolar>
-34.1775

> <Gold.PLP.part.repulsive>
0.2710

> <Gold.PLP.ligand.clash>
0.0000

> <Gold.PLP.ligand.torsion>
0.9558

> <Gold.PLP.Chemscore.Hbond>
1.1685

> <Gold.PLP.Chemscore.CHOScore>
0.0000

> <Gold.PLP.Chemscore.Metal>
0.0000

> <Gold.Chemscore.Hbonds>
donor molecule, donor type, donor heavy atom, donor atom, acceptor molecule, acceptor atom, score
      P1  H  6896  6907       L1    15  1.00
      P1  H  8011  8017       L1     2  0.12

> <Gold.PLP.Chemscore.Internal.Correction>
0.0920

> <Gold.Rescore>
     Score         DG    S(hbond)    S(metal)    S(lipo)     H(rot)  DE(clash)    DE(int)     intcor
     14.09     -15.10       0.95        0.00     101.51       2.13       0.00       1.02       ----

> <Gold.Chemscore.Fitness>
14.0850

> <Gold.Chemscore.DG>
-15.1023

> <Gold.Chemscore.ZeroCoef>
-5.4800

> <Gold.Chemscore.Hbond>
0.9545

> <Gold.Chemscore.Metal>
0.0000

> <Gold.Chemscore.Lipo>
101.5115

> <Gold.Chemscore.Internal_Hbond>
0.0000

> <Gold.Chemscore.DEClash>
0.0004

> <Gold.Chemscore.DEInternal>
1.0169

> <Gold.Chemscore.Rot>
2.1260

> <Gold.Chemscore.Internal.Correction>
   9.000000E+99

> <Gold.Chemscore.Hbonds>
donor molecule, donor type, donor heavy atom, donor atom, acceptor molecule, acceptor atom, score
      P1  H  6896  6907       L1    15  0.25
      P1  H  8011  8017       L1     2  0.01

> <Gold.Chemscore.Hbond.Weighted>
-3.1880

> <Gold.Chemscore.Metal.Weighted>
-0.0000

> <Gold.Chemscore.Lipo.Weighted>
-11.8768

> <Gold.Chemscore.Internal_Hbond.Weighted>
0.0000

> <Gold.Chemscore.DEClash.Weighted>
0.0004

> <Gold.Chemscore.DEInternal.Weighted>
1.0169

> <Gold.Chemscore.Rot.Weighted>
5.4425

> <Gold.Chemscore.Internal.Correction.Weighted>
   9.000000E+99

> <Gold.Protein.RotatedTorsions>
[ 6907 6896 6895 6894 ] final  -72.17 input  -60.11 | X-H torsion
[ 7974 7965 7964 7962 ] final   42.00 input  175.53 | X-H torsion
[ 8008 7997 7996 7995 ] final  121.23 input   59.86 | X-H torsion
[ 10167 10162 10161 10158 ] final   45.28 input  -65.29 | X-H torsion
[ 10718 10713 10712 10709 ] final   74.86 input   66.30 | X-H torsion
[ 10763 10752 10751 10750 ] final   84.23 input  -60.55 | X-H torsion
[ 11005 11000 10999 10996 ] final  -15.79 input  -57.11 | X-H torsion

> <Gold.Protein.ActiveResidues>
 VAL166  LYS551  ARG553  GLY616  TRP617  ASP618  TYR619  PRO620  LYS621  CYS622 
 ASP623  PHE694  ASN695  SER759  ASP760  ASP761  ALA762  ILE779  LEU786  VAL792 
 PHE793  MET794  SER795  GLU796  ALA797  LYS798  CYS799  TRP800  GLU811  SER814 

> <Gold.Protein.RotatedAtoms>
  150.7181  134.5202  159.5649 H   0  0  0  0  0  0  0  0  0  0  0  0  # atno 6907 bound_to 6896
  152.2759  134.7879  160.0415 H   0  0  0  0  0  0  0  0  0  0  0  0  # atno 6908 bound_to 6896
  151.8543  133.3410  159.3720 H   0  0  0  0  0  0  0  0  0  0  0  0  # atno 6909 bound_to 6896
  146.0777  139.5351  142.9557 H   0  0  0  0  0  0  0  0  0  0  0  0  # atno 7974 bound_to 7965
  156.2678  140.2813  156.1276 H   0  0  0  0  0  0  0  0  0  0  0  0  # atno 8008 bound_to 7997
  155.1089  140.0390  157.2736 H   0  0  0  0  0  0  0  0  0  0  0  0  # atno 8009 bound_to 7997
  154.6758  140.2598  155.6965 H   0  0  0  0  0  0  0  0  0  0  0  0  # atno 8010 bound_to 7997
  140.3257  144.2650  150.6175 H   0  0  0  0  0  0  0  0  0  0  0  0  # atno 10167 bound_to 10162
  157.6610  130.9698  150.1271 H   0  0  0  0  0  0  0  0  0  0  0  0  # atno 10718 bound_to 10713
  153.1362  135.4662  154.9426 H   0  0  0  0  0  0  0  0  0  0  0  0  # atno 10763 bound_to 10752
  154.7708  135.3158  154.8195 H   0  0  0  0  0  0  0  0  0  0  0  0  # atno 10764 bound_to 10752
  153.8727  135.6902  153.4827 H   0  0  0  0  0  0  0  0  0  0  0  0  # atno 10765 bound_to 10752
  140.8002  133.8219  155.9463 H   0  0  0  0  0  0  0  0  0  0  0  0  # atno 11005 bound_to 11000
  145.6275  141.0310  143.1881 LP  0  0  0  0  0  0  0  0  0  0  0  0  # atno 17320 bound_to 7965
  144.7272  139.7837  143.7360 LP  0  0  0  0  0  0  0  0  0  0  0  0  # atno 17321 bound_to 7965
  140.5443  143.2218  151.8034 LP  0  0  0  0  0  0  0  0  0  0  0  0  # atno 17342 bound_to 10162
  139.4865  144.4560  151.9597 LP  0  0  0  0  0  0  0  0  0  0  0  0  # atno 17343 bound_to 10162
  156.2127  130.3668  149.8650 LP  0  0  0  0  0  0  0  0  0  0  0  0  # atno 17370 bound_to 10713
  156.6525  130.8749  151.3533 LP  0  0  0  0  0  0  0  0  0  0  0  0  # atno 17371 bound_to 10713
  140.9302  134.2032  157.4869 LP  0  0  0  0  0  0  0  0  0  0  0  0  # atno 17394 bound_to 11000
  139.8722  134.9829  156.5177 LP  0  0  0  0  0  0  0  0  0  0  0  0  # atno 17395 bound_to 11000

$$$$
