AV-unprocessed.smi:159|AV-procd|sdf|1340|dock5
  -GOLD-   2262019 33D 1   1.00000     0.00000
 Structure written by MMmdl.
 28 29  0  0  0  0  0  0  0  0  1 V2000
  149.4989  138.6996  153.3751 N   0  0  0  0  0  0  0  0  0  0  0  0
  149.6773  139.3631  154.5258 C   0  0  0  0  0  0  0  0  0  0  0  0
  149.8003  140.8028  154.5263 C   0  0  0  0  0  0  0  0  0  0  0  0
  149.9748  141.4011  155.7253 C   0  0  0  0  0  0  0  0  0  0  0  0
  150.0248  140.6806  156.9130 N   0  0  0  0  0  0  0  0  0  0  0  0
  150.2356  141.3441  158.2612 C   0  0  2  0  0  0  0  0  0  0  0  0
  150.3597  142.8723  158.1083 C   0  0  0  0  0  0  0  0  0  0  0  0
  151.6638  143.1722  158.8206 C   0  0  0  0  0  0  0  0  0  0  0  0
  152.4470  141.8810  158.6112 C   0  0  1  0  0  0  0  0  0  0  0  0
  153.5998  141.6913  159.6063 C   0  0  0  0  0  0  0  0  0  0  0  0
  153.1222  141.8313  160.9272 O   0  0  0  0  0  0  0  0  0  0  0  0
  151.4355  140.9045  158.8297 O   0  0  0  0  0  0  0  0  0  0  0  0
  149.9177  139.2690  156.8754 C   0  0  0  0  0  0  0  0  0  0  0  0
  149.9803  138.5887  157.8989 O   0  0  0  0  0  0  0  0  0  0  0  0
  149.7402  138.6805  155.6522 N   0  0  0  0  0  0  0  0  0  0  0  0
  149.3979  141.0207  158.8820 H   0  0  0  0  0  0  0  0  0  0  0  0
  152.8052  141.8396  157.5806 H   0  0  0  0  0  0  0  0  0  0  0  0
  149.4147  137.6933  153.3772 H   0  0  0  0  0  0  0  0  0  0  0  0
  149.4482  139.2100  152.5053 H   0  0  0  0  0  0  0  0  0  0  0  0
  149.7589  141.4027  153.6284 H   0  0  0  0  0  0  0  0  0  0  0  0
  150.0732  142.4761  155.7240 H   0  0  0  0  0  0  0  0  0  0  0  0
  150.4307  143.1451  157.0541 H   0  0  0  0  0  0  0  0  0  0  0  0
  149.5029  143.3816  158.5503 H   0  0  0  0  0  0  0  0  0  0  0  0
  152.1737  144.0497  158.4222 H   0  0  0  0  0  0  0  0  0  0  0  0
  151.4781  143.3368  159.8831 H   0  0  0  0  0  0  0  0  0  0  0  0
  154.0151  140.6875  159.5125 H   0  0  0  0  0  0  0  0  0  0  0  0
  154.4088  142.3973  159.4166 H   0  0  0  0  0  0  0  0  0  0  0  0
  152.1807  141.9086  160.9001 H   0  0  0  0  0  0  0  0  0  0  0  0
  1  2  1  0  0  0  0
  1 18  1  0  0  0  0
  1 19  1  0  0  0  0
  2 15  2  0  0  0  0
  2  3  1  0  0  0  0
  3  4  2  0  0  0  0
  3 20  1  0  0  0  0
  4  5  1  0  0  0  0
  4 21  1  0  0  0  0
  5  6  1  0  0  0  0
  5 13  1  0  0  0  0
  6 16  1  0  0  0  0
  6 12  1  0  0  0  0
  6  7  1  0  0  0  0
  7  8  1  0  0  0  0
  7 22  1  0  0  0  0
  7 23  1  0  0  0  0
  8  9  1  0  0  0  0
  8 24  1  0  0  0  0
  8 25  1  0  0  0  0
  9 17  1  0  0  0  0
  9 10  1  0  0  0  0
  9 12  1  0  0  0  0
 10 11  1  0  0  0  0
 10 26  1  0  0  0  0
 10 27  1  0  0  0  0
 11 28  1  0  0  0  0
 13 14  2  0  0  0  0
 13 15  1  0  0  0  0
M  END
> <s_m_source_file>
AV-unprocessed.smi

> <i_m_source_file_index>
159

> <i_lp_mmshare_version>
43012

> <i_f3d_flags>
0

> <s_epik_input>
W05IMl1jMVtjSF1bY0hdbihjKD1PKW4xKVtDQEhdMltDSDJdW0NIMl1bQ0BIXShPMilbQ0gyXVtPSF0=

> <s_epik_cmdline>
J2VwaWtfcHl0aG9uJywgJy1waCcsICc3LjAnLCAnLXRuJywgJzgnLCAnLW1hJywgJzIwMCcsICctbWV0YWxfYmluZGluZycsICctaW1hZScsICc8aW5maWxlLm1hZT4nLCAnLW9tYWUnLCAnPG91dGZpbGUubWFlPic=

> <r_lp_tautomer_probability>
0.99996

> <r_epik_Ionization_Penalty>
0.00126102

> <r_epik_Ionization_Penalty_Charging>
4.46248e-08

> <r_epik_Ionization_Penalty_Neutral>
0.00126097

> <r_epik_State_Penalty>
1.15523e-05

> <r_epik_Charging_Adjusted_Penalty>
1.1597e-05

> <i_epik_Tot_Q>
0

> <i_epik_Tot_abs_Q>
0

> <r_epik_Metal_State_Penalty>
-0

> <b_epik_Metal_Only>
0

> <s_epik_Chemistry_Notes>
This compound contains an acetal/aminal-like group ( X-CH(R)-Y where X, Y are N, S, or O) that may be acid/base labile, releasing an aldehyde.

> <s_lp_Force_Field>
OPLS_2005

> <r_lp_Energy>
23.8013

> <b_lp_Chiralities_Consistent>
1

> <s_lp_Variant>
AV-unprocessed.smi:159-2

> <Gold.Version>
5.8.1

> <Gold.Id.Protein>
6NUR|6NUR_protein|mol2

> <Gold.PLP.Fitness>
30.3867

> <Gold.PLP.PLP>
-22.8670

> <Gold.PLP.part.hbond>
-2.0000

> <Gold.PLP.part.metal>
0.0000

> <Gold.PLP.part.buried>
-2.9453

> <Gold.PLP.part.nonpolar>
-17.9243

> <Gold.PLP.part.repulsive>
0.1272

> <Gold.PLP.ligand.clash>
0.0000

> <Gold.PLP.ligand.torsion>
0.0215

> <Gold.PLP.Chemscore.Hbond>
1.5132

> <Gold.PLP.Chemscore.CHOScore>
1.0000

> <Gold.PLP.Chemscore.Metal>
0.0000

> <Gold.Chemscore.Hbonds>
donor molecule, donor type, donor heavy atom, donor atom, acceptor molecule, acceptor atom, score
      L1  H     1    18       P1  7948  0.51
      L1  H     1    19       P1  7957  1.00
      L1  C     4    21       P1  8028  0.98

> <Gold.PLP.Chemscore.Internal.Correction>
0.0230

> <Gold.Rescore>
     Score         DG    S(hbond)    S(metal)    S(lipo)     H(rot)  DE(clash)    DE(int)     intcor
      9.96     -11.48       1.58        0.00      51.89       2.09       0.27       1.26       ----

> <Gold.Chemscore.Fitness>
9.9554

> <Gold.Chemscore.DG>
-11.4821

> <Gold.Chemscore.ZeroCoef>
-5.4800

> <Gold.Chemscore.Hbond>
1.5839

> <Gold.Chemscore.Metal>
0.0000

> <Gold.Chemscore.Lipo>
51.8921

> <Gold.Chemscore.Internal_Hbond>
0.0000

> <Gold.Chemscore.DEClash>
0.2689

> <Gold.Chemscore.DEInternal>
1.2578

> <Gold.Chemscore.Rot>
2.0935

> <Gold.Chemscore.Internal.Correction>
   9.000000E+99

> <Gold.Chemscore.Hbonds>
donor molecule, donor type, donor heavy atom, donor atom, acceptor molecule, acceptor atom, score
      L1  H     1    18       P1  7948  0.47
      L1  H     1    19       P1  7957  0.96

> <Gold.Chemscore.Hbond.Weighted>
-5.2901

> <Gold.Chemscore.Metal.Weighted>
-0.0000

> <Gold.Chemscore.Lipo.Weighted>
-6.0714

> <Gold.Chemscore.Internal_Hbond.Weighted>
0.0000

> <Gold.Chemscore.DEClash.Weighted>
0.2689

> <Gold.Chemscore.DEInternal.Weighted>
1.2578

> <Gold.Chemscore.Rot.Weighted>
5.3594

> <Gold.Chemscore.Internal.Correction.Weighted>
   9.000000E+99

> <Gold.Protein.RotatedTorsions>
[ 6907 6896 6895 6894 ] final  -55.77 input  -60.11 | X-H torsion
[ 7974 7965 7964 7962 ] final  173.95 input  175.53 | X-H torsion
[ 8008 7997 7996 7995 ] final -107.57 input   59.86 | X-H torsion
[ 10167 10162 10161 10158 ] final  177.44 input  -65.29 | X-H torsion
[ 10718 10713 10712 10709 ] final -114.02 input   66.30 | X-H torsion
[ 10763 10752 10751 10750 ] final -137.66 input  -60.55 | X-H torsion
[ 11005 11000 10999 10996 ] final  179.72 input  -57.11 | X-H torsion

> <Gold.Protein.ActiveResidues>
 VAL166  LYS551  ARG553  GLY616  TRP617  ASP618  TYR619  PRO620  LYS621  CYS622 
 ASP623  PHE694  ASN695  SER759  ASP760  ASP761  ALA762  ILE779  LEU786  VAL792 
 PHE793  MET794  SER795  GLU796  ALA797  LYS798  CYS799  TRP800  GLU811  SER814 

> <Gold.Protein.RotatedAtoms>
  150.8223  134.7437  159.6782 H   0  0  0  0  0  0  0  0  0  0  0  0  # atno 6907 bound_to 6896
  152.4338  134.5723  159.9934 H   0  0  0  0  0  0  0  0  0  0  0  0  # atno 6908 bound_to 6896
  151.5904  133.3330  159.3062 H   0  0  0  0  0  0  0  0  0  0  0  0  # atno 6909 bound_to 6896
  144.7232  139.9725  143.6437 H   0  0  0  0  0  0  0  0  0  0  0  0  # atno 7974 bound_to 7965
  154.9313  140.0405  157.2049 H   0  0  0  0  0  0  0  0  0  0  0  0  # atno 8008 bound_to 7997
  154.8158  140.2875  155.5799 H   0  0  0  0  0  0  0  0  0  0  0  0  # atno 8009 bound_to 7997
  156.2975  140.2528  156.3055 H   0  0  0  0  0  0  0  0  0  0  0  0  # atno 8010 bound_to 7997
  139.5253  144.2797  152.0557 H   0  0  0  0  0  0  0  0  0  0  0  0  # atno 10167 bound_to 10162
  156.0803  130.6004  150.8720 H   0  0  0  0  0  0  0  0  0  0  0  0  # atno 10718 bound_to 10713
  154.8656  135.3635  154.5260 H   0  0  0  0  0  0  0  0  0  0  0  0  # atno 10763 bound_to 10752
  153.5887  135.7016  153.5437 H   0  0  0  0  0  0  0  0  0  0  0  0  # atno 10764 bound_to 10752
  153.3392  135.4102  155.1520 H   0  0  0  0  0  0  0  0  0  0  0  0  # atno 10765 bound_to 10752
  140.4093  134.6706  157.4605 H   0  0  0  0  0  0  0  0  0  0  0  0  # atno 11005 bound_to 11000
  146.0552  139.3549  143.0615 LP  0  0  0  0  0  0  0  0  0  0  0  0  # atno 17320 bound_to 7965
  145.8164  140.9701  143.0922 LP  0  0  0  0  0  0  0  0  0  0  0  0  # atno 17321 bound_to 7965
  140.2253  144.4424  150.6324 LP  0  0  0  0  0  0  0  0  0  0  0  0  # atno 17342 bound_to 10162
  140.6391  143.2200  151.6329 LP  0  0  0  0  0  0  0  0  0  0  0  0  # atno 17343 bound_to 10162
  157.5917  131.0944  150.9107 LP  0  0  0  0  0  0  0  0  0  0  0  0  # atno 17370 bound_to 10713
  156.9282  130.5340  149.5279 LP  0  0  0  0  0  0  0  0  0  0  0  0  # atno 17371 bound_to 10713
  140.0279  134.6449  155.9147 LP  0  0  0  0  0  0  0  0  0  0  0  0  # atno 17394 bound_to 11000
  141.1827  133.6549  156.5088 LP  0  0  0  0  0  0  0  0  0  0  0  0  # atno 17395 bound_to 11000

$$$$
