AV-unprocessed.smi:871|AV-procd|sdf|4011|dock6
  -GOLD-   22720 1503D 1   1.00000     0.00000
 Structure written by MMmdl.
 19 19  0  0  0  0  0  0  0  0  2 V2000
  149.4636  142.2865  155.0976 N   0  0  0  0  0  0  0  0  0  0  0  0
  150.3633  141.7059  155.9707 C   0  0  0  0  0  0  0  0  0  0  0  0
  150.7373  142.3151  157.1148 C   0  0  0  0  0  0  0  0  0  0  0  0
  151.6814  141.6907  158.0087 C   0  0  0  0  0  0  0  0  0  0  0  0
  152.1655  140.4853  157.6763 C   0  0  0  0  0  0  0  0  0  0  0  0
  151.7742  139.8211  156.4965 N   0  0  0  0  0  0  0  0  0  0  0  0
  152.4050  138.5162  156.2332 C   0  0  0  0  0  0  0  0  0  0  0  0
  152.9499  138.4199  154.8050 C   0  0  0  0  0  0  0  0  0  0  0  0
  152.4468  137.5497  154.0613 O   0  0  0  0  0  0  0  0  0  0  0  0
  153.8588  139.2165  154.4831 O   0  5  0  0  0  0  0  0  0  0  0  0
  150.9031  140.3836  155.6017 C   0  0  0  0  0  0  0  0  0  0  0  0
  150.5870  139.8141  154.5544 O   0  0  0  0  0  0  0  0  0  0  0  0
  149.1810  141.8334  154.2409 H   0  0  0  0  0  0  0  0  0  0  0  0
  149.1181  143.2239  155.2472 H   0  0  0  0  0  0  0  0  0  0  0  0
  150.3308  143.2831  157.3694 H   0  0  0  0  0  0  0  0  0  0  0  0
  151.9945  142.1825  158.9178 H   0  0  0  0  0  0  0  0  0  0  0  0
  152.8810  139.9513  158.2854 H   0  0  0  0  0  0  0  0  0  0  0  0
  153.2132  138.2797  156.9263 H   0  0  0  0  0  0  0  0  0  0  0  0
  151.6616  137.7319  156.3853 H   0  0  0  0  0  0  0  0  0  0  0  0
  1  2  1  0  0  0  0
  1 13  1  0  0  0  0
  1 14  1  0  0  0  0
  2 11  1  0  0  0  0
  2  3  2  0  0  0  0
  3  4  1  0  0  0  0
  3 15  1  0  0  0  0
  4  5  2  0  0  0  0
  4 16  1  0  0  0  0
  5  6  1  0  0  0  0
  5 17  1  0  0  0  0
  6  7  1  0  0  0  0
  6 11  1  0  0  0  0
  7  8  1  0  0  0  0
  7 18  1  0  0  0  0
  7 19  1  0  0  0  0
  8  9  2  0  0  0  0
  8 10  1  0  0  0  0
 11 12  2  0  0  0  0
M  CHG  1  10  -1
M  END
> <s_m_source_file>
AV-unprocessed.smi

> <i_m_source_file_index>
871

> <i_lp_mmshare_version>
43012

> <i_f3d_flags>
0

> <s_epik_input>
W05IMl1jMVtjSF1bY0hdW2NIXW4oYzE9TylbQ0gyXUMoPU8pW09IXQ==

> <s_epik_cmdline>
J2VwaWtfcHl0aG9uJywgJy1waCcsICc3LjAnLCAnLXRuJywgJzgnLCAnLW1hJywgJzIwMCcsICctbWV0YWxfYmluZGluZycsICctaW1hZScsICc8aW5maWxlLm1hZT4nLCAnLW9tYWUnLCAnPG91dGZpbGUubWFlPic=

> <r_lp_tautomer_probability>
1

> <r_epik_Ionization_Penalty>
0.00200637

> <r_epik_Ionization_Penalty_Charging>
0.0012605

> <r_epik_Ionization_Penalty_Neutral>
0.000745874

> <r_epik_State_Penalty>
-0

> <r_epik_Charging_Adjusted_Penalty>
0.0012605

> <i_epik_Tot_Q>
-1

> <i_epik_Tot_abs_Q>
1

> <r_epik_Metal_State_Penalty>
-0

> <b_epik_Metal_Only>
0

> <s_lp_Force_Field>
OPLS_2005

> <r_lp_Energy>
10.9711

> <b_lp_Chiralities_Consistent>
1

> <s_lp_Variant>
AV-unprocessed.smi:871-1

> <Gold.Version>
5.8.1

> <Gold.Id.Protein>
6NUR|6NUR_protein|mol2

> <Gold.PLP.Fitness>
40.0037

> <Gold.PLP.PLP>
-24.3698

> <Gold.PLP.part.hbond>
-4.0000

> <Gold.PLP.part.metal>
0.0000

> <Gold.PLP.part.buried>
-4.1149

> <Gold.PLP.part.nonpolar>
-17.5376

> <Gold.PLP.part.repulsive>
0.4715

> <Gold.PLP.ligand.clash>
0.0000

> <Gold.PLP.ligand.torsion>
0.1478

> <Gold.PLP.Chemscore.Hbond>
5.3080

> <Gold.PLP.Chemscore.CHOScore>
0.0000

> <Gold.PLP.Chemscore.Metal>
0.0000

> <Gold.Chemscore.Hbonds>
donor molecule, donor type, donor heavy atom, donor atom, acceptor molecule, acceptor atom, score
      L1  H     1    14       P1  8028  1.00
      P1  H  7989  7998       L1    12  0.75
      P1  H  7997  8010       L1    10  2.00
      P1  H 10752 10765       L1     9  1.44

> <Gold.PLP.Chemscore.Internal.Correction>
0.0055

> <Gold.Rescore>
     Score         DG    S(hbond)    S(metal)    S(lipo)     H(rot)  DE(clash)    DE(int)     intcor
     14.64     -16.34       3.37        0.00      31.23       1.58       0.01       1.70       ----

> <Gold.Chemscore.Fitness>
14.6398

> <Gold.Chemscore.DG>
-16.3443

> <Gold.Chemscore.ZeroCoef>
-5.4800

> <Gold.Chemscore.Hbond>
3.3729

> <Gold.Chemscore.Metal>
0.0000

> <Gold.Chemscore.Lipo>
31.2328

> <Gold.Chemscore.Internal_Hbond>
0.0000

> <Gold.Chemscore.DEClash>
0.0082

> <Gold.Chemscore.DEInternal>
1.6963

> <Gold.Chemscore.Rot>
1.5841

> <Gold.Chemscore.Internal.Correction>
   9.000000E+99

> <Gold.Chemscore.Hbonds>
donor molecule, donor type, donor heavy atom, donor atom, acceptor molecule, acceptor atom, score
      L1  H     1    14       P1  8028  0.96
      P1  H  7989  7998       L1    12  0.09
      P1  H  7997  8010       L1    10  0.91
      P1  H 10752 10765       L1     9  0.71

> <Gold.Chemscore.Hbond.Weighted>
-11.2654

> <Gold.Chemscore.Metal.Weighted>
-0.0000

> <Gold.Chemscore.Lipo.Weighted>
-3.6542

> <Gold.Chemscore.Internal_Hbond.Weighted>
0.0000

> <Gold.Chemscore.DEClash.Weighted>
0.0082

> <Gold.Chemscore.DEInternal.Weighted>
1.6963

> <Gold.Chemscore.Rot.Weighted>
4.0554

> <Gold.Chemscore.Internal.Correction.Weighted>
   9.000000E+99

> <Gold.Protein.RotatedTorsions>
[ 6907 6896 6895 6894 ] final   90.56 input  -60.11 | X-H torsion
[ 7974 7965 7964 7962 ] final -141.75 input  175.53 | X-H torsion
[ 8008 7997 7996 7995 ] final  112.21 input   59.86 | X-H torsion
[ 10167 10162 10161 10158 ] final   88.08 input  -65.29 | X-H torsion
[ 10718 10713 10712 10709 ] final  -46.02 input   66.30 | X-H torsion
[ 10763 10752 10751 10750 ] final  152.86 input  -60.55 | X-H torsion
[ 11005 11000 10999 10996 ] final   -6.90 input  -57.11 | X-H torsion

> <Gold.Protein.ActiveResidues>
 VAL166  LYS551  ARG553  GLY616  TRP617  ASP618  TYR619  PRO620  LYS621  CYS622 
 ASP623  PHE694  ASN695  SER759  ASP760  ASP761  ALA762  ILE779  LEU786  VAL792 
 PHE793  MET794  SER795  GLU796  ALA797  LYS798  CYS799  TRP800  GLU811  SER814 

> <Gold.Protein.RotatedAtoms>
  152.5445  134.1792  159.8628 H   0  0  0  0  0  0  0  0  0  0  0  0  # atno 6907 bound_to 6896
  151.1796  133.4726  159.2601 H   0  0  0  0  0  0  0  0  0  0  0  0  # atno 6908 bound_to 6896
  151.1192  135.0081  159.8585 H   0  0  0  0  0  0  0  0  0  0  0  0  # atno 6909 bound_to 6896
  144.8495  140.6041  143.5399 H   0  0  0  0  0  0  0  0  0  0  0  0  # atno 7974 bound_to 7965
  156.2177  140.3004  155.9878 H   0  0  0  0  0  0  0  0  0  0  0  0  # atno 8008 bound_to 7997
  155.2563  140.0428  157.3009 H   0  0  0  0  0  0  0  0  0  0  0  0  # atno 8009 bound_to 7997
  154.5793  140.2370  155.8085 H   0  0  0  0  0  0  0  0  0  0  0  0  # atno 8010 bound_to 7997
  139.8709  144.6493  150.8950 H   0  0  0  0  0  0  0  0  0  0  0  0  # atno 10167 bound_to 10162
  156.2225  130.4167  149.8975 H   0  0  0  0  0  0  0  0  0  0  0  0  # atno 10718 bound_to 10713
  154.1269  135.2829  155.3195 H   0  0  0  0  0  0  0  0  0  0  0  0  # atno 10763 bound_to 10752
  154.6383  135.5411  153.7763 H   0  0  0  0  0  0  0  0  0  0  0  0  # atno 10764 bound_to 10752
  153.0294  135.6480  154.1421 H   0  0  0  0  0  0  0  0  0  0  0  0  # atno 10765 bound_to 10752
  140.7069  133.8941  155.8723 H   0  0  0  0  0  0  0  0  0  0  0  0  # atno 11005 bound_to 11000
  145.4528  139.1521  143.3909 LP  0  0  0  0  0  0  0  0  0  0  0  0  # atno 17320 bound_to 7965
  146.2773  140.4655  142.8790 LP  0  0  0  0  0  0  0  0  0  0  0  0  # atno 17321 bound_to 7965
  140.7761  143.3664  151.1730 LP  0  0  0  0  0  0  0  0  0  0  0  0  # atno 17342 bound_to 10162
  139.7285  143.9111  152.3011 LP  0  0  0  0  0  0  0  0  0  0  0  0  # atno 17343 bound_to 10162
  156.6616  130.8784  151.3548 LP  0  0  0  0  0  0  0  0  0  0  0  0  # atno 17370 bound_to 10713
  157.7094  130.9423  150.1039 LP  0  0  0  0  0  0  0  0  0  0  0  0  # atno 17371 bound_to 10713
  141.0117  134.1012  157.4215 LP  0  0  0  0  0  0  0  0  0  0  0  0  # atno 17394 bound_to 11000
  139.8882  135.0095  156.6604 LP  0  0  0  0  0  0  0  0  0  0  0  0  # atno 17395 bound_to 11000

$$$$
