AV-unprocessed.smi:978|AV-procd|sdf|4308|dock10
  -GOLD-   22720 2213D 1   1.00000     0.00000
 Structure written by MMmdl.
 39 40  0  0  0  0  0  0  0  0  2 V2000
  149.4180  131.8116  155.9108 C   0  0  0  0  0  0  0  0  0  0  0  0
  149.9538  133.2055  156.0860 C   0  0  0  0  0  0  0  0  0  0  0  0
  150.7284  133.4694  157.1282 N   0  0  0  0  0  0  0  0  0  0  0  0
  151.0199  134.8413  157.0778 O   0  0  0  0  0  0  0  0  0  0  0  0
  150.4080  135.3806  155.9915 C   0  0  0  0  0  0  0  0  0  0  0  0
  150.5839  136.8451  155.7718 C   0  0  0  0  0  0  0  0  0  0  0  0
  149.7506  134.3918  155.3208 C   0  0  0  0  0  0  0  0  0  0  0  0
  148.9768  134.5914  154.1497 N   0  0  0  0  0  0  0  0  0  0  0  0
  147.8881  133.9019  153.7762 C   0  0  0  0  0  0  0  0  0  0  0  0
  147.3999  132.9615  154.4019 O   0  0  0  0  0  0  0  0  0  0  0  0
  147.3992  134.3502  152.6110 N   0  0  0  0  0  0  0  0  0  0  0  0
  146.2362  133.7975  151.9226 C   0  0  2  0  0  0  0  0  0  0  0  0
  146.6756  132.6706  150.9731 C   0  0  0  0  0  0  0  0  0  0  0  0
  145.4825  132.1207  150.1725 C   0  0  0  0  0  0  0  0  0  0  0  0
  144.7971  133.2036  149.4236 N   0  3  1  0  0  0  0  0  0  0  0  0
  143.7177  132.6903  148.5529 C   0  0  0  0  0  0  0  0  0  0  0  0
  144.3301  134.2904  150.3198 C   0  0  0  0  0  0  0  0  0  0  0  0
  145.4984  134.8875  151.1218 C   0  0  0  0  0  0  0  0  0  0  0  0
  148.4176  131.8244  155.4786 H   0  0  0  0  0  0  0  0  0  0  0  0
  149.3516  131.2866  156.8644 H   0  0  0  0  0  0  0  0  0  0  0  0
  150.0614  131.2242  155.2559 H   0  0  0  0  0  0  0  0  0  0  0  0
  149.9195  137.2068  154.9869 H   0  0  0  0  0  0  0  0  0  0  0  0
  151.6090  137.0703  155.4773 H   0  0  0  0  0  0  0  0  0  0  0  0
  150.3629  137.4017  156.6827 H   0  0  0  0  0  0  0  0  0  0  0  0
  149.3441  135.2574  153.4858 H   0  0  0  0  0  0  0  0  0  0  0  0
  147.8697  135.1246  152.1653 H   0  0  0  0  0  0  0  0  0  0  0  0
  145.5535  133.3749  152.6627 H   0  0  0  0  0  0  0  0  0  0  0  0
  147.4345  133.0412  150.2820 H   0  0  0  0  0  0  0  0  0  0  0  0
  147.1413  131.8634  151.5402 H   0  0  0  0  0  0  0  0  0  0  0  0
  145.8340  131.3599  149.4745 H   0  0  0  0  0  0  0  0  0  0  0  0
  144.7729  131.6330  150.8428 H   0  0  0  0  0  0  0  0  0  0  0  0
  142.9204  132.2363  149.1429 H   0  0  0  0  0  0  0  0  0  0  0  0
  144.1031  131.9394  147.8624 H   0  0  0  0  0  0  0  0  0  0  0  0
  143.2867  133.4967  147.9588 H   0  0  0  0  0  0  0  0  0  0  0  0
  143.8575  135.0750  149.7275 H   0  0  0  0  0  0  0  0  0  0  0  0
  143.5685  133.9034  150.9988 H   0  0  0  0  0  0  0  0  0  0  0  0
  145.1220  135.6614  151.7922 H   0  0  0  0  0  0  0  0  0  0  0  0
  146.1925  135.3810  150.4396 H   0  0  0  0  0  0  0  0  0  0  0  0
  145.4881  133.6120  148.8105 H   0  0  0  0  0  0  0  0  0  0  0  0
  1  2  1  0  0  0  0
  1 19  1  0  0  0  0
  1 20  1  0  0  0  0
  1 21  1  0  0  0  0
  2  7  1  0  0  0  0
  2  3  2  0  0  0  0
  3  4  1  0  0  0  0
  4  5  1  0  0  0  0
  5  6  1  0  0  0  0
  5  7  2  0  0  0  0
  6 22  1  0  0  0  0
  6 23  1  0  0  0  0
  6 24  1  0  0  0  0
  7  8  1  0  0  0  0
  8  9  1  0  0  0  0
  8 25  1  0  0  0  0
  9 10  2  0  0  0  0
  9 11  1  0  0  0  0
 11 12  1  0  0  0  0
 11 26  1  0  0  0  0
 12 18  1  0  0  0  0
 12 13  1  0  0  0  0
 12 27  1  0  0  0  0
 13 14  1  0  0  0  0
 13 28  1  0  0  0  0
 13 29  1  0  0  0  0
 14 15  1  0  0  0  0
 14 30  1  0  0  0  0
 14 31  1  0  0  0  0
 15 16  1  0  0  0  0
 15 17  1  0  0  0  0
 15 39  1  0  0  0  0
 16 32  1  0  0  0  0
 16 33  1  0  0  0  0
 16 34  1  0  0  0  0
 17 18  1  0  0  0  0
 17 35  1  0  0  0  0
 17 36  1  0  0  0  0
 18 37  1  0  0  0  0
 18 38  1  0  0  0  0
M  CHG  1  15   1
M  END
> <s_m_source_file>
AV-unprocessed.smi

> <i_m_source_file_index>
978

> <i_lp_mmshare_version>
43012

> <i_f3d_flags>
0

> <s_epik_input>
W0NIM11jMW5vYyhbQ0gzXSljMVtOSF1DKD1PKVtOSF1bQ0hdMltDSDJdW0NIMl1OKFtDSDNdKVtDSDJdW0NIMl0y

> <s_epik_cmdline>
J2VwaWtfcHl0aG9uJywgJy1waCcsICc3LjAnLCAnLXRuJywgJzgnLCAnLW1hJywgJzIwMCcsICctbWV0YWxfYmluZGluZycsICctaW1hZScsICc8aW5maWxlLm1hZT4nLCAnLW9tYWUnLCAnPG91dGZpbGUubWFlPic=

> <r_epik_Ionization_Penalty>
0.00369783

> <r_epik_Ionization_Penalty_Charging>
0.00366825

> <r_epik_Ionization_Penalty_Neutral>
2.95799e-05

> <r_epik_State_Penalty>
0.00261101

> <r_epik_Charging_Adjusted_Penalty>
0.00627926

> <i_epik_Tot_Q>
1

> <i_epik_Tot_abs_Q>
1

> <r_epik_Metal_State_Penalty>
-0

> <b_epik_Metal_Only>
0

> <s_lp_Force_Field>
OPLS_2005

> <r_lp_Energy>
17.6402

> <b_lp_Chiralities_Consistent>
1

> <s_lp_Variant>
AV-unprocessed.smi:978-1

> <Gold.Version>
5.8.1

> <Gold.Id.Protein>
6NUR|6NUR_protein|mol2

> <Gold.PLP.Fitness>
38.7776

> <Gold.PLP.PLP>
-29.9311

> <Gold.PLP.part.hbond>
-4.9374

> <Gold.PLP.part.metal>
0.0000

> <Gold.PLP.part.buried>
-2.1299

> <Gold.PLP.part.nonpolar>
-22.9323

> <Gold.PLP.part.repulsive>
0.1939

> <Gold.PLP.ligand.clash>
0.0000

> <Gold.PLP.ligand.torsion>
0.5590

> <Gold.PLP.Chemscore.Hbond>
3.2365

> <Gold.PLP.Chemscore.CHOScore>
0.0000

> <Gold.PLP.Chemscore.Metal>
0.0000

> <Gold.Chemscore.Hbonds>
donor molecule, donor type, donor heavy atom, donor atom, acceptor molecule, acceptor atom, score
      L1  H     8    25       P1  7948  0.76
      L1  H    11    26       P1  7948  1.00
      L1  H    15    39       P1  7921  1.00
      P1  H  6896  6907       L1     3  0.28

> <Gold.PLP.Chemscore.Internal.Correction>
0.2549

> <Gold.Rescore>
     Score         DG    S(hbond)    S(metal)    S(lipo)     H(rot)  DE(clash)    DE(int)     intcor
     18.68     -19.46       2.51        0.00      69.62       1.00       0.01       0.77       ----

> <Gold.Chemscore.Fitness>
18.6843

> <Gold.Chemscore.DG>
-19.4644

> <Gold.Chemscore.ZeroCoef>
-5.4800

> <Gold.Chemscore.Hbond>
2.5145

> <Gold.Chemscore.Metal>
0.0000

> <Gold.Chemscore.Lipo>
69.6231

> <Gold.Chemscore.Internal_Hbond>
0.0000

> <Gold.Chemscore.DEClash>
0.0102

> <Gold.Chemscore.DEInternal>
0.7699

> <Gold.Chemscore.Rot>
1.0000

> <Gold.Chemscore.Internal.Correction>
   9.000000E+99

> <Gold.Chemscore.Hbonds>
donor molecule, donor type, donor heavy atom, donor atom, acceptor molecule, acceptor atom, score
      L1  H     8    25       P1  7948  0.13
      L1  H    11    26       P1  7948  0.83
      L1  H    15    39       P1  7921  0.39
      P1  H  6896  6907       L1     3  0.01

> <Gold.Chemscore.Hbond.Weighted>
-8.3985

> <Gold.Chemscore.Metal.Weighted>
-0.0000

> <Gold.Chemscore.Lipo.Weighted>
-8.1459

> <Gold.Chemscore.Internal_Hbond.Weighted>
0.0000

> <Gold.Chemscore.DEClash.Weighted>
0.0102

> <Gold.Chemscore.DEInternal.Weighted>
0.7699

> <Gold.Chemscore.Rot.Weighted>
2.5600

> <Gold.Chemscore.Internal.Correction.Weighted>
   9.000000E+99

> <Gold.Protein.RotatedTorsions>
[ 6907 6896 6895 6894 ] final -140.60 input  -60.11 | X-H torsion
[ 7974 7965 7964 7962 ] final  -53.01 input  175.53 | X-H torsion
[ 8008 7997 7996 7995 ] final -141.48 input   59.86 | X-H torsion
[ 10167 10162 10161 10158 ] final  141.16 input  -65.29 | X-H torsion
[ 10718 10713 10712 10709 ] final   15.29 input   66.30 | X-H torsion
[ 10763 10752 10751 10750 ] final   11.61 input  -60.55 | X-H torsion
[ 11005 11000 10999 10996 ] final   42.94 input  -57.11 | X-H torsion

> <Gold.Protein.ActiveResidues>
 VAL166  LYS551  ARG553  GLY616  TRP617  ASP618  TYR619  PRO620  LYS621  CYS622 
 ASP623  PHE694  ASN695  SER759  ASP760  ASP761  ALA762  ILE779  LEU786  VAL792 
 PHE793  MET794  SER795  GLU796  ALA797  LYS798  CYS799  TRP800  GLU811  SER814 

> <Gold.Protein.RotatedAtoms>
  151.0629  133.5529  159.2632 H   0  0  0  0  0  0  0  0  0  0  0  0  # atno 6907 bound_to 6896
  151.2498  135.0617  159.9067 H   0  0  0  0  0  0  0  0  0  0  0  0  # atno 6908 bound_to 6896
  152.5400  134.0391  159.8113 H   0  0  0  0  0  0  0  0  0  0  0  0  # atno 6909 bound_to 6896
  145.9016  140.7989  142.9740 H   0  0  0  0  0  0  0  0  0  0  0  0  # atno 7974 bound_to 7965
  155.4785  140.0558  157.2970 H   0  0  0  0  0  0  0  0  0  0  0  0  # atno 8008 bound_to 7997
  154.4670  140.2023  156.0046 H   0  0  0  0  0  0  0  0  0  0  0  0  # atno 8009 bound_to 7997
  156.0991  140.3222  155.7921 H   0  0  0  0  0  0  0  0  0  0  0  0  # atno 8010 bound_to 7997
  139.5028  144.6189  151.6099 H   0  0  0  0  0  0  0  0  0  0  0  0  # atno 10167 bound_to 10162
  157.0514  130.6271  149.5768 H   0  0  0  0  0  0  0  0  0  0  0  0  # atno 10718 bound_to 10713
  153.1908  135.6842  153.8355 H   0  0  0  0  0  0  0  0  0  0  0  0  # atno 10763 bound_to 10752
  153.7654  135.3203  155.3345 H   0  0  0  0  0  0  0  0  0  0  0  0  # atno 10764 bound_to 10752
  154.8116  135.4713  154.0630 H   0  0  0  0  0  0  0  0  0  0  0  0  # atno 10765 bound_to 10752
  140.1692  134.4243  155.8268 H   0  0  0  0  0  0  0  0  0  0  0  0  # atno 11005 bound_to 11000
  144.6736  140.1686  143.7416 LP  0  0  0  0  0  0  0  0  0  0  0  0  # atno 17320 bound_to 7965
  145.8784  139.2309  143.1620 LP  0  0  0  0  0  0  0  0  0  0  0  0  # atno 17321 bound_to 7965
  140.5885  143.9822  150.6310 LP  0  0  0  0  0  0  0  0  0  0  0  0  # atno 17342 bound_to 10162
  140.2994  143.3270  152.0986 LP  0  0  0  0  0  0  0  0  0  0  0  0  # atno 17343 bound_to 10162
  156.0006  130.5084  150.7649 LP  0  0  0  0  0  0  0  0  0  0  0  0  # atno 17370 bound_to 10713
  157.5027  131.0920  151.0295 LP  0  0  0  0  0  0  0  0  0  0  0  0  # atno 17371 bound_to 10713
  141.2216  133.6948  156.7733 LP  0  0  0  0  0  0  0  0  0  0  0  0  # atno 17394 bound_to 11000
  140.2397  134.8622  157.3561 LP  0  0  0  0  0  0  0  0  0  0  0  0  # atno 17395 bound_to 11000

$$$$
