AV-unprocessed.smi:1417|AV-procd|sdf|5770|dock4
  -GOLD-   22720 5413D 1   1.00000     0.00000
 Structure written by MMmdl.
 39 40  0  0  0  0  0  0  0  0  3 V2000
  152.4887  141.1258  159.2077 C   0  0  0  0  0  0  0  0  0  0  0  0
  152.1121  140.6707  157.8393 C   0  0  0  0  0  0  0  0  0  0  0  0
  151.1684  141.0950  156.9473 C   0  0  0  0  0  0  0  0  0  0  0  0
  151.3483  140.2184  155.8428 C   0  0  0  0  0  0  0  0  0  0  0  0
  150.6530  140.2426  154.6952 N   0  5  0  0  0  0  0  0  0  0  0  0
  149.3748  140.6846  154.6830 C   0  0  0  0  0  0  0  0  0  0  0  0
  148.7384  141.1150  155.6474 O   0  0  0  0  0  0  0  0  0  0  0  0
  148.7975  140.6190  153.4749 N   0  0  0  0  0  0  0  0  0  0  0  0
  147.4283  141.0139  153.1463 C   0  0  2  0  0  0  0  0  0  0  0  0
  146.4185  140.4884  154.1859 C   0  0  0  0  0  0  0  0  0  0  0  0
  146.2641  138.9592  154.1128 C   0  0  0  0  0  0  0  0  0  0  0  0
  145.8788  138.5260  152.7431 N   0  3  2  0  0  0  0  0  0  0  0  0
  145.5803  137.0734  152.6533 C   0  0  0  0  0  0  0  0  0  0  0  0
  144.0950  136.7807  152.4153 C   0  0  0  0  0  0  0  0  0  0  0  0
  143.2791  137.8345  152.3348 N   0  0  0  0  0  0  0  0  0  0  0  0
  143.6840  135.6254  152.3235 O   0  0  0  0  0  0  0  0  0  0  0  0
  146.8727  138.9655  151.7307 C   0  0  0  0  0  0  0  0  0  0  0  0
  147.0473  140.4954  151.7490 C   0  0  0  0  0  0  0  0  0  0  0  0
  152.3260  139.3499  156.0398 N   0  0  0  0  0  0  0  0  0  0  0  0
  152.8175  139.6296  157.3204 O   0  0  0  0  0  0  0  0  0  0  0  0
  153.0423  142.0636  159.1628 H   0  0  0  0  0  0  0  0  0  0  0  0
  153.1145  140.3873  159.7093 H   0  0  0  0  0  0  0  0  0  0  0  0
  151.6007  141.2852  159.8192 H   0  0  0  0  0  0  0  0  0  0  0  0
  150.4600  141.9014  157.0661 H   0  0  0  0  0  0  0  0  0  0  0  0
  149.3652  140.2677  152.7180 H   0  0  0  0  0  0  0  0  0  0  0  0
  147.3849  142.1043  153.1278 H   0  0  0  0  0  0  0  0  0  0  0  0
  146.7124  140.7864  155.1929 H   0  0  0  0  0  0  0  0  0  0  0  0
  145.4477  140.9526  154.0073 H   0  0  0  0  0  0  0  0  0  0  0  0
  147.1957  138.4712  154.4043 H   0  0  0  0  0  0  0  0  0  0  0  0
  145.5080  138.6437  154.8321 H   0  0  0  0  0  0  0  0  0  0  0  0
  146.1201  136.6383  151.8111 H   0  0  0  0  0  0  0  0  0  0  0  0
  145.9348  136.5617  153.5497 H   0  0  0  0  0  0  0  0  0  0  0  0
  142.2909  137.7004  152.1755 H   0  0  0  0  0  0  0  0  0  0  0  0
  143.6546  138.7675  152.4305 H   0  0  0  0  0  0  0  0  0  0  0  0
  147.8268  138.4695  151.9160 H   0  0  0  0  0  0  0  0  0  0  0  0
  146.5455  138.6588  150.7365 H   0  0  0  0  0  0  0  0  0  0  0  0
  146.1136  140.9645  151.4354 H   0  0  0  0  0  0  0  0  0  0  0  0
  147.7977  140.7963  151.0169 H   0  0  0  0  0  0  0  0  0  0  0  0
  145.0168  139.0020  152.5171 H   0  0  0  0  0  0  0  0  0  0  0  0
  1  2  1  0  0  0  0
  1 21  1  0  0  0  0
  1 22  1  0  0  0  0
  1 23  1  0  0  0  0
  2 20  1  0  0  0  0
  2  3  2  0  0  0  0
  3  4  1  0  0  0  0
  3 24  1  0  0  0  0
  4  5  1  0  0  0  0
  4 19  2  0  0  0  0
  5  6  1  0  0  0  0
  6  7  2  0  0  0  0
  6  8  1  0  0  0  0
  8  9  1  0  0  0  0
  8 25  1  0  0  0  0
  9 18  1  0  0  0  0
  9 10  1  0  0  0  0
  9 26  1  0  0  0  0
 10 11  1  0  0  0  0
 10 27  1  0  0  0  0
 10 28  1  0  0  0  0
 11 12  1  0  0  0  0
 11 29  1  0  0  0  0
 11 30  1  0  0  0  0
 12 13  1  0  0  0  0
 12 17  1  0  0  0  0
 12 39  1  0  0  0  0
 13 14  1  0  0  0  0
 13 31  1  0  0  0  0
 13 32  1  0  0  0  0
 14 15  1  0  0  0  0
 14 16  2  0  0  0  0
 15 33  1  0  0  0  0
 15 34  1  0  0  0  0
 17 18  1  0  0  0  0
 17 35  1  0  0  0  0
 17 36  1  0  0  0  0
 18 37  1  0  0  0  0
 18 38  1  0  0  0  0
 19 20  1  0  0  0  0
M  CHG  1   5  -1
M  CHG  1  12   1
M  END
> <s_m_source_file>
AV-unprocessed.smi

> <i_m_source_file_index>
1417

> <i_lp_mmshare_version>
43012

> <i_f3d_flags>
0

> <s_epik_input>
W0NIM11jMVtjSF1jKG5vMSlbTkhdQyg9TylbTkhdW0NIXTJbQ0gyXVtDSDJdTihbQ0gyXVtDSDJdMilbQ0gyXUMoPU8pW05IMl0=

> <s_epik_cmdline>
J2VwaWtfcHl0aG9uJywgJy1waCcsICc3LjAnLCAnLXRuJywgJzgnLCAnLW1hJywgJzIwMCcsICctbWV0YWxfYmluZGluZycsICctaW1hZScsICc8aW5maWxlLm1hZT4nLCAnLW9tYWUnLCAnPG91dGZpbGUubWFlPic=

> <r_epik_Ionization_Penalty>
7.07562

> <r_epik_Ionization_Penalty_Charging>
7.07548

> <r_epik_Ionization_Penalty_Neutral>
0.00013758

> <r_epik_State_Penalty>
7.16607

> <r_epik_Charging_Adjusted_Penalty>
14.2416

> <i_epik_Tot_Q>
0

> <i_epik_Tot_abs_Q>
2

> <r_epik_Metal_State_Penalty>
3.11438

> <b_epik_Metal_Only>
1

> <s_lp_Force_Field>
OPLS_2005

> <r_lp_Energy>
2.10932

> <b_lp_Chiralities_Consistent>
1

> <s_lp_Variant>
AV-unprocessed.smi:1417-6

> <Gold.Version>
5.8.1

> <Gold.Id.Protein>
6NUR|6NUR_protein|mol2

> <Gold.PLP.Fitness>
46.9937

> <Gold.PLP.PLP>
-31.0760

> <Gold.PLP.part.hbond>
-6.6463

> <Gold.PLP.part.metal>
0.0000

> <Gold.PLP.part.buried>
-2.3295

> <Gold.PLP.part.nonpolar>
-22.8802

> <Gold.PLP.part.repulsive>
0.5062

> <Gold.PLP.ligand.clash>
0.0000

> <Gold.PLP.ligand.torsion>
1.0636

> <Gold.PLP.Chemscore.Hbond>
6.0000

> <Gold.PLP.Chemscore.CHOScore>
0.0000

> <Gold.PLP.Chemscore.Metal>
0.0000

> <Gold.Chemscore.Hbonds>
donor molecule, donor type, donor heavy atom, donor atom, acceptor molecule, acceptor atom, score
      L1  H     8    25       P1  7957  1.00
      L1  H    12    39       P1 10175  2.00
      L1  H    15    34       P1 10175  1.00
      P1  H  7989  7998       L1     5  1.00
      P1  H  7997  8010       L1    20  1.00

> <Gold.PLP.Chemscore.Internal.Correction>
0.0449

> <Gold.Rescore>
     Score         DG    S(hbond)    S(metal)    S(lipo)     H(rot)  DE(clash)    DE(int)     intcor
     15.46     -20.98       4.10        0.00      59.59       2.02       1.42       4.11       ----

> <Gold.Chemscore.Fitness>
15.4573

> <Gold.Chemscore.DG>
-20.9822

> <Gold.Chemscore.ZeroCoef>
-5.4800

> <Gold.Chemscore.Hbond>
4.1039

> <Gold.Chemscore.Metal>
0.0000

> <Gold.Chemscore.Lipo>
59.5901

> <Gold.Chemscore.Internal_Hbond>
0.0000

> <Gold.Chemscore.DEClash>
1.4161

> <Gold.Chemscore.DEInternal>
4.1088

> <Gold.Chemscore.Rot>
2.0222

> <Gold.Chemscore.Internal.Correction>
   9.000000E+99

> <Gold.Chemscore.Hbonds>
donor molecule, donor type, donor heavy atom, donor atom, acceptor molecule, acceptor atom, score
      L1  H     8    25       P1  7957  0.93
      L1  H    12    39       P1 10175  0.97
      L1  H    15    34       P1 10175  0.99
      P1  H  7989  7998       L1     5  0.63
      P1  H  7997  8010       L1    20  0.25

> <Gold.Chemscore.Hbond.Weighted>
-13.7071

> <Gold.Chemscore.Metal.Weighted>
-0.0000

> <Gold.Chemscore.Lipo.Weighted>
-6.9720

> <Gold.Chemscore.Internal_Hbond.Weighted>
0.0000

> <Gold.Chemscore.DEClash.Weighted>
1.4161

> <Gold.Chemscore.DEInternal.Weighted>
4.1088

> <Gold.Chemscore.Rot.Weighted>
5.1769

> <Gold.Chemscore.Internal.Correction.Weighted>
   9.000000E+99

> <Gold.Protein.RotatedTorsions>
[ 6907 6896 6895 6894 ] final -116.98 input  -60.11 | X-H torsion
[ 7974 7965 7964 7962 ] final   86.10 input  175.53 | X-H torsion
[ 8008 7997 7996 7995 ] final   38.82 input   59.86 | X-H torsion
[ 10167 10162 10161 10158 ] final   51.51 input  -65.29 | X-H torsion
[ 10718 10713 10712 10709 ] final  178.14 input   66.30 | X-H torsion
[ 10763 10752 10751 10750 ] final  -81.62 input  -60.55 | X-H torsion
[ 11005 11000 10999 10996 ] final  -49.69 input  -57.11 | X-H torsion

> <Gold.Protein.ActiveResidues>
 VAL166  LYS551  ARG553  GLY616  TRP617  ASP618  TYR619  PRO620  LYS621  CYS622 
 ASP623  PHE694  ASN695  SER759  ASP760  ASP761  ALA762  ILE779  LEU786  VAL792 
 PHE793  MET794  SER795  GLU796  ALA797  LYS798  CYS799  TRP800  GLU811  SER814 

> <Gold.Protein.RotatedAtoms>
  150.8099  133.8440  159.3186 H   0  0  0  0  0  0  0  0  0  0  0  0  # atno 6907 bound_to 6896
  151.6229  135.1028  160.0115 H   0  0  0  0  0  0  0  0  0  0  0  0  # atno 6908 bound_to 6896
  152.4191  133.7047  159.6501 H   0  0  0  0  0  0  0  0  0  0  0  0  # atno 6909 bound_to 6896
  145.5767  139.2320  143.2376 H   0  0  0  0  0  0  0  0  0  0  0  0  # atno 7974 bound_to 7965
  155.2265  140.3335  155.4309 H   0  0  0  0  0  0  0  0  0  0  0  0  # atno 8008 bound_to 7997
  156.2312  140.1851  156.7284 H   0  0  0  0  0  0  0  0  0  0  0  0  # atno 8009 bound_to 7997
  154.5981  140.0627  156.9317 H   0  0  0  0  0  0  0  0  0  0  0  0  # atno 8010 bound_to 7997
  140.2611  144.3371  150.6318 H   0  0  0  0  0  0  0  0  0  0  0  0  # atno 10167 bound_to 10162
  156.8949  130.9860  151.3044 H   0  0  0  0  0  0  0  0  0  0  0  0  # atno 10718 bound_to 10713
  154.5657  135.5620  153.7048 H   0  0  0  0  0  0  0  0  0  0  0  0  # atno 10763 bound_to 10752
  153.0032  135.6285  154.2183 H   0  0  0  0  0  0  0  0  0  0  0  0  # atno 10764 bound_to 10752
  154.2122  135.2873  155.2934 H   0  0  0  0  0  0  0  0  0  0  0  0  # atno 10765 bound_to 10752
  141.0773  133.6662  156.3622 H   0  0  0  0  0  0  0  0  0  0  0  0  # atno 11005 bound_to 11000
  146.1745  140.6593  142.9217 LP  0  0  0  0  0  0  0  0  0  0  0  0  # atno 17320 bound_to 7965
  144.7413  140.4948  143.6867 LP  0  0  0  0  0  0  0  0  0  0  0  0  # atno 17321 bound_to 7965
  140.5965  143.2167  151.7155 LP  0  0  0  0  0  0  0  0  0  0  0  0  # atno 17342 bound_to 10162
  139.5016  144.3860  152.0328 LP  0  0  0  0  0  0  0  0  0  0  0  0  # atno 17343 bound_to 10162
  157.6061  130.8548  149.8877 LP  0  0  0  0  0  0  0  0  0  0  0  0  # atno 17370 bound_to 10713
  156.0610  130.3700  150.0982 LP  0  0  0  0  0  0  0  0  0  0  0  0  # atno 17371 bound_to 10713
  140.5545  134.5995  157.5417 LP  0  0  0  0  0  0  0  0  0  0  0  0  # atno 17394 bound_to 11000
  139.9586  134.7492  156.0287 LP  0  0  0  0  0  0  0  0  0  0  0  0  # atno 17395 bound_to 11000

$$$$
