AV-unprocessed.smi:189|AV-procd|sdf|1478|dock6
  -GOLD-   2262019303D 1   1.00000     0.00000
 Structure written by MMmdl.
 53 57  0  0  0  0  0  0  0  0  1 V2000
  151.3325  143.4541  159.0654 C   0  0  0  0  0  0  0  0  0  0  0  0
  152.5438  142.5240  158.9054 C   0  0  1  0  0  0  0  0  0  0  0  0
  153.5274  142.5703  160.1000 C   0  0  0  0  0  0  0  0  0  0  0  0
  153.5794  141.1201  160.5802 C   0  0  2  0  0  0  0  0  0  0  0  0
  154.8780  140.5872  161.1972 C   0  0  0  0  0  0  0  0  0  0  0  0
  154.7066  139.0848  161.5103 C   0  0  0  0  0  0  0  0  0  0  0  0
  154.2305  138.2738  160.2820 C   0  0  0  0  0  0  0  0  0  0  0  0
  152.9735  138.8812  159.6238 C   0  0  0  0  0  0  0  0  0  0  0  0
  153.2446  140.3600  159.3090 C   0  0  1  0  0  0  0  0  0  0  0  0
  152.1406  141.1227  158.7552 N   0  0  0  0  0  0  0  0  0  0  0  0
  151.7340  140.7563  157.5193 C   0  0  0  0  0  0  0  0  0  0  0  0
  152.5979  140.0063  156.7929 N   0  0  0  0  0  0  0  0  0  0  0  0
  152.2662  139.6105  155.5604 C   0  0  0  0  0  0  0  0  0  0  0  0
  151.1432  139.8498  154.8801 N   0  0  0  0  0  0  0  0  0  0  0  0
  150.2706  140.6017  155.6107 C   0  0  0  0  0  0  0  0  0  0  0  0
  150.4841  141.0977  156.9276 C   0  0  0  0  0  0  0  0  0  0  0  0
  149.3767  141.8284  157.3425 N   0  0  0  0  0  0  0  0  0  0  0  0
  148.5555  141.7653  156.3307 C   0  0  0  0  0  0  0  0  0  0  0  0
  149.0085  141.0411  155.2510 N   0  0  0  0  0  0  0  0  0  0  0  0
  148.3029  140.8048  154.0012 C   0  0  0  0  0  0  0  0  0  0  0  0
  148.0312  139.3078  153.7222 C   0  0  1  0  0  0  0  0  0  0  0  0
  149.2483  138.6729  153.3710 O   0  0  0  0  0  0  0  0  0  0  0  0
  147.4164  138.5551  154.8994 C   0  0  0  0  0  0  0  0  0  0  0  0
  146.5292  137.5224  154.2186 C   0  0  0  0  0  0  0  0  0  0  0  0
  145.9868  138.2534  153.1328 O   0  0  0  0  0  0  0  0  0  0  0  0
  147.0139  139.0746  152.5870 C   0  0  0  0  0  0  0  0  0  0  0  0
  151.6499  144.4897  159.1875 H   0  0  0  0  0  0  0  0  0  0  0  0
  150.7377  143.1809  159.9374 H   0  0  0  0  0  0  0  0  0  0  0  0
  150.6828  143.4096  158.1908 H   0  0  0  0  0  0  0  0  0  0  0  0
  153.0880  142.8411  158.0153 H   0  0  0  0  0  0  0  0  0  0  0  0
  154.5091  142.9008  159.7583 H   0  0  0  0  0  0  0  0  0  0  0  0
  153.2065  143.2453  160.8941 H   0  0  0  0  0  0  0  0  0  0  0  0
  152.7692  140.9804  161.2992 H   0  0  0  0  0  0  0  0  0  0  0  0
  155.7100  140.7315  160.5068 H   0  0  0  0  0  0  0  0  0  0  0  0
  155.1210  141.1376  162.1063 H   0  0  0  0  0  0  0  0  0  0  0  0
  155.6444  138.6744  161.8852 H   0  0  0  0  0  0  0  0  0  0  0  0
  153.9799  138.9691  162.3154 H   0  0  0  0  0  0  0  0  0  0  0  0
  155.0349  138.2370  159.5464 H   0  0  0  0  0  0  0  0  0  0  0  0
  154.0350  137.2412  160.5721 H   0  0  0  0  0  0  0  0  0  0  0  0
  152.7249  138.3329  158.7147 H   0  0  0  0  0  0  0  0  0  0  0  0
  152.1173  138.7877  160.2933 H   0  0  0  0  0  0  0  0  0  0  0  0
  154.0934  140.4200  158.6258 H   0  0  0  0  0  0  0  0  0  0  0  0
  153.0067  139.0165  155.0456 H   0  0  0  0  0  0  0  0  0  0  0  0
  147.5880  142.2455  156.3464 H   0  0  0  0  0  0  0  0  0  0  0  0
  147.3622  141.3559  154.0363 H   0  0  0  0  0  0  0  0  0  0  0  0
  148.8827  141.2427  153.1876 H   0  0  0  0  0  0  0  0  0  0  0  0
  149.0482  137.8865  152.8868 H   0  0  0  0  0  0  0  0  0  0  0  0
  148.1516  138.1145  155.5745 H   0  0  0  0  0  0  0  0  0  0  0  0
  146.7854  139.2232  155.4864 H   0  0  0  0  0  0  0  0  0  0  0  0
  147.1167  136.6827  153.8439 H   0  0  0  0  0  0  0  0  0  0  0  0
  145.7494  137.1361  154.8754 H   0  0  0  0  0  0  0  0  0  0  0  0
  146.5741  140.0038  152.2234 H   0  0  0  0  0  0  0  0  0  0  0  0
  147.4641  138.5711  151.7297 H   0  0  0  0  0  0  0  0  0  0  0  0
  1  2  1  0  0  0  0
  1 27  1  0  0  0  0
  1 28  1  0  0  0  0
  1 29  1  0  0  0  0
  2 10  1  0  0  0  0
  2  3  1  0  0  0  0
  2 30  1  0  0  0  0
  3  4  1  0  0  0  0
  3 31  1  0  0  0  0
  3 32  1  0  0  0  0
  4  9  1  0  0  0  0
  4  5  1  0  0  0  0
  4 33  1  0  0  0  0
  5  6  1  0  0  0  0
  5 34  1  0  0  0  0
  5 35  1  0  0  0  0
  6  7  1  0  0  0  0
  6 36  1  0  0  0  0
  6 37  1  0  0  0  0
  7  8  1  0  0  0  0
  7 38  1  0  0  0  0
  7 39  1  0  0  0  0
  8  9  1  0  0  0  0
  8 40  1  0  0  0  0
  8 41  1  0  0  0  0
  9 10  1  0  0  0  0
  9 42  1  0  0  0  0
 10 11  1  0  0  0  0
 11 16  1  0  0  0  0
 11 12  2  0  0  0  0
 12 13  1  0  0  0  0
 13 14  2  0  0  0  0
 13 43  1  0  0  0  0
 14 15  1  0  0  0  0
 15 19  1  0  0  0  0
 15 16  2  0  0  0  0
 16 17  1  0  0  0  0
 17 18  2  0  0  0  0
 18 19  1  0  0  0  0
 18 44  1  0  0  0  0
 19 20  1  0  0  0  0
 20 21  1  0  0  0  0
 20 45  1  0  0  0  0
 20 46  1  0  0  0  0
 21 26  1  0  0  0  0
 21 22  1  0  0  0  0
 21 23  1  0  0  0  0
 22 47  1  0  0  0  0
 23 24  1  0  0  0  0
 23 48  1  0  0  0  0
 23 49  1  0  0  0  0
 24 25  1  0  0  0  0
 24 50  1  0  0  0  0
 24 51  1  0  0  0  0
 25 26  1  0  0  0  0
 26 52  1  0  0  0  0
 26 53  1  0  0  0  0
M  END
> <s_m_source_file>
AV-unprocessed.smi

> <i_m_source_file_index>
189

> <i_lp_mmshare_version>
43012

> <i_f3d_flags>
0

> <s_epik_input>
W0NIMl0xW0NIMl1bQ0gyXVtDSDJdW0NASF0oW0NASF0xMilOKFtDQEhdKFtDSDNdKVtDSDJdMiljKG5bY0hdbjMpYyhjMzQpbltjSF1uNFtDSDJdW0NAQF01KFtPSF0pW0NIMl1bQ0gyXU9bQ0gyXTU=

> <s_epik_cmdline>
J2VwaWtfcHl0aG9uJywgJy1waCcsICc3LjAnLCAnLXRuJywgJzgnLCAnLW1hJywgJzIwMCcsICctbWV0YWxfYmluZGluZycsICctaW1hZScsICc8aW5maWxlLm1hZT4nLCAnLW9tYWUnLCAnPG91dGZpbGUubWFlPic=

> <r_lp_tautomer_probability>
1

> <r_epik_Ionization_Penalty>
0.00594261

> <r_epik_Ionization_Penalty_Charging>
0

> <r_epik_Ionization_Penalty_Neutral>
0.00594261

> <r_epik_State_Penalty>
0.00429776

> <r_epik_Charging_Adjusted_Penalty>
0.00429776

> <i_epik_Tot_Q>
0

> <i_epik_Tot_abs_Q>
0

> <r_epik_Metal_State_Penalty>
-0

> <b_epik_Metal_Only>
0

> <s_lp_Force_Field>
OPLS_2005

> <r_lp_Energy>
58.2794

> <b_lp_Chiralities_Consistent>
1

> <s_lp_Variant>
AV-unprocessed.smi:189-4

> <Gold.Version>
5.8.1

> <Gold.Id.Protein>
6NUR|6NUR_protein|mol2

> <Gold.PLP.Fitness>
53.0321

> <Gold.PLP.PLP>
-44.7986

> <Gold.PLP.part.hbond>
-4.0000

> <Gold.PLP.part.metal>
0.0000

> <Gold.PLP.part.buried>
-3.4553

> <Gold.PLP.part.nonpolar>
-38.0488

> <Gold.PLP.part.repulsive>
0.4040

> <Gold.PLP.ligand.clash>
0.0000

> <Gold.PLP.ligand.torsion>
0.5309

> <Gold.PLP.Chemscore.Hbond>
3.0000

> <Gold.PLP.Chemscore.CHOScore>
0.0936

> <Gold.PLP.Chemscore.Metal>
0.0000

> <Gold.Chemscore.Hbonds>
donor molecule, donor type, donor heavy atom, donor atom, acceptor molecule, acceptor atom, score
      L1  H    22    47       P1  7948  1.00
      P1  H  7989  7998       L1    14  1.00
      P1  H  7997  8010       L1    12  1.00
      L1  C    18    44       P1  8028  0.04

> <Gold.PLP.Chemscore.Internal.Correction>
0.0146

> <Gold.Rescore>
     Score         DG    S(hbond)    S(metal)    S(lipo)     H(rot)  DE(clash)    DE(int)     intcor
     18.27     -19.06       2.01        0.00     103.25       2.03       0.13       0.66       ----

> <Gold.Chemscore.Fitness>
18.2711

> <Gold.Chemscore.DG>
-19.0619

> <Gold.Chemscore.ZeroCoef>
-5.4800

> <Gold.Chemscore.Hbond>
2.0051

> <Gold.Chemscore.Metal>
0.0000

> <Gold.Chemscore.Lipo>
103.2539

> <Gold.Chemscore.Internal_Hbond>
0.0000

> <Gold.Chemscore.DEClash>
0.1309

> <Gold.Chemscore.DEInternal>
0.6599

> <Gold.Chemscore.Rot>
2.0297

> <Gold.Chemscore.Internal.Correction>
   9.000000E+99

> <Gold.Chemscore.Hbonds>
donor molecule, donor type, donor heavy atom, donor atom, acceptor molecule, acceptor atom, score
      L1  H    22    47       P1  7948  0.99
      P1  H  7989  7998       L1    14  0.28
      P1  H  7997  8010       L1    12  0.38

> <Gold.Chemscore.Hbond.Weighted>
-6.6971

> <Gold.Chemscore.Metal.Weighted>
-0.0000

> <Gold.Chemscore.Lipo.Weighted>
-12.0807

> <Gold.Chemscore.Internal_Hbond.Weighted>
0.0000

> <Gold.Chemscore.DEClash.Weighted>
0.1309

> <Gold.Chemscore.DEInternal.Weighted>
0.6599

> <Gold.Chemscore.Rot.Weighted>
5.1960

> <Gold.Chemscore.Internal.Correction.Weighted>
   9.000000E+99

> <Gold.Protein.RotatedTorsions>
[ 6907 6896 6895 6894 ] final -176.44 input  -60.11 | X-H torsion
[ 7974 7965 7964 7962 ] final   20.69 input  175.53 | X-H torsion
[ 8008 7997 7996 7995 ] final   53.15 input   59.86 | X-H torsion
[ 10167 10162 10161 10158 ] final  -72.20 input  -65.29 | X-H torsion
[ 10718 10713 10712 10709 ] final   89.35 input   66.30 | X-H torsion
[ 10763 10752 10751 10750 ] final -111.82 input  -60.55 | X-H torsion
[ 11005 11000 10999 10996 ] final  -96.87 input  -57.11 | X-H torsion

> <Gold.Protein.ActiveResidues>
 VAL166  LYS551  ARG553  GLY616  TRP617  ASP618  TYR619  PRO620  LYS621  CYS622 
 ASP623  PHE694  ASN695  SER759  ASP760  ASP761  ALA762  ILE779  LEU786  VAL792 
 PHE793  MET794  SER795  GLU796  ALA797  LYS798  CYS799  TRP800  GLU811  SER814 

> <Gold.Protein.RotatedAtoms>
  151.6049  133.3353  159.3054 H   0  0  0  0  0  0  0  0  0  0  0  0  # atno 6907 bound_to 6896
  150.8188  134.7387  159.6765 H   0  0  0  0  0  0  0  0  0  0  0  0  # atno 6908 bound_to 6896
  152.4282  134.5833  160.0005 H   0  0  0  0  0  0  0  0  0  0  0  0  # atno 6909 bound_to 6896
  146.2101  139.8133  142.8695 H   0  0  0  0  0  0  0  0  0  0  0  0  # atno 7974 bound_to 7965
  155.4635  140.3462  155.4316 H   0  0  0  0  0  0  0  0  0  0  0  0  # atno 8008 bound_to 7997
  156.1146  140.1470  156.9320 H   0  0  0  0  0  0  0  0  0  0  0  0  # atno 8009 bound_to 7997
  154.4780  140.0879  156.7287 H   0  0  0  0  0  0  0  0  0  0  0  0  # atno 8010 bound_to 7997
  140.5211  143.2331  151.7428 H   0  0  0  0  0  0  0  0  0  0  0  0  # atno 10167 bound_to 10162
  157.6955  131.0329  150.3412 H   0  0  0  0  0  0  0  0  0  0  0  0  # atno 10718 bound_to 10713
  154.8319  135.4513  154.1098 H   0  0  0  0  0  0  0  0  0  0  0  0  # atno 10763 bound_to 10752
  153.2364  135.6911  153.7838 H   0  0  0  0  0  0  0  0  0  0  0  0  # atno 10764 bound_to 10752
  153.7202  135.3343  155.3241 H   0  0  0  0  0  0  0  0  0  0  0  0  # atno 10765 bound_to 10752
  141.1397  133.8129  157.0629 H   0  0  0  0  0  0  0  0  0  0  0  0  # atno 11005 bound_to 11000
  145.3173  141.0235  143.3520 LP  0  0  0  0  0  0  0  0  0  0  0  0  # atno 17320 bound_to 7965
  144.8892  139.4797  143.6686 LP  0  0  0  0  0  0  0  0  0  0  0  0  # atno 17321 bound_to 7965
  139.4924  144.4253  151.9933 LP  0  0  0  0  0  0  0  0  0  0  0  0  # atno 17342 bound_to 10162
  140.3349  144.3272  150.5979 LP  0  0  0  0  0  0  0  0  0  0  0  0  # atno 17343 bound_to 10162
  156.3873  130.3891  149.7056 LP  0  0  0  0  0  0  0  0  0  0  0  0  # atno 17370 bound_to 10713
  156.4418  130.7865  151.2886 LP  0  0  0  0  0  0  0  0  0  0  0  0  # atno 17371 bound_to 10713
  140.0560  134.9780  157.1220 LP  0  0  0  0  0  0  0  0  0  0  0  0  # atno 17394 bound_to 11000
  140.3919  134.2175  155.7166 LP  0  0  0  0  0  0  0  0  0  0  0  0  # atno 17395 bound_to 11000

$$$$
