AV-unprocessed.smi:1126|AV-procd|sdf|4837|dock3
  -GOLD-   22720 3403D 1   1.00000     0.00000
 Structure written by MMmdl.
 48 49  0  0  0  0  0  0  0  0  2 V2000
  144.4177  135.3719  150.2600 C   0  0  0  0  0  0  0  0  0  0  0  0
  145.6160  135.8007  150.8835 O   0  0  0  0  0  0  0  0  0  0  0  0
  145.4709  135.9674  152.2841 C   0  0  0  0  0  0  0  0  0  0  0  0
  144.5966  137.2025  152.5525 C   0  0  0  0  0  0  0  0  0  0  0  0
  145.3897  138.3865  152.9712 N   0  3  2  0  0  0  0  0  0  0  0  0
  146.4732  138.7039  152.0061 C   0  0  0  0  0  0  0  0  0  0  0  0
  147.1867  140.0143  152.3781 C   0  0  0  0  0  0  0  0  0  0  0  0
  147.7484  139.9627  153.8125 C   0  0  1  0  0  0  0  0  0  0  0  0
  148.4277  141.2799  154.2310 C   0  0  0  0  0  0  0  0  0  0  0  0
  149.2155  141.1127  155.4449 N   0  0  0  0  0  0  0  0  0  0  0  0
  150.3779  140.4475  155.5092 C   0  0  0  0  0  0  0  0  0  0  0  0
  150.8970  139.8947  154.5399 O   0  0  0  0  0  0  0  0  0  0  0  0
  151.0610  140.3987  156.8762 C   0  0  0  0  0  0  0  0  0  0  0  0
  151.2620  141.7350  157.4071 N   0  0  0  0  0  0  0  0  0  0  0  0
  151.8356  142.1024  158.6063 C   0  0  0  0  0  0  0  0  0  0  0  0
  151.8133  143.4667  158.6721 C   0  0  0  0  0  0  0  0  0  0  0  0
  152.3154  144.3608  159.7690 C   0  0  0  0  0  0  0  0  0  0  0  0
  151.1976  143.8470  157.4457 C   0  0  0  0  0  0  0  0  0  0  0  0
  150.8700  142.8107  156.6908 N   0  0  0  0  0  0  0  0  0  0  0  0
  146.6104  139.5939  154.7796 C   0  0  0  0  0  0  0  0  0  0  0  0
  145.9132  138.2894  154.3592 C   0  0  0  0  0  0  0  0  0  0  0  0
  144.5793  135.2696  149.1869 H   0  0  0  0  0  0  0  0  0  0  0  0
  143.6136  136.0932  150.4111 H   0  0  0  0  0  0  0  0  0  0  0  0
  144.0970  134.4033  150.6457 H   0  0  0  0  0  0  0  0  0  0  0  0
  145.0499  135.0703  152.7383 H   0  0  0  0  0  0  0  0  0  0  0  0
  146.4532  136.1189  152.7343 H   0  0  0  0  0  0  0  0  0  0  0  0
  144.0057  137.4507  151.6697 H   0  0  0  0  0  0  0  0  0  0  0  0
  143.8833  136.9435  153.3363 H   0  0  0  0  0  0  0  0  0  0  0  0
  147.1884  137.8802  151.9761 H   0  0  0  0  0  0  0  0  0  0  0  0
  146.0570  138.7990  151.0026 H   0  0  0  0  0  0  0  0  0  0  0  0
  147.9868  140.2017  151.6612 H   0  0  0  0  0  0  0  0  0  0  0  0
  146.4888  140.8479  152.2845 H   0  0  0  0  0  0  0  0  0  0  0  0
  148.4966  139.1693  153.8578 H   0  0  0  0  0  0  0  0  0  0  0  0
  149.0691  141.6435  153.4263 H   0  0  0  0  0  0  0  0  0  0  0  0
  147.6736  142.0482  154.4090 H   0  0  0  0  0  0  0  0  0  0  0  0
  148.8653  141.5435  156.2885 H   0  0  0  0  0  0  0  0  0  0  0  0
  150.4619  139.8118  157.5746 H   0  0  0  0  0  0  0  0  0  0  0  0
  152.0306  139.9060  156.7920 H   0  0  0  0  0  0  0  0  0  0  0  0
  152.2100  141.3684  159.3050 H   0  0  0  0  0  0  0  0  0  0  0  0
  151.9819  145.3904  159.6380 H   0  0  0  0  0  0  0  0  0  0  0  0
  153.4048  144.3782  159.8056 H   0  0  0  0  0  0  0  0  0  0  0  0
  151.9656  144.0325  160.7478 H   0  0  0  0  0  0  0  0  0  0  0  0
  150.9810  144.8412  157.0836 H   0  0  0  0  0  0  0  0  0  0  0  0
  147.0019  139.4873  155.7920 H   0  0  0  0  0  0  0  0  0  0  0  0
  145.8783  140.4021  154.8165 H   0  0  0  0  0  0  0  0  0  0  0  0
  145.1041  138.0857  155.0593 H   0  0  0  0  0  0  0  0  0  0  0  0
  146.6094  137.4521  154.4302 H   0  0  0  0  0  0  0  0  0  0  0  0
  144.7555  139.1726  152.9491 H   0  0  0  0  0  0  0  0  0  0  0  0
  1  2  1  0  0  0  0
  1 22  1  0  0  0  0
  1 23  1  0  0  0  0
  1 24  1  0  0  0  0
  2  3  1  0  0  0  0
  3  4  1  0  0  0  0
  3 25  1  0  0  0  0
  3 26  1  0  0  0  0
  4  5  1  0  0  0  0
  4 27  1  0  0  0  0
  4 28  1  0  0  0  0
  5 21  1  0  0  0  0
  5  6  1  0  0  0  0
  5 48  1  0  0  0  0
  6  7  1  0  0  0  0
  6 29  1  0  0  0  0
  6 30  1  0  0  0  0
  7  8  1  0  0  0  0
  7 31  1  0  0  0  0
  7 32  1  0  0  0  0
  8  9  1  0  0  0  0
  8 20  1  0  0  0  0
  8 33  1  0  0  0  0
  9 10  1  0  0  0  0
  9 34  1  0  0  0  0
  9 35  1  0  0  0  0
 10 11  1  0  0  0  0
 10 36  1  0  0  0  0
 11 12  2  0  0  0  0
 11 13  1  0  0  0  0
 13 14  1  0  0  0  0
 13 37  1  0  0  0  0
 13 38  1  0  0  0  0
 14 19  1  0  0  0  0
 14 15  1  0  0  0  0
 15 16  2  0  0  0  0
 15 39  1  0  0  0  0
 16 17  1  0  0  0  0
 16 18  1  0  0  0  0
 17 40  1  0  0  0  0
 17 41  1  0  0  0  0
 17 42  1  0  0  0  0
 18 19  2  0  0  0  0
 18 43  1  0  0  0  0
 20 21  1  0  0  0  0
 20 44  1  0  0  0  0
 20 45  1  0  0  0  0
 21 46  1  0  0  0  0
 21 47  1  0  0  0  0
M  CHG  1   5   1
M  END
> <s_m_source_file>
AV-unprocessed.smi

> <i_m_source_file_index>
1126

> <i_lp_mmshare_version>
43012

> <i_f3d_flags>
0

> <s_epik_input>
W0NIM11PW0NIMl1bQ0gyXU4xW0NIMl1bQ0gyXVtDSF0oW0NIMl1bQ0gyXTEpW0NIMl1bTkhdQyg9TylbQ0gyXW4yW2NIXWMoW0NIM10pW2NIXW4y

> <s_epik_cmdline>
J2VwaWtfcHl0aG9uJywgJy1waCcsICc3LjAnLCAnLXRuJywgJzgnLCAnLW1hJywgJzIwMCcsICctbWV0YWxfYmluZGluZycsICctaW1hZScsICc8aW5maWxlLm1hZT4nLCAnLW9tYWUnLCAnPG91dGZpbGUubWFlPic=

> <r_lp_tautomer_probability>
1

> <r_epik_Ionization_Penalty>
0.00992859

> <r_epik_Ionization_Penalty_Charging>
0.00990284

> <r_epik_Ionization_Penalty_Neutral>
2.57527e-05

> <r_epik_State_Penalty>
0.00754525

> <r_epik_Charging_Adjusted_Penalty>
0.0174481

> <i_epik_Tot_Q>
1

> <i_epik_Tot_abs_Q>
1

> <r_epik_Metal_State_Penalty>
0.00754529

> <b_epik_Metal_Only>
0

> <s_lp_Force_Field>
OPLS_2005

> <r_lp_Energy>
19.6202

> <b_lp_Chiralities_Consistent>
1

> <s_lp_Variant>
AV-unprocessed.smi:1126-1

> <Gold.Version>
5.8.1

> <Gold.Id.Protein>
6NUR|6NUR_protein|mol2

> <Gold.PLP.Fitness>
47.2022

> <Gold.PLP.PLP>
-37.6215

> <Gold.PLP.part.hbond>
-2.0000

> <Gold.PLP.part.metal>
0.0000

> <Gold.PLP.part.buried>
0.5015

> <Gold.PLP.part.nonpolar>
-36.5437

> <Gold.PLP.part.repulsive>
1.4300

> <Gold.PLP.ligand.clash>
0.0000

> <Gold.PLP.ligand.torsion>
0.5482

> <Gold.PLP.Chemscore.Hbond>
3.0000

> <Gold.PLP.Chemscore.CHOScore>
0.5469

> <Gold.PLP.Chemscore.Metal>
0.0000

> <Gold.Chemscore.Hbonds>
donor molecule, donor type, donor heavy atom, donor atom, acceptor molecule, acceptor atom, score
      L1  H     5    48       P1 10175  2.00
      P1  H  7989  7998       L1    12  1.00
      L1  C    18    43       P1  8028  0.59

> <Gold.PLP.Chemscore.Internal.Correction>
0.0362

> <Gold.Rescore>
     Score         DG    S(hbond)    S(metal)    S(lipo)     H(rot)  DE(clash)    DE(int)     intcor
     15.31     -19.01       1.95        0.00     105.91       2.10       1.67       2.03       ----

> <Gold.Chemscore.Fitness>
15.3087

> <Gold.Chemscore.DG>
-19.0064

> <Gold.Chemscore.ZeroCoef>
-5.4800

> <Gold.Chemscore.Hbond>
1.9498

> <Gold.Chemscore.Metal>
0.0000

> <Gold.Chemscore.Lipo>
105.9119

> <Gold.Chemscore.Internal_Hbond>
0.0000

> <Gold.Chemscore.DEClash>
1.6673

> <Gold.Chemscore.DEInternal>
2.0303

> <Gold.Chemscore.Rot>
2.1006

> <Gold.Chemscore.Internal.Correction>
   9.000000E+99

> <Gold.Chemscore.Hbonds>
donor molecule, donor type, donor heavy atom, donor atom, acceptor molecule, acceptor atom, score
      L1  H     5    48       P1 10175  1.00
      P1  H  7989  7998       L1    12  0.91

> <Gold.Chemscore.Hbond.Weighted>
-6.5122

> <Gold.Chemscore.Metal.Weighted>
-0.0000

> <Gold.Chemscore.Lipo.Weighted>
-12.3917

> <Gold.Chemscore.Internal_Hbond.Weighted>
0.0000

> <Gold.Chemscore.DEClash.Weighted>
1.6673

> <Gold.Chemscore.DEInternal.Weighted>
2.0303

> <Gold.Chemscore.Rot.Weighted>
5.3775

> <Gold.Chemscore.Internal.Correction.Weighted>
   9.000000E+99

> <Gold.Protein.RotatedTorsions>
[ 6907 6896 6895 6894 ] final  110.97 input  -60.11 | X-H torsion
[ 7974 7965 7964 7962 ] final  -65.88 input  175.53 | X-H torsion
[ 8008 7997 7996 7995 ] final  -96.19 input   59.86 | X-H torsion
[ 10167 10162 10161 10158 ] final -120.67 input  -65.29 | X-H torsion
[ 10718 10713 10712 10709 ] final   36.09 input   66.30 | X-H torsion
[ 10763 10752 10751 10750 ] final  100.60 input  -60.55 | X-H torsion
[ 11005 11000 10999 10996 ] final   51.87 input  -57.11 | X-H torsion

> <Gold.Protein.ActiveResidues>
 VAL166  LYS551  ARG553  GLY616  TRP617  ASP618  TYR619  PRO620  LYS621  CYS622 
 ASP623  PHE694  ASN695  SER759  ASP760  ASP761  ALA762  ILE779  LEU786  VAL792 
 PHE793  MET794  SER795  GLU796  ALA797  LYS798  CYS799  TRP800  GLU811  SER814 

> <Gold.Protein.RotatedAtoms>
  152.4993  133.8724  159.7304 H   0  0  0  0  0  0  0  0  0  0  0  0  # atno 6907 bound_to 6896
  150.9207  133.6875  159.2839 H   0  0  0  0  0  0  0  0  0  0  0  0  # atno 6908 bound_to 6896
  151.4253  135.1007  159.9678 H   0  0  0  0  0  0  0  0  0  0  0  0  # atno 6909 bound_to 6896
  145.7488  140.8918  143.0491 H   0  0  0  0  0  0  0  0  0  0  0  0  # atno 7974 bound_to 7965
  154.7711  140.0473  157.1052 H   0  0  0  0  0  0  0  0  0  0  0  0  # atno 8008 bound_to 7997
  154.9819  140.3102  155.4923 H   0  0  0  0  0  0  0  0  0  0  0  0  # atno 8009 bound_to 7997
  156.2921  140.2234  156.4918 H   0  0  0  0  0  0  0  0  0  0  0  0  # atno 8010 bound_to 7997
  140.0334  143.5226  152.2165 H   0  0  0  0  0  0  0  0  0  0  0  0  # atno 10167 bound_to 10162
  157.3306  130.7496  149.6845 H   0  0  0  0  0  0  0  0  0  0  0  0  # atno 10718 bound_to 10713
  153.3160  135.4073  155.1376 H   0  0  0  0  0  0  0  0  0  0  0  0  # atno 10763 bound_to 10752
  154.8588  135.3576  154.5660 H   0  0  0  0  0  0  0  0  0  0  0  0  # atno 10764 bound_to 10752
  153.6091  135.7068  153.5413 H   0  0  0  0  0  0  0  0  0  0  0  0  # atno 10765 bound_to 10752
  140.0897  134.5226  155.8864 H   0  0  0  0  0  0  0  0  0  0  0  0  # atno 11005 bound_to 11000
  144.6854  139.9562  143.7479 LP  0  0  0  0  0  0  0  0  0  0  0  0  # atno 17320 bound_to 7965
  146.0377  139.3392  143.0717 LP  0  0  0  0  0  0  0  0  0  0  0  0  # atno 17321 bound_to 7965
  139.6061  144.7596  151.3058 LP  0  0  0  0  0  0  0  0  0  0  0  0  # atno 17342 bound_to 10162
  140.7292  143.6914  150.7919 LP  0  0  0  0  0  0  0  0  0  0  0  0  # atno 17343 bound_to 10162
  155.9695  130.4196  150.4384 LP  0  0  0  0  0  0  0  0  0  0  0  0  # atno 17370 bound_to 10713
  157.2415  131.0526  151.2433 LP  0  0  0  0  0  0  0  0  0  0  0  0  # atno 17371 bound_to 10713
  141.2074  133.6663  156.6302 LP  0  0  0  0  0  0  0  0  0  0  0  0  # atno 17394 bound_to 11000
  140.3370  134.7881  157.4369 LP  0  0  0  0  0  0  0  0  0  0  0  0  # atno 17395 bound_to 11000

$$$$
