AV-unprocessed.smi:3123|AV-procd|sdf|11900|dock7
  -GOLD-   2272017283D 1   1.00000     0.00000
 Structure written by MMmdl.
 30 31  0  0  0  0  0  0  0  0  2 V2000
  145.1987  138.6257  153.0857 N   0  3  0  0  0  0  0  0  0  0  0  0
  146.5166  138.7536  152.4435 C   0  0  0  0  0  0  0  0  0  0  0  0
  147.4126  139.6781  153.2411 C   0  0  0  0  0  0  0  0  0  0  0  0
  147.1630  141.0647  153.2773 C   0  0  0  0  0  0  0  0  0  0  0  0
  148.0296  141.8818  154.0291 C   0  0  0  0  0  0  0  0  0  0  0  0
  149.0885  141.4025  154.7155 N   0  0  0  0  0  0  0  0  0  0  0  0
  149.3275  140.0694  154.6814 C   0  0  0  0  0  0  0  0  0  0  0  0
  150.4241  139.5692  155.3971 N   0  0  0  0  0  0  0  0  0  0  0  0
  151.3617  138.8168  154.5726 C   0  0  0  0  0  0  0  0  0  0  0  0
  152.4617  138.2009  155.4550 C   0  0  0  0  0  0  0  0  0  0  0  0
  153.1034  139.2276  156.2064 O   0  0  0  0  0  0  0  0  0  0  0  0
  152.1941  139.9119  157.0640 C   0  0  0  0  0  0  0  0  0  0  0  0
  151.0881  140.5716  156.2221 C   0  0  0  0  0  0  0  0  0  0  0  0
  148.5172  139.1707  153.9554 C   0  0  0  0  0  0  0  0  0  0  0  0
  145.2826  138.8189  154.0734 H   0  0  0  0  0  0  0  0  0  0  0  0
  144.8511  137.6868  152.9527 H   0  0  0  0  0  0  0  0  0  0  0  0
  146.9768  137.7686  152.3612 H   0  0  0  0  0  0  0  0  0  0  0  0
  146.3899  139.1369  151.4305 H   0  0  0  0  0  0  0  0  0  0  0  0
  146.3286  141.4967  152.7447 H   0  0  0  0  0  0  0  0  0  0  0  0
  147.8685  142.9485  154.0799 H   0  0  0  0  0  0  0  0  0  0  0  0
  150.8314  138.0317  154.0322 H   0  0  0  0  0  0  0  0  0  0  0  0
  151.8109  139.4757  153.8281 H   0  0  0  0  0  0  0  0  0  0  0  0
  152.0455  137.4494  156.1279 H   0  0  0  0  0  0  0  0  0  0  0  0
  153.2033  137.6975  154.8347 H   0  0  0  0  0  0  0  0  0  0  0  0
  151.7689  139.2167  157.7897 H   0  0  0  0  0  0  0  0  0  0  0  0
  152.7386  140.6686  157.6287 H   0  0  0  0  0  0  0  0  0  0  0  0
  151.5205  141.3468  155.5877 H   0  0  0  0  0  0  0  0  0  0  0  0
  150.3595  141.0558  156.8737 H   0  0  0  0  0  0  0  0  0  0  0  0
  148.7397  138.1131  153.9508 H   0  0  0  0  0  0  0  0  0  0  0  0
  144.5569  139.2830  152.6660 H   0  0  0  0  0  0  0  0  0  0  0  0
  1  2  1  0  0  0  0
  1 15  1  0  0  0  0
  1 16  1  0  0  0  0
  1 30  1  0  0  0  0
  2  3  1  0  0  0  0
  2 17  1  0  0  0  0
  2 18  1  0  0  0  0
  3 14  1  0  0  0  0
  3  4  2  0  0  0  0
  4  5  1  0  0  0  0
  4 19  1  0  0  0  0
  5  6  2  0  0  0  0
  5 20  1  0  0  0  0
  6  7  1  0  0  0  0
  7  8  1  0  0  0  0
  7 14  2  0  0  0  0
  8 13  1  0  0  0  0
  8  9  1  0  0  0  0
  9 10  1  0  0  0  0
  9 21  1  0  0  0  0
  9 22  1  0  0  0  0
 10 11  1  0  0  0  0
 10 23  1  0  0  0  0
 10 24  1  0  0  0  0
 11 12  1  0  0  0  0
 12 13  1  0  0  0  0
 12 25  1  0  0  0  0
 12 26  1  0  0  0  0
 13 27  1  0  0  0  0
 13 28  1  0  0  0  0
 14 29  1  0  0  0  0
M  CHG  1   1   1
M  END
> <s_m_source_file>
AV-unprocessed.smi

> <i_m_source_file_index>
3123

> <i_lp_mmshare_version>
43012

> <i_f3d_flags>
0

> <s_epik_input>
W05IMl1bQ0gyXWMxW2NIXVtjSF1uYyhbY0hdMSlOMltDSDJdW0NIMl1PW0NIMl1bQ0gyXTI=

> <s_epik_cmdline>
J2VwaWtfcHl0aG9uJywgJy1waCcsICc3LjAnLCAnLXRuJywgJzgnLCAnLW1hJywgJzIwMCcsICctbWV0YWxfYmluZGluZycsICctaW1hZScsICc8aW5maWxlLm1hZT4nLCAnLW9tYWUnLCAnPG91dGZpbGUubWFlPic=

> <r_lp_tautomer_probability>
1

> <r_epik_Ionization_Penalty>
0.0770075

> <r_epik_Ionization_Penalty_Charging>
0.0770037

> <r_epik_Ionization_Penalty_Neutral>
3.77435e-06

> <r_epik_State_Penalty>
0.00932976

> <r_epik_Charging_Adjusted_Penalty>
0.0863335

> <i_epik_Tot_Q>
1

> <i_epik_Tot_abs_Q>
1

> <r_epik_Metal_State_Penalty>
0.00963217

> <b_epik_Metal_Only>
0

> <s_lp_Force_Field>
OPLS_2005

> <r_lp_Energy>
15.1833

> <b_lp_Chiralities_Consistent>
1

> <s_lp_Variant>
AV-unprocessed.smi:3123-1

> <Gold.Version>
5.8.1

> <Gold.Id.Protein>
6NUR|6NUR_protein|mol2

> <Gold.PLP.Fitness>
38.7976

> <Gold.PLP.PLP>
-27.0143

> <Gold.PLP.part.hbond>
-1.8778

> <Gold.PLP.part.metal>
0.0000

> <Gold.PLP.part.buried>
-1.6671

> <Gold.PLP.part.nonpolar>
-23.6614

> <Gold.PLP.part.repulsive>
0.1708

> <Gold.PLP.ligand.clash>
0.0000

> <Gold.PLP.ligand.torsion>
0.1584

> <Gold.PLP.Chemscore.Hbond>
3.0000

> <Gold.PLP.Chemscore.CHOScore>
0.9993

> <Gold.PLP.Chemscore.Metal>
0.0000

> <Gold.Chemscore.Hbonds>
donor molecule, donor type, donor heavy atom, donor atom, acceptor molecule, acceptor atom, score
      L1  H     1    30       P1 10175  1.76
      P1  H  7997  8008       L1    11  0.85
      L1  C     5    20       P1  8028  0.98

> <Gold.PLP.Chemscore.Internal.Correction>
0.1022

> <Gold.Rescore>
     Score         DG    S(hbond)    S(metal)    S(lipo)     H(rot)  DE(clash)    DE(int)     intcor
     15.66     -15.86       1.95        0.00      61.78       1.32       0.01       0.19       ----

> <Gold.Chemscore.Fitness>
15.6640

> <Gold.Chemscore.DG>
-15.8564

> <Gold.Chemscore.ZeroCoef>
-5.4800

> <Gold.Chemscore.Hbond>
1.9511

> <Gold.Chemscore.Metal>
0.0000

> <Gold.Chemscore.Lipo>
61.7791

> <Gold.Chemscore.Internal_Hbond>
0.0000

> <Gold.Chemscore.DEClash>
0.0064

> <Gold.Chemscore.DEInternal>
0.1861

> <Gold.Chemscore.Rot>
1.3158

> <Gold.Chemscore.Internal.Correction>
   9.000000E+99

> <Gold.Chemscore.Hbonds>
donor molecule, donor type, donor heavy atom, donor atom, acceptor molecule, acceptor atom, score
      L1  H     1    30       P1 10175  0.85
      P1  H  7997  8008       L1    11  0.14

> <Gold.Chemscore.Hbond.Weighted>
-6.5167

> <Gold.Chemscore.Metal.Weighted>
-0.0000

> <Gold.Chemscore.Lipo.Weighted>
-7.2282

> <Gold.Chemscore.Internal_Hbond.Weighted>
0.0000

> <Gold.Chemscore.DEClash.Weighted>
0.0064

> <Gold.Chemscore.DEInternal.Weighted>
0.1861

> <Gold.Chemscore.Rot.Weighted>
3.3684

> <Gold.Chemscore.Internal.Correction.Weighted>
   9.000000E+99

> <Gold.Protein.RotatedTorsions>
[ 6907 6896 6895 6894 ] final  126.68 input  -60.11 | X-H torsion
[ 7974 7965 7964 7962 ] final  -91.33 input  175.53 | X-H torsion
[ 8008 7997 7996 7995 ] final  -55.15 input   59.86 | X-H torsion
[ 10167 10162 10161 10158 ] final   60.44 input  -65.29 | X-H torsion
[ 10718 10713 10712 10709 ] final  -30.98 input   66.30 | X-H torsion
[ 10763 10752 10751 10750 ] final -133.68 input  -60.55 | X-H torsion
[ 11005 11000 10999 10996 ] final   55.41 input  -57.11 | X-H torsion

> <Gold.Protein.ActiveResidues>
 VAL166  LYS551  ARG553  GLY616  TRP617  ASP618  TYR619  PRO620  LYS621  CYS622 
 ASP623  PHE694  ASN695  SER759  ASP760  ASP761  ALA762  ILE779  LEU786  VAL792 
 PHE793  MET794  SER795  GLU796  ALA797  LYS798  CYS799  TRP800  GLU811  SER814 

> <Gold.Protein.RotatedAtoms>
  152.3881  133.6640  159.6215 H   0  0  0  0  0  0  0  0  0  0  0  0  # atno 6907 bound_to 6896
  150.7796  133.9000  159.3347 H   0  0  0  0  0  0  0  0  0  0  0  0  # atno 6908 bound_to 6896
  151.6792  135.0966  160.0264 H   0  0  0  0  0  0  0  0  0  0  0  0  # atno 6909 bound_to 6896
  145.4145  140.9547  143.2215 H   0  0  0  0  0  0  0  0  0  0  0  0  # atno 7974 bound_to 7965
  154.4185  140.1159  156.5430 H   0  0  0  0  0  0  0  0  0  0  0  0  # atno 8008 bound_to 7997
  155.6488  140.3496  155.4721 H   0  0  0  0  0  0  0  0  0  0  0  0  # atno 8009 bound_to 7997
  155.9810  140.1160  157.0716 H   0  0  0  0  0  0  0  0  0  0  0  0  # atno 8010 bound_to 7997
  140.1656  144.4328  150.6687 H   0  0  0  0  0  0  0  0  0  0  0  0  # atno 10167 bound_to 10162
  156.3931  130.4376  149.7380 H   0  0  0  0  0  0  0  0  0  0  0  0  # atno 10718 bound_to 10713
  154.8729  135.3758  154.4612 H   0  0  0  0  0  0  0  0  0  0  0  0  # atno 10763 bound_to 10752
  153.5280  135.7028  153.5703 H   0  0  0  0  0  0  0  0  0  0  0  0  # atno 10764 bound_to 10752
  153.3920  135.3970  155.1895 H   0  0  0  0  0  0  0  0  0  0  0  0  # atno 10765 bound_to 10752
  140.0609  134.5603  155.9153 H   0  0  0  0  0  0  0  0  0  0  0  0  # atno 11005 bound_to 11000
  144.8286  139.5667  143.6954 LP  0  0  0  0  0  0  0  0  0  0  0  0  # atno 17320 bound_to 7965
  146.2688  139.6584  142.9311 LP  0  0  0  0  0  0  0  0  0  0  0  0  # atno 17321 bound_to 7965
  140.6615  143.2254  151.5844 LP  0  0  0  0  0  0  0  0  0  0  0  0  # atno 17342 bound_to 10162
  139.5361  144.2777  152.1254 LP  0  0  0  0  0  0  0  0  0  0  0  0  # atno 17343 bound_to 10162
  156.4425  130.7868  151.2889 LP  0  0  0  0  0  0  0  0  0  0  0  0  # atno 17370 bound_to 10713
  157.7500  131.0120  150.3368 LP  0  0  0  0  0  0  0  0  0  0  0  0  # atno 17371 bound_to 10713
  141.1973  133.6595  156.5733 LP  0  0  0  0  0  0  0  0  0  0  0  0  # atno 17394 bound_to 11000
  140.3771  134.7555  157.4637 LP  0  0  0  0  0  0  0  0  0  0  0  0  # atno 17395 bound_to 11000

$$$$
