AV-unprocessed.smi:2044|AV-procd|sdf|8305|dock7
  -GOLD-   2272010573D 1   1.00000     0.00000
 Structure written by MMmdl.
 39 40  0  0  0  0  0  0  0  0  3 V2000
  151.2599  141.1657  155.9077 C   0  0  0  0  0  0  0  0  0  0  0  0
  151.5218  139.7925  155.3899 C   0  0  0  0  0  0  0  0  0  0  0  0
  150.7470  138.6709  155.3038 C   0  0  0  0  0  0  0  0  0  0  0  0
  151.6177  137.7201  154.7046 C   0  0  0  0  0  0  0  0  0  0  0  0
  151.3158  136.4440  154.4203 N   0  5  0  0  0  0  0  0  0  0  0  0
  150.4194  135.7720  155.1774 C   0  0  0  0  0  0  0  0  0  0  0  0
  150.6188  135.2945  156.2968 O   0  0  0  0  0  0  0  0  0  0  0  0
  149.2200  135.6344  154.5932 N   0  0  0  0  0  0  0  0  0  0  0  0
  148.0532  134.9600  155.1573 C   0  0  0  0  0  0  0  0  0  0  0  0
  147.4745  133.8653  154.2231 C   0  0  1  0  0  0  0  0  0  0  0  0
  146.4611  132.9704  154.9788 C   0  0  0  0  0  0  0  0  0  0  0  0
  146.9048  134.5016  152.9901 N   0  3  0  0  0  0  0  0  0  0  0  0
  146.3299  133.5051  152.0457 C   0  0  0  0  0  0  0  0  0  0  0  0
  145.8530  134.1812  150.7505 C   0  0  0  0  0  0  0  0  0  0  0  0
  144.8908  135.1776  151.0623 O   0  0  0  0  0  0  0  0  0  0  0  0
  145.4440  136.1960  151.8824 C   0  0  0  0  0  0  0  0  0  0  0  0
  145.9200  135.5956  153.2166 C   0  0  0  0  0  0  0  0  0  0  0  0
  152.8195  138.2163  154.4629 N   0  0  0  0  0  0  0  0  0  0  0  0
  152.7643  139.5472  154.8937 O   0  0  0  0  0  0  0  0  0  0  0  0
  151.0334  141.1380  156.9734 H   0  0  0  0  0  0  0  0  0  0  0  0
  150.4116  141.6161  155.3924 H   0  0  0  0  0  0  0  0  0  0  0  0
  152.1252  141.8130  155.7627 H   0  0  0  0  0  0  0  0  0  0  0  0
  149.7206  138.5493  155.6164 H   0  0  0  0  0  0  0  0  0  0  0  0
  149.1094  136.0423  153.6761 H   0  0  0  0  0  0  0  0  0  0  0  0
  148.2807  134.5336  156.1356 H   0  0  0  0  0  0  0  0  0  0  0  0
  147.3223  135.7448  155.3420 H   0  0  0  0  0  0  0  0  0  0  0  0
  148.2906  133.2108  153.9119 H   0  0  0  0  0  0  0  0  0  0  0  0
  146.9052  132.5158  155.8635 H   0  0  0  0  0  0  0  0  0  0  0  0
  146.1162  132.1346  154.3707 H   0  0  0  0  0  0  0  0  0  0  0  0
  145.5912  133.5408  155.3059 H   0  0  0  0  0  0  0  0  0  0  0  0
  147.0601  132.7411  151.7860 H   0  0  0  0  0  0  0  0  0  0  0  0
  145.4932  132.9918  152.5218 H   0  0  0  0  0  0  0  0  0  0  0  0
  146.6909  134.6192  150.2056 H   0  0  0  0  0  0  0  0  0  0  0  0
  145.3945  133.4450  150.0901 H   0  0  0  0  0  0  0  0  0  0  0  0
  146.2665  136.6913  151.3635 H   0  0  0  0  0  0  0  0  0  0  0  0
  144.6817  136.9540  152.0636 H   0  0  0  0  0  0  0  0  0  0  0  0
  145.0683  135.2130  153.7813 H   0  0  0  0  0  0  0  0  0  0  0  0
  146.3635  136.4049  153.7961 H   0  0  0  0  0  0  0  0  0  0  0  0
  147.6864  134.9346  152.5190 H   0  0  0  0  0  0  0  0  0  0  0  0
  1  2  1  0  0  0  0
  1 20  1  0  0  0  0
  1 21  1  0  0  0  0
  1 22  1  0  0  0  0
  2 19  1  0  0  0  0
  2  3  2  0  0  0  0
  3  4  1  0  0  0  0
  3 23  1  0  0  0  0
  4  5  1  0  0  0  0
  4 18  2  0  0  0  0
  5  6  1  0  0  0  0
  6  7  2  0  0  0  0
  6  8  1  0  0  0  0
  8  9  1  0  0  0  0
  8 24  1  0  0  0  0
  9 10  1  0  0  0  0
  9 25  1  0  0  0  0
  9 26  1  0  0  0  0
 10 11  1  0  0  0  0
 10 12  1  0  0  0  0
 10 27  1  0  0  0  0
 11 28  1  0  0  0  0
 11 29  1  0  0  0  0
 11 30  1  0  0  0  0
 12 17  1  0  0  0  0
 12 13  1  0  0  0  0
 12 39  1  0  0  0  0
 13 14  1  0  0  0  0
 13 31  1  0  0  0  0
 13 32  1  0  0  0  0
 14 15  1  0  0  0  0
 14 33  1  0  0  0  0
 14 34  1  0  0  0  0
 15 16  1  0  0  0  0
 16 17  1  0  0  0  0
 16 35  1  0  0  0  0
 16 36  1  0  0  0  0
 17 37  1  0  0  0  0
 17 38  1  0  0  0  0
 18 19  1  0  0  0  0
M  CHG  1   5  -1
M  CHG  1  12   1
M  END
> <s_m_source_file>
AV-unprocessed.smi

> <i_m_source_file_index>
2044

> <i_lp_mmshare_version>
43012

> <i_f3d_flags>
0

> <s_epik_input>
W0NIM11jMVtjSF1jKG5vMSlbTkhdQyg9TylbTkhdW0NIMl1bQ0BIXShbQ0gzXSlOMltDSDJdW0NIMl1PW0NIMl1bQ0gyXTI=

> <s_epik_cmdline>
J2VwaWtfcHl0aG9uJywgJy1waCcsICc3LjAnLCAnLXRuJywgJzgnLCAnLW1hJywgJzIwMCcsICctbWV0YWxfYmluZGluZycsICctaW1hZScsICc8aW5maWxlLm1hZT4nLCAnLW9tYWUnLCAnPG91dGZpbGUubWFlPic=

> <r_epik_Ionization_Penalty>
6.73014

> <r_epik_Ionization_Penalty_Charging>
6.73004

> <r_epik_Ionization_Penalty_Neutral>
9.51297e-05

> <r_epik_State_Penalty>
6.93052

> <r_epik_Charging_Adjusted_Penalty>
13.6606

> <i_epik_Tot_Q>
0

> <i_epik_Tot_abs_Q>
2

> <r_epik_Metal_State_Penalty>
2.86736

> <b_epik_Metal_Only>
1

> <s_lp_Force_Field>
OPLS_2005

> <r_lp_Energy>
8.75772

> <b_lp_Chiralities_Consistent>
1

> <s_lp_Variant>
AV-unprocessed.smi:2044-8

> <Gold.Version>
5.8.1

> <Gold.Id.Protein>
6NUR|6NUR_protein|mol2

> <Gold.PLP.Fitness>
43.4684

> <Gold.PLP.PLP>
-27.4597

> <Gold.PLP.part.hbond>
-5.6793

> <Gold.PLP.part.metal>
0.0000

> <Gold.PLP.part.buried>
-5.2513

> <Gold.PLP.part.nonpolar>
-18.0371

> <Gold.PLP.part.repulsive>
1.2750

> <Gold.PLP.ligand.clash>
0.0000

> <Gold.PLP.ligand.torsion>
1.0289

> <Gold.PLP.Chemscore.Hbond>
6.0000

> <Gold.PLP.Chemscore.CHOScore>
0.0000

> <Gold.PLP.Chemscore.Metal>
0.0000

> <Gold.Chemscore.Hbonds>
donor molecule, donor type, donor heavy atom, donor atom, acceptor molecule, acceptor atom, score
      L1  H     8    24       P1  7948  1.00
      L1  H    12    39       P1  7948  2.00
      P1  H  7997  8010       L1    19  0.93
      P1  H 10752 10764       L1     5  2.00

> <Gold.PLP.Chemscore.Internal.Correction>
0.0666

> <Gold.Rescore>
     Score         DG    S(hbond)    S(metal)    S(lipo)     H(rot)  DE(clash)    DE(int)     intcor
     16.93     -18.01       3.35        0.00      46.19       1.59       0.02       1.05       ----

> <Gold.Chemscore.Fitness>
16.9337

> <Gold.Chemscore.DG>
-18.0072

> <Gold.Chemscore.ZeroCoef>
-5.4800

> <Gold.Chemscore.Hbond>
3.3535

> <Gold.Chemscore.Metal>
0.0000

> <Gold.Chemscore.Lipo>
46.1938

> <Gold.Chemscore.Internal_Hbond>
0.0000

> <Gold.Chemscore.DEClash>
0.0222

> <Gold.Chemscore.DEInternal>
1.0513

> <Gold.Chemscore.Rot>
1.5930

> <Gold.Chemscore.Internal.Correction>
   9.000000E+99

> <Gold.Chemscore.Hbonds>
donor molecule, donor type, donor heavy atom, donor atom, acceptor molecule, acceptor atom, score
      L1  H     8    24       P1  7948  0.92
      L1  H    12    39       P1  7948  0.96
      P1  H  7997  8010       L1    19  0.78
      P1  H 10752 10764       L1     5  0.37

> <Gold.Chemscore.Hbond.Weighted>
-11.2006

> <Gold.Chemscore.Metal.Weighted>
-0.0000

> <Gold.Chemscore.Lipo.Weighted>
-5.4047

> <Gold.Chemscore.Internal_Hbond.Weighted>
0.0000

> <Gold.Chemscore.DEClash.Weighted>
0.0222

> <Gold.Chemscore.DEInternal.Weighted>
1.0513

> <Gold.Chemscore.Rot.Weighted>
4.0781

> <Gold.Chemscore.Internal.Correction.Weighted>
   9.000000E+99

> <Gold.Protein.RotatedTorsions>
[ 6907 6896 6895 6894 ] final  164.92 input  -60.11 | X-H torsion
[ 7974 7965 7964 7962 ] final   19.73 input  175.53 | X-H torsion
[ 8008 7997 7996 7995 ] final  101.93 input   59.86 | X-H torsion
[ 10167 10162 10161 10158 ] final   40.42 input  -65.29 | X-H torsion
[ 10718 10713 10712 10709 ] final  135.98 input   66.30 | X-H torsion
[ 10763 10752 10751 10750 ] final  -71.55 input  -60.55 | X-H torsion
[ 11005 11000 10999 10996 ] final   94.92 input  -57.11 | X-H torsion

> <Gold.Protein.ActiveResidues>
 VAL166  LYS551  ARG553  GLY616  TRP617  ASP618  TYR619  PRO620  LYS621  CYS622 
 ASP623  PHE694  ASN695  SER759  ASP760  ASP761  ALA762  ILE779  LEU786  VAL792 
 PHE793  MET794  SER795  GLU796  ALA797  LYS798  CYS799  TRP800  GLU811  SER814 

> <Gold.Protein.RotatedAtoms>
  151.9024  133.3541  159.3835 H   0  0  0  0  0  0  0  0  0  0  0  0  # atno 6907 bound_to 6896
  150.7077  134.4815  159.5482 H   0  0  0  0  0  0  0  0  0  0  0  0  # atno 6908 bound_to 6896
  152.2406  134.8233  160.0512 H   0  0  0  0  0  0  0  0  0  0  0  0  # atno 6909 bound_to 6896
  146.2138  139.8270  142.8668 H   0  0  0  0  0  0  0  0  0  0  0  0  # atno 7974 bound_to 7965
  156.1345  140.3189  155.8400 H   0  0  0  0  0  0  0  0  0  0  0  0  # atno 8008 bound_to 7997
  155.4270  140.0516  157.3038 H   0  0  0  0  0  0  0  0  0  0  0  0  # atno 8009 bound_to 7997
  154.4926  140.2098  155.9528 H   0  0  0  0  0  0  0  0  0  0  0  0  # atno 8010 bound_to 7997
  140.3744  144.2063  150.6132 H   0  0  0  0  0  0  0  0  0  0  0  0  # atno 10167 bound_to 10162
  157.4514  131.1066  151.0028 H   0  0  0  0  0  0  0  0  0  0  0  0  # atno 10718 bound_to 10713
  154.4333  135.5958  153.6082 H   0  0  0  0  0  0  0  0  0  0  0  0  # atno 10763 bound_to 10752
  152.9800  135.5980  154.3812 H   0  0  0  0  0  0  0  0  0  0  0  0  # atno 10764 bound_to 10752
  154.3653  135.2841  155.2276 H   0  0  0  0  0  0  0  0  0  0  0  0  # atno 10765 bound_to 10752
  139.8794  134.8871  156.3935 H   0  0  0  0  0  0  0  0  0  0  0  0  # atno 11005 bound_to 11000
  145.3036  141.0201  143.3594 LP  0  0  0  0  0  0  0  0  0  0  0  0  # atno 17320 bound_to 7965
  144.8987  139.4677  143.6643 LP  0  0  0  0  0  0  0  0  0  0  0  0  # atno 17321 bound_to 7965
  140.5001  143.2320  151.8691 LP  0  0  0  0  0  0  0  0  0  0  0  0  # atno 17342 bound_to 10162
  139.4801  144.5069  151.8986 LP  0  0  0  0  0  0  0  0  0  0  0  0  # atno 17343 bound_to 10162
  157.0857  130.5921  149.5429 LP  0  0  0  0  0  0  0  0  0  0  0  0  # atno 17370 bound_to 10713
  155.9989  130.5064  150.7587 LP  0  0  0  0  0  0  0  0  0  0  0  0  # atno 17371 bound_to 10713
  140.9316  133.7575  156.0032 LP  0  0  0  0  0  0  0  0  0  0  0  0  # atno 17394 bound_to 11000
  140.8324  134.3163  157.5344 LP  0  0  0  0  0  0  0  0  0  0  0  0  # atno 17395 bound_to 11000

$$$$
