AV-unprocessed.smi:1831|AV-procd|sdf|7458|dock7
  -GOLD-   22720 9153D 1   1.00000     0.00000
 Structure written by MMmdl.
 41 42  0  0  0  0  0  0  0  0  2 V2000
  151.8807  140.9706  157.4625 C   0  0  0  0  0  0  0  0  0  0  0  0
  151.3932  140.0461  156.4002 C   0  0  0  0  0  0  0  0  0  0  0  0
  151.2320  140.4307  155.1285 N   0  0  0  0  0  0  0  0  0  0  0  0
  150.7675  139.4009  154.3224 N   0  0  0  0  0  0  0  0  0  0  0  0
  150.5906  138.2663  155.0132 C   0  0  0  0  0  0  0  0  0  0  0  0
  150.1235  137.0558  154.4355 N   0  0  0  0  0  0  0  0  0  0  0  0
  150.0792  135.8318  154.9909 C   0  0  0  0  0  0  0  0  0  0  0  0
  150.4462  135.5533  156.1325 O   0  0  0  0  0  0  0  0  0  0  0  0
  149.5728  134.9289  154.1397 N   0  0  0  0  0  0  0  0  0  0  0  0
  149.3689  133.5203  154.4571 C   0  0  0  0  0  0  0  0  0  0  0  0
  148.6919  132.7779  153.2933 C   0  0  2  0  0  0  0  0  0  0  0  0
  147.2717  133.2560  153.0008 C   0  0  0  0  0  0  0  0  0  0  0  0
  146.5852  132.0598  152.3288 C   0  0  0  0  0  0  0  0  0  0  0  0
  147.4525  130.8747  152.5497 N   0  3  2  0  0  0  0  0  0  0  0  0
  146.7303  129.6092  152.8639 C   0  0  0  0  0  0  0  0  0  0  0  0
  147.6678  128.3879  152.8061 C   0  0  0  0  0  0  0  0  0  0  0  0
  145.5468  129.3928  151.9020 C   0  0  0  0  0  0  0  0  0  0  0  0
  148.4870  131.2806  153.5263 C   0  0  0  0  0  0  0  0  0  0  0  0
  150.9765  138.3672  156.7225 S   0  0  0  0  0  0  0  0  0  0  0  0
  152.6826  141.6007  157.0769 H   0  0  0  0  0  0  0  0  0  0  0  0
  152.2616  140.4043  158.3124 H   0  0  0  0  0  0  0  0  0  0  0  0
  151.0653  141.6086  157.8033 H   0  0  0  0  0  0  0  0  0  0  0  0
  149.7751  137.1343  153.4918 H   0  0  0  0  0  0  0  0  0  0  0  0
  149.2886  135.2414  153.2226 H   0  0  0  0  0  0  0  0  0  0  0  0
  150.3229  133.0454  154.6934 H   0  0  0  0  0  0  0  0  0  0  0  0
  148.7510  133.4525  155.3534 H   0  0  0  0  0  0  0  0  0  0  0  0
  149.2881  132.9086  152.3881 H   0  0  0  0  0  0  0  0  0  0  0  0
  146.7560  133.4909  153.9332 H   0  0  0  0  0  0  0  0  0  0  0  0
  147.2531  134.1524  152.3800 H   0  0  0  0  0  0  0  0  0  0  0  0
  145.5888  131.9232  152.7519 H   0  0  0  0  0  0  0  0  0  0  0  0
  146.4714  132.2208  151.2564 H   0  0  0  0  0  0  0  0  0  0  0  0
  146.3385  129.6851  153.8794 H   0  0  0  0  0  0  0  0  0  0  0  0
  147.1174  127.4649  152.9910 H   0  0  0  0  0  0  0  0  0  0  0  0
  148.4552  128.4389  153.5583 H   0  0  0  0  0  0  0  0  0  0  0  0
  148.1421  128.2973  151.8282 H   0  0  0  0  0  0  0  0  0  0  0  0
  145.0343  128.4548  152.1184 H   0  0  0  0  0  0  0  0  0  0  0  0
  145.8825  129.3522  150.8651 H   0  0  0  0  0  0  0  0  0  0  0  0
  144.8022  130.1848  151.9793 H   0  0  0  0  0  0  0  0  0  0  0  0
  149.4101  130.7154  153.3940 H   0  0  0  0  0  0  0  0  0  0  0  0
  148.1230  131.1057  154.5406 H   0  0  0  0  0  0  0  0  0  0  0  0
  147.9426  130.7250  151.6792 H   0  0  0  0  0  0  0  0  0  0  0  0
  1  2  1  0  0  0  0
  1 20  1  0  0  0  0
  1 21  1  0  0  0  0
  1 22  1  0  0  0  0
  2 19  1  0  0  0  0
  2  3  2  0  0  0  0
  3  4  1  0  0  0  0
  4  5  2  0  0  0  0
  5  6  1  0  0  0  0
  5 19  1  0  0  0  0
  6  7  1  0  0  0  0
  6 23  1  0  0  0  0
  7  8  2  0  0  0  0
  7  9  1  0  0  0  0
  9 10  1  0  0  0  0
  9 24  1  0  0  0  0
 10 11  1  0  0  0  0
 10 25  1  0  0  0  0
 10 26  1  0  0  0  0
 11 18  1  0  0  0  0
 11 12  1  0  0  0  0
 11 27  1  0  0  0  0
 12 13  1  0  0  0  0
 12 28  1  0  0  0  0
 12 29  1  0  0  0  0
 13 14  1  0  0  0  0
 13 30  1  0  0  0  0
 13 31  1  0  0  0  0
 14 15  1  0  0  0  0
 14 18  1  0  0  0  0
 14 41  1  0  0  0  0
 15 16  1  0  0  0  0
 15 17  1  0  0  0  0
 15 32  1  0  0  0  0
 16 33  1  0  0  0  0
 16 34  1  0  0  0  0
 16 35  1  0  0  0  0
 17 36  1  0  0  0  0
 17 37  1  0  0  0  0
 17 38  1  0  0  0  0
 18 39  1  0  0  0  0
 18 40  1  0  0  0  0
M  CHG  1  14   1
M  END
> <s_m_source_file>
AV-unprocessed.smi

> <i_m_source_file_index>
1831

> <i_lp_mmshare_version>
43012

> <i_f3d_flags>
0

> <s_epik_input>
W0NIM11jMW5uYyhzMSlbTkhdQyg9TylbTkhdW0NIMl1bQ0BASF0yW0NIMl1bQ0gyXU4oW0NIMl0yKVtDSF0oW0NIM10pW0NIM10=

> <s_epik_cmdline>
J2VwaWtfcHl0aG9uJywgJy1waCcsICc3LjAnLCAnLXRuJywgJzgnLCAnLW1hJywgJzIwMCcsICctbWV0YWxfYmluZGluZycsICctaW1hZScsICc8aW5maWxlLm1hZT4nLCAnLW9tYWUnLCAnPG91dGZpbGUubWFlPic=

> <r_lp_tautomer_probability>
1

> <r_epik_Ionization_Penalty>
0.00080807

> <r_epik_Ionization_Penalty_Charging>
0.000218981

> <r_epik_Ionization_Penalty_Neutral>
0.00058909

> <r_epik_State_Penalty>
-0

> <r_epik_Charging_Adjusted_Penalty>
0.000218981

> <i_epik_Tot_Q>
1

> <i_epik_Tot_abs_Q>
1

> <r_epik_Metal_State_Penalty>
0.236062

> <b_epik_Metal_Only>
0

> <s_lp_Force_Field>
OPLS_2005

> <r_lp_Energy>
30.7631

> <b_lp_Chiralities_Consistent>
1

> <s_lp_Variant>
AV-unprocessed.smi:1831-3

> <Gold.Version>
5.8.1

> <Gold.Id.Protein>
6NUR|6NUR_protein|mol2

> <Gold.PLP.Fitness>
40.5102

> <Gold.PLP.PLP>
-32.3756

> <Gold.PLP.part.hbond>
-5.3317

> <Gold.PLP.part.metal>
0.0000

> <Gold.PLP.part.buried>
-4.2662

> <Gold.PLP.part.nonpolar>
-23.1628

> <Gold.PLP.part.repulsive>
0.3092

> <Gold.PLP.ligand.clash>
0.0000

> <Gold.PLP.ligand.torsion>
0.1389

> <Gold.PLP.Chemscore.Hbond>
2.7920

> <Gold.PLP.Chemscore.CHOScore>
0.0000

> <Gold.PLP.Chemscore.Metal>
0.0000

> <Gold.Chemscore.Hbonds>
donor molecule, donor type, donor heavy atom, donor atom, acceptor molecule, acceptor atom, score
      L1  H     6    23       P1  7948  0.98
      L1  H     9    24       P1  7948  0.75
      L1  H    14    41       P1 10747  1.00

> <Gold.PLP.Chemscore.Internal.Correction>
0.0363

> <Gold.Rescore>
     Score         DG    S(hbond)    S(metal)    S(lipo)     H(rot)  DE(clash)    DE(int)     intcor
     15.83     -17.16       2.39        0.00      65.18       1.54       0.05       1.28       ----

> <Gold.Chemscore.Fitness>
15.8254

> <Gold.Chemscore.DG>
-17.1603

> <Gold.Chemscore.ZeroCoef>
-5.4800

> <Gold.Chemscore.Hbond>
2.3939

> <Gold.Chemscore.Metal>
0.0000

> <Gold.Chemscore.Lipo>
65.1803

> <Gold.Chemscore.Internal_Hbond>
0.0000

> <Gold.Chemscore.DEClash>
0.0528

> <Gold.Chemscore.DEInternal>
1.2822

> <Gold.Chemscore.Rot>
1.5396

> <Gold.Chemscore.Internal.Correction>
   9.000000E+99

> <Gold.Chemscore.Hbonds>
donor molecule, donor type, donor heavy atom, donor atom, acceptor molecule, acceptor atom, score
      L1  H     6    23       P1  7948  0.54
      L1  H     9    24       P1  7948  0.09
      L1  H    14    41       P1 10747  1.00

> <Gold.Chemscore.Hbond.Weighted>
-7.9955

> <Gold.Chemscore.Metal.Weighted>
-0.0000

> <Gold.Chemscore.Lipo.Weighted>
-7.6261

> <Gold.Chemscore.Internal_Hbond.Weighted>
0.0000

> <Gold.Chemscore.DEClash.Weighted>
0.0528

> <Gold.Chemscore.DEInternal.Weighted>
1.2822

> <Gold.Chemscore.Rot.Weighted>
3.9413

> <Gold.Chemscore.Internal.Correction.Weighted>
   9.000000E+99

> <Gold.Protein.RotatedTorsions>
[ 6907 6896 6895 6894 ] final   25.76 input  -60.11 | X-H torsion
[ 7974 7965 7964 7962 ] final   91.94 input  175.53 | X-H torsion
[ 8008 7997 7996 7995 ] final -128.75 input   59.86 | X-H torsion
[ 10167 10162 10161 10158 ] final  158.86 input  -65.29 | X-H torsion
[ 10718 10713 10712 10709 ] final -171.37 input   66.30 | X-H torsion
[ 10763 10752 10751 10750 ] final  -30.77 input  -60.55 | X-H torsion
[ 11005 11000 10999 10996 ] final -108.61 input  -57.11 | X-H torsion

> <Gold.Protein.ActiveResidues>
 VAL166  LYS551  ARG553  GLY616  TRP617  ASP618  TYR619  PRO620  LYS621  CYS622 
 ASP623  PHE694  ASN695  SER759  ASP760  ASP761  ALA762  ILE779  LEU786  VAL792 
 PHE793  MET794  SER795  GLU796  ALA797  LYS798  CYS799  TRP800  GLU811  SER814 

> <Gold.Protein.RotatedAtoms>
  151.9774  135.0046  160.0555 H   0  0  0  0  0  0  0  0  0  0  0  0  # atno 6907 bound_to 6896
  152.1728  133.4650  159.4926 H   0  0  0  0  0  0  0  0  0  0  0  0  # atno 6908 bound_to 6896
  150.6904  134.1849  159.4306 H   0  0  0  0  0  0  0  0  0  0  0  0  # atno 6909 bound_to 6896
  145.4989  139.2276  143.2788 H   0  0  0  0  0  0  0  0  0  0  0  0  # atno 7974 bound_to 7965
  155.2678  140.0438  157.3004 H   0  0  0  0  0  0  0  0  0  0  0  0  # atno 8008 bound_to 7997
  154.5671  140.2363  155.8216 H   0  0  0  0  0  0  0  0  0  0  0  0  # atno 8009 bound_to 7997
  156.2094  140.3003  155.9706 H   0  0  0  0  0  0  0  0  0  0  0  0  # atno 8010 bound_to 7997
  139.4829  144.4784  151.8478 H   0  0  0  0  0  0  0  0  0  0  0  0  # atno 10167 bound_to 10162
  156.7399  130.9338  151.3109 H   0  0  0  0  0  0  0  0  0  0  0  0  # atno 10718 bound_to 10713
  153.7863  135.6901  153.4879 H   0  0  0  0  0  0  0  0  0  0  0  0  # atno 10763 bound_to 10752
  153.1778  135.4518  154.9987 H   0  0  0  0  0  0  0  0  0  0  0  0  # atno 10764 bound_to 10752
  154.8062  135.3358  154.7363 H   0  0  0  0  0  0  0  0  0  0  0  0  # atno 10765 bound_to 10752
  141.0892  133.9085  157.2115 H   0  0  0  0  0  0  0  0  0  0  0  0  # atno 11005 bound_to 11000
  146.2238  140.5789  142.9005 LP  0  0  0  0  0  0  0  0  0  0  0  0  # atno 17320 bound_to 7965
  144.7791  140.5802  143.6618 LP  0  0  0  0  0  0  0  0  0  0  0  0  # atno 17321 bound_to 7965
  140.4259  144.2181  150.5887 LP  0  0  0  0  0  0  0  0  0  0  0  0  # atno 17342 bound_to 10162
  140.4828  143.2373  151.8931 LP  0  0  0  0  0  0  0  0  0  0  0  0  # atno 17343 bound_to 10162
  157.6823  130.9152  150.0298 LP  0  0  0  0  0  0  0  0  0  0  0  0  # atno 17370 bound_to 10713
  156.1472  130.3642  149.9493 LP  0  0  0  0  0  0  0  0  0  0  0  0  # atno 17371 bound_to 10713
  139.9715  135.0127  156.9524 LP  0  0  0  0  0  0  0  0  0  0  0  0  # atno 17394 bound_to 11000
  140.5292  134.0831  155.7311 LP  0  0  0  0  0  0  0  0  0  0  0  0  # atno 17395 bound_to 11000

$$$$
