AV-unprocessed.smi:230|AV-procd|sdf|1764|dock9
  -GOLD-   2262020303D 1   1.00000     0.00000
 Structure written by MMmdl.
 56 59  0  0  0  0  0  0  0  0  1 V2000
  146.6901  142.1091  154.0838 C   0  0  0  0  0  0  0  0  0  0  0  0
  146.6426  140.5751  154.1156 C   0  0  0  0  0  0  0  0  0  0  0  0
  148.0373  139.8940  154.1051 C   0  0  1  0  0  0  0  0  0  0  0  0
  149.1522  140.9110  154.4394 C   0  0  0  0  0  0  0  0  0  0  0  0
  150.4317  140.2837  154.4874 O   0  0  0  0  0  0  0  0  0  0  0  0
  150.5460  139.1974  155.4086 C   0  0  0  0  0  0  0  0  0  0  0  0
  151.9381  138.5953  155.1629 C   0  0  0  0  0  0  0  0  0  0  0  0
  150.4509  139.6847  156.8703 C   0  0  0  0  0  0  0  0  0  0  0  0
  149.4586  138.1581  155.0718 C   0  0  0  0  0  0  0  0  0  0  0  0
  148.1328  138.7686  155.0426 N   0  0  0  0  0  0  0  0  0  0  0  0
  147.1462  137.8479  154.9497 C   0  0  0  0  0  0  0  0  0  0  0  0
  146.8057  137.0978  156.0310 N   0  0  0  0  0  0  0  0  0  0  0  0
  145.8523  136.1672  155.9221 C   0  0  0  0  0  0  0  0  0  0  0  0
  145.1380  135.8246  154.8470 N   0  0  0  0  0  0  0  0  0  0  0  0
  145.4845  136.5748  153.7613 C   0  0  0  0  0  0  0  0  0  0  0  0
  146.4654  137.6039  153.7289 C   0  0  0  0  0  0  0  0  0  0  0  0
  146.5480  138.1481  152.4541 N   0  0  0  0  0  0  0  0  0  0  0  0
  145.6693  137.4708  151.7662 C   0  0  0  0  0  0  0  0  0  0  0  0
  144.9941  136.4982  152.4696 N   0  0  0  0  0  0  0  0  0  0  0  0
  143.9843  135.5899  151.9488 C   0  0  0  0  0  0  0  0  0  0  0  0
  144.5503  134.5130  150.9897 C   0  0  0  0  0  0  0  0  0  0  0  0
  144.7003  135.1113  149.7134 O   0  0  0  0  0  0  0  0  0  0  0  0
  145.9260  133.9748  151.4417 C   0  0  0  0  0  0  0  0  0  0  0  0
  146.3817  132.7685  150.6015 C   0  0  0  0  0  0  0  0  0  0  0  0
  145.3884  131.7506  150.6246 O   0  0  0  0  0  0  0  0  0  0  0  0
  144.1577  132.1697  150.0474 C   0  0  0  0  0  0  0  0  0  0  0  0
  143.5651  133.3341  150.8611 C   0  0  0  0  0  0  0  0  0  0  0  0
  145.6851  142.5213  153.9915 H   0  0  0  0  0  0  0  0  0  0  0  0
  147.2725  142.4662  153.2341 H   0  0  0  0  0  0  0  0  0  0  0  0
  147.1257  142.5230  154.9927 H   0  0  0  0  0  0  0  0  0  0  0  0
  146.0763  140.2460  154.9877 H   0  0  0  0  0  0  0  0  0  0  0  0
  146.0640  140.2649  153.2455 H   0  0  0  0  0  0  0  0  0  0  0  0
  148.2216  139.5014  153.1037 H   0  0  0  0  0  0  0  0  0  0  0  0
  149.2047  141.6843  153.6740 H   0  0  0  0  0  0  0  0  0  0  0  0
  148.9448  141.4250  155.3780 H   0  0  0  0  0  0  0  0  0  0  0  0
  152.1160  137.7307  155.8032 H   0  0  0  0  0  0  0  0  0  0  0  0
  152.7242  139.3239  155.3633 H   0  0  0  0  0  0  0  0  0  0  0  0
  152.0504  138.2694  154.1282 H   0  0  0  0  0  0  0  0  0  0  0  0
  150.6471  138.8680  157.5654 H   0  0  0  0  0  0  0  0  0  0  0  0
  149.4651  140.0779  157.1163 H   0  0  0  0  0  0  0  0  0  0  0  0
  151.1796  140.4705  157.0711 H   0  0  0  0  0  0  0  0  0  0  0  0
  149.6676  137.7165  154.0959 H   0  0  0  0  0  0  0  0  0  0  0  0
  149.4798  137.3448  155.7993 H   0  0  0  0  0  0  0  0  0  0  0  0
  145.6347  135.6137  156.8237 H   0  0  0  0  0  0  0  0  0  0  0  0
  145.4959  137.6542  150.7157 H   0  0  0  0  0  0  0  0  0  0  0  0
  143.4894  135.1135  152.7960 H   0  0  0  0  0  0  0  0  0  0  0  0
  143.2190  136.1829  151.4456 H   0  0  0  0  0  0  0  0  0  0  0  0
  143.9187  134.9423  149.2095 H   0  0  0  0  0  0  0  0  0  0  0  0
  146.6852  134.7568  151.3985 H   0  0  0  0  0  0  0  0  0  0  0  0
  145.8641  133.6651  152.4860 H   0  0  0  0  0  0  0  0  0  0  0  0
  146.5933  133.0631  149.5724 H   0  0  0  0  0  0  0  0  0  0  0  0
  147.3080  132.3623  151.0085 H   0  0  0  0  0  0  0  0  0  0  0  0
  144.3087  132.4529  149.0045 H   0  0  0  0  0  0  0  0  0  0  0  0
  143.4661  131.3271  150.0472 H   0  0  0  0  0  0  0  0  0  0  0  0
  143.3148  132.9646  151.8565 H   0  0  0  0  0  0  0  0  0  0  0  0
  142.6268  133.6649  150.4141 H   0  0  0  0  0  0  0  0  0  0  0  0
  1  2  1  0  0  0  0
  1 28  1  0  0  0  0
  1 29  1  0  0  0  0
  1 30  1  0  0  0  0
  2  3  1  0  0  0  0
  2 31  1  0  0  0  0
  2 32  1  0  0  0  0
  3 10  1  0  0  0  0
  3  4  1  0  0  0  0
  3 33  1  0  0  0  0
  4  5  1  0  0  0  0
  4 34  1  0  0  0  0
  4 35  1  0  0  0  0
  5  6  1  0  0  0  0
  6  7  1  0  0  0  0
  6  8  1  0  0  0  0
  6  9  1  0  0  0  0
  7 36  1  0  0  0  0
  7 37  1  0  0  0  0
  7 38  1  0  0  0  0
  8 39  1  0  0  0  0
  8 40  1  0  0  0  0
  8 41  1  0  0  0  0
  9 10  1  0  0  0  0
  9 42  1  0  0  0  0
  9 43  1  0  0  0  0
 10 11  1  0  0  0  0
 11 16  1  0  0  0  0
 11 12  2  0  0  0  0
 12 13  1  0  0  0  0
 13 14  2  0  0  0  0
 13 44  1  0  0  0  0
 14 15  1  0  0  0  0
 15 19  1  0  0  0  0
 15 16  2  0  0  0  0
 16 17  1  0  0  0  0
 17 18  2  0  0  0  0
 18 19  1  0  0  0  0
 18 45  1  0  0  0  0
 19 20  1  0  0  0  0
 20 21  1  0  0  0  0
 20 46  1  0  0  0  0
 20 47  1  0  0  0  0
 21 27  1  0  0  0  0
 21 22  1  0  0  0  0
 21 23  1  0  0  0  0
 22 48  1  0  0  0  0
 23 24  1  0  0  0  0
 23 49  1  0  0  0  0
 23 50  1  0  0  0  0
 24 25  1  0  0  0  0
 24 51  1  0  0  0  0
 24 52  1  0  0  0  0
 25 26  1  0  0  0  0
 26 27  1  0  0  0  0
 26 53  1  0  0  0  0
 26 54  1  0  0  0  0
 27 55  1  0  0  0  0
 27 56  1  0  0  0  0
M  END
> <s_m_source_file>
AV-unprocessed.smi

> <i_m_source_file_index>
230

> <i_lp_mmshare_version>
43012

> <i_f3d_flags>
0

> <s_epik_input>
W0NIM11DMShbQ0gzXSlPW0NIMl1bQ0BASF0oW0NIMl1bQ0gzXSlOKFtDSDJdMSljKG5bY0hdbjIpYyhjMjMpbltjSF1uM1tDSDJdQzQoW09IXSlbQ0gyXVtDSDJdT1tDSDJdW0NIMl00

> <s_epik_cmdline>
J2VwaWtfcHl0aG9uJywgJy1waCcsICc3LjAnLCAnLXRuJywgJzgnLCAnLW1hJywgJzIwMCcsICctbWV0YWxfYmluZGluZycsICctaW1hZScsICc8aW5maWxlLm1hZT4nLCAnLW9tYWUnLCAnPG91dGZpbGUubWFlPic=

> <r_lp_tautomer_probability>
1

> <r_epik_Ionization_Penalty>
0.000120535

> <r_epik_Ionization_Penalty_Charging>
0

> <r_epik_Ionization_Penalty_Neutral>
0.000120535

> <r_epik_State_Penalty>
-0

> <r_epik_Charging_Adjusted_Penalty>
0

> <i_epik_Tot_Q>
0

> <i_epik_Tot_abs_Q>
0

> <r_epik_Metal_State_Penalty>
-0

> <b_epik_Metal_Only>
0

> <s_lp_Force_Field>
OPLS_2005

> <r_lp_Energy>
34.4524

> <b_lp_Chiralities_Consistent>
1

> <s_lp_Variant>
AV-unprocessed.smi:230-2

> <Gold.Version>
5.8.1

> <Gold.Id.Protein>
6NUR|6NUR_protein|mol2

> <Gold.PLP.Fitness>
41.5545

> <Gold.PLP.PLP>
-38.6488

> <Gold.PLP.part.hbond>
-1.7066

> <Gold.PLP.part.metal>
0.0000

> <Gold.PLP.part.buried>
-5.2394

> <Gold.PLP.part.nonpolar>
-34.3585

> <Gold.PLP.part.repulsive>
0.6744

> <Gold.PLP.ligand.clash>
0.0000

> <Gold.PLP.ligand.torsion>
1.5916

> <Gold.PLP.Chemscore.Hbond>
0.9675

> <Gold.PLP.Chemscore.CHOScore>
1.0000

> <Gold.PLP.Chemscore.Metal>
0.0000

> <Gold.Chemscore.Hbonds>
donor molecule, donor type, donor heavy atom, donor atom, acceptor molecule, acceptor atom, score
      P1  H  7989  7998       L1     5  1.00
      L1  C    18    45       P1 10171  0.99

> <Gold.PLP.Chemscore.Internal.Correction>
0.1865

> <Gold.Rescore>
     Score         DG    S(hbond)    S(metal)    S(lipo)     H(rot)  DE(clash)    DE(int)     intcor
      8.49     -14.23       1.21        0.00      88.67       2.21       0.61       5.13       ----

> <Gold.Chemscore.Fitness>
8.4937

> <Gold.Chemscore.DG>
-14.2280

> <Gold.Chemscore.ZeroCoef>
-5.4800

> <Gold.Chemscore.Hbond>
1.2076

> <Gold.Chemscore.Metal>
0.0000

> <Gold.Chemscore.Lipo>
88.6675

> <Gold.Chemscore.Internal_Hbond>
0.0000

> <Gold.Chemscore.DEClash>
0.6070

> <Gold.Chemscore.DEInternal>
5.1273

> <Gold.Chemscore.Rot>
2.2107

> <Gold.Chemscore.Internal.Correction>
   9.000000E+99

> <Gold.Chemscore.Hbonds>
donor molecule, donor type, donor heavy atom, donor atom, acceptor molecule, acceptor atom, score
      P1  H  7989  7998       L1     5  0.92

> <Gold.Chemscore.Hbond.Weighted>
-4.0334

> <Gold.Chemscore.Metal.Weighted>
-0.0000

> <Gold.Chemscore.Lipo.Weighted>
-10.3741

> <Gold.Chemscore.Internal_Hbond.Weighted>
0.0000

> <Gold.Chemscore.DEClash.Weighted>
0.6070

> <Gold.Chemscore.DEInternal.Weighted>
5.1273

> <Gold.Chemscore.Rot.Weighted>
5.6595

> <Gold.Chemscore.Internal.Correction.Weighted>
   9.000000E+99

> <Gold.Protein.RotatedTorsions>
[ 6907 6896 6895 6894 ] final   43.69 input  -60.11 | X-H torsion
[ 7974 7965 7964 7962 ] final -172.26 input  175.53 | X-H torsion
[ 8008 7997 7996 7995 ] final  -64.47 input   59.86 | X-H torsion
[ 10167 10162 10161 10158 ] final  137.93 input  -65.29 | X-H torsion
[ 10718 10713 10712 10709 ] final -160.48 input   66.30 | X-H torsion
[ 10763 10752 10751 10750 ] final   37.13 input  -60.55 | X-H torsion
[ 11005 11000 10999 10996 ] final  172.56 input  -57.11 | X-H torsion

> <Gold.Protein.ActiveResidues>
 VAL166  LYS551  ARG553  GLY616  TRP617  ASP618  TYR619  PRO620  LYS621  CYS622 
 ASP623  PHE694  ASN695  SER759  ASP760  ASP761  ALA762  ILE779  LEU786  VAL792 
 PHE793  MET794  SER795  GLU796  ALA797  LYS798  CYS799  TRP800  GLU811  SER814 

> <Gold.Protein.RotatedAtoms>
  152.2234  134.8391  160.0482 H   0  0  0  0  0  0  0  0  0  0  0  0  # atno 6907 bound_to 6896
  151.9167  133.3570  159.3890 H   0  0  0  0  0  0  0  0  0  0  0  0  # atno 6908 bound_to 6896
  150.7006  134.4602  159.5421 H   0  0  0  0  0  0  0  0  0  0  0  0  # atno 6909 bound_to 6896
  144.7148  140.1799  143.6359 H   0  0  0  0  0  0  0  0  0  0  0  0  # atno 7974 bound_to 7965
  154.4614  140.0953  156.6902 H   0  0  0  0  0  0  0  0  0  0  0  0  # atno 8008 bound_to 7997
  155.4984  140.3473  155.4348 H   0  0  0  0  0  0  0  0  0  0  0  0  # atno 8009 bound_to 7997
  156.0877  140.1389  156.9621 H   0  0  0  0  0  0  0  0  0  0  0  0  # atno 8010 bound_to 7997
  139.5128  144.6382  151.5639 H   0  0  0  0  0  0  0  0  0  0  0  0  # atno 10167 bound_to 10162
  156.5828  130.8736  151.2869 H   0  0  0  0  0  0  0  0  0  0  0  0  # atno 10718 bound_to 10713
  153.0049  135.6286  154.2096 H   0  0  0  0  0  0  0  0  0  0  0  0  # atno 10763 bound_to 10752
  154.1840  135.2812  155.3045 H   0  0  0  0  0  0  0  0  0  0  0  0  # atno 10764 bound_to 10752
  154.5812  135.5646  153.7247 H   0  0  0  0  0  0  0  0  0  0  0  0  # atno 10765 bound_to 10752
  140.3311  134.7357  157.4135 H   0  0  0  0  0  0  0  0  0  0  0  0  # atno 11005 bound_to 11000
  145.8866  139.2352  143.1574 LP  0  0  0  0  0  0  0  0  0  0  0  0  # atno 17320 bound_to 7965
  145.9944  140.8575  143.0050 LP  0  0  0  0  0  0  0  0  0  0  0  0  # atno 17321 bound_to 7965
  140.6139  143.9385  150.6474 LP  0  0  0  0  0  0  0  0  0  0  0  0  # atno 17342 bound_to 10162
  140.2636  143.3506  152.1300 LP  0  0  0  0  0  0  0  0  0  0  0  0  # atno 17343 bound_to 10162
  157.7322  130.9712  150.1919 LP  0  0  0  0  0  0  0  0  0  0  0  0  # atno 17370 bound_to 10713
  156.2617  130.3711  149.8124 LP  0  0  0  0  0  0  0  0  0  0  0  0  # atno 17371 bound_to 10713
  140.0860  134.5666  155.8492 LP  0  0  0  0  0  0  0  0  0  0  0  0  # atno 17394 bound_to 11000
  141.2063  133.6654  156.6234 LP  0  0  0  0  0  0  0  0  0  0  0  0  # atno 17395 bound_to 11000

$$$$
