#       Name:                AV-unprocessed.smi:1999
#       Creating user name   scv26
#       Creation time:       Fri Mar 27 10:31:13 2020


#       File generated by GOLD software.
#

@<TRIPOS>MOLECULE
AV-unprocessed.smi:1999
    45    46     1
SMALL
NO_CHARGES


@<TRIPOS>ATOM
      1 ****        -7.4948   2.9650   0.8167 C.3            1 S1                 0.0000
      2 ****        -6.0571   2.5747   0.7771 C.2            1 S1                 0.0000
      3 ****        -5.0638   3.4650   0.8863 N.2            1 S1                 0.0000
      4 ****        -3.8124   2.8677   0.8248 N.2            1 S1                 0.0000
      5 ****        -3.8999   1.5391   0.6727 C.2            1 S1                 0.0000
      6 ****        -2.7737   0.6793   0.5789 N.am           1 S1                 0.0000
      7 ****        -1.4699   1.0033   0.6382 C.2            1 S1                 0.0000
      8 ****        -1.0253   2.1401   0.7999 O.2            1 S1                 0.0000
      9 ****        -0.6951  -0.0829   0.5006 N.am           1 S1                 0.0000
     10 ****         0.7651  -0.0927   0.5171 C.3            1 S1                 0.0000
     11 ****         1.2646  -0.2197   1.9667 C.3            1 S1                 0.0000
     12 ****         1.2591  -1.2499  -0.3755 C.3            1 S1                 0.0000
     13 ****         2.7106  -1.3705  -0.5185 N.3            1 S1                 0.0000
     14 ****         3.3036  -0.2507  -1.2476 C.3            1 S1                 0.0000
     15 ****         4.8247  -0.4146  -1.4141 C.3            1 S1                 0.0000
     16 ****         5.1071  -1.6508  -2.0614 O.3            1 S1                 0.0000
     17 ****         4.5869  -2.7707  -1.3532 C.3            1 S1                 0.0000
     18 ****         3.0650  -2.6147  -1.1930 C.3            1 S1                 0.0000
     19 ****        -5.5347   0.9050   0.5895 S.3            1 S1                 0.0000
     20 ****        -7.6347   3.9466   0.3629 H              1 S1                 0.0000
     21 ****        -7.8419   3.0026   1.8492 H              1 S1                 0.0000
     22 ****        -8.0979   2.2401   0.2699 H              1 S1                 0.0000
     23 ****        -2.9865  -0.2988   0.4503 H              1 S1                 0.0000
     24 ****        -1.1497  -0.9752   0.3746 H              1 S1                 0.0000
     25 ****         1.1175   0.8529   0.1042 H              1 S1                 0.0000
     26 ****         2.3536  -0.1954   2.0126 H              1 S1                 0.0000
     27 ****         0.9335  -1.1542   2.4207 H              1 S1                 0.0000
     28 ****         0.8966   0.5999   2.5847 H              1 S1                 0.0000
     29 ****         0.8687  -2.1802   0.0397 H              1 S1                 0.0000
     30 ****         0.8090  -1.1569  -1.3654 H              1 S1                 0.0000
     31 ****         2.8399  -0.1617  -2.2311 H              1 S1                 0.0000
     32 ****         3.1143   0.6861  -0.7252 H              1 S1                 0.0000
     33 ****         5.2311   0.4016  -2.0114 H              1 S1                 0.0000
     34 ****         5.3241  -0.3820  -0.4445 H              1 S1                 0.0000
     35 ****         4.8192  -3.6812  -1.9059 H              1 S1                 0.0000
     36 ****         5.0723  -2.8530  -0.3794 H              1 S1                 0.0000
     37 ****         2.6744  -3.4645  -0.6321 H              1 S1                 0.0000
     38 ****         2.5952  -2.6484  -2.1772 H              1 S1                 0.0000
     39 ****        -5.2068   4.4482   0.9992 LP             1 S1                 0.0000
     40 ****        -2.9491   3.3686   0.8865 LP             1 S1                 0.0000
     41 ****        -1.6523   2.9127   0.8993 LP             1 S1                 0.0000
     42 ****        -0.0372   2.2907   0.8317 LP             1 S1                 0.0000
     43 ****         3.0801  -1.3658   0.4107 LP             1 S1                 0.0000
     44 ****         6.0989  -1.7529  -2.1382 LP             1 S1                 0.0000
     45 ****         4.7021  -1.6336  -2.9756 LP             1 S1                 0.0000
@<TRIPOS>BOND
    1    1    2 1     
    2    1   20 1     
    3    1   21 1     
    4    1   22 1     
    5    2   19 1     
    6    2    3 2     
    7    3    4 1     
    8    4    5 2     
    9    5    6 1     
   10    5   19 1     
   11    6    7 am    
   12    6   23 1     
   13    7    8 2     
   14    7    9 am    
   15    9   10 1     
   16    9   24 1     
   17   10   11 1     
   18   10   12 1     
   19   10   25 1     
   20   11   26 1     
   21   11   27 1     
   22   11   28 1     
   23   12   13 1     
   24   12   29 1     
   25   12   30 1     
   26   13   18 1     
   27   13   14 1     
   28   14   15 1     
   29   14   31 1     
   30   14   32 1     
   31   15   16 1     
   32   15   33 1     
   33   15   34 1     
   34   16   17 1     
   35   17   18 1     
   36   17   35 1     
   37   17   36 1     
   38   18   37 1     
   39   18   38 1     
   40    3   39 1     
   41    4   40 1     
   42    8   41 1     
   43    8   42 1     
   44   13   43 1     
   45   16   44 1     
   46   16   45 1     
@<TRIPOS>SUBSTRUCTURE
      1 S1             1
@<TRIPOS>SET
LONE_PAIRS      STATIC     ATOMS    <user>   **** ""
7 39 40 41 42 43 44 45
DONOR_HYDROGENS      STATIC     ATOMS    <user>   **** ""
2 23 24
ATOM$BLUE        STATIC     ATOMS    COLORGROUP SYSTEM
7 39 40 41 42 43 44 45
ATOM$RED        STATIC     ATOMS    COLORGROUP SYSTEM
2 23 24
