AV-unprocessed.smi:1535|AV-procd|sdf|6178|dock7
  -GOLD-   22720 6333D 1   1.00000     0.00000
 Structure written by MMmdl.
 47 48  0  0  0  0  0  0  0  0  2 V2000
  152.9784  142.7853  160.5643 C   0  0  0  0  0  0  0  0  0  0  0  0
  152.2525  142.3929  159.2894 C   0  0  0  0  0  0  0  0  0  0  0  0
  152.4539  141.1007  158.7547 C   0  0  0  0  0  0  0  0  0  0  0  0
  151.7971  140.6958  157.5724 C   0  0  0  0  0  0  0  0  0  0  0  0
  151.8487  139.4972  156.8823 N   0  0  0  0  0  0  0  0  0  0  0  0
  151.0212  139.7347  155.8696 C   0  0  0  0  0  0  0  0  0  0  0  0
  150.4483  140.9528  155.8131 N   0  0  0  0  0  0  0  0  0  0  0  0
  149.5247  141.4367  154.8018 C   0  0  0  0  0  0  0  0  0  0  0  0
  148.5556  140.3448  154.3061 C   0  0  2  0  0  0  0  0  0  0  0  0
  149.2654  139.4948  153.4289 O   0  0  0  0  0  0  0  0  0  0  0  0
  147.3177  140.8971  153.5635 C   0  0  0  0  0  0  0  0  0  0  0  0
  146.0650  140.2567  154.0347 N   0  3  2  0  0  0  0  0  0  0  0  0
  145.4463  140.9951  155.1586 C   0  0  0  0  0  0  0  0  0  0  0  0
  146.2211  138.8073  154.3262 C   0  0  0  0  0  0  0  0  0  0  0  0
  145.9285  137.9403  153.0893 C   0  0  2  0  0  0  0  0  0  0  0  0
  146.2136  136.4579  153.3608 C   0  0  0  0  0  0  0  0  0  0  0  0
  146.6904  138.4113  151.9210 C   0  0  0  0  0  0  0  0  0  0  0  0
  147.2852  138.7803  151.0005 N   0  0  0  0  0  0  0  0  0  0  0  0
  150.9251  141.6258  156.9339 C   0  0  0  0  0  0  0  0  0  0  0  0
  150.7127  142.9127  157.4599 C   0  0  0  0  0  0  0  0  0  0  0  0
  151.3802  143.3025  158.6396 C   0  0  0  0  0  0  0  0  0  0  0  0
  151.1468  144.6956  159.1969 C   0  0  0  0  0  0  0  0  0  0  0  0
  153.5818  141.9624  160.9489 H   0  0  0  0  0  0  0  0  0  0  0  0
  152.2648  143.0664  161.3389 H   0  0  0  0  0  0  0  0  0  0  0  0
  153.6429  143.6302  160.3818 H   0  0  0  0  0  0  0  0  0  0  0  0
  153.1165  140.4065  159.2508 H   0  0  0  0  0  0  0  0  0  0  0  0
  150.8275  138.9816  155.1195 H   0  0  0  0  0  0  0  0  0  0  0  0
  148.9650  142.2750  155.2198 H   0  0  0  0  0  0  0  0  0  0  0  0
  150.1081  141.8338  153.9700 H   0  0  0  0  0  0  0  0  0  0  0  0
  148.2461  139.7428  155.1593 H   0  0  0  0  0  0  0  0  0  0  0  0
  149.5338  139.9954  152.6727 H   0  0  0  0  0  0  0  0  0  0  0  0
  147.2197  141.9761  153.6889 H   0  0  0  0  0  0  0  0  0  0  0  0
  147.4509  140.7292  152.4933 H   0  0  0  0  0  0  0  0  0  0  0  0
  146.1047  141.0063  156.0282 H   0  0  0  0  0  0  0  0  0  0  0  0
  144.4998  140.5416  155.4524 H   0  0  0  0  0  0  0  0  0  0  0  0
  145.2396  142.0271  154.8733 H   0  0  0  0  0  0  0  0  0  0  0  0
  147.2365  138.5920  154.6606 H   0  0  0  0  0  0  0  0  0  0  0  0
  145.5724  138.5278  155.1578 H   0  0  0  0  0  0  0  0  0  0  0  0
  144.8757  138.0354  152.8238 H   0  0  0  0  0  0  0  0  0  0  0  0
  145.9761  135.8492  152.4878 H   0  0  0  0  0  0  0  0  0  0  0  0
  145.6157  136.0876  154.1941 H   0  0  0  0  0  0  0  0  0  0  0  0
  147.2642  136.2953  153.6035 H   0  0  0  0  0  0  0  0  0  0  0  0
  150.0405  143.5955  156.9624 H   0  0  0  0  0  0  0  0  0  0  0  0
  150.4993  145.2822  158.5446 H   0  0  0  0  0  0  0  0  0  0  0  0
  152.0903  145.2318  159.2986 H   0  0  0  0  0  0  0  0  0  0  0  0
  150.6727  144.6389  160.1770 H   0  0  0  0  0  0  0  0  0  0  0  0
  145.4221  140.3316  153.2588 H   0  0  0  0  0  0  0  0  0  0  0  0
  1  2  1  0  0  0  0
  1 23  1  0  0  0  0
  1 24  1  0  0  0  0
  1 25  1  0  0  0  0
  2 21  1  0  0  0  0
  2  3  2  0  0  0  0
  3  4  1  0  0  0  0
  3 26  1  0  0  0  0
  4 19  2  0  0  0  0
  4  5  1  0  0  0  0
  5  6  2  0  0  0  0
  6  7  1  0  0  0  0
  6 27  1  0  0  0  0
  7  8  1  0  0  0  0
  7 19  1  0  0  0  0
  8  9  1  0  0  0  0
  8 28  1  0  0  0  0
  8 29  1  0  0  0  0
  9 10  1  0  0  0  0
  9 11  1  0  0  0  0
  9 30  1  0  0  0  0
 10 31  1  0  0  0  0
 11 12  1  0  0  0  0
 11 32  1  0  0  0  0
 11 33  1  0  0  0  0
 12 13  1  0  0  0  0
 12 14  1  0  0  0  0
 12 47  1  0  0  0  0
 13 34  1  0  0  0  0
 13 35  1  0  0  0  0
 13 36  1  0  0  0  0
 14 15  1  0  0  0  0
 14 37  1  0  0  0  0
 14 38  1  0  0  0  0
 15 16  1  0  0  0  0
 15 17  1  0  0  0  0
 15 39  1  0  0  0  0
 16 40  1  0  0  0  0
 16 41  1  0  0  0  0
 16 42  1  0  0  0  0
 17 18  3  0  0  0  0
 19 20  1  0  0  0  0
 20 21  2  0  0  0  0
 20 43  1  0  0  0  0
 21 22  1  0  0  0  0
 22 44  1  0  0  0  0
 22 45  1  0  0  0  0
 22 46  1  0  0  0  0
M  CHG  1  12   1
M  END
> <s_m_source_file>
AV-unprocessed.smi

> <i_m_source_file_index>
1535

> <i_lp_mmshare_version>
43012

> <i_f3d_flags>
0

> <s_epik_input>
W0NIM11jKFtjSF0xKWMoW0NIM10pW2NIXWMoYzEyKW4oW2NIXW4yKVtDSDJdW0NASF0oW09IXSlbQ0gyXU4oW0NIM10pW0NIMl1bQ0BIXShbQ0gzXSlDI04=

> <s_epik_cmdline>
J2VwaWtfcHl0aG9uJywgJy1waCcsICc3LjAnLCAnLXRuJywgJzgnLCAnLW1hJywgJzIwMCcsICctbWV0YWxfYmluZGluZycsICctaW1hZScsICc8aW5maWxlLm1hZT4nLCAnLW9tYWUnLCAnPG91dGZpbGUubWFlPic=

> <r_epik_Ionization_Penalty>
2.21058

> <r_epik_Ionization_Penalty_Charging>
2.12381

> <r_epik_Ionization_Penalty_Neutral>
0.0867699

> <r_epik_State_Penalty>
2.36208

> <r_epik_Charging_Adjusted_Penalty>
4.48589

> <i_epik_Tot_Q>
1

> <i_epik_Tot_abs_Q>
1

> <r_epik_Metal_State_Penalty>
2.2818

> <b_epik_Metal_Only>
0

> <s_lp_Force_Field>
OPLS_2005

> <r_lp_Energy>
15.029

> <b_lp_Chiralities_Consistent>
1

> <s_lp_Variant>
AV-unprocessed.smi:1535-9

> <Gold.Version>
5.8.1

> <Gold.Id.Protein>
6NUR|6NUR_protein|mol2

> <Gold.PLP.Fitness>
52.0252

> <Gold.PLP.PLP>
-43.7171

> <Gold.PLP.part.hbond>
-2.7452

> <Gold.PLP.part.metal>
0.0000

> <Gold.PLP.part.buried>
-4.3177

> <Gold.PLP.part.nonpolar>
-38.4709

> <Gold.PLP.part.repulsive>
2.2928

> <Gold.PLP.ligand.clash>
0.0000

> <Gold.PLP.ligand.torsion>
1.9073

> <Gold.PLP.Chemscore.Hbond>
3.9920

> <Gold.PLP.Chemscore.CHOScore>
0.0000

> <Gold.PLP.Chemscore.Metal>
0.0000

> <Gold.Chemscore.Hbonds>
donor molecule, donor type, donor heavy atom, donor atom, acceptor molecule, acceptor atom, score
      L1  H    10    31       P1  7957  0.89
      L1  H    12    47       P1 10175  2.00
      P1  H  7954  7966       L1    18  0.86

> <Gold.PLP.Chemscore.Internal.Correction>
0.1468

> <Gold.Rescore>
     Score         DG    S(hbond)    S(metal)    S(lipo)     H(rot)  DE(clash)    DE(int)     intcor
     18.76     -21.79       2.90        0.00     113.56       2.60       0.48       2.55       ----

> <Gold.Chemscore.Fitness>
18.7614

> <Gold.Chemscore.DG>
-21.7891

> <Gold.Chemscore.ZeroCoef>
-5.4800

> <Gold.Chemscore.Hbond>
2.9001

> <Gold.Chemscore.Metal>
0.0000

> <Gold.Chemscore.Lipo>
113.5616

> <Gold.Chemscore.Internal_Hbond>
0.0000

> <Gold.Chemscore.DEClash>
0.4789

> <Gold.Chemscore.DEInternal>
2.5488

> <Gold.Chemscore.Rot>
2.6031

> <Gold.Chemscore.Internal.Correction>
   9.000000E+99

> <Gold.Chemscore.Hbonds>
donor molecule, donor type, donor heavy atom, donor atom, acceptor molecule, acceptor atom, score
      L1  H    10    31       P1  7957  0.82
      L1  H    12    47       P1 10175  0.96
      P1  H  7954  7966       L1    18  0.85

> <Gold.Chemscore.Hbond.Weighted>
-9.6864

> <Gold.Chemscore.Metal.Weighted>
-0.0000

> <Gold.Chemscore.Lipo.Weighted>
-13.2867

> <Gold.Chemscore.Internal_Hbond.Weighted>
0.0000

> <Gold.Chemscore.DEClash.Weighted>
0.4789

> <Gold.Chemscore.DEInternal.Weighted>
2.5488

> <Gold.Chemscore.Rot.Weighted>
6.6640

> <Gold.Chemscore.Internal.Correction.Weighted>
   9.000000E+99

> <Gold.Protein.RotatedTorsions>
[ 6907 6896 6895 6894 ] final  -54.83 input  -60.11 | X-H torsion
[ 7974 7965 7964 7962 ] final   12.38 input  175.53 | X-H torsion
[ 8008 7997 7996 7995 ] final   58.03 input   59.86 | X-H torsion
[ 10167 10162 10161 10158 ] final  -99.78 input  -65.29 | X-H torsion
[ 10718 10713 10712 10709 ] final  173.81 input   66.30 | X-H torsion
[ 10763 10752 10751 10750 ] final  -50.81 input  -60.55 | X-H torsion
[ 11005 11000 10999 10996 ] final  -65.50 input  -57.11 | X-H torsion

> <Gold.Protein.ActiveResidues>
 VAL166  LYS551  ARG553  GLY616  TRP617  ASP618  TYR619  PRO620  LYS621  CYS622 
 ASP623  PHE694  ASN695  SER759  ASP760  ASP761  ALA762  ILE779  LEU786  VAL792 
 PHE793  MET794  SER795  GLU796  ALA797  LYS798  CYS799  TRP800  GLU811  SER814 

> <Gold.Protein.RotatedAtoms>
  150.8304  134.7554  159.6848 H   0  0  0  0  0  0  0  0  0  0  0  0  # atno 6907 bound_to 6896
  152.4409  134.5589  159.9898 H   0  0  0  0  0  0  0  0  0  0  0  0  # atno 6908 bound_to 6896
  151.5752  133.3347  159.3033 H   0  0  0  0  0  0  0  0  0  0  0  0  # atno 6909 bound_to 6896
  146.2352  139.9346  142.8491 H   0  0  0  0  0  0  0  0  0  0  0  0  # atno 7974 bound_to 7965
  155.5434  140.3485  155.4452 H   0  0  0  0  0  0  0  0  0  0  0  0  # atno 8008 bound_to 7997
  156.0635  140.1346  156.9939 H   0  0  0  0  0  0  0  0  0  0  0  0  # atno 8009 bound_to 7997
  154.4491  140.0980  156.6537 H   0  0  0  0  0  0  0  0  0  0  0  0  # atno 8010 bound_to 7997
  140.2588  143.3421  152.0645 H   0  0  0  0  0  0  0  0  0  0  0  0  # atno 10167 bound_to 10162
  156.9588  131.0054  151.2932 H   0  0  0  0  0  0  0  0  0  0  0  0  # atno 10718 bound_to 10713
  154.1164  135.6541  153.4894 H   0  0  0  0  0  0  0  0  0  0  0  0  # atno 10763 bound_to 10752
  153.0239  135.5260  154.7141 H   0  0  0  0  0  0  0  0  0  0  0  0  # atno 10764 bound_to 10752
  154.6335  135.2979  155.0158 H   0  0  0  0  0  0  0  0  0  0  0  0  # atno 10765 bound_to 10752
  141.1456  133.6682  156.5995 H   0  0  0  0  0  0  0  0  0  0  0  0  # atno 11005 bound_to 11000
  145.2011  140.9855  143.4155 LP  0  0  0  0  0  0  0  0  0  0  0  0  # atno 17320 bound_to 7965
  144.9772  139.3819  143.6280 LP  0  0  0  0  0  0  0  0  0  0  0  0  # atno 17321 bound_to 7965
  139.5023  144.6732  151.6192 LP  0  0  0  0  0  0  0  0  0  0  0  0  # atno 17342 bound_to 10162
  140.5982  143.9657  150.6368 LP  0  0  0  0  0  0  0  0  0  0  0  0  # atno 17343 bound_to 10162
  157.5672  130.8285  149.8343 LP  0  0  0  0  0  0  0  0  0  0  0  0  # atno 17370 bound_to 10713
  156.0331  130.3759  150.1633 LP  0  0  0  0  0  0  0  0  0  0  0  0  # atno 17371 bound_to 10713
  140.3699  134.7614  157.4592 LP  0  0  0  0  0  0  0  0  0  0  0  0  # atno 17394 bound_to 11000
  140.0718  134.5851  155.8633 LP  0  0  0  0  0  0  0  0  0  0  0  0  # atno 17395 bound_to 11000

$$$$
