AV-unprocessed.smi:2040|AV-procd|sdf|8286|dock8
  -GOLD-   2272010553D 1   1.00000     0.00000
 Structure written by MMmdl.
 38 39  0  0  0  0  0  0  0  0  1 V2000
  151.2616  145.3095  158.9151 C   0  0  0  0  0  0  0  0  0  0  0  0
  152.0229  144.1822  159.5477 C   0  0  0  0  0  0  0  0  0  0  0  0
  152.7599  143.1489  158.8994 C   0  0  0  0  0  0  0  0  0  0  0  0
  153.2357  142.4132  159.9503 C   0  0  0  0  0  0  0  0  0  0  0  0
  154.0148  141.2993  159.9311 N   0  0  0  0  0  0  0  0  0  0  0  0
  153.6548  140.0264  159.6912 C   0  0  0  0  0  0  0  0  0  0  0  0
  152.5079  139.6403  159.4657 O   0  0  0  0  0  0  0  0  0  0  0  0
  154.7181  139.2102  159.7302 N   0  0  0  0  0  0  0  0  0  0  0  0
  154.6960  137.7663  159.5035 C   0  0  2  0  0  0  0  0  0  0  0  0
  153.9756  137.4707  158.1793 C   0  0  0  0  0  0  0  0  0  0  0  0
  154.0281  137.0589  160.6985 C   0  0  2  0  0  0  0  0  0  0  0  0
  154.6357  137.4026  162.0613 C   0  0  0  0  0  0  0  0  0  0  0  0
  154.2843  136.1785  162.8740 C   0  0  0  0  0  0  0  0  0  0  0  0
  154.4771  135.0661  161.8494 C   0  0  0  0  0  0  0  0  0  0  0  0
  154.1648  135.6433  160.5842 O   0  0  0  0  0  0  0  0  0  0  0  0
  152.8040  142.9862  161.1259 N   0  0  0  0  0  0  0  0  0  0  0  0
  153.0477  142.5746  162.4946 C   0  0  0  0  0  0  0  0  0  0  0  0
  152.0523  144.0792  160.8717 N   0  0  0  0  0  0  0  0  0  0  0  0
  151.3900  145.3127  157.8325 H   0  0  0  0  0  0  0  0  0  0  0  0
  151.6017  146.2746  159.2915 H   0  0  0  0  0  0  0  0  0  0  0  0
  150.1945  145.2265  159.1222 H   0  0  0  0  0  0  0  0  0  0  0  0
  152.9031  142.9940  157.8406 H   0  0  0  0  0  0  0  0  0  0  0  0
  154.9940  141.4562  160.1191 H   0  0  0  0  0  0  0  0  0  0  0  0
  155.6200  139.6197  159.9256 H   0  0  0  0  0  0  0  0  0  0  0  0
  155.7165  137.3873  159.4244 H   0  0  0  0  0  0  0  0  0  0  0  0
  153.9668  136.4017  157.9658 H   0  0  0  0  0  0  0  0  0  0  0  0
  154.4711  137.9663  157.3438 H   0  0  0  0  0  0  0  0  0  0  0  0
  152.9406  137.8132  158.2043 H   0  0  0  0  0  0  0  0  0  0  0  0
  152.9606  137.2851  160.7215 H   0  0  0  0  0  0  0  0  0  0  0  0
  155.7200  137.5001  161.9860 H   0  0  0  0  0  0  0  0  0  0  0  0
  154.2384  138.3253  162.4853 H   0  0  0  0  0  0  0  0  0  0  0  0
  154.9073  136.0557  163.7604 H   0  0  0  0  0  0  0  0  0  0  0  0
  153.2413  136.2244  163.1901 H   0  0  0  0  0  0  0  0  0  0  0  0
  155.5180  134.7410  161.8329 H   0  0  0  0  0  0  0  0  0  0  0  0
  153.8536  134.1959  162.0566 H   0  0  0  0  0  0  0  0  0  0  0  0
  152.6016  141.5949  162.6667 H   0  0  0  0  0  0  0  0  0  0  0  0
  152.6126  143.2892  163.1945 H   0  0  0  0  0  0  0  0  0  0  0  0
  154.1214  142.5147  162.6737 H   0  0  0  0  0  0  0  0  0  0  0  0
  1  2  1  0  0  0  0
  1 19  1  0  0  0  0
  1 20  1  0  0  0  0
  1 21  1  0  0  0  0
  2 18  2  0  0  0  0
  2  3  1  0  0  0  0
  3  4  2  0  0  0  0
  3 22  1  0  0  0  0
  4  5  1  0  0  0  0
  4 16  1  0  0  0  0
  5  6  1  0  0  0  0
  5 23  1  0  0  0  0
  6  7  2  0  0  0  0
  6  8  1  0  0  0  0
  8  9  1  0  0  0  0
  8 24  1  0  0  0  0
  9 10  1  0  0  0  0
  9 11  1  0  0  0  0
  9 25  1  0  0  0  0
 10 26  1  0  0  0  0
 10 27  1  0  0  0  0
 10 28  1  0  0  0  0
 11 15  1  0  0  0  0
 11 12  1  0  0  0  0
 11 29  1  0  0  0  0
 12 13  1  0  0  0  0
 12 30  1  0  0  0  0
 12 31  1  0  0  0  0
 13 14  1  0  0  0  0
 13 32  1  0  0  0  0
 13 33  1  0  0  0  0
 14 15  1  0  0  0  0
 14 34  1  0  0  0  0
 14 35  1  0  0  0  0
 16 17  1  0  0  0  0
 16 18  1  0  0  0  0
 17 36  1  0  0  0  0
 17 37  1  0  0  0  0
 17 38  1  0  0  0  0
M  END
> <s_m_source_file>
AV-unprocessed.smi

> <i_m_source_file_index>
2040

> <i_lp_mmshare_version>
43012

> <i_f3d_flags>
0

> <s_epik_input>
W0NIM11jMVtjSF1jKG4objEpW0NIM10pW05IXUMoPU8pW05IXVtDQEhdKFtDSDNdKVtDQEBIXTJbQ0gyXVtDSDJdW0NIMl1PMg==

> <s_epik_cmdline>
J2VwaWtfcHl0aG9uJywgJy1waCcsICc3LjAnLCAnLXRuJywgJzgnLCAnLW1hJywgJzIwMCcsICctbWV0YWxfYmluZGluZycsICctaW1hZScsICc8aW5maWxlLm1hZT4nLCAnLW9tYWUnLCAnPG91dGZpbGUubWFlPic=

> <r_lp_tautomer_probability>
1

> <r_epik_Ionization_Penalty>
9.09088e-05

> <r_epik_Ionization_Penalty_Charging>
0

> <r_epik_Ionization_Penalty_Neutral>
9.09088e-05

> <r_epik_State_Penalty>
-0

> <r_epik_Charging_Adjusted_Penalty>
0

> <i_epik_Tot_Q>
0

> <i_epik_Tot_abs_Q>
0

> <r_epik_Metal_State_Penalty>
-0

> <b_epik_Metal_Only>
0

> <s_lp_Force_Field>
OPLS_2005

> <r_lp_Energy>
18.8843

> <b_lp_Chiralities_Consistent>
1

> <s_lp_Variant>
AV-unprocessed.smi:2040-1

> <Gold.Version>
5.8.1

> <Gold.Id.Protein>
6NUR|6NUR_protein|mol2

> <Gold.PLP.Fitness>
38.7416

> <Gold.PLP.PLP>
-37.8147

> <Gold.PLP.part.hbond>
-0.9007

> <Gold.PLP.part.metal>
0.0000

> <Gold.PLP.part.buried>
-5.5605

> <Gold.PLP.part.nonpolar>
-31.1508

> <Gold.PLP.part.repulsive>
0.2560

> <Gold.PLP.ligand.clash>
0.0000

> <Gold.PLP.ligand.torsion>
0.8580

> <Gold.PLP.Chemscore.Hbond>
0.8775

> <Gold.PLP.Chemscore.CHOScore>
0.0000

> <Gold.PLP.Chemscore.Metal>
0.0000

> <Gold.Chemscore.Hbonds>
donor molecule, donor type, donor heavy atom, donor atom, acceptor molecule, acceptor atom, score
      P1  H  6896  6908       L1    15  0.94

> <Gold.PLP.Chemscore.Internal.Correction>
0.0104

> <Gold.Rescore>
     Score         DG    S(hbond)    S(metal)    S(lipo)     H(rot)  DE(clash)    DE(int)     intcor
     13.00     -15.02       0.92        0.00      82.41       1.23       0.13       1.89       ----

> <Gold.Chemscore.Fitness>
13.0012

> <Gold.Chemscore.DG>
-15.0250

> <Gold.Chemscore.ZeroCoef>
-5.4800

> <Gold.Chemscore.Hbond>
0.9166

> <Gold.Chemscore.Metal>
0.0000

> <Gold.Chemscore.Lipo>
82.4107

> <Gold.Chemscore.Internal_Hbond>
0.0000

> <Gold.Chemscore.DEClash>
0.1316

> <Gold.Chemscore.DEInternal>
1.8922

> <Gold.Chemscore.Rot>
1.2338

> <Gold.Chemscore.Internal.Correction>
   9.000000E+99

> <Gold.Chemscore.Hbonds>
donor molecule, donor type, donor heavy atom, donor atom, acceptor molecule, acceptor atom, score
      P1  H  6896  6908       L1    15  0.32

> <Gold.Chemscore.Hbond.Weighted>
-3.0613

> <Gold.Chemscore.Metal.Weighted>
-0.0000

> <Gold.Chemscore.Lipo.Weighted>
-9.6421

> <Gold.Chemscore.Internal_Hbond.Weighted>
0.0000

> <Gold.Chemscore.DEClash.Weighted>
0.1316

> <Gold.Chemscore.DEInternal.Weighted>
1.8922

> <Gold.Chemscore.Rot.Weighted>
3.1584

> <Gold.Chemscore.Internal.Correction.Weighted>
   9.000000E+99

> <Gold.Protein.RotatedTorsions>
[ 6907 6896 6895 6894 ] final  -67.44 input  -60.11 | X-H torsion
[ 7974 7965 7964 7962 ] final -116.38 input  175.53 | X-H torsion
[ 8008 7997 7996 7995 ] final  -17.61 input   59.86 | X-H torsion
[ 10167 10162 10161 10158 ] final   25.10 input  -65.29 | X-H torsion
[ 10718 10713 10712 10709 ] final   98.67 input   66.30 | X-H torsion
[ 10763 10752 10751 10750 ] final  -51.80 input  -60.55 | X-H torsion
[ 11005 11000 10999 10996 ] final  101.79 input  -57.11 | X-H torsion

> <Gold.Protein.ActiveResidues>
 VAL166  LYS551  ARG553  GLY616  TRP617  ASP618  TYR619  PRO620  LYS621  CYS622 
 ASP623  PHE694  ASN695  SER759  ASP760  ASP761  ALA762  ILE779  LEU786  VAL792 
 PHE793  MET794  SER795  GLU796  ALA797  LYS798  CYS799  TRP800  GLU811  SER814 

> <Gold.Protein.RotatedAtoms>
  150.7409  134.5880  159.5972 H   0  0  0  0  0  0  0  0  0  0  0  0  # atno 6907 bound_to 6896
  152.3275  134.7298  160.0307 H   0  0  0  0  0  0  0  0  0  0  0  0  # atno 6908 bound_to 6896
  151.7793  133.3312  159.3503 H   0  0  0  0  0  0  0  0  0  0  0  0  # atno 6909 bound_to 6896
  145.0975  140.8530  143.3946 H   0  0  0  0  0  0  0  0  0  0  0  0  # atno 7974 bound_to 7965
  154.4966  140.2138  155.9434 H   0  0  0  0  0  0  0  0  0  0  0  0  # atno 8008 bound_to 7997
  156.1378  140.3185  155.8416 H   0  0  0  0  0  0  0  0  0  0  0  0  # atno 8009 bound_to 7997
  155.4177  140.0495  157.3018 H   0  0  0  0  0  0  0  0  0  0  0  0  # atno 8010 bound_to 7997
  140.5134  144.0123  150.6383 H   0  0  0  0  0  0  0  0  0  0  0  0  # atno 10167 bound_to 10162
  157.6891  131.0647  150.4832 H   0  0  0  0  0  0  0  0  0  0  0  0  # atno 10718 bound_to 10713
  154.1325  135.6518  153.4925 H   0  0  0  0  0  0  0  0  0  0  0  0  # atno 10763 bound_to 10752
  153.0191  135.5296  154.6986 H   0  0  0  0  0  0  0  0  0  0  0  0  # atno 10764 bound_to 10752
  154.6225  135.2966  155.0280 H   0  0  0  0  0  0  0  0  0  0  0  0  # atno 10765 bound_to 10752
  139.8774  134.9197  156.4960 H   0  0  0  0  0  0  0  0  0  0  0  0  # atno 11005 bound_to 11000
  145.0994  139.2833  143.5694 LP  0  0  0  0  0  0  0  0  0  0  0  0  # atno 17320 bound_to 7965
  146.3530  140.0557  142.8633 LP  0  0  0  0  0  0  0  0  0  0  0  0  # atno 17321 bound_to 7965
  140.3452  143.2996  152.0546 LP  0  0  0  0  0  0  0  0  0  0  0  0  # atno 17342 bound_to 10162
  139.4902  144.6414  151.6870 LP  0  0  0  0  0  0  0  0  0  0  0  0  # atno 17343 bound_to 10162
  156.5163  130.4151  149.6274 LP  0  0  0  0  0  0  0  0  0  0  0  0  # atno 17370 bound_to 10713
  156.3195  130.7273  151.2182 LP  0  0  0  0  0  0  0  0  0  0  0  0  # atno 17371 bound_to 10713
  140.8624  133.8049  155.9279 LP  0  0  0  0  0  0  0  0  0  0  0  0  # atno 17394 bound_to 11000
  140.9036  134.2348  157.5027 LP  0  0  0  0  0  0  0  0  0  0  0  0  # atno 17395 bound_to 11000

$$$$
