#       Name:                AV-unprocessed.smi:1717
#       Creating user name   scv26
#       Creation time:       Fri Mar 27 08:12:29 2020


#       File generated by GOLD software.
#

@<TRIPOS>MOLECULE
AV-unprocessed.smi:1717
    46    47     1
SMALL
NO_CHARGES


@<TRIPOS>ATOM
      1 ****        -5.3210   3.6041  -0.0875 C.3            1 S1                 0.0000
      2 ****        -4.8644   2.2232  -0.1903 N.pl3          1 S1                -1.0000
      3 ****        -4.2506   1.7163  -1.2929 C.2            1 S1                 0.0000
      4 ****        -3.9583   2.2482  -2.3693 O.2            1 S1                 0.0000
      5 ****        -3.8658   0.2471  -1.0855 C.3            1 S1                 0.0000
      6 ****        -2.3905   0.1155  -0.9932 N.4            1 S1                 1.0000
      7 ****        -1.9160  -1.2263  -1.4163 C.3            1 S1                 0.0000
      8 ****        -0.3796  -1.2855  -1.4553 C.3            1 S1                 0.0000
      9 ****         0.2275  -0.9033  -0.0958 C.3            1 S1                 0.0000
     10 ****         1.6842  -0.8774  -0.1918 N.am           1 S1                 0.0000
     11 ****         2.5284  -1.0498   0.8356 C.2            1 S1                 0.0000
     12 ****         2.1597  -1.2604   1.9909 O.2            1 S1                 0.0000
     13 ****         3.8076  -0.9583   0.4373 N.am           1 S1                 0.0000
     14 ****         4.9677  -1.0985   1.2395 C.2            1 S1                 0.0000
     15 ****         5.0732  -1.3841   2.6326 C.2            1 S1                 0.0000
     16 ****         6.3410  -1.4385   3.0162 N.2            1 S1                 0.0000
     17 ****         7.0427  -1.1923   1.8871 N.pl3          1 S1                 0.0000
     18 ****         6.2466  -0.9801   0.7833 C.2            1 S1                 0.0000
     19 ****        -0.3128   0.4699   0.3424 C.3            1 S1                 0.0000
     20 ****        -1.8497   0.4906   0.3411 C.3            1 S1                 0.0000
     21 ****         8.0527  -1.1733   1.8867 H              1 S1                 0.0000
     22 ****        -5.8484   3.7880   0.8484 H              1 S1                 0.0000
     23 ****        -6.0089   3.8773  -0.8880 H              1 S1                 0.0000
     24 ****        -4.4962   4.3164  -0.1226 H              1 S1                 0.0000
     25 ****        -4.3472  -0.2008  -0.2132 H              1 S1                 0.0000
     26 ****        -4.2360  -0.3003  -1.9535 H              1 S1                 0.0000
     27 ****        -2.3067  -1.9832  -0.7344 H              1 S1                 0.0000
     28 ****        -2.3065  -1.4596  -2.4077 H              1 S1                 0.0000
     29 ****        -0.0577  -2.2879  -1.7407 H              1 S1                 0.0000
     30 ****        -0.0127  -0.6105  -2.2302 H              1 S1                 0.0000
     31 ****        -0.0726  -1.6555   0.6367 H              1 S1                 0.0000
     32 ****         2.0777  -0.7102  -1.1063 H              1 S1                 0.0000
     33 ****         3.9700  -0.7719  -0.5415 H              1 S1                 0.0000
     34 ****         4.2995  -1.5521   3.3670 H              1 S1                 0.0000
     35 ****         6.6485  -0.7705  -0.1972 H              1 S1                 0.0000
     36 ****         0.0545   0.7197   1.3387 H              1 S1                 0.0000
     37 ****         0.0585   1.2469  -0.3275 H              1 S1                 0.0000
     38 ****        -2.1888   1.4881   0.6210 H              1 S1                 0.0000
     39 ****        -2.2344  -0.1958   1.0971 H              1 S1                 0.0000
     40 ****        -2.0151   0.7758  -1.6594 H              1 S1                 0.0000
     41 ****        -5.0103   1.6167   0.5913 LP             1 S1                 0.0000
     42 ****        -4.1795   3.2104  -2.5279 LP             1 S1                 0.0000
     43 ****        -3.5006   1.7164  -3.0819 LP             1 S1                 0.0000
     44 ****         1.1837  -1.3106   2.2029 LP             1 S1                 0.0000
     45 ****         2.8361  -1.3813   2.7174 LP             1 S1                 0.0000
     46 ****         6.6974  -1.6204   3.9326 LP             1 S1                 0.0000
@<TRIPOS>BOND
    1    1    2 1     
    2    1   22 1     
    3    1   23 1     
    4    1   24 1     
    5    2    3 1     
    6    3    4 2     
    7    3    5 1     
    8    5    6 1     
    9    5   25 1     
   10    5   26 1     
   11    6   20 1     
   12    6    7 1     
   13    6   40 1     
   14    7    8 1     
   15    7   27 1     
   16    7   28 1     
   17    8    9 1     
   18    8   29 1     
   19    8   30 1     
   20    9   10 1     
   21    9   19 1     
   22    9   31 1     
   23   10   11 am    
   24   10   32 1     
   25   11   12 2     
   26   11   13 am    
   27   13   14 1     
   28   13   33 1     
   29   14   18 2     
   30   14   15 1     
   31   15   16 2     
   32   15   34 1     
   33   16   17 1     
   34   17   21 1     
   35   17   18 1     
   36   18   35 1     
   37   19   20 1     
   38   19   36 1     
   39   19   37 1     
   40   20   38 1     
   41   20   39 1     
   42    2   41 1     
   43    4   42 1     
   44    4   43 1     
   45   12   44 1     
   46   12   45 1     
   47   16   46 1     
@<TRIPOS>SUBSTRUCTURE
      1 S1             1
@<TRIPOS>SET
LONE_PAIRS      STATIC     ATOMS    <user>   **** ""
6 41 42 43 44 45 46
DONOR_HYDROGENS      STATIC     ATOMS    <user>   **** ""
4 40 32 33 21
ATOM$BLUE        STATIC     ATOMS    COLORGROUP SYSTEM
6 41 42 43 44 45 46
ATOM$RED        STATIC     ATOMS    COLORGROUP SYSTEM
4 40 32 33 21
