AV-unprocessed.smi:2439|AV-procd|sdf|9606|dock5
  -GOLD-   2272013243D 1   1.00000     0.00000
 Structure written by MMmdl.
 41 43  0  0  0  0  0  0  0  0  2 V2000
  153.9497  139.8755  159.1815 N   0  0  0  0  0  0  0  0  0  0  0  0
  153.5586  140.8483  159.6706 C   0  0  0  0  0  0  0  0  0  0  0  0
  153.0645  142.0741  160.2864 C   0  0  0  0  0  0  0  0  0  0  0  0
  153.3155  142.2989  161.6562 C   0  0  0  0  0  0  0  0  0  0  0  0
  152.8389  143.4786  162.2563 C   0  0  0  0  0  0  0  0  0  0  0  0
  152.1282  144.3920  161.4571 C   0  0  0  0  0  0  0  0  0  0  0  0
  151.8812  144.1896  160.1462 N   0  0  0  0  0  0  0  0  0  0  0  0
  152.3356  143.0543  159.5604 C   0  0  0  0  0  0  0  0  0  0  0  0
  152.0621  142.8700  158.1921 N   0  0  0  0  0  0  0  0  0  0  0  0
  150.7194  142.5817  157.7019 C   0  0  0  0  0  0  0  0  0  0  0  0
  150.7301  141.8599  156.3435 C   0  0  1  0  0  0  0  0  0  0  0  0
  151.5516  140.5598  156.4026 C   0  0  0  0  0  0  0  0  0  0  0  0
  151.4760  139.8347  155.1101 N   0  3  1  0  0  0  0  0  0  0  0  0
  152.2914  138.5925  155.0688 C   0  0  0  0  0  0  0  0  0  0  0  0
  151.6431  137.4435  155.8649 C   0  0  0  0  0  0  0  0  0  0  0  0
  150.2031  137.1912  155.3980 C   0  0  0  0  0  0  0  0  0  0  0  0
  149.3852  138.4891  155.4575 C   0  0  0  0  0  0  0  0  0  0  0  0
  150.0732  139.6187  154.6594 C   0  0  1  0  0  0  0  0  0  0  0  0
  149.2883  140.9443  154.7100 C   0  0  0  0  0  0  0  0  0  0  0  0
  149.3881  141.5270  156.0038 O   0  0  0  0  0  0  0  0  0  0  0  0
  153.8657  141.5788  162.2452 H   0  0  0  0  0  0  0  0  0  0  0  0
  153.0145  143.6784  163.3031 H   0  0  0  0  0  0  0  0  0  0  0  0
  151.7465  145.3089  161.8813 H   0  0  0  0  0  0  0  0  0  0  0  0
  152.8293  142.8339  157.5358 H   0  0  0  0  0  0  0  0  0  0  0  0
  150.1835  141.9884  158.4437 H   0  0  0  0  0  0  0  0  0  0  0  0
  150.1742  143.5222  157.6171 H   0  0  0  0  0  0  0  0  0  0  0  0
  151.1514  142.5157  155.5794 H   0  0  0  0  0  0  0  0  0  0  0  0
  152.5941  140.7919  156.6242 H   0  0  0  0  0  0  0  0  0  0  0  0
  151.1892  139.9306  157.2156 H   0  0  0  0  0  0  0  0  0  0  0  0
  152.4026  138.2915  154.0263 H   0  0  0  0  0  0  0  0  0  0  0  0
  153.2975  138.7939  155.4384 H   0  0  0  0  0  0  0  0  0  0  0  0
  152.2336  136.5343  155.7476 H   0  0  0  0  0  0  0  0  0  0  0  0
  151.6504  137.6729  156.9306 H   0  0  0  0  0  0  0  0  0  0  0  0
  150.2103  136.8084  154.3767 H   0  0  0  0  0  0  0  0  0  0  0  0
  149.7362  136.4231  156.0153 H   0  0  0  0  0  0  0  0  0  0  0  0
  148.3867  138.3078  155.0585 H   0  0  0  0  0  0  0  0  0  0  0  0
  149.2458  138.7876  156.4970 H   0  0  0  0  0  0  0  0  0  0  0  0
  150.1160  139.3024  153.6161 H   0  0  0  0  0  0  0  0  0  0  0  0
  149.6654  141.6434  153.9618 H   0  0  0  0  0  0  0  0  0  0  0  0
  148.2373  140.7744  154.4754 H   0  0  0  0  0  0  0  0  0  0  0  0
  151.8908  140.4596  154.4333 H   0  0  0  0  0  0  0  0  0  0  0  0
  1  2  3  0  0  0  0
  2  3  1  0  0  0  0
  3  8  1  0  0  0  0
  3  4  2  0  0  0  0
  4  5  1  0  0  0  0
  4 21  1  0  0  0  0
  5  6  2  0  0  0  0
  5 22  1  0  0  0  0
  6  7  1  0  0  0  0
  6 23  1  0  0  0  0
  7  8  2  0  0  0  0
  8  9  1  0  0  0  0
  9 10  1  0  0  0  0
  9 24  1  0  0  0  0
 10 11  1  0  0  0  0
 10 25  1  0  0  0  0
 10 26  1  0  0  0  0
 11 20  1  0  0  0  0
 11 12  1  0  0  0  0
 11 27  1  0  0  0  0
 12 13  1  0  0  0  0
 12 28  1  0  0  0  0
 12 29  1  0  0  0  0
 13 18  1  0  0  0  0
 13 14  1  0  0  0  0
 13 41  1  0  0  0  0
 14 15  1  0  0  0  0
 14 30  1  0  0  0  0
 14 31  1  0  0  0  0
 15 16  1  0  0  0  0
 15 32  1  0  0  0  0
 15 33  1  0  0  0  0
 16 17  1  0  0  0  0
 16 34  1  0  0  0  0
 16 35  1  0  0  0  0
 17 18  1  0  0  0  0
 17 36  1  0  0  0  0
 17 37  1  0  0  0  0
 18 19  1  0  0  0  0
 18 38  1  0  0  0  0
 19 20  1  0  0  0  0
 19 39  1  0  0  0  0
 19 40  1  0  0  0  0
M  CHG  1  13   1
M  END
> <s_m_source_file>
AV-unprocessed.smi

> <i_m_source_file_index>
2439

> <i_lp_mmshare_version>
43012

> <i_f3d_flags>
0

> <s_epik_input>
TiNDYzFbY0hdW2NIXVtjSF1uYzFbTkhdW0NIMl1bQ0BIXShbQ0gyXTIpT1tDSDJdW0NAQEhdKE4yMylbQ0gyXVtDSDJdW0NIMl1bQ0gyXTM=

> <s_epik_cmdline>
J2VwaWtfcHl0aG9uJywgJy1waCcsICc3LjAnLCAnLXRuJywgJzgnLCAnLW1hJywgJzIwMCcsICctbWV0YWxfYmluZGluZycsICctaW1hZScsICc8aW5maWxlLm1hZT4nLCAnLW9tYWUnLCAnPG91dGZpbGUubWFlPic=

> <r_epik_Ionization_Penalty>
0.0803594

> <r_epik_Ionization_Penalty_Charging>
0.0803403

> <r_epik_Ionization_Penalty_Neutral>
1.90988e-05

> <r_epik_State_Penalty>
0.0711481

> <r_epik_Charging_Adjusted_Penalty>
0.151488

> <i_epik_Tot_Q>
1

> <i_epik_Tot_abs_Q>
1

> <r_epik_Metal_State_Penalty>
0.0711482

> <b_epik_Metal_Only>
0

> <s_lp_Force_Field>
OPLS_2005

> <r_lp_Energy>
29.8986

> <b_lp_Chiralities_Consistent>
1

> <s_lp_Variant>
AV-unprocessed.smi:2439-4

> <Gold.Version>
5.8.1

> <Gold.Id.Protein>
6NUR|6NUR_protein|mol2

> <Gold.PLP.Fitness>
45.3757

> <Gold.PLP.PLP>
-44.0694

> <Gold.PLP.part.hbond>
-1.0000

> <Gold.PLP.part.metal>
0.0000

> <Gold.PLP.part.buried>
-5.9131

> <Gold.PLP.part.nonpolar>
-39.7364

> <Gold.PLP.part.repulsive>
3.0499

> <Gold.PLP.ligand.clash>
0.0000

> <Gold.PLP.ligand.torsion>
0.8482

> <Gold.PLP.Chemscore.Hbond>
1.0000

> <Gold.PLP.Chemscore.CHOScore>
0.0000

> <Gold.PLP.Chemscore.Metal>
0.0000

> <Gold.Chemscore.Hbonds>
donor molecule, donor type, donor heavy atom, donor atom, acceptor molecule, acceptor atom, score
      P1  H  7997  8008       L1     1  0.71

> <Gold.PLP.Chemscore.Internal.Correction>
0.0028

> <Gold.Rescore>
     Score         DG    S(hbond)    S(metal)    S(lipo)     H(rot)  DE(clash)    DE(int)     intcor
     15.66     -17.89       0.98        0.00     105.83       1.27       1.49       0.74       ----

> <Gold.Chemscore.Fitness>
15.6629

> <Gold.Chemscore.DG>
-17.8923

> <Gold.Chemscore.ZeroCoef>
-5.4800

> <Gold.Chemscore.Hbond>
0.9794

> <Gold.Chemscore.Metal>
0.0000

> <Gold.Chemscore.Lipo>
105.8280

> <Gold.Chemscore.Internal_Hbond>
0.0000

> <Gold.Chemscore.DEClash>
1.4896

> <Gold.Chemscore.DEInternal>
0.7398

> <Gold.Chemscore.Rot>
1.2659

> <Gold.Chemscore.Internal.Correction>
   9.000000E+99

> <Gold.Chemscore.Hbonds>
donor molecule, donor type, donor heavy atom, donor atom, acceptor molecule, acceptor atom, score
      P1  H  7997  8008       L1     1  0.66

> <Gold.Chemscore.Hbond.Weighted>
-3.2712

> <Gold.Chemscore.Metal.Weighted>
-0.0000

> <Gold.Chemscore.Lipo.Weighted>
-12.3819

> <Gold.Chemscore.Internal_Hbond.Weighted>
0.0000

> <Gold.Chemscore.DEClash.Weighted>
1.4896

> <Gold.Chemscore.DEInternal.Weighted>
0.7398

> <Gold.Chemscore.Rot.Weighted>
3.2408

> <Gold.Chemscore.Internal.Correction.Weighted>
   9.000000E+99

> <Gold.Protein.RotatedTorsions>
[ 6907 6896 6895 6894 ] final  -26.60 input  -60.11 | X-H torsion
[ 7974 7965 7964 7962 ] final  -93.02 input  175.53 | X-H torsion
[ 8008 7997 7996 7995 ] final -106.59 input   59.86 | X-H torsion
[ 10167 10162 10161 10158 ] final  -21.26 input  -65.29 | X-H torsion
[ 10718 10713 10712 10709 ] final  104.40 input   66.30 | X-H torsion
[ 10763 10752 10751 10750 ] final   90.13 input  -60.55 | X-H torsion
[ 11005 11000 10999 10996 ] final  166.17 input  -57.11 | X-H torsion

> <Gold.Protein.ActiveResidues>
 VAL166  LYS551  ARG553  GLY616  TRP617  ASP618  TYR619  PRO620  LYS621  CYS622 
 ASP623  PHE694  ASN695  SER759  ASP760  ASP761  ALA762  ILE779  LEU786  VAL792 
 PHE793  MET794  SER795  GLU796  ALA797  LYS798  CYS799  TRP800  GLU811  SER814 

> <Gold.Protein.RotatedAtoms>
  151.1587  135.0262  159.8700 H   0  0  0  0  0  0  0  0  0  0  0  0  # atno 6907 bound_to 6896
  152.5452  134.1305  159.8447 H   0  0  0  0  0  0  0  0  0  0  0  0  # atno 6908 bound_to 6896
  151.1397  133.4933  159.2630 H   0  0  0  0  0  0  0  0  0  0  0  0  # atno 6909 bound_to 6896
  145.3921  140.9529  143.2335 H   0  0  0  0  0  0  0  0  0  0  0  0  # atno 7974 bound_to 7965
  154.9168  140.0408  157.1976 H   0  0  0  0  0  0  0  0  0  0  0  0  # atno 8008 bound_to 7997
  154.8293  140.2896  155.5712 H   0  0  0  0  0  0  0  0  0  0  0  0  # atno 8009 bound_to 7997
  156.2985  140.2504  156.3215 H   0  0  0  0  0  0  0  0  0  0  0  0  # atno 8010 bound_to 7997
  140.7281  143.4645  151.0333 H   0  0  0  0  0  0  0  0  0  0  0  0  # atno 10167 bound_to 10162
  157.6741  131.0803  150.5701 H   0  0  0  0  0  0  0  0  0  0  0  0  # atno 10718 bound_to 10713
  153.1943  135.4445  155.0189 H   0  0  0  0  0  0  0  0  0  0  0  0  # atno 10763 bound_to 10752
  154.8109  135.3294  154.7309 H   0  0  0  0  0  0  0  0  0  0  0  0  # atno 10764 bound_to 10752
  153.7760  135.6981  153.4952 H   0  0  0  0  0  0  0  0  0  0  0  0  # atno 10765 bound_to 10752
  140.2636  134.7882  157.3612 H   0  0  0  0  0  0  0  0  0  0  0  0  # atno 11005 bound_to 11000
  144.8433  139.5437  143.6890 LP  0  0  0  0  0  0  0  0  0  0  0  0  # atno 17320 bound_to 7965
  146.2793  139.6834  142.9241 LP  0  0  0  0  0  0  0  0  0  0  0  0  # atno 17321 bound_to 7965
  139.8332  143.7663  152.3180 LP  0  0  0  0  0  0  0  0  0  0  0  0  # atno 17342 bound_to 10162
  139.7786  144.7452  151.0121 LP  0  0  0  0  0  0  0  0  0  0  0  0  # atno 17343 bound_to 10162
  156.6002  130.4352  149.5900 LP  0  0  0  0  0  0  0  0  0  0  0  0  # atno 17370 bound_to 10713
  156.2512  130.6908  151.1646 LP  0  0  0  0  0  0  0  0  0  0  0  0  # atno 17371 bound_to 10713
  140.1440  134.4934  155.8010 LP  0  0  0  0  0  0  0  0  0  0  0  0  # atno 17394 bound_to 11000
  141.2187  133.6836  156.7262 LP  0  0  0  0  0  0  0  0  0  0  0  0  # atno 17395 bound_to 11000

$$$$
