#       Name:                AV-unprocessed.smi:1275
#       Creating user name   scv26
#       Creation time:       Fri Mar 27 04:47:40 2020


#       File generated by GOLD software.
#

@<TRIPOS>MOLECULE
AV-unprocessed.smi:1275
    51    52     1
SMALL
NO_CHARGES


@<TRIPOS>ATOM
      1 ****        -4.0804   7.6286   0.7669 C.3            1 S1                 0.0000
      2 ****        -3.8006   6.2426   0.6774 O.3            1 S1                 0.0000
      3 ****        -2.4727   5.9830   0.2544 C.3            1 S1                 0.0000
      4 ****        -2.2569   4.4688   0.1842 C.3            1 S1                 0.0000
      5 ****        -0.9164   4.2160  -0.2257 O.3            1 S1                 0.0000
      6 ****        -0.5027   2.9059  -0.3551 C.ar           1 S1                 0.0000
      7 ****         0.8238   2.6548  -0.7577 C.ar           1 S1                 0.0000
      8 ****         1.2515   1.3201  -0.8888 C.ar           1 S1                 0.0000
      9 ****         0.3472   0.2768  -0.6059 C.ar           1 S1                 0.0000
     10 ****         0.8007  -1.0604  -0.7662 N.am           1 S1                 0.0000
     11 ****         0.3280  -2.1861  -0.1954 C.2            1 S1                 0.0000
     12 ****        -0.6275  -2.2011   0.5809 O.2            1 S1                 0.0000
     13 ****         0.9864  -3.3141  -0.5638 N.am           1 S1                 0.0000
     14 ****         2.2574  -3.3941  -1.2988 C.3            1 S1                 0.0000
     15 ****         3.3403  -3.9031  -0.3309 C.3            1 S1                 0.0000
     16 ****         2.9538  -5.1691   0.1992 O.3            1 S1                 0.0000
     17 ****         1.7056  -5.1389   0.8902 C.3            1 S1                 0.0000
     18 ****         1.4170  -6.5471   1.4214 C.3            1 S1                 0.0000
     19 ****         0.6087  -4.6431  -0.0739 C.3            1 S1                 0.0000
     20 ****        -0.9691   0.6318  -0.2227 C.ar           1 S1                 0.0000
     21 ****        -1.3853   1.9098  -0.0961 N.ar           1 S1                 0.0000
     22 ****        -5.1084   7.7741   1.0985 H              1 S1                 0.0000
     23 ****        -3.9673   8.1173  -0.2015 H              1 S1                 0.0000
     24 ****        -3.4227   8.1187   1.4856 H              1 S1                 0.0000
     25 ****        -2.2963   6.4301  -0.7250 H              1 S1                 0.0000
     26 ****        -1.7636   6.4284   0.9540 H              1 S1                 0.0000
     27 ****        -2.4431   4.0259   1.1642 H              1 S1                 0.0000
     28 ****        -2.9606   4.0301  -0.5250 H              1 S1                 0.0000
     29 ****         1.5006   3.4711  -0.9628 H              1 S1                 0.0000
     30 ****         2.2636   1.1038  -1.1985 H              1 S1                 0.0000
     31 ****         1.6304  -1.1713  -1.3305 H              1 S1                 0.0000
     32 ****         2.1464  -4.0887  -2.1327 H              1 S1                 0.0000
     33 ****         2.5787  -2.4520  -1.7423 H              1 S1                 0.0000
     34 ****         4.2910  -4.0152  -0.8525 H              1 S1                 0.0000
     35 ****         3.5021  -3.1919   0.4807 H              1 S1                 0.0000
     36 ****         1.7860  -4.4559   1.7379 H              1 S1                 0.0000
     37 ****         0.4751  -6.5740   1.9698 H              1 S1                 0.0000
     38 ****         2.2048  -6.8766   2.0989 H              1 S1                 0.0000
     39 ****         1.3524  -7.2707   0.6084 H              1 S1                 0.0000
     40 ****        -0.3603  -4.6481   0.4273 H              1 S1                 0.0000
     41 ****         0.5096  -5.3251  -0.9200 H              1 S1                 0.0000
     42 ****        -1.7288  -0.1093  -0.0299 H              1 S1                 0.0000
     43 ****        -4.4325   5.8295   0.0217 LP             1 S1                 0.0000
     44 ****        -3.9370   5.8291   1.5777 LP             1 S1                 0.0000
     45 ****        -0.3157   4.6501   0.4457 LP             1 S1                 0.0000
     46 ****        -0.7925   4.6538  -1.1161 LP             1 S1                 0.0000
     47 ****        -1.0939  -1.3485   0.8163 LP             1 S1                 0.0000
     48 ****        -0.9371  -3.0660   0.9761 LP             1 S1                 0.0000
     49 ****         3.6612  -5.4750   0.8365 LP             1 S1                 0.0000
     50 ****         2.8818  -5.8202  -0.5564 LP             1 S1                 0.0000
     51 ****        -2.3231   2.1170   0.1824 LP             1 S1                 0.0000
@<TRIPOS>BOND
    1    1    2 1     
    2    1   22 1     
    3    1   23 1     
    4    1   24 1     
    5    2    3 1     
    6    3    4 1     
    7    3   25 1     
    8    3   26 1     
    9    4    5 1     
   10    4   27 1     
   11    4   28 1     
   12    5    6 1     
   13    6   21 ar    
   14    6    7 ar    
   15    7    8 ar    
   16    7   29 1     
   17    8    9 ar    
   18    8   30 1     
   19    9   10 1     
   20    9   20 ar    
   21   10   11 am    
   22   10   31 1     
   23   11   12 2     
   24   11   13 am    
   25   13   19 1     
   26   13   14 1     
   27   14   15 1     
   28   14   32 1     
   29   14   33 1     
   30   15   16 1     
   31   15   34 1     
   32   15   35 1     
   33   16   17 1     
   34   17   18 1     
   35   17   19 1     
   36   17   36 1     
   37   18   37 1     
   38   18   38 1     
   39   18   39 1     
   40   19   40 1     
   41   19   41 1     
   42   20   21 ar    
   43   20   42 1     
   44    2   43 1     
   45    2   44 1     
   46    5   45 1     
   47    5   46 1     
   48   12   47 1     
   49   12   48 1     
   50   16   49 1     
   51   16   50 1     
   52   21   51 1     
@<TRIPOS>SUBSTRUCTURE
      1 S1             1
@<TRIPOS>SET
LONE_PAIRS      STATIC     ATOMS    <user>   **** ""
9 43 44 45 46 47 48 49 50 51
DONOR_HYDROGENS      STATIC     ATOMS    <user>   **** ""
1 31
ATOM$BLUE        STATIC     ATOMS    COLORGROUP SYSTEM
9 43 44 45 46 47 48 49 50 51
ATOM$RED        STATIC     ATOMS    COLORGROUP SYSTEM
1 31
