AV-unprocessed.smi:287|AV-procd|sdf|2194|dock1
  -GOLD-   2262021593D 1   1.00000     0.00000
 Structure written by MMmdl.
 55 58  0  0  0  0  0  0  0  0  1 V2000
  154.1760  144.4603  163.5513 C   0  0  0  0  0  0  0  0  0  0  0  0
  154.0288  143.5765  162.3604 C   0  0  0  0  0  0  0  0  0  0  0  0
  154.4483  142.3124  162.0649 C   0  0  0  0  0  0  0  0  0  0  0  0
  153.9869  142.0063  160.7499 C   0  0  0  0  0  0  0  0  0  0  0  0
  154.2207  140.6989  160.0056 C   0  0  2  0  0  0  0  0  0  0  0  0
  154.6934  139.6168  160.9903 C   0  0  0  0  0  0  0  0  0  0  0  0
  155.2441  140.7926  159.0333 O   0  0  0  0  0  0  0  0  0  0  0  0
  152.9565  140.2210  159.2561 C   0  0  0  0  0  0  0  0  0  0  0  0
  153.2653  139.3949  158.0955 N   0  0  0  0  0  0  0  0  0  0  0  0
  152.5090  139.4499  156.9793 C   0  0  0  0  0  0  0  0  0  0  0  0
  152.7562  138.4864  156.0596 N   0  0  0  0  0  0  0  0  0  0  0  0
  152.0647  138.4534  154.9167 C   0  0  0  0  0  0  0  0  0  0  0  0
  151.0992  139.2756  154.5017 N   0  0  0  0  0  0  0  0  0  0  0  0
  150.8454  140.2486  155.4231 C   0  0  0  0  0  0  0  0  0  0  0  0
  151.4944  140.4077  156.6811 C   0  0  0  0  0  0  0  0  0  0  0  0
  150.9507  141.5071  157.3387 N   0  0  0  0  0  0  0  0  0  0  0  0
  150.0443  141.9635  156.5176 C   0  0  0  0  0  0  0  0  0  0  0  0
  149.9192  141.2631  155.3389 N   0  0  0  0  0  0  0  0  0  0  0  0
  148.9861  141.5053  154.1971 C   0  0  2  0  0  0  0  0  0  0  0  0
  148.1621  142.5718  154.5288 O   0  0  0  0  0  0  0  0  0  0  0  0
  146.9926  142.4739  153.7342 C   0  0  2  0  0  0  0  0  0  0  0  0
  145.8804  143.3347  154.3535 C   0  0  0  0  0  0  0  0  0  0  0  0
  144.6270  142.7020  154.2069 O   0  0  0  0  0  0  0  0  0  0  0  0
  146.6972  140.9651  153.7000 C   0  0  1  0  0  0  0  0  0  0  0  0
  146.1596  140.6046  152.4432 O   0  0  0  0  0  0  0  0  0  0  0  0
  148.0627  140.3053  153.9057 C   0  0  2  0  0  0  0  0  0  0  0  0
  148.0076  139.3538  154.9542 O   0  0  0  0  0  0  0  0  0  0  0  0
  153.3203  143.1363  160.3404 C   0  0  0  0  0  0  0  0  0  0  0  0
  152.6034  143.5230  159.0889 C   0  0  0  0  0  0  0  0  0  0  0  0
  153.3386  144.0910  161.3120 O   0  0  0  0  0  0  0  0  0  0  0  0
  149.6210  141.7745  153.3509 H   0  0  0  0  0  0  0  0  0  0  0  0
  147.2489  142.8418  152.7379 H   0  0  0  0  0  0  0  0  0  0  0  0
  146.0037  140.6886  154.4961 H   0  0  0  0  0  0  0  0  0  0  0  0
  148.4292  139.8104  153.0052 H   0  0  0  0  0  0  0  0  0  0  0  0
  154.5034  143.8897  164.4206 H   0  0  0  0  0  0  0  0  0  0  0  0
  153.2284  144.9386  163.7995 H   0  0  0  0  0  0  0  0  0  0  0  0
  154.9122  145.2419  163.3627 H   0  0  0  0  0  0  0  0  0  0  0  0
  155.0197  141.6731  162.7214 H   0  0  0  0  0  0  0  0  0  0  0  0
  153.9494  139.4361  161.7669 H   0  0  0  0  0  0  0  0  0  0  0  0
  155.6198  139.9097  161.4865 H   0  0  0  0  0  0  0  0  0  0  0  0
  154.8744  138.6673  160.4850 H   0  0  0  0  0  0  0  0  0  0  0  0
  156.0763  140.8440  159.4778 H   0  0  0  0  0  0  0  0  0  0  0  0
  152.2812  139.6915  159.9297 H   0  0  0  0  0  0  0  0  0  0  0  0
  152.4215  141.1001  158.8949 H   0  0  0  0  0  0  0  0  0  0  0  0
  154.0965  138.8266  158.1738 H   0  0  0  0  0  0  0  0  0  0  0  0
  152.3234  137.6547  154.2374 H   0  0  0  0  0  0  0  0  0  0  0  0
  149.4367  142.8252  156.7535 H   0  0  0  0  0  0  0  0  0  0  0  0
  146.0752  143.5279  155.4088 H   0  0  0  0  0  0  0  0  0  0  0  0
  145.8334  144.3020  153.8526 H   0  0  0  0  0  0  0  0  0  0  0  0
  144.2422  142.9830  153.3905 H   0  0  0  0  0  0  0  0  0  0  0  0
  145.2722  140.3050  152.5725 H   0  0  0  0  0  0  0  0  0  0  0  0
  148.2687  139.7803  155.7565 H   0  0  0  0  0  0  0  0  0  0  0  0
  153.2437  143.3832  158.2178 H   0  0  0  0  0  0  0  0  0  0  0  0
  152.2992  144.5696  159.1154 H   0  0  0  0  0  0  0  0  0  0  0  0
  151.7081  142.9159  158.9545 H   0  0  0  0  0  0  0  0  0  0  0  0
  1  2  1  0  0  0  0
  1 35  1  0  0  0  0
  1 36  1  0  0  0  0
  1 37  1  0  0  0  0
  2 30  1  0  0  0  0
  2  3  2  0  0  0  0
  3  4  1  0  0  0  0
  3 38  1  0  0  0  0
  4  5  1  0  0  0  0
  4 28  2  0  0  0  0
  5  6  1  0  0  0  0
  5  7  1  0  0  0  0
  5  8  1  0  0  0  0
  6 39  1  0  0  0  0
  6 40  1  0  0  0  0
  6 41  1  0  0  0  0
  7 42  1  0  0  0  0
  8  9  1  0  0  0  0
  8 43  1  0  0  0  0
  8 44  1  0  0  0  0
  9 10  1  0  0  0  0
  9 45  1  0  0  0  0
 10 15  1  0  0  0  0
 10 11  2  0  0  0  0
 11 12  1  0  0  0  0
 12 13  2  0  0  0  0
 12 46  1  0  0  0  0
 13 14  1  0  0  0  0
 14 18  1  0  0  0  0
 14 15  2  0  0  0  0
 15 16  1  0  0  0  0
 16 17  2  0  0  0  0
 17 18  1  0  0  0  0
 17 47  1  0  0  0  0
 18 19  1  0  0  0  0
 19 31  1  0  0  0  0
 19 26  1  0  0  0  0
 19 20  1  0  0  0  0
 20 21  1  0  0  0  0
 21 32  1  0  0  0  0
 21 22  1  0  0  0  0
 21 24  1  0  0  0  0
 22 23  1  0  0  0  0
 22 48  1  0  0  0  0
 22 49  1  0  0  0  0
 23 50  1  0  0  0  0
 24 33  1  0  0  0  0
 24 25  1  0  0  0  0
 24 26  1  0  0  0  0
 25 51  1  0  0  0  0
 26 34  1  0  0  0  0
 26 27  1  0  0  0  0
 27 52  1  0  0  0  0
 28 29  1  0  0  0  0
 28 30  1  0  0  0  0
 29 53  1  0  0  0  0
 29 54  1  0  0  0  0
 29 55  1  0  0  0  0
M  END
> <s_m_source_file>
AV-unprocessed.smi

> <i_m_source_file_index>
287

> <i_lp_mmshare_version>
43012

> <i_f3d_flags>
0

> <s_epik_input>
W0NIM11jMVtjSF1jKGMobzEpW0NIM10pW0NAQF0oW0NIM10pKFtPSF0pW0NIMl1bTkhdYyhuW2NIXW4yKWMoYzIzKW5bY0hdbjNbQ0BASF00T1tDQEhdKFtDSDJdW09IXSlbQ0BASF0oW09IXSlbQ0BIXTRbT0hd

> <s_epik_cmdline>
J2VwaWtfcHl0aG9uJywgJy1waCcsICc3LjAnLCAnLXRuJywgJzgnLCAnLW1hJywgJzIwMCcsICctbWV0YWxfYmluZGluZycsICctaW1hZScsICc8aW5maWxlLm1hZT4nLCAnLW9tYWUnLCAnPG91dGZpbGUubWFlPic=

> <r_lp_tautomer_probability>
1

> <r_epik_Ionization_Penalty>
0.000992612

> <r_epik_Ionization_Penalty_Charging>
0

> <r_epik_Ionization_Penalty_Neutral>
0.000992612

> <r_epik_State_Penalty>
-0

> <r_epik_Charging_Adjusted_Penalty>
0

> <i_epik_Tot_Q>
0

> <i_epik_Tot_abs_Q>
0

> <r_epik_Metal_State_Penalty>
-0

> <b_epik_Metal_Only>
0

> <s_epik_Chemistry_Notes>
This compound contains an acetal/aminal-like group ( X-CH(R)-Y where X, Y are N, S, or O) that may be acid/base labile, releasing an aldehyde.

> <s_lp_Force_Field>
OPLS_2005

> <r_lp_Energy>
43.2107

> <b_lp_Chiralities_Consistent>
1

> <s_lp_Variant>
AV-unprocessed.smi:287-18

> <Gold.Version>
5.8.1

> <Gold.Id.Protein>
6NUR|6NUR_protein|mol2

> <Gold.PLP.Fitness>
53.9122

> <Gold.PLP.PLP>
-47.8815

> <Gold.PLP.part.hbond>
-5.0345

> <Gold.PLP.part.metal>
0.0000

> <Gold.PLP.part.buried>
3.3270

> <Gold.PLP.part.nonpolar>
-49.3455

> <Gold.PLP.part.repulsive>
4.5146

> <Gold.PLP.ligand.clash>
0.0223

> <Gold.PLP.ligand.torsion>
1.8224

> <Gold.PLP.Chemscore.Hbond>
2.4052

> <Gold.PLP.Chemscore.CHOScore>
0.7549

> <Gold.PLP.Chemscore.Metal>
0.0000

> <Gold.Chemscore.Hbonds>
donor molecule, donor type, donor heavy atom, donor atom, acceptor molecule, acceptor atom, score
      L1  H    23    50       P1 10174  0.30
      L1  H    25    51       P1 10175  1.00
      P1  H  7997  8010       L1     7  0.56
      P1  H  8022  8030       L1    20  0.03
      L1  C    17    47       P1  8028  1.00

> <Gold.PLP.Chemscore.Internal.Correction>
0.2174

> <Gold.Rescore>
     Score         DG    S(hbond)    S(metal)    S(lipo)     H(rot)  DE(clash)    DE(int)     intcor
      1.39      -8.79       0.87        0.00     118.82       5.27       4.72       2.68       ----

> <Gold.Chemscore.Fitness>
1.3939

> <Gold.Chemscore.DG>
-8.7928

> <Gold.Chemscore.ZeroCoef>
-5.4800

> <Gold.Chemscore.Hbond>
0.8668

> <Gold.Chemscore.Metal>
0.0000

> <Gold.Chemscore.Lipo>
118.8176

> <Gold.Chemscore.Internal_Hbond>
0.0000

> <Gold.Chemscore.DEClash>
4.7187

> <Gold.Chemscore.DEInternal>
2.6803

> <Gold.Chemscore.Rot>
5.2672

> <Gold.Chemscore.Internal.Correction>
   9.000000E+99

> <Gold.Chemscore.Hbonds>
donor molecule, donor type, donor heavy atom, donor atom, acceptor molecule, acceptor atom, score
      L1  H    23    50       P1 10174  0.01
      L1  H    25    51       P1 10175  0.78
      P1  H  7997  8010       L1     7  0.53

> <Gold.Chemscore.Hbond.Weighted>
-2.8951

> <Gold.Chemscore.Metal.Weighted>
-0.0000

> <Gold.Chemscore.Lipo.Weighted>
-13.9017

> <Gold.Chemscore.Internal_Hbond.Weighted>
0.0000

> <Gold.Chemscore.DEClash.Weighted>
4.7187

> <Gold.Chemscore.DEInternal.Weighted>
2.6803

> <Gold.Chemscore.Rot.Weighted>
13.4839

> <Gold.Chemscore.Internal.Correction.Weighted>
   9.000000E+99

> <Gold.Protein.RotatedTorsions>
[ 6907 6896 6895 6894 ] final  -21.21 input  -60.11 | X-H torsion
[ 7974 7965 7964 7962 ] final   15.84 input  175.53 | X-H torsion
[ 8008 7997 7996 7995 ] final   -7.70 input   59.86 | X-H torsion
[ 10167 10162 10161 10158 ] final  -95.92 input  -65.29 | X-H torsion
[ 10718 10713 10712 10709 ] final   33.92 input   66.30 | X-H torsion
[ 10763 10752 10751 10750 ] final  -24.31 input  -60.55 | X-H torsion
[ 11005 11000 10999 10996 ] final -127.66 input  -57.11 | X-H torsion

> <Gold.Protein.ActiveResidues>
 VAL166  LYS551  ARG553  GLY616  TRP617  ASP618  TYR619  PRO620  LYS621  CYS622 
 ASP623  PHE694  ASN695  SER759  ASP760  ASP761  ALA762  ILE779  LEU786  VAL792 
 PHE793  MET794  SER795  GLU796  ALA797  LYS798  CYS799  TRP800  GLU811  SER814 

> <Gold.Protein.RotatedAtoms>
  151.2367  135.0574  159.9008 H   0  0  0  0  0  0  0  0  0  0  0  0  # atno 6907 bound_to 6896
  152.5398  134.0478  159.8106 H   0  0  0  0  0  0  0  0  0  0  0  0  # atno 6908 bound_to 6896
  151.0666  133.5452  159.2661 H   0  0  0  0  0  0  0  0  0  0  0  0  # atno 6909 bound_to 6896
  146.2267  139.8834  142.8567 H   0  0  0  0  0  0  0  0  0  0  0  0  # atno 7974 bound_to 7965
  154.5812  140.2400  155.8050 H   0  0  0  0  0  0  0  0  0  0  0  0  # atno 8008 bound_to 7997
  156.2181  140.3006  155.9842 H   0  0  0  0  0  0  0  0  0  0  0  0  # atno 8009 bound_to 7997
  155.2537  140.0411  157.2980 H   0  0  0  0  0  0  0  0  0  0  0  0  # atno 8010 bound_to 7997
  140.2991  143.3173  152.0266 H   0  0  0  0  0  0  0  0  0  0  0  0  # atno 10167 bound_to 10162
  157.3038  130.7364  149.6683 H   0  0  0  0  0  0  0  0  0  0  0  0  # atno 10718 bound_to 10713
  153.6817  135.6966  153.5116 H   0  0  0  0  0  0  0  0  0  0  0  0  # atno 10763 bound_to 10752
  153.2480  135.4284  155.0767 H   0  0  0  0  0  0  0  0  0  0  0  0  # atno 10764 bound_to 10752
  154.8398  135.3524  154.6360 H   0  0  0  0  0  0  0  0  0  0  0  0  # atno 10765 bound_to 10752
  140.9581  134.0974  157.3996 H   0  0  0  0  0  0  0  0  0  0  0  0  # atno 11005 bound_to 11000
  145.2489  141.0037  143.3892 LP  0  0  0  0  0  0  0  0  0  0  0  0  # atno 17320 bound_to 7965
  144.9390  139.4210  143.6458 LP  0  0  0  0  0  0  0  0  0  0  0  0  # atno 17321 bound_to 7965
  139.4919  144.6469  151.6760 LP  0  0  0  0  0  0  0  0  0  0  0  0  # atno 17342 bound_to 10162
  140.5666  144.0179  150.6195 LP  0  0  0  0  0  0  0  0  0  0  0  0  # atno 17343 bound_to 10162
  155.9673  130.4272  150.4732 LP  0  0  0  0  0  0  0  0  0  0  0  0  # atno 17370 bound_to 10713
  157.2718  131.0588  151.2255 LP  0  0  0  0  0  0  0  0  0  0  0  0  # atno 17371 bound_to 10713
  139.8869  135.0085  156.6526 LP  0  0  0  0  0  0  0  0  0  0  0  0  # atno 17394 bound_to 11000
  140.7507  133.8900  155.8345 LP  0  0  0  0  0  0  0  0  0  0  0  0  # atno 17395 bound_to 11000

$$$$
