#       Name:                AV-unprocessed.smi:1810
#       Creating user name   scv26
#       Creation time:       Fri Mar 27 08:59:23 2020


#       File generated by GOLD software.
#

@<TRIPOS>MOLECULE
AV-unprocessed.smi:1810
    46    47     1
SMALL
NO_CHARGES


@<TRIPOS>ATOM
      1 ****        -3.4779   2.7554   2.6245 C.3            1 S1                 0.0000
      2 ****        -3.1627   2.2795   1.2319 C.2            1 S1                 0.0000
      3 ****        -2.6476   1.0989   1.1237 N.2            1 S1                 0.0000
      4 ****        -2.3236   0.5658  -0.1084 N.am           1 S1                 0.0000
      5 ****        -1.7382  -0.7776  -0.0433 C.3            1 S1                 0.0000
      6 ****        -0.2043  -0.7288  -0.1117 C.3            1 S1                 0.0000
      7 ****         0.2976  -2.0533  -0.0001 O.3            1 S1                 0.0000
      8 ****         1.6632  -2.2389  -0.0424 C.ar           1 S1                 0.0000
      9 ****         2.6062  -1.1896  -0.1937 C.ar           1 S1                 0.0000
     10 ****         3.9863  -1.4689  -0.2287 C.ar           1 S1                 0.0000
     11 ****         4.4357  -2.7988  -0.1126 C.ar           1 S1                 0.0000
     12 ****         6.1933  -3.1502  -0.1533 S.o2           1 S1                 0.0000
     13 ****         6.3388  -3.2897  -1.7547 N.pl3          1 S1                -1.0000
     14 ****         6.8743  -1.9598   0.3793 O.2            1 S1                 0.0000
     15 ****         6.3808  -4.4288   0.5504 O.2            1 S1                 0.0000
     16 ****         3.5104  -3.8500   0.0394 C.ar           1 S1                 0.0000
     17 ****         2.1319  -3.5647   0.0732 C.ar           1 S1                 0.0000
     18 ****        -2.5021   1.2013  -1.3014 C.2            1 S1                 0.0000
     19 ****        -2.1949   0.6885  -2.3785 O.2            1 S1                 0.0000
     20 ****        -3.0848   2.5389  -1.1719 C.2            1 S1                 0.0000
     21 ****        -3.2890   3.2401  -2.3983 C.1            1 S1                 0.0000
     22 ****        -3.4612   3.8254  -3.3822 N.1            1 S1                 0.0000
     23 ****        -3.4073   3.0741   0.0324 C.2            1 S1                 0.0000
     24 ****        -4.0148   4.4575   0.2208 C.3            1 S1                 0.0000
     25 ****        -4.5335   3.0115   2.7168 H              1 S1                 0.0000
     26 ****        -2.8917   3.6405   2.8723 H              1 S1                 0.0000
     27 ****        -3.2586   1.9937   3.3744 H              1 S1                 0.0000
     28 ****        -2.0426  -1.2710   0.8815 H              1 S1                 0.0000
     29 ****        -2.1297  -1.4034  -0.8474 H              1 S1                 0.0000
     30 ****         0.1143  -0.2858  -1.0566 H              1 S1                 0.0000
     31 ****         0.1805  -0.1119   0.7021 H              1 S1                 0.0000
     32 ****         2.2970  -0.1598  -0.2867 H              1 S1                 0.0000
     33 ****         4.6945  -0.6623  -0.3481 H              1 S1                 0.0000
     34 ****         5.9016  -4.1748  -2.0376 H              1 S1                 0.0000
     35 ****         3.8500  -4.8714   0.1263 H              1 S1                 0.0000
     36 ****         1.4255  -4.3736   0.1884 H              1 S1                 0.0000
     37 ****        -4.1254   4.9921  -0.7223 H              1 S1                 0.0000
     38 ****        -3.3860   5.0681   0.8697 H              1 S1                 0.0000
     39 ****        -5.0045   4.3811   0.6726 H              1 S1                 0.0000
     40 ****        -2.4802   0.5603   1.9495 LP             1 S1                 0.0000
     41 ****        -0.0970  -2.5840  -0.7502 LP             1 S1                 0.0000
     42 ****        -0.0244  -2.4197   0.8729 LP             1 S1                 0.0000
     43 ****         6.7777  -2.6298  -2.3645 LP             1 S1                 0.0000
     44 ****        -1.7977  -0.2290  -2.4002 LP             1 S1                 0.0000
     45 ****        -2.3428   1.1897  -3.2311 LP             1 S1                 0.0000
     46 ****        -3.6100   4.3310  -4.2321 LP             1 S1                 0.0000
@<TRIPOS>BOND
    1    1    2 1     
    2    1   25 1     
    3    1   26 1     
    4    1   27 1     
    5    2   23 1     
    6    2    3 2     
    7    3    4 1     
    8    4    5 1     
    9    4   18 am    
   10    5    6 1     
   11    5   28 1     
   12    5   29 1     
   13    6    7 1     
   14    6   30 1     
   15    6   31 1     
   16    7    8 1     
   17    8   17 ar    
   18    8    9 ar    
   19    9   10 ar    
   20    9   32 1     
   21   10   11 ar    
   22   10   33 1     
   23   11   12 1     
   24   11   16 ar    
   25   12   13 1     
   26   12   14 2     
   27   12   15 2     
   28   13   34 1     
   29   16   17 ar    
   30   16   35 1     
   31   17   36 1     
   32   18   19 2     
   33   18   20 1     
   34   20   21 1     
   35   20   23 2     
   36   21   22 3     
   37   23   24 1     
   38   24   37 1     
   39   24   38 1     
   40   24   39 1     
   41    3   40 1     
   42    7   41 1     
   43    7   42 1     
   44   13   43 1     
   45   19   44 1     
   46   19   45 1     
   47   22   46 1     
@<TRIPOS>SUBSTRUCTURE
      1 S1             1
@<TRIPOS>SET
LONE_PAIRS      STATIC     ATOMS    <user>   **** ""
9 40 41 42 43 14 15 44 45 46
DONOR_HYDROGENS      STATIC     ATOMS    <user>   **** ""
1 34
ATOM$BLUE        STATIC     ATOMS    COLORGROUP SYSTEM
9 40 41 42 43 14 15 44 45 46
ATOM$RED        STATIC     ATOMS    COLORGROUP SYSTEM
1 34
