AV-unprocessed.smi:1669|AV-procd|sdf|6689|dock6
  -GOLD-   22720 7413D 1   1.00000     0.00000
 Structure written by MMmdl.
 49 51  0  0  0  0  0  0  0  0  3 V2000
  146.0836  135.6293  153.4632 C   0  0  0  0  0  0  0  0  0  0  0  0
  146.0167  136.3878  152.1923 N   0  3  1  0  0  0  0  0  0  0  0  0
  145.2184  135.6908  151.1511 C   0  0  0  0  0  0  0  0  0  0  0  0
  145.3779  134.1839  151.2315 C   0  0  0  0  0  0  0  0  0  0  0  0
  144.2364  133.3547  151.2224 C   0  0  0  0  0  0  0  0  0  0  0  0
  144.3779  131.9552  151.2958 C   0  0  0  0  0  0  0  0  0  0  0  0
  145.6608  131.3802  151.3797 C   0  0  0  0  0  0  0  0  0  0  0  0
  146.8024  132.2049  151.3915 C   0  0  0  0  0  0  0  0  0  0  0  0
  146.6617  133.6045  151.3188 C   0  0  0  0  0  0  0  0  0  0  0  0
  145.5890  137.7940  152.4018 C   0  0  0  0  0  0  0  0  0  0  0  0
  146.7913  138.7390  152.6214 C   0  0  2  0  0  0  0  0  0  0  0  0
  147.7846  138.4316  151.6657 O   0  0  0  0  0  0  0  0  0  0  0  0
  147.4295  138.6146  154.0201 C   0  0  0  0  0  0  0  0  0  0  0  0
  148.1860  139.8128  154.4154 N   0  0  0  0  0  0  0  0  0  0  0  0
  147.8107  141.1248  154.4739 C   0  0  0  0  0  0  0  0  0  0  0  0
  146.4712  141.6968  154.1335 C   0  0  0  0  0  0  0  0  0  0  0  0
  145.4262  141.1359  154.8987 O   0  0  0  0  0  0  0  0  0  0  0  0
  148.8942  141.8326  154.9040 N   0  3  0  0  0  0  0  0  0  0  0  0
  149.9684  140.9707  155.1240 C   0  0  0  0  0  0  0  0  0  0  0  0
  151.2663  141.2231  155.5571 C   0  0  0  0  0  0  0  0  0  0  0  0
  152.1211  140.1077  155.6784 C   0  0  0  0  0  0  0  0  0  0  0  0
  151.6750  138.8045  155.3768 C   0  0  0  0  0  0  0  0  0  0  0  0
  150.3562  138.5611  154.9392 C   0  0  0  0  0  0  0  0  0  0  0  0
  149.5191  139.6701  154.8178 C   0  0  0  0  0  0  0  0  0  0  0  0
  145.0955  135.5374  153.9157 H   0  0  0  0  0  0  0  0  0  0  0  0
  146.7407  136.1282  154.1762 H   0  0  0  0  0  0  0  0  0  0  0  0
  146.4830  134.6275  153.3056 H   0  0  0  0  0  0  0  0  0  0  0  0
  144.1669  135.9701  151.2362 H   0  0  0  0  0  0  0  0  0  0  0  0
  145.5321  135.9996  150.1540 H   0  0  0  0  0  0  0  0  0  0  0  0
  143.2494  133.7891  151.1572 H   0  0  0  0  0  0  0  0  0  0  0  0
  143.5025  131.3223  151.2882 H   0  0  0  0  0  0  0  0  0  0  0  0
  145.7693  130.3070  151.4359 H   0  0  0  0  0  0  0  0  0  0  0  0
  147.7861  131.7638  151.4570 H   0  0  0  0  0  0  0  0  0  0  0  0
  147.5425  134.2300  151.3280 H   0  0  0  0  0  0  0  0  0  0  0  0
  144.9892  138.1041  151.5453 H   0  0  0  0  0  0  0  0  0  0  0  0
  144.9318  137.8642  153.2702 H   0  0  0  0  0  0  0  0  0  0  0  0
  146.4928  139.7747  152.4638 H   0  0  0  0  0  0  0  0  0  0  0  0
  148.4677  139.0837  151.7159 H   0  0  0  0  0  0  0  0  0  0  0  0
  146.6627  138.4391  154.7753 H   0  0  0  0  0  0  0  0  0  0  0  0
  148.1024  137.7570  154.0669 H   0  0  0  0  0  0  0  0  0  0  0  0
  146.4750  142.7744  154.2965 H   0  0  0  0  0  0  0  0  0  0  0  0
  146.2707  141.5282  153.0752 H   0  0  0  0  0  0  0  0  0  0  0  0
  144.7854  140.7673  154.3092 H   0  0  0  0  0  0  0  0  0  0  0  0
  151.6101  142.2203  155.7914 H   0  0  0  0  0  0  0  0  0  0  0  0
  153.1387  140.2547  156.0111 H   0  0  0  0  0  0  0  0  0  0  0  0
  152.3585  137.9744  155.4840 H   0  0  0  0  0  0  0  0  0  0  0  0
  150.0250  137.5582  154.7136 H   0  0  0  0  0  0  0  0  0  0  0  0
  146.9648  136.4399  151.8469 H   0  0  0  0  0  0  0  0  0  0  0  0
  148.8928  142.8365  155.0335 H   0  0  0  0  0  0  0  0  0  0  0  0
  1  2  1  0  0  0  0
  1 25  1  0  0  0  0
  1 26  1  0  0  0  0
  1 27  1  0  0  0  0
  2  3  1  0  0  0  0
  2 10  1  0  0  0  0
  2 48  1  0  0  0  0
  3  4  1  0  0  0  0
  3 28  1  0  0  0  0
  3 29  1  0  0  0  0
  4  9  1  0  0  0  0
  4  5  2  0  0  0  0
  5  6  1  0  0  0  0
  5 30  1  0  0  0  0
  6  7  2  0  0  0  0
  6 31  1  0  0  0  0
  7  8  1  0  0  0  0
  7 32  1  0  0  0  0
  8  9  2  0  0  0  0
  8 33  1  0  0  0  0
  9 34  1  0  0  0  0
 10 11  1  0  0  0  0
 10 35  1  0  0  0  0
 10 36  1  0  0  0  0
 11 12  1  0  0  0  0
 11 13  1  0  0  0  0
 11 37  1  0  0  0  0
 12 38  1  0  0  0  0
 13 14  1  0  0  0  0
 13 39  1  0  0  0  0
 13 40  1  0  0  0  0
 14 24  1  0  0  0  0
 14 15  1  0  0  0  0
 15 16  1  0  0  0  0
 15 18  2  0  0  0  0
 16 17  1  0  0  0  0
 16 41  1  0  0  0  0
 16 42  1  0  0  0  0
 17 43  1  0  0  0  0
 18 19  1  0  0  0  0
 18 49  1  0  0  0  0
 19 24  2  0  0  0  0
 19 20  1  0  0  0  0
 20 21  2  0  0  0  0
 20 44  1  0  0  0  0
 21 22  1  0  0  0  0
 21 45  1  0  0  0  0
 22 23  2  0  0  0  0
 22 46  1  0  0  0  0
 23 24  1  0  0  0  0
 23 47  1  0  0  0  0
M  CHG  1   2   1
M  CHG  1  18   1
M  END
> <s_m_source_file>
AV-unprocessed.smi

> <i_m_source_file_index>
1669

> <i_lp_mmshare_version>
43012

> <i_f3d_flags>
0

> <s_epik_input>
W2NIXTFbY0hdW2NIXVtjSF1bY0hdYzFbQ0gyXU4oW0NIM10pW0NIMl1bQ0BIXShbT0hdKVtDSDJdbihjKG4yKVtDSDJdW09IXSljKGMyMylbY0hdW2NIXVtjSF1bY0hdMw==

> <s_epik_cmdline>
J2VwaWtfcHl0aG9uJywgJy1waCcsICc3LjAnLCAnLXRuJywgJzgnLCAnLW1hJywgJzIwMCcsICctbWV0YWxfYmluZGluZycsICctaW1hZScsICc8aW5maWxlLm1hZT4nLCAnLW9tYWUnLCAnPG91dGZpbGUubWFlPic=

> <r_epik_Ionization_Penalty>
1.57484

> <r_epik_Ionization_Penalty_Charging>
1.57398

> <r_epik_Ionization_Penalty_Neutral>
0.000858917

> <r_epik_State_Penalty>
1.64997

> <r_epik_Charging_Adjusted_Penalty>
3.22395

> <i_epik_Tot_Q>
2

> <i_epik_Tot_abs_Q>
2

> <r_epik_Metal_State_Penalty>
5.70481

> <b_epik_Metal_Only>
0

> <s_lp_Force_Field>
OPLS_2005

> <r_lp_Energy>
24.1241

> <b_lp_Chiralities_Consistent>
1

> <s_lp_Variant>
AV-unprocessed.smi:1669-7

> <Gold.Version>
5.8.1

> <Gold.Id.Protein>
6NUR|6NUR_protein|mol2

> <Gold.PLP.Fitness>
63.0007

> <Gold.PLP.PLP>
-44.5039

> <Gold.PLP.part.hbond>
-5.2019

> <Gold.PLP.part.metal>
0.0000

> <Gold.PLP.part.buried>
-1.4890

> <Gold.PLP.part.nonpolar>
-39.5457

> <Gold.PLP.part.repulsive>
0.2133

> <Gold.PLP.ligand.clash>
0.0000

> <Gold.PLP.ligand.torsion>
1.1716

> <Gold.PLP.Chemscore.Hbond>
6.8888

> <Gold.PLP.Chemscore.CHOScore>
0.0000

> <Gold.PLP.Chemscore.Metal>
0.0000

> <Gold.Chemscore.Hbonds>
donor molecule, donor type, donor heavy atom, donor atom, acceptor molecule, acceptor atom, score
      L1  H     2    48       P1  7948  2.00
      L1  H    12    38       P1  7957  1.00
      L1  H    17    43       P1 10175  0.71
      L1  H    18    49       P1  8028  2.00
      P1  H  7954  7966       L1    12  0.72

> <Gold.PLP.Chemscore.Internal.Correction>
0.1735

> <Gold.Rescore>
     Score         DG    S(hbond)    S(metal)    S(lipo)     H(rot)  DE(clash)    DE(int)     intcor
     21.02     -23.94       4.12        0.00     111.74       3.27       2.04       0.88       ----

> <Gold.Chemscore.Fitness>
21.0202

> <Gold.Chemscore.DG>
-23.9415

> <Gold.Chemscore.ZeroCoef>
-5.4800

> <Gold.Chemscore.Hbond>
4.1208

> <Gold.Chemscore.Metal>
0.0000

> <Gold.Chemscore.Lipo>
111.7419

> <Gold.Chemscore.Internal_Hbond>
0.0000

> <Gold.Chemscore.DEClash>
2.0447

> <Gold.Chemscore.DEInternal>
0.8766

> <Gold.Chemscore.Rot>
3.2718

> <Gold.Chemscore.Internal.Correction>
   9.000000E+99

> <Gold.Chemscore.Hbonds>
donor molecule, donor type, donor heavy atom, donor atom, acceptor molecule, acceptor atom, score
      L1  H     2    48       P1  7948  0.97
      L1  H    12    38       P1  7957  0.85
      L1  H    17    43       P1 10175  0.69
      L1  H    18    49       P1  8028  0.98
      P1  H  7954  7966       L1    12  0.09

> <Gold.Chemscore.Hbond.Weighted>
-13.7636

> <Gold.Chemscore.Metal.Weighted>
-0.0000

> <Gold.Chemscore.Lipo.Weighted>
-13.0738

> <Gold.Chemscore.Internal_Hbond.Weighted>
0.0000

> <Gold.Chemscore.DEClash.Weighted>
2.0447

> <Gold.Chemscore.DEInternal.Weighted>
0.8766

> <Gold.Chemscore.Rot.Weighted>
8.3759

> <Gold.Chemscore.Internal.Correction.Weighted>
   9.000000E+99

> <Gold.Protein.RotatedTorsions>
[ 6907 6896 6895 6894 ] final   97.77 input  -60.11 | X-H torsion
[ 7974 7965 7964 7962 ] final -150.18 input  175.53 | X-H torsion
[ 8008 7997 7996 7995 ] final  -25.78 input   59.86 | X-H torsion
[ 10167 10162 10161 10158 ] final   45.57 input  -65.29 | X-H torsion
[ 10718 10713 10712 10709 ] final -168.69 input   66.30 | X-H torsion
[ 10763 10752 10751 10750 ] final -175.46 input  -60.55 | X-H torsion
[ 11005 11000 10999 10996 ] final  -53.41 input  -57.11 | X-H torsion

> <Gold.Protein.ActiveResidues>
 VAL166  LYS551  ARG553  GLY616  TRP617  ASP618  TYR619  PRO620  LYS621  CYS622 
 ASP623  PHE694  ASN695  SER759  ASP760  ASP761  ALA762  ILE779  LEU786  VAL792 
 PHE793  MET794  SER795  GLU796  ALA797  LYS798  CYS799  TRP800  GLU811  SER814 

> <Gold.Protein.RotatedAtoms>
  152.5419  134.0683  159.8182 H   0  0  0  0  0  0  0  0  0  0  0  0  # atno 6907 bound_to 6896
  151.0801  133.5389  159.2628 H   0  0  0  0  0  0  0  0  0  0  0  0  # atno 6908 bound_to 6896
  151.2220  135.0530  159.9007 H   0  0  0  0  0  0  0  0  0  0  0  0  # atno 6909 bound_to 6896
  144.7923  140.4966  143.5764 H   0  0  0  0  0  0  0  0  0  0  0  0  # atno 7974 bound_to 7965
  154.4458  140.1917  156.0672 H   0  0  0  0  0  0  0  0  0  0  0  0  # atno 8008 bound_to 7997
  156.0538  140.3305  155.7355 H   0  0  0  0  0  0  0  0  0  0  0  0  # atno 8009 bound_to 7997
  155.5516  140.0595  157.2839 H   0  0  0  0  0  0  0  0  0  0  0  0  # atno 8010 bound_to 7997
  140.3227  144.2685  150.6180 H   0  0  0  0  0  0  0  0  0  0  0  0  # atno 10167 bound_to 10162
  156.7006  130.9195  151.3079 H   0  0  0  0  0  0  0  0  0  0  0  0  # atno 10718 bound_to 10713
  154.5841  135.2839  155.0703 H   0  0  0  0  0  0  0  0  0  0  0  0  # atno 10763 bound_to 10752
  154.2028  135.6421  153.5096 H   0  0  0  0  0  0  0  0  0  0  0  0  # atno 10764 bound_to 10752
  153.0098  135.5473  154.6504 H   0  0  0  0  0  0  0  0  0  0  0  0  # atno 10765 bound_to 10752
  141.0974  133.6622  156.4168 H   0  0  0  0  0  0  0  0  0  0  0  0  # atno 11005 bound_to 11000
  145.5763  139.1486  143.3260 LP  0  0  0  0  0  0  0  0  0  0  0  0  # atno 17320 bound_to 7965
  146.2179  140.5894  142.9030 LP  0  0  0  0  0  0  0  0  0  0  0  0  # atno 17321 bound_to 7965
  140.5468  143.2213  151.7993 LP  0  0  0  0  0  0  0  0  0  0  0  0  # atno 17342 bound_to 10162
  139.4871  144.4528  151.9633 LP  0  0  0  0  0  0  0  0  0  0  0  0  # atno 17343 bound_to 10162
  157.6974  130.9296  150.0685 LP  0  0  0  0  0  0  0  0  0  0  0  0  # atno 17370 bound_to 10713
  156.1731  130.3647  149.9137 LP  0  0  0  0  0  0  0  0  0  0  0  0  # atno 17371 bound_to 10713
  140.5105  134.6399  157.5282 LP  0  0  0  0  0  0  0  0  0  0  0  0  # atno 17394 bound_to 11000
  139.9815  134.7129  155.9851 LP  0  0  0  0  0  0  0  0  0  0  0  0  # atno 17395 bound_to 11000

$$$$
