AV-unprocessed.smi:169|AV-procd|sdf|1400|dock6
  -GOLD-   2262019143D 1   1.00000     0.00000
 Structure written by MMmdl.
 56 60  0  0  0  0  0  0  0  0  2 V2000
  146.9450  139.7765  151.7247 C   0  0  0  0  0  0  0  0  0  0  0  0
  146.5650  139.3573  153.1561 C   0  0  0  0  0  0  0  0  0  0  0  0
  147.6134  139.6438  154.1693 N   0  3  2  0  0  0  0  0  0  0  0  0
  147.9230  141.1095  154.3192 C   0  0  0  0  0  0  0  0  0  0  0  0
  148.3289  141.5494  155.7674 C   0  0  0  0  0  0  0  0  0  0  0  0
  149.4717  140.8006  156.5307 C   0  0  2  0  0  0  0  0  0  0  0  0
  150.9313  140.9706  155.9962 C   0  0  0  0  0  0  0  0  0  0  0  0
  151.2380  139.6433  155.2264 C   0  0  0  0  0  0  0  0  0  0  0  0
  149.8387  139.0143  155.1718 C   0  0  3  0  0  0  0  0  0  0  0  0
  148.8078  138.7297  154.0543 C   0  0  0  0  0  0  0  0  0  0  0  0
  149.2242  139.3679  156.4428 N   0  0  0  0  0  0  0  0  0  0  0  0
  149.5109  138.5375  157.4843 C   0  0  0  0  0  0  0  0  0  0  0  0
  150.7669  138.5060  158.0042 N   0  0  0  0  0  0  0  0  0  0  0  0
  151.0657  137.6855  159.0146 C   0  0  0  0  0  0  0  0  0  0  0  0
  150.2698  136.8277  159.6534 N   0  0  0  0  0  0  0  0  0  0  0  0
  149.0023  136.8624  159.1540 C   0  0  0  0  0  0  0  0  0  0  0  0
  148.5420  137.6778  158.0803 C   0  0  0  0  0  0  0  0  0  0  0  0
  147.1916  137.4372  157.8571 N   0  0  0  0  0  0  0  0  0  0  0  0
  146.8754  136.5293  158.7394 C   0  0  0  0  0  0  0  0  0  0  0  0
  147.8993  136.1355  159.5706 N   0  0  0  0  0  0  0  0  0  0  0  0
  147.8278  135.1419  160.6333 C   0  0  0  0  0  0  0  0  0  0  0  0
  146.7928  135.4564  161.7359 C   0  0  0  0  0  0  0  0  0  0  0  0
  146.9517  136.9035  162.2302 C   0  0  0  0  0  0  0  0  0  0  0  0
  148.2406  137.1197  162.7674 O   0  0  0  0  0  0  0  0  0  0  0  0
  145.3490  135.0265  161.4343 C   0  0  0  0  0  0  0  0  0  0  0  0
  145.4351  133.8883  162.3167 O   0  0  0  0  0  0  0  0  0  0  0  0
  146.6828  134.3928  162.8371 C   0  0  0  0  0  0  0  0  0  0  0  0
  146.1284  139.5573  151.0365 H   0  0  0  0  0  0  0  0  0  0  0  0
  147.8225  139.2430  151.3610 H   0  0  0  0  0  0  0  0  0  0  0  0
  147.1474  140.8453  151.6549 H   0  0  0  0  0  0  0  0  0  0  0  0
  145.6478  139.8686  153.4507 H   0  0  0  0  0  0  0  0  0  0  0  0
  146.3320  138.2919  153.1770 H   0  0  0  0  0  0  0  0  0  0  0  0
  148.6804  141.4089  153.5928 H   0  0  0  0  0  0  0  0  0  0  0  0
  147.0340  141.6841  154.0552 H   0  0  0  0  0  0  0  0  0  0  0  0
  148.5641  142.6140  155.7522 H   0  0  0  0  0  0  0  0  0  0  0  0
  147.4328  141.4688  156.3839 H   0  0  0  0  0  0  0  0  0  0  0  0
  149.4371  141.1633  157.5580 H   0  0  0  0  0  0  0  0  0  0  0  0
  151.0143  141.8449  155.3496 H   0  0  0  0  0  0  0  0  0  0  0  0
  151.6377  141.0993  156.8170 H   0  0  0  0  0  0  0  0  0  0  0  0
  151.7264  139.7961  154.2588 H   0  0  0  0  0  0  0  0  0  0  0  0
  151.8988  139.0135  155.8235 H   0  0  0  0  0  0  0  0  0  0  0  0
  149.8217  139.8761  154.5255 H   0  0  0  0  0  0  0  0  0  0  0  0
  148.4466  137.7074  154.1638 H   0  0  0  0  0  0  0  0  0  0  0  0
  149.2600  138.7727  153.0590 H   0  0  0  0  0  0  0  0  0  0  0  0
  152.0881  137.7213  159.3612 H   0  0  0  0  0  0  0  0  0  0  0  0
  145.8785  136.1187  158.8043 H   0  0  0  0  0  0  0  0  0  0  0  0
  147.6001  134.1817  160.1681 H   0  0  0  0  0  0  0  0  0  0  0  0
  148.8243  135.0242  161.0602 H   0  0  0  0  0  0  0  0  0  0  0  0
  146.7649  137.6258  161.4360 H   0  0  0  0  0  0  0  0  0  0  0  0
  146.2268  137.1248  163.0141 H   0  0  0  0  0  0  0  0  0  0  0  0
  148.5765  136.2959  163.0867 H   0  0  0  0  0  0  0  0  0  0  0  0
  144.5939  135.7397  161.7687 H   0  0  0  0  0  0  0  0  0  0  0  0
  145.1674  134.7321  160.4017 H   0  0  0  0  0  0  0  0  0  0  0  0
  147.4779  133.6464  162.8140 H   0  0  0  0  0  0  0  0  0  0  0  0
  146.5658  134.8029  163.8415 H   0  0  0  0  0  0  0  0  0  0  0  0
  147.1843  139.3913  155.0482 H   0  0  0  0  0  0  0  0  0  0  0  0
  1  2  1  0  0  0  0
  1 28  1  0  0  0  0
  1 29  1  0  0  0  0
  1 30  1  0  0  0  0
  2  3  1  0  0  0  0
  2 31  1  0  0  0  0
  2 32  1  0  0  0  0
  3 10  1  0  0  0  0
  3  4  1  0  0  0  0
  3 56  1  0  0  0  0
  4  5  1  0  0  0  0
  4 33  1  0  0  0  0
  4 34  1  0  0  0  0
  5  6  1  0  0  0  0
  5 35  1  0  0  0  0
  5 36  1  0  0  0  0
  6 11  1  0  0  0  0
  6  7  1  0  0  0  0
  6 37  1  0  0  0  0
  7  8  1  0  0  0  0
  7 38  1  0  0  0  0
  7 39  1  0  0  0  0
  8  9  1  0  0  0  0
  8 40  1  0  0  0  0
  8 41  1  0  0  0  0
  9 10  1  0  0  0  0
  9 11  1  0  0  0  0
  9 42  1  0  0  0  0
 10 43  1  0  0  0  0
 10 44  1  0  0  0  0
 11 12  1  0  0  0  0
 12 17  1  0  0  0  0
 12 13  2  0  0  0  0
 13 14  1  0  0  0  0
 14 15  2  0  0  0  0
 14 45  1  0  0  0  0
 15 16  1  0  0  0  0
 16 20  1  0  0  0  0
 16 17  2  0  0  0  0
 17 18  1  0  0  0  0
 18 19  2  0  0  0  0
 19 20  1  0  0  0  0
 19 46  1  0  0  0  0
 20 21  1  0  0  0  0
 21 22  1  0  0  0  0
 21 47  1  0  0  0  0
 21 48  1  0  0  0  0
 22 27  1  0  0  0  0
 22 23  1  0  0  0  0
 22 25  1  0  0  0  0
 23 24  1  0  0  0  0
 23 49  1  0  0  0  0
 23 50  1  0  0  0  0
 24 51  1  0  0  0  0
 25 26  1  0  0  0  0
 25 52  1  0  0  0  0
 25 53  1  0  0  0  0
 26 27  1  0  0  0  0
 27 54  1  0  0  0  0
 27 55  1  0  0  0  0
M  CHG  1   3   1
M  END
> <s_m_source_file>
AV-unprocessed.smi

> <i_m_source_file_index>
169

> <i_lp_mmshare_version>
43012

> <i_f3d_flags>
0

> <s_epik_input>
W0NASF0xMltDSDJdW0NIMl1OKFtDSDJdW0NIM10pW0NIMl1bQ0BIXShbQ0gyXVtDSDJdMSlOMmMobltjSF1uMyljKGMzNCluW2NIXW40W0NIMl1DNShbQ0gyXVtPSF0pW0NIMl1PW0NIMl01

> <s_epik_cmdline>
J2VwaWtfcHl0aG9uJywgJy1waCcsICc3LjAnLCAnLXRuJywgJzgnLCAnLW1hJywgJzIwMCcsICctbWV0YWxfYmluZGluZycsICctaW1hZScsICc8aW5maWxlLm1hZT4nLCAnLW9tYWUnLCAnPG91dGZpbGUubWFlPic=

> <r_lp_tautomer_probability>
1

> <r_epik_Ionization_Penalty>
0.00274162

> <r_epik_Ionization_Penalty_Charging>
0.00243722

> <r_epik_Ionization_Penalty_Neutral>
0.000304399

> <r_epik_State_Penalty>
-0

> <r_epik_Charging_Adjusted_Penalty>
0.00243722

> <i_epik_Tot_Q>
1

> <i_epik_Tot_abs_Q>
1

> <r_epik_Metal_State_Penalty>
-0

> <b_epik_Metal_Only>
0

> <s_lp_Force_Field>
OPLS_2005

> <r_lp_Energy>
131.332

> <b_lp_Chiralities_Consistent>
1

> <s_lp_Variant>
AV-unprocessed.smi:169-3

> <Gold.Version>
5.8.1

> <Gold.Id.Protein>
6NUR|6NUR_protein|mol2

> <Gold.PLP.Fitness>
44.4661

> <Gold.PLP.PLP>
-39.3463

> <Gold.PLP.part.hbond>
-1.6692

> <Gold.PLP.part.metal>
0.0000

> <Gold.PLP.part.buried>
0.5196

> <Gold.PLP.part.nonpolar>
-37.5291

> <Gold.PLP.part.repulsive>
0.0446

> <Gold.PLP.ligand.clash>
0.0000

> <Gold.PLP.ligand.torsion>
0.3786

> <Gold.PLP.Chemscore.Hbond>
1.8160

> <Gold.PLP.Chemscore.CHOScore>
0.0000

> <Gold.PLP.Chemscore.Metal>
0.0000

> <Gold.Chemscore.Hbonds>
donor molecule, donor type, donor heavy atom, donor atom, acceptor molecule, acceptor atom, score
      P1  H  6896  6909       L1    15  1.00
      P1  H  6931  6943       L1    24  0.85

> <Gold.PLP.Chemscore.Internal.Correction>
0.4290

> <Gold.Rescore>
     Score         DG    S(hbond)    S(metal)    S(lipo)     H(rot)  DE(clash)    DE(int)     intcor
     13.47     -16.43       1.82        0.00      98.88       2.62       1.68       1.28       ----

> <Gold.Chemscore.Fitness>
13.4710

> <Gold.Chemscore.DG>
-16.4310

> <Gold.Chemscore.ZeroCoef>
-5.4800

> <Gold.Chemscore.Hbond>
1.8240

> <Gold.Chemscore.Metal>
0.0000

> <Gold.Chemscore.Lipo>
98.8814

> <Gold.Chemscore.Internal_Hbond>
0.0000

> <Gold.Chemscore.DEClash>
1.6759

> <Gold.Chemscore.DEInternal>
1.2840

> <Gold.Chemscore.Rot>
2.6212

> <Gold.Chemscore.Internal.Correction>
   9.000000E+99

> <Gold.Chemscore.Hbonds>
donor molecule, donor type, donor heavy atom, donor atom, acceptor molecule, acceptor atom, score
      P1  H  6896  6909       L1    15  0.75
      P1  H  6931  6943       L1    24  0.67

> <Gold.Chemscore.Hbond.Weighted>
-6.0921

> <Gold.Chemscore.Metal.Weighted>
-0.0000

> <Gold.Chemscore.Lipo.Weighted>
-11.5691

> <Gold.Chemscore.Internal_Hbond.Weighted>
0.0000

> <Gold.Chemscore.DEClash.Weighted>
1.6759

> <Gold.Chemscore.DEInternal.Weighted>
1.2840

> <Gold.Chemscore.Rot.Weighted>
6.7102

> <Gold.Chemscore.Internal.Correction.Weighted>
   9.000000E+99

> <Gold.Protein.RotatedTorsions>
[ 6907 6896 6895 6894 ] final   94.67 input  -60.11 | X-H torsion
[ 7974 7965 7964 7962 ] final  166.82 input  175.53 | X-H torsion
[ 8008 7997 7996 7995 ] final  -90.61 input   59.86 | X-H torsion
[ 10167 10162 10161 10158 ] final  100.63 input  -65.29 | X-H torsion
[ 10718 10713 10712 10709 ] final  -41.52 input   66.30 | X-H torsion
[ 10763 10752 10751 10750 ] final   56.05 input  -60.55 | X-H torsion
[ 11005 11000 10999 10996 ] final  169.42 input  -57.11 | X-H torsion

> <Gold.Protein.ActiveResidues>
 VAL166  LYS551  ARG553  GLY616  TRP617  ASP618  TYR619  PRO620  LYS621  CYS622 
 ASP623  PHE694  ASN695  SER759  ASP760  ASP761  ALA762  ILE779  LEU786  VAL792 
 PHE793  MET794  SER795  GLU796  ALA797  LYS798  CYS799  TRP800  GLU811  SER814 

> <Gold.Protein.RotatedAtoms>
  152.5448  134.1158  159.8377 H   0  0  0  0  0  0  0  0  0  0  0  0  # atno 6907 bound_to 6896
  151.1219  133.5090  159.2609 H   0  0  0  0  0  0  0  0  0  0  0  0  # atno 6908 bound_to 6896
  151.1769  135.0353  159.8830 H   0  0  0  0  0  0  0  0  0  0  0  0  # atno 6909 bound_to 6896
  144.7448  139.8670  143.6385 H   0  0  0  0  0  0  0  0  0  0  0  0  # atno 7974 bound_to 7965
  154.7006  140.0528  157.0454 H   0  0  0  0  0  0  0  0  0  0  0  0  # atno 8008 bound_to 7997
  155.0690  140.3197  155.4617 H   0  0  0  0  0  0  0  0  0  0  0  0  # atno 8009 bound_to 7997
  156.2758  140.2085  156.5817 H   0  0  0  0  0  0  0  0  0  0  0  0  # atno 8010 bound_to 7997
  139.7510  144.6984  151.0432 H   0  0  0  0  0  0  0  0  0  0  0  0  # atno 10167 bound_to 10162
  156.2694  130.4205  149.8454 H   0  0  0  0  0  0  0  0  0  0  0  0  # atno 10718 bound_to 10713
  152.9826  135.5690  154.5166 H   0  0  0  0  0  0  0  0  0  0  0  0  # atno 10763 bound_to 10752
  154.4661  135.2783  155.1679 H   0  0  0  0  0  0  0  0  0  0  0  0  # atno 10764 bound_to 10752
  154.3247  135.6261  153.5577 H   0  0  0  0  0  0  0  0  0  0  0  0  # atno 10765 bound_to 10752
  140.2976  134.7622  157.3889 H   0  0  0  0  0  0  0  0  0  0  0  0  # atno 11005 bound_to 11000
  146.1307  139.4342  143.0170 LP  0  0  0  0  0  0  0  0  0  0  0  0  # atno 17320 bound_to 7965
  145.7167  141.0088  143.1424 LP  0  0  0  0  0  0  0  0  0  0  0  0  # atno 17321 bound_to 7965
  140.7798  143.4809  151.0019 LP  0  0  0  0  0  0  0  0  0  0  0  0  # atno 17342 bound_to 10162
  139.8497  143.7455  152.3178 LP  0  0  0  0  0  0  0  0  0  0  0  0  # atno 17343 bound_to 10162
  156.5941  130.8519  151.3415 LP  0  0  0  0  0  0  0  0  0  0  0  0  # atno 17370 bound_to 10713
  157.7279  130.9649  150.1717 LP  0  0  0  0  0  0  0  0  0  0  0  0  # atno 17371 bound_to 10713
  140.1139  134.5309  155.8242 LP  0  0  0  0  0  0  0  0  0  0  0  0  # atno 17394 bound_to 11000
  141.2134  133.6733  156.6740 LP  0  0  0  0  0  0  0  0  0  0  0  0  # atno 17395 bound_to 11000

$$$$
