AV-unprocessed.smi:1862|AV-procd|sdf|7549|dock8
  -GOLD-   22720 9263D 1   1.00000     0.00000
 Structure written by MMmdl.
 40 41  0  0  0  0  0  0  0  0  1 V2000
  151.8468  138.1437  154.1775 C   0  0  0  0  0  0  0  0  0  0  0  0
  150.3508  138.1648  154.5374 C   0  0  0  0  0  0  0  0  0  0  0  0
  149.9594  139.0541  155.7503 C   0  0  0  0  0  0  0  0  0  0  0  0
  150.1500  140.5434  155.3889 C   0  0  0  0  0  0  0  0  0  0  0  0
  148.4764  138.8373  156.1103 C   0  0  0  0  0  0  0  0  0  0  0  0
  150.7440  138.7221  156.9474 N   0  0  0  0  0  0  0  0  0  0  0  0
  152.0480  138.9549  157.1839 C   0  0  0  0  0  0  0  0  0  0  0  0
  152.8026  139.5018  156.3791 O   0  0  0  0  0  0  0  0  0  0  0  0
  152.5792  138.4816  158.5409 C   0  0  0  0  0  0  0  0  0  0  0  0
  153.2121  139.6146  159.2973 C   0  0  0  0  0  0  0  0  0  0  0  0
  154.4034  139.5864  159.9807 C   0  0  0  0  0  0  0  0  0  0  0  0
  154.7663  141.1194  160.7250 S   0  0  0  0  0  0  0  0  0  0  0  0
  153.2598  141.7597  160.0620 C   0  0  0  0  0  0  0  0  0  0  0  0
  152.7558  143.0838  160.2288 N   0  0  0  0  0  0  0  0  0  0  0  0
  152.0417  143.7728  159.1583 C   0  0  0  0  0  0  0  0  0  0  0  0
  151.6900  145.1273  159.7652 C   0  0  0  0  0  0  0  0  0  0  0  0
  152.2495  145.0198  161.0921 N   0  0  0  0  0  0  0  0  0  0  0  0
  152.8486  143.8513  161.3331 C   0  0  0  0  0  0  0  0  0  0  0  0
  153.3857  143.5619  162.4006 O   0  0  0  0  0  0  0  0  0  0  0  0
  152.5775  140.8605  159.3452 N   0  0  0  0  0  0  0  0  0  0  0  0
  152.0206  137.5034  153.3125 H   0  0  0  0  0  0  0  0  0  0  0  0
  152.4546  137.7555  154.9941 H   0  0  0  0  0  0  0  0  0  0  0  0
  152.2165  139.1371  153.9236 H   0  0  0  0  0  0  0  0  0  0  0  0
  149.7945  138.4802  153.6545 H   0  0  0  0  0  0  0  0  0  0  0  0
  150.0253  137.1412  154.7262 H   0  0  0  0  0  0  0  0  0  0  0  0
  149.5008  140.8323  154.5615 H   0  0  0  0  0  0  0  0  0  0  0  0
  151.1724  140.7656  155.0829 H   0  0  0  0  0  0  0  0  0  0  0  0
  149.9115  141.1920  156.2327 H   0  0  0  0  0  0  0  0  0  0  0  0
  147.8275  139.0360  155.2568 H   0  0  0  0  0  0  0  0  0  0  0  0
  148.1638  139.5005  156.9179 H   0  0  0  0  0  0  0  0  0  0  0  0
  148.2812  137.8171  156.4413 H   0  0  0  0  0  0  0  0  0  0  0  0
  150.2312  138.2594  157.6837 H   0  0  0  0  0  0  0  0  0  0  0  0
  151.7691  138.0456  159.1272 H   0  0  0  0  0  0  0  0  0  0  0  0
  153.2988  137.6804  158.3682 H   0  0  0  0  0  0  0  0  0  0  0  0
  155.0848  138.7566  160.0956 H   0  0  0  0  0  0  0  0  0  0  0  0
  152.6779  143.8828  158.2788 H   0  0  0  0  0  0  0  0  0  0  0  0
  151.1455  143.2191  158.8740 H   0  0  0  0  0  0  0  0  0  0  0  0
  152.1490  145.9528  159.2202 H   0  0  0  0  0  0  0  0  0  0  0  0
  150.6124  145.2878  159.8141 H   0  0  0  0  0  0  0  0  0  0  0  0
  152.1846  145.7670  161.7683 H   0  0  0  0  0  0  0  0  0  0  0  0
  1  2  1  0  0  0  0
  1 21  1  0  0  0  0
  1 22  1  0  0  0  0
  1 23  1  0  0  0  0
  2  3  1  0  0  0  0
  2 24  1  0  0  0  0
  2 25  1  0  0  0  0
  3  4  1  0  0  0  0
  3  5  1  0  0  0  0
  3  6  1  0  0  0  0
  4 26  1  0  0  0  0
  4 27  1  0  0  0  0
  4 28  1  0  0  0  0
  5 29  1  0  0  0  0
  5 30  1  0  0  0  0
  5 31  1  0  0  0  0
  6  7  1  0  0  0  0
  6 32  1  0  0  0  0
  7  8  2  0  0  0  0
  7  9  1  0  0  0  0
  9 10  1  0  0  0  0
  9 33  1  0  0  0  0
  9 34  1  0  0  0  0
 10 20  1  0  0  0  0
 10 11  2  0  0  0  0
 11 12  1  0  0  0  0
 11 35  1  0  0  0  0
 12 13  1  0  0  0  0
 13 14  1  0  0  0  0
 13 20  2  0  0  0  0
 14 18  1  0  0  0  0
 14 15  1  0  0  0  0
 15 16  1  0  0  0  0
 15 36  1  0  0  0  0
 15 37  1  0  0  0  0
 16 17  1  0  0  0  0
 16 38  1  0  0  0  0
 16 39  1  0  0  0  0
 17 18  1  0  0  0  0
 17 40  1  0  0  0  0
 18 19  2  0  0  0  0
M  END
> <s_m_source_file>
AV-unprocessed.smi

> <i_m_source_file_index>
1862

> <i_lp_mmshare_version>
43012

> <i_f3d_flags>
0

> <s_epik_input>
W0NIM11bQ0gyXUMoW0NIM10pKFtDSDNdKVtOSF1DKD1PKVtDSDJdYzFbY0hdc2MobjEpTjJbQ0gyXVtDSDJdW05IXUMyPU8=

> <s_epik_cmdline>
J2VwaWtfcHl0aG9uJywgJy1waCcsICc3LjAnLCAnLXRuJywgJzgnLCAnLW1hJywgJzIwMCcsICctbWV0YWxfYmluZGluZycsICctaW1hZScsICc8aW5maWxlLm1hZT4nLCAnLW9tYWUnLCAnPG91dGZpbGUubWFlPic=

> <r_lp_tautomer_probability>
1

> <r_epik_Ionization_Penalty>
0.000124031

> <r_epik_Ionization_Penalty_Charging>
0

> <r_epik_Ionization_Penalty_Neutral>
0.000124031

> <r_epik_State_Penalty>
-0

> <r_epik_Charging_Adjusted_Penalty>
0

> <i_epik_Tot_Q>
0

> <i_epik_Tot_abs_Q>
0

> <r_epik_Metal_State_Penalty>
-0

> <b_epik_Metal_Only>
0

> <s_lp_Force_Field>
OPLS_2005

> <r_lp_Energy>
34.1106

> <b_lp_Chiralities_Consistent>
1

> <s_lp_Variant>
AV-unprocessed.smi:1862-1

> <Gold.Version>
5.8.1

> <Gold.Id.Protein>
6NUR|6NUR_protein|mol2

> <Gold.PLP.Fitness>
42.6527

> <Gold.PLP.PLP>
-41.5189

> <Gold.PLP.part.hbond>
-2.0000

> <Gold.PLP.part.metal>
0.0000

> <Gold.PLP.part.buried>
-5.3702

> <Gold.PLP.part.nonpolar>
-33.7065

> <Gold.PLP.part.repulsive>
0.2495

> <Gold.PLP.ligand.clash>
0.0000

> <Gold.PLP.ligand.torsion>
0.9394

> <Gold.PLP.Chemscore.Hbond>
1.0000

> <Gold.PLP.Chemscore.CHOScore>
0.0000

> <Gold.PLP.Chemscore.Metal>
0.0000

> <Gold.Chemscore.Hbonds>
donor molecule, donor type, donor heavy atom, donor atom, acceptor molecule, acceptor atom, score
      P1  H  7997  8008       L1     8  1.00

> <Gold.PLP.Chemscore.Internal.Correction>
0.0127

> <Gold.Rescore>
     Score         DG    S(hbond)    S(metal)    S(lipo)     H(rot)  DE(clash)    DE(int)     intcor
     11.44     -13.98       1.00        0.00      81.89       1.72       0.16       2.37       ----

> <Gold.Chemscore.Fitness>
11.4438

> <Gold.Chemscore.DG>
-13.9798

> <Gold.Chemscore.ZeroCoef>
-5.4800

> <Gold.Chemscore.Hbond>
0.9966

> <Gold.Chemscore.Metal>
0.0000

> <Gold.Chemscore.Lipo>
81.8933

> <Gold.Chemscore.Internal_Hbond>
0.0000

> <Gold.Chemscore.DEClash>
0.1622

> <Gold.Chemscore.DEInternal>
2.3738

> <Gold.Chemscore.Rot>
1.7228

> <Gold.Chemscore.Internal.Correction>
   9.000000E+99

> <Gold.Chemscore.Hbonds>
donor molecule, donor type, donor heavy atom, donor atom, acceptor molecule, acceptor atom, score
      P1  H  7997  8008       L1     8  1.00

> <Gold.Chemscore.Hbond.Weighted>
-3.3286

> <Gold.Chemscore.Metal.Weighted>
-0.0000

> <Gold.Chemscore.Lipo.Weighted>
-9.5815

> <Gold.Chemscore.Internal_Hbond.Weighted>
0.0000

> <Gold.Chemscore.DEClash.Weighted>
0.1622

> <Gold.Chemscore.DEInternal.Weighted>
2.3738

> <Gold.Chemscore.Rot.Weighted>
4.4103

> <Gold.Chemscore.Internal.Correction.Weighted>
   9.000000E+99

> <Gold.Protein.RotatedTorsions>
[ 6907 6896 6895 6894 ] final  -85.45 input  -60.11 | X-H torsion
[ 7974 7965 7964 7962 ] final  131.76 input  175.53 | X-H torsion
[ 8008 7997 7996 7995 ] final  -48.92 input   59.86 | X-H torsion
[ 10167 10162 10161 10158 ] final  136.10 input  -65.29 | X-H torsion
[ 10718 10713 10712 10709 ] final  174.52 input   66.30 | X-H torsion
[ 10763 10752 10751 10750 ] final  -24.84 input  -60.55 | X-H torsion
[ 11005 11000 10999 10996 ] final  -35.68 input  -57.11 | X-H torsion

> <Gold.Protein.ActiveResidues>
 VAL166  LYS551  ARG553  GLY616  TRP617  ASP618  TYR619  PRO620  LYS621  CYS622 
 ASP623  PHE694  ASN695  SER759  ASP760  ASP761  ALA762  ILE779  LEU786  VAL792 
 PHE793  MET794  SER795  GLU796  ALA797  LYS798  CYS799  TRP800  GLU811  SER814 

> <Gold.Protein.RotatedAtoms>
  150.6870  134.3202  159.4783 H   0  0  0  0  0  0  0  0  0  0  0  0  # atno 6907 bound_to 6896
  152.1079  134.9293  160.0577 H   0  0  0  0  0  0  0  0  0  0  0  0  # atno 6908 bound_to 6896
  152.0547  133.4000  159.4429 H   0  0  0  0  0  0  0  0  0  0  0  0  # atno 6909 bound_to 6896
  145.0040  139.4284  143.5278 H   0  0  0  0  0  0  0  0  0  0  0  0  # atno 7974 bound_to 7965
  154.4036  140.1309  156.4417 H   0  0  0  0  0  0  0  0  0  0  0  0  # atno 8008 bound_to 7997
  155.7452  140.3489  155.5103 H   0  0  0  0  0  0  0  0  0  0  0  0  # atno 8009 bound_to 7997
  155.9001  140.1018  157.1346 H   0  0  0  0  0  0  0  0  0  0  0  0  # atno 8010 bound_to 7997
  139.5192  144.6482  151.5378 H   0  0  0  0  0  0  0  0  0  0  0  0  # atno 10167 bound_to 10162
  156.9484  131.0023  151.2954 H   0  0  0  0  0  0  0  0  0  0  0  0  # atno 10718 bound_to 10713
  153.6902  135.6962  153.5092 H   0  0  0  0  0  0  0  0  0  0  0  0  # atno 10763 bound_to 10752
  153.2419  135.4303  155.0705 H   0  0  0  0  0  0  0  0  0  0  0  0  # atno 10764 bound_to 10752
  154.8375  135.3510  154.6444 H   0  0  0  0  0  0  0  0  0  0  0  0  # atno 10765 bound_to 10752
  140.9815  133.7054  156.1692 H   0  0  0  0  0  0  0  0  0  0  0  0  # atno 11005 bound_to 11000
  146.3457  139.9445  142.8737 LP  0  0  0  0  0  0  0  0  0  0  0  0  # atno 17320 bound_to 7965
  145.2114  140.9897  143.4098 LP  0  0  0  0  0  0  0  0  0  0  0  0  # atno 17321 bound_to 7965
  140.6276  143.9138  150.6578 LP  0  0  0  0  0  0  0  0  0  0  0  0  # atno 17342 bound_to 10162
  140.2432  143.3648  152.1469 LP  0  0  0  0  0  0  0  0  0  0  0  0  # atno 17343 bound_to 10162
  157.5738  130.8329  149.8428 LP  0  0  0  0  0  0  0  0  0  0  0  0  # atno 17370 bound_to 10713
  156.0373  130.3748  150.1525 LP  0  0  0  0  0  0  0  0  0  0  0  0  # atno 17371 bound_to 10713
  140.7179  134.4390  157.5577 LP  0  0  0  0  0  0  0  0  0  0  0  0  # atno 17394 bound_to 11000
  139.8952  134.8688  156.2141 LP  0  0  0  0  0  0  0  0  0  0  0  0  # atno 17395 bound_to 11000

$$$$
