AV-unprocessed.smi:413|AV-procd|sdf|2512|dock5
  -GOLD-   2262022463D 1   1.00000     0.00000
 Structure written by MMmdl.
 40 42  0  0  0  0  0  0  0  0  1 V2000
  153.7351  140.8847  160.5797 C   0  0  0  0  0  0  0  0  0  0  0  0
  152.9096  141.5683  159.5916 N   0  0  0  0  0  0  0  0  0  0  0  0
  152.4805  141.0763  158.4061 C   0  0  0  0  0  0  0  0  0  0  0  0
  152.7137  139.9530  157.9598 O   0  0  0  0  0  0  0  0  0  0  0  0
  151.7496  142.0377  157.7925 N   0  0  0  0  0  0  0  0  0  0  0  0
  151.0841  141.9285  156.4953 C   0  0  0  0  0  0  0  0  0  0  0  0
  150.6902  140.4729  156.1705 C   0  0  2  0  0  0  0  0  0  0  0  0
  151.1640  140.1553  154.8773 O   0  0  0  0  0  0  0  0  0  0  0  0
  149.1669  140.2738  156.1621 C   0  0  0  0  0  0  0  0  0  0  0  0
  148.6545  140.7107  154.9100 O   0  0  0  0  0  0  0  0  0  0  0  0
  147.6507  141.6545  154.9071 C   0  0  0  0  0  0  0  0  0  0  0  0
  147.1935  142.0966  153.6485 C   0  0  0  0  0  0  0  0  0  0  0  0
  146.1694  143.0579  153.5502 C   0  0  0  0  0  0  0  0  0  0  0  0
  145.5919  143.5915  154.7170 C   0  0  0  0  0  0  0  0  0  0  0  0
  144.6077  144.5169  154.6246 F   0  0  0  0  0  0  0  0  0  0  0  0
  146.0399  143.1614  155.9799 C   0  0  0  0  0  0  0  0  0  0  0  0
  147.0634  142.1984  156.0778 C   0  0  0  0  0  0  0  0  0  0  0  0
  151.7121  143.1774  158.6095 C   0  0  0  0  0  0  0  0  0  0  0  0
  151.0988  144.4296  158.4287 C   0  0  0  0  0  0  0  0  0  0  0  0
  151.2534  145.3808  159.4645 C   0  0  0  0  0  0  0  0  0  0  0  0
  152.0000  145.0714  160.6311 C   0  0  0  0  0  0  0  0  0  0  0  0
  152.6107  143.8048  160.7857 C   0  0  0  0  0  0  0  0  0  0  0  0
  152.4409  142.8794  159.7417 C   0  0  0  0  0  0  0  0  0  0  0  0
  153.9285  139.8468  160.3060 H   0  0  0  0  0  0  0  0  0  0  0  0
  153.2412  140.8885  161.5516 H   0  0  0  0  0  0  0  0  0  0  0  0
  154.6949  141.3915  160.6816 H   0  0  0  0  0  0  0  0  0  0  0  0
  150.1890  142.5509  156.5383 H   0  0  0  0  0  0  0  0  0  0  0  0
  151.6948  142.3561  155.6995 H   0  0  0  0  0  0  0  0  0  0  0  0
  151.1327  139.7788  156.8860 H   0  0  0  0  0  0  0  0  0  0  0  0
  150.7922  139.3262  154.6177 H   0  0  0  0  0  0  0  0  0  0  0  0
  148.9263  139.2229  156.3330 H   0  0  0  0  0  0  0  0  0  0  0  0
  148.7136  140.8606  156.9630 H   0  0  0  0  0  0  0  0  0  0  0  0
  147.6315  141.6918  152.7477 H   0  0  0  0  0  0  0  0  0  0  0  0
  145.8275  143.3853  152.5795 H   0  0  0  0  0  0  0  0  0  0  0  0
  145.5982  143.5710  156.8763 H   0  0  0  0  0  0  0  0  0  0  0  0
  147.3825  141.8952  157.0634 H   0  0  0  0  0  0  0  0  0  0  0  0
  150.5329  144.6628  157.5391 H   0  0  0  0  0  0  0  0  0  0  0  0
  150.7970  146.3546  159.3660 H   0  0  0  0  0  0  0  0  0  0  0  0
  152.1038  145.8122  161.4104 H   0  0  0  0  0  0  0  0  0  0  0  0
  153.1816  143.5618  161.6697 H   0  0  0  0  0  0  0  0  0  0  0  0
  1  2  1  0  0  0  0
  1 24  1  0  0  0  0
  1 25  1  0  0  0  0
  1 26  1  0  0  0  0
  2 23  1  0  0  0  0
  2  3  1  0  0  0  0
  3  4  2  0  0  0  0
  3  5  1  0  0  0  0
  5  6  1  0  0  0  0
  5 18  1  0  0  0  0
  6  7  1  0  0  0  0
  6 27  1  0  0  0  0
  6 28  1  0  0  0  0
  7  8  1  0  0  0  0
  7  9  1  0  0  0  0
  7 29  1  0  0  0  0
  8 30  1  0  0  0  0
  9 10  1  0  0  0  0
  9 31  1  0  0  0  0
  9 32  1  0  0  0  0
 10 11  1  0  0  0  0
 11 17  1  0  0  0  0
 11 12  2  0  0  0  0
 12 13  1  0  0  0  0
 12 33  1  0  0  0  0
 13 14  2  0  0  0  0
 13 34  1  0  0  0  0
 14 15  1  0  0  0  0
 14 16  1  0  0  0  0
 16 17  2  0  0  0  0
 16 35  1  0  0  0  0
 17 36  1  0  0  0  0
 18 23  2  0  0  0  0
 18 19  1  0  0  0  0
 19 20  2  0  0  0  0
 19 37  1  0  0  0  0
 20 21  1  0  0  0  0
 20 38  1  0  0  0  0
 21 22  2  0  0  0  0
 21 39  1  0  0  0  0
 22 23  1  0  0  0  0
 22 40  1  0  0  0  0
M  END
> <s_m_source_file>
AV-unprocessed.smi

> <i_m_source_file_index>
413

> <i_lp_mmshare_version>
43012

> <i_f3d_flags>
0

> <s_epik_input>
W2NIXTFbY0hdW2NIXVtjSF1jKGMxMiluKFtDSDNdKWMoPU8pbjJbQ0gyXVtDQEhdKFtPSF0pW0NIMl1PYzNbY0hdW2NIXWMoRilbY0hdW2NIXTM=

> <s_epik_cmdline>
J2VwaWtfcHl0aG9uJywgJy1waCcsICc3LjAnLCAnLXRuJywgJzgnLCAnLW1hJywgJzIwMCcsICctbWV0YWxfYmluZGluZycsICctaW1hZScsICc8aW5maWxlLm1hZT4nLCAnLW9tYWUnLCAnPG91dGZpbGUubWFlPic=

> <r_lp_tautomer_probability>
1

> <r_epik_Ionization_Penalty>
2.40172e-06

> <r_epik_Ionization_Penalty_Charging>
2.42369e-09

> <r_epik_Ionization_Penalty_Neutral>
2.3993e-06

> <r_epik_State_Penalty>
-0

> <r_epik_Charging_Adjusted_Penalty>
2.42369e-09

> <i_epik_Tot_Q>
0

> <i_epik_Tot_abs_Q>
0

> <r_epik_Metal_State_Penalty>
-0

> <b_epik_Metal_Only>
0

> <s_lp_Force_Field>
OPLS_2005

> <r_lp_Energy>
46.1897

> <b_lp_Chiralities_Consistent>
1

> <s_lp_Variant>
AV-unprocessed.smi:413-1

> <Gold.Version>
5.8.1

> <Gold.Id.Protein>
6NUR|6NUR_protein|mol2

> <Gold.PLP.Fitness>
55.8172

> <Gold.PLP.PLP>
-53.1137

> <Gold.PLP.part.hbond>
-2.0000

> <Gold.PLP.part.metal>
0.0000

> <Gold.PLP.part.buried>
-9.0194

> <Gold.PLP.part.nonpolar>
-42.3581

> <Gold.PLP.part.repulsive>
0.0962

> <Gold.PLP.ligand.clash>
0.0000

> <Gold.PLP.ligand.torsion>
1.6720

> <Gold.PLP.Chemscore.Hbond>
2.0000

> <Gold.PLP.Chemscore.CHOScore>
0.0000

> <Gold.PLP.Chemscore.Metal>
0.0000

> <Gold.Chemscore.Hbonds>
donor molecule, donor type, donor heavy atom, donor atom, acceptor molecule, acceptor atom, score
      P1  H  7989  7998       L1     8  1.00
      P1  H  7997  8009       L1     4  0.88

> <Gold.PLP.Chemscore.Internal.Correction>
0.0475

> <Gold.Rescore>
     Score         DG    S(hbond)    S(metal)    S(lipo)     H(rot)  DE(clash)    DE(int)     intcor
     16.87     -19.96       1.82        0.00     121.57       2.27       0.04       3.05       ----

> <Gold.Chemscore.Fitness>
16.8681

> <Gold.Chemscore.DG>
-19.9617

> <Gold.Chemscore.ZeroCoef>
-5.4800

> <Gold.Chemscore.Hbond>
1.8178

> <Gold.Chemscore.Metal>
0.0000

> <Gold.Chemscore.Lipo>
121.5655

> <Gold.Chemscore.Internal_Hbond>
0.0000

> <Gold.Chemscore.DEClash>
0.0434

> <Gold.Chemscore.DEInternal>
3.0502

> <Gold.Chemscore.Rot>
2.2706

> <Gold.Chemscore.Internal.Correction>
   9.000000E+99

> <Gold.Chemscore.Hbonds>
donor molecule, donor type, donor heavy atom, donor atom, acceptor molecule, acceptor atom, score
      P1  H  7989  7998       L1     8  0.55
      P1  H  7997  8009       L1     4  0.54

> <Gold.Chemscore.Hbond.Weighted>
-6.0713

> <Gold.Chemscore.Metal.Weighted>
-0.0000

> <Gold.Chemscore.Lipo.Weighted>
-14.2232

> <Gold.Chemscore.Internal_Hbond.Weighted>
0.0000

> <Gold.Chemscore.DEClash.Weighted>
0.0434

> <Gold.Chemscore.DEInternal.Weighted>
3.0502

> <Gold.Chemscore.Rot.Weighted>
5.8128

> <Gold.Chemscore.Internal.Correction.Weighted>
   9.000000E+99

> <Gold.Protein.RotatedTorsions>
[ 6907 6896 6895 6894 ] final  -42.60 input  -60.11 | X-H torsion
[ 7974 7965 7964 7962 ] final  -14.69 input  175.53 | X-H torsion
[ 8008 7997 7996 7995 ] final  172.60 input   59.86 | X-H torsion
[ 10167 10162 10161 10158 ] final   70.02 input  -65.29 | X-H torsion
[ 10718 10713 10712 10709 ] final  174.82 input   66.30 | X-H torsion
[ 10763 10752 10751 10750 ] final -116.94 input  -60.55 | X-H torsion
[ 11005 11000 10999 10996 ] final -134.39 input  -57.11 | X-H torsion

> <Gold.Protein.ActiveResidues>
 VAL166  LYS551  ARG553  GLY616  TRP617  ASP618  TYR619  PRO620  LYS621  CYS622 
 ASP623  PHE694  ASN695  SER759  ASP760  ASP761  ALA762  ILE779  LEU786  VAL792 
 PHE793  MET794  SER795  GLU796  ALA797  LYS798  CYS799  TRP800  GLU811  SER814 

> <Gold.Protein.RotatedAtoms>
  150.9534  134.8932  159.7686 H   0  0  0  0  0  0  0  0  0  0  0  0  # atno 6907 bound_to 6896
  152.5128  134.3774  159.9349 H   0  0  0  0  0  0  0  0  0  0  0  0  # atno 6908 bound_to 6896
  151.3789  133.3788  159.2742 H   0  0  0  0  0  0  0  0  0  0  0  0  # atno 6909 bound_to 6896
  146.2063  140.3385  142.8406 H   0  0  0  0  0  0  0  0  0  0  0  0  # atno 7974 bound_to 7965
  156.1159  140.1482  156.9274 H   0  0  0  0  0  0  0  0  0  0  0  0  # atno 8008 bound_to 7997
  154.4800  140.0882  156.7397 H   0  0  0  0  0  0  0  0  0  0  0  0  # atno 8009 bound_to 7997
  155.4515  140.3435  155.4303 H   0  0  0  0  0  0  0  0  0  0  0  0  # atno 8010 bound_to 7997
  140.0615  144.5229  150.7291 H   0  0  0  0  0  0  0  0  0  0  0  0  # atno 10167 bound_to 10162
  156.9439  131.0010  151.2963 H   0  0  0  0  0  0  0  0  0  0  0  0  # atno 10718 bound_to 10713
  154.8537  135.4327  154.1901 H   0  0  0  0  0  0  0  0  0  0  0  0  # atno 10763 bound_to 10752
  153.2971  135.6966  153.7243 H   0  0  0  0  0  0  0  0  0  0  0  0  # atno 10764 bound_to 10752
  153.6388  135.3471  155.3039 H   0  0  0  0  0  0  0  0  0  0  0  0  # atno 10765 bound_to 10752
  140.8994  134.1710  157.4471 H   0  0  0  0  0  0  0  0  0  0  0  0  # atno 11005 bound_to 11000
  144.8802  140.7390  143.5991 LP  0  0  0  0  0  0  0  0  0  0  0  0  # atno 17320 bound_to 7965
  145.3305  139.1761  143.4539 LP  0  0  0  0  0  0  0  0  0  0  0  0  # atno 17321 bound_to 7965
  140.7170  143.2553  151.4403 LP  0  0  0  0  0  0  0  0  0  0  0  0  # atno 17342 bound_to 10162
  139.5891  144.1538  152.2066 LP  0  0  0  0  0  0  0  0  0  0  0  0  # atno 17343 bound_to 10162
  157.5767  130.8347  149.8465 LP  0  0  0  0  0  0  0  0  0  0  0  0  # atno 17370 bound_to 10713
  156.0392  130.3743  150.1479 LP  0  0  0  0  0  0  0  0  0  0  0  0  # atno 17371 bound_to 10713
  139.8740  134.9892  156.5445 LP  0  0  0  0  0  0  0  0  0  0  0  0  # atno 17394 bound_to 11000
  140.8248  133.8325  155.8929 LP  0  0  0  0  0  0  0  0  0  0  0  0  # atno 17395 bound_to 11000

$$$$
