AV-unprocessed.smi:258|AV-procd|sdf|1965|dock4
  -GOLD-   2262021113D 1   1.00000     0.00000
 Structure written by MMmdl.
 57 60  0  0  0  0  0  0  0  0  1 V2000
  142.5159  132.0971  149.1679 O   0  0  0  0  0  0  0  0  0  0  0  0
  143.6870  132.8087  148.8282 C   0  0  0  0  0  0  0  0  0  0  0  0
  144.6684  132.8058  150.0065 C   0  0  0  0  0  0  0  0  0  0  0  0
  144.4983  131.6065  150.7486 O   0  0  0  0  0  0  0  0  0  0  0  0
  145.7100  131.0179  151.2031 C   0  0  2  0  0  0  0  0  0  0  0  0
  145.4577  129.6246  151.8161 C   0  0  0  0  0  0  0  0  0  0  0  0
  146.7482  129.0762  152.4459 C   0  0  0  0  0  0  0  0  0  0  0  0
  147.3271  130.0713  153.4643 C   0  0  0  0  0  0  0  0  0  0  0  0
  147.5151  131.3826  152.8505 N   0  0  0  0  0  0  0  0  0  0  0  0
  148.2017  132.2472  153.6255 C   0  0  0  0  0  0  0  0  0  0  0  0
  149.4037  131.8356  154.0973 N   0  0  0  0  0  0  0  0  0  0  0  0
  150.1316  132.6491  154.8690 C   0  0  0  0  0  0  0  0  0  0  0  0
  149.8473  133.8874  155.2794 N   0  0  0  0  0  0  0  0  0  0  0  0
  148.6369  134.3009  154.8055 C   0  0  0  0  0  0  0  0  0  0  0  0
  147.7544  133.5515  153.9784 C   0  0  0  0  0  0  0  0  0  0  0  0
  146.6170  134.2995  153.6978 N   0  0  0  0  0  0  0  0  0  0  0  0
  146.8159  135.4276  154.3238 C   0  0  0  0  0  0  0  0  0  0  0  0
  148.0026  135.5113  155.0171 N   0  0  0  0  0  0  0  0  0  0  0  0
  148.4810  136.6406  155.7950 C   0  0  0  0  0  0  0  0  0  0  0  0
  149.9979  136.5751  156.1018 C   0  0  2  0  0  0  0  0  0  0  0  0
  150.3087  136.7046  157.6128 C   0  0  0  0  0  0  0  0  0  0  0  0
  149.8813  135.5637  158.3283 O   0  0  0  0  0  0  0  0  0  0  0  0
  150.7958  137.5918  155.2468 C   0  0  2  0  0  0  0  0  0  0  0  0
  152.2600  137.7305  155.6258 C   0  0  0  0  0  0  0  0  0  0  0  0
  152.6364  139.0623  154.9854 C   0  0  0  0  0  0  0  0  0  0  0  0
  151.4522  139.8518  155.0102 O   0  0  0  0  0  0  0  0  0  0  0  0
  150.3383  139.0474  155.3852 C   0  0  0  0  0  0  0  0  0  0  0  0
  146.3107  131.9609  152.2605 C   0  0  0  0  0  0  0  0  0  0  0  0
  141.8648  132.7143  149.4652 H   0  0  0  0  0  0  0  0  0  0  0  0
  144.1389  132.3090  147.9709 H   0  0  0  0  0  0  0  0  0  0  0  0
  143.4410  133.8244  148.5175 H   0  0  0  0  0  0  0  0  0  0  0  0
  145.6935  132.9346  149.6579 H   0  0  0  0  0  0  0  0  0  0  0  0
  144.4403  133.6506  150.6578 H   0  0  0  0  0  0  0  0  0  0  0  0
  146.4187  130.9355  150.3768 H   0  0  0  0  0  0  0  0  0  0  0  0
  144.6806  129.6941  152.5784 H   0  0  0  0  0  0  0  0  0  0  0  0
  145.0955  128.9250  151.0637 H   0  0  0  0  0  0  0  0  0  0  0  0
  146.5539  128.1180  152.9281 H   0  0  0  0  0  0  0  0  0  0  0  0
  147.4837  128.8872  151.6628 H   0  0  0  0  0  0  0  0  0  0  0  0
  146.6521  130.1583  154.3166 H   0  0  0  0  0  0  0  0  0  0  0  0
  148.2797  129.7006  153.8456 H   0  0  0  0  0  0  0  0  0  0  0  0
  151.0767  132.2505  155.2070 H   0  0  0  0  0  0  0  0  0  0  0  0
  146.0954  136.2324  154.3023 H   0  0  0  0  0  0  0  0  0  0  0  0
  148.2404  137.5470  155.2392 H   0  0  0  0  0  0  0  0  0  0  0  0
  147.9093  136.6876  156.7226 H   0  0  0  0  0  0  0  0  0  0  0  0
  150.3349  135.5799  155.8083 H   0  0  0  0  0  0  0  0  0  0  0  0
  151.3767  136.8428  157.7817 H   0  0  0  0  0  0  0  0  0  0  0  0
  149.8245  137.5845  158.0359 H   0  0  0  0  0  0  0  0  0  0  0  0
  149.3003  135.0631  157.7761 H   0  0  0  0  0  0  0  0  0  0  0  0
  150.7405  137.3092  154.1943 H   0  0  0  0  0  0  0  0  0  0  0  0
  152.3698  137.7937  156.7095 H   0  0  0  0  0  0  0  0  0  0  0  0
  152.8793  136.9078  155.2674 H   0  0  0  0  0  0  0  0  0  0  0  0
  153.4576  139.5564  155.5049 H   0  0  0  0  0  0  0  0  0  0  0  0
  152.9327  138.9145  153.9462 H   0  0  0  0  0  0  0  0  0  0  0  0
  149.4685  139.2729  154.7675 H   0  0  0  0  0  0  0  0  0  0  0  0
  150.0848  139.2772  156.4210 H   0  0  0  0  0  0  0  0  0  0  0  0
  146.5481  132.9237  151.8056 H   0  0  0  0  0  0  0  0  0  0  0  0
  145.5762  132.1504  153.0444 H   0  0  0  0  0  0  0  0  0  0  0  0
  1  2  1  0  0  0  0
  1 29  1  0  0  0  0
  2  3  1  0  0  0  0
  2 30  1  0  0  0  0
  2 31  1  0  0  0  0
  3  4  1  0  0  0  0
  3 32  1  0  0  0  0
  3 33  1  0  0  0  0
  4  5  1  0  0  0  0
  5 28  1  0  0  0  0
  5  6  1  0  0  0  0
  5 34  1  0  0  0  0
  6  7  1  0  0  0  0
  6 35  1  0  0  0  0
  6 36  1  0  0  0  0
  7  8  1  0  0  0  0
  7 37  1  0  0  0  0
  7 38  1  0  0  0  0
  8  9  1  0  0  0  0
  8 39  1  0  0  0  0
  8 40  1  0  0  0  0
  9 10  1  0  0  0  0
  9 28  1  0  0  0  0
 10 15  1  0  0  0  0
 10 11  2  0  0  0  0
 11 12  1  0  0  0  0
 12 13  2  0  0  0  0
 12 41  1  0  0  0  0
 13 14  1  0  0  0  0
 14 18  1  0  0  0  0
 14 15  2  0  0  0  0
 15 16  1  0  0  0  0
 16 17  2  0  0  0  0
 17 18  1  0  0  0  0
 17 42  1  0  0  0  0
 18 19  1  0  0  0  0
 19 20  1  0  0  0  0
 19 43  1  0  0  0  0
 19 44  1  0  0  0  0
 20 21  1  0  0  0  0
 20 23  1  0  0  0  0
 20 45  1  0  0  0  0
 21 22  1  0  0  0  0
 21 46  1  0  0  0  0
 21 47  1  0  0  0  0
 22 48  1  0  0  0  0
 23 27  1  0  0  0  0
 23 24  1  0  0  0  0
 23 49  1  0  0  0  0
 24 25  1  0  0  0  0
 24 50  1  0  0  0  0
 24 51  1  0  0  0  0
 25 26  1  0  0  0  0
 25 52  1  0  0  0  0
 25 53  1  0  0  0  0
 26 27  1  0  0  0  0
 27 54  1  0  0  0  0
 27 55  1  0  0  0  0
 28 56  1  0  0  0  0
 28 57  1  0  0  0  0
M  END
> <s_m_source_file>
AV-unprocessed.smi

> <i_m_source_file_index>
258

> <i_lp_mmshare_version>
43012

> <i_f3d_flags>
0

> <s_epik_input>
W09IXVtDSDJdW0NIMl1PW0NAQEhdMVtDSDJdW0NIMl1bQ0gyXU4oW0NIMl0xKWMobltjSF1uMiljKGMyMyluW2NIXW4zW0NIMl1bQ0BIXShbQ0gyXVtPSF0pW0NAQEhdNFtDSDJdW0NIMl1PW0NIMl00

> <s_epik_cmdline>
J2VwaWtfcHl0aG9uJywgJy1waCcsICc3LjAnLCAnLXRuJywgJzgnLCAnLW1hJywgJzIwMCcsICctbWV0YWxfYmluZGluZycsICctaW1hZScsICc8aW5maWxlLm1hZT4nLCAnLW9tYWUnLCAnPG91dGZpbGUubWFlPic=

> <r_lp_tautomer_probability>
1

> <r_epik_Ionization_Penalty>
0.00349036

> <r_epik_Ionization_Penalty_Charging>
0

> <r_epik_Ionization_Penalty_Neutral>
0.00349036

> <r_epik_State_Penalty>
0.00229798

> <r_epik_Charging_Adjusted_Penalty>
0.00229798

> <i_epik_Tot_Q>
0

> <i_epik_Tot_abs_Q>
0

> <r_epik_Metal_State_Penalty>
-0

> <b_epik_Metal_Only>
0

> <s_lp_Force_Field>
OPLS_2005

> <r_lp_Energy>
47.3811

> <b_lp_Chiralities_Consistent>
1

> <s_lp_Variant>
AV-unprocessed.smi:258-1

> <Gold.Version>
5.8.1

> <Gold.Id.Protein>
6NUR|6NUR_protein|mol2

> <Gold.PLP.Fitness>
53.6519

> <Gold.PLP.PLP>
-44.6373

> <Gold.PLP.part.hbond>
-5.0000

> <Gold.PLP.part.metal>
0.0000

> <Gold.PLP.part.buried>
-6.0251

> <Gold.PLP.part.nonpolar>
-34.6190

> <Gold.PLP.part.repulsive>
1.3417

> <Gold.PLP.ligand.clash>
0.0000

> <Gold.PLP.ligand.torsion>
1.6955

> <Gold.PLP.Chemscore.Hbond>
4.0000

> <Gold.PLP.Chemscore.CHOScore>
0.0000

> <Gold.PLP.Chemscore.Metal>
0.0000

> <Gold.Chemscore.Hbonds>
donor molecule, donor type, donor heavy atom, donor atom, acceptor molecule, acceptor atom, score
      L1  H     1    29       P1 10186  1.00
      P1  H  6896  6907       L1    22  1.00
      P1  H  7989  7998       L1    26  1.00
      P1  H 10785 10796       L1     1  0.76

> <Gold.PLP.Chemscore.Internal.Correction>
0.4055

> <Gold.Rescore>
     Score         DG    S(hbond)    S(metal)    S(lipo)     H(rot)  DE(clash)    DE(int)     intcor
     12.61     -17.46       3.31        0.00     100.22       4.22       0.36       4.49       ----

> <Gold.Chemscore.Fitness>
12.6135

> <Gold.Chemscore.DG>
-17.4579

> <Gold.Chemscore.ZeroCoef>
-5.4800

> <Gold.Chemscore.Hbond>
3.3135

> <Gold.Chemscore.Metal>
0.0000

> <Gold.Chemscore.Lipo>
100.2185

> <Gold.Chemscore.Internal_Hbond>
0.0000

> <Gold.Chemscore.DEClash>
0.3581

> <Gold.Chemscore.DEInternal>
4.4862

> <Gold.Chemscore.Rot>
4.2246

> <Gold.Chemscore.Internal.Correction>
   9.000000E+99

> <Gold.Chemscore.Hbonds>
donor molecule, donor type, donor heavy atom, donor atom, acceptor molecule, acceptor atom, score
      L1  H     1    29       P1 10186  0.98
      P1  H  6896  6907       L1    22  0.92
      P1  H  7989  7998       L1    26  0.34
      P1  H 10785 10796       L1     1  0.17

> <Gold.Chemscore.Hbond.Weighted>
-11.0672

> <Gold.Chemscore.Metal.Weighted>
-0.0000

> <Gold.Chemscore.Lipo.Weighted>
-11.7256

> <Gold.Chemscore.Internal_Hbond.Weighted>
0.0000

> <Gold.Chemscore.DEClash.Weighted>
0.3581

> <Gold.Chemscore.DEInternal.Weighted>
4.4862

> <Gold.Chemscore.Rot.Weighted>
10.8149

> <Gold.Chemscore.Internal.Correction.Weighted>
   9.000000E+99

> <Gold.Protein.RotatedTorsions>
[ 6907 6896 6895 6894 ] final  -58.99 input  -60.11 | X-H torsion
[ 7974 7965 7964 7962 ] final   16.92 input  175.53 | X-H torsion
[ 8008 7997 7996 7995 ] final  -84.53 input   59.86 | X-H torsion
[ 10167 10162 10161 10158 ] final  141.15 input  -65.29 | X-H torsion
[ 10718 10713 10712 10709 ] final  167.93 input   66.30 | X-H torsion
[ 10763 10752 10751 10750 ] final -169.42 input  -60.55 | X-H torsion
[ 11005 11000 10999 10996 ] final  176.85 input  -57.11 | X-H torsion

> <Gold.Protein.ActiveResidues>
 VAL166  LYS551  ARG553  GLY616  TRP617  ASP618  TYR619  PRO620  LYS621  CYS622 
 ASP623  PHE694  ASN695  SER759  ASP760  ASP761  ALA762  ILE779  LEU786  VAL792 
 PHE793  MET794  SER795  GLU796  ALA797  LYS798  CYS799  TRP800  GLU811  SER814 

> <Gold.Protein.RotatedAtoms>
  150.7964  134.7026  159.6558 H   0  0  0  0  0  0  0  0  0  0  0  0  # atno 6907 bound_to 6896
  152.4077  134.6176  160.0052 H   0  0  0  0  0  0  0  0  0  0  0  0  # atno 6908 bound_to 6896
  151.6428  133.3288  159.3170 H   0  0  0  0  0  0  0  0  0  0  0  0  # atno 6909 bound_to 6896
  146.2235  139.8677  142.8593 H   0  0  0  0  0  0  0  0  0  0  0  0  # atno 7974 bound_to 7965
  154.6308  140.0604  156.9730 H   0  0  0  0  0  0  0  0  0  0  0  0  # atno 8008 bound_to 7997
  155.1668  140.3287  155.4382 H   0  0  0  0  0  0  0  0  0  0  0  0  # atno 8009 bound_to 7997
  156.2482  140.1921  156.6773 H   0  0  0  0  0  0  0  0  0  0  0  0  # atno 8010 bound_to 7997
  139.5029  144.6190  151.6096 H   0  0  0  0  0  0  0  0  0  0  0  0  # atno 10167 bound_to 10162
  157.0444  131.0296  151.2702 H   0  0  0  0  0  0  0  0  0  0  0  0  # atno 10718 bound_to 10713
  154.6525  135.2913  154.9969 H   0  0  0  0  0  0  0  0  0  0  0  0  # atno 10763 bound_to 10752
  154.1057  135.6570  153.4880 H   0  0  0  0  0  0  0  0  0  0  0  0  # atno 10764 bound_to 10752
  153.0384  135.5253  154.7439 H   0  0  0  0  0  0  0  0  0  0  0  0  # atno 10765 bound_to 10752
  140.3777  134.6974  157.4431 H   0  0  0  0  0  0  0  0  0  0  0  0  # atno 11005 bound_to 11000
  145.2639  141.0086  143.3810 LP  0  0  0  0  0  0  0  0  0  0  0  0  # atno 17320 bound_to 7965
  144.9276  139.4336  143.6510 LP  0  0  0  0  0  0  0  0  0  0  0  0  # atno 17321 bound_to 7965
  140.5886  143.9819  150.6311 LP  0  0  0  0  0  0  0  0  0  0  0  0  # atno 17342 bound_to 10162
  140.2992  143.3272  152.0988 LP  0  0  0  0  0  0  0  0  0  0  0  0  # atno 17343 bound_to 10162
  157.5079  130.7920  149.7673 LP  0  0  0  0  0  0  0  0  0  0  0  0  # atno 17370 bound_to 10713
  156.0027  130.3871  150.2544 LP  0  0  0  0  0  0  0  0  0  0  0  0  # atno 17371 bound_to 10713
  140.0503  134.6141  155.8870 LP  0  0  0  0  0  0  0  0  0  0  0  0  # atno 17394 bound_to 11000
  141.1934  133.6579  156.5545 LP  0  0  0  0  0  0  0  0  0  0  0  0  # atno 17395 bound_to 11000

$$$$
