AV-unprocessed.smi:613|AV-procd|sdf|3064|dock2
  -GOLD-   2262023583D 1   1.00000     0.00000
 Structure written by MMmdl.
 38 39  0  0  0  0  0  0  0  0  1 V2000
  153.1137  139.7854  158.7019 C   0  0  0  0  0  0  0  0  0  0  0  0
  152.0016  140.7166  158.8540 N   0  0  0  0  0  0  0  0  0  0  0  0
  151.0151  140.8075  157.7761 C   0  0  0  0  0  0  0  0  0  0  0  0
  150.4853  139.4308  157.3326 C   0  0  2  0  0  0  0  0  0  0  0  0
  150.1098  138.5494  158.5404 C   0  0  0  0  0  0  0  0  0  0  0  0
  149.6739  137.2149  158.1360 N   0  0  0  0  0  0  0  0  0  0  0  0
  149.2699  136.4063  159.2937 C   0  0  0  0  0  0  0  0  0  0  0  0
  147.8961  136.7668  159.8729 C   0  0  0  0  0  0  0  0  0  0  0  0
  146.8443  136.6700  159.0559 N   0  0  0  0  0  0  0  0  0  0  0  0
  147.7876  137.1320  161.0415 O   0  0  0  0  0  0  0  0  0  0  0  0
  150.7044  136.5915  157.3015 C   0  0  0  0  0  0  0  0  0  0  0  0
  151.0958  137.4862  156.1134 C   0  0  0  0  0  0  0  0  0  0  0  0
  151.5038  138.7630  156.5913 O   0  0  0  0  0  0  0  0  0  0  0  0
  152.0970  141.7463  159.8212 C   0  0  0  0  0  0  0  0  0  0  0  0
  153.1039  141.7377  160.8177 C   0  0  0  0  0  0  0  0  0  0  0  0
  153.1314  142.7957  161.7423 C   0  0  0  0  0  0  0  0  0  0  0  0
  152.1508  143.7935  161.6127 C   0  0  0  0  0  0  0  0  0  0  0  0
  151.2065  143.7606  160.6483 N   0  0  0  0  0  0  0  0  0  0  0  0
  151.1833  142.7515  159.7713 N   0  0  0  0  0  0  0  0  0  0  0  0
  153.2305  139.1750  159.5977 H   0  0  0  0  0  0  0  0  0  0  0  0
  154.0451  140.3215  158.5161 H   0  0  0  0  0  0  0  0  0  0  0  0
  152.9459  139.1096  157.8629 H   0  0  0  0  0  0  0  0  0  0  0  0
  150.1830  141.4307  158.1056 H   0  0  0  0  0  0  0  0  0  0  0  0
  151.4478  141.3363  156.9262 H   0  0  0  0  0  0  0  0  0  0  0  0
  149.6048  139.5622  156.7010 H   0  0  0  0  0  0  0  0  0  0  0  0
  150.9652  138.4723  159.2142 H   0  0  0  0  0  0  0  0  0  0  0  0
  149.3153  139.0404  159.1045 H   0  0  0  0  0  0  0  0  0  0  0  0
  149.2886  135.3468  159.0308 H   0  0  0  0  0  0  0  0  0  0  0  0
  149.9965  136.5317  160.0977 H   0  0  0  0  0  0  0  0  0  0  0  0
  145.9203  136.8960  159.3942 H   0  0  0  0  0  0  0  0  0  0  0  0
  146.9782  136.3693  158.1013 H   0  0  0  0  0  0  0  0  0  0  0  0
  151.5912  136.3817  157.9019 H   0  0  0  0  0  0  0  0  0  0  0  0
  150.3611  135.6346  156.9082 H   0  0  0  0  0  0  0  0  0  0  0  0
  151.9155  137.0361  155.5534 H   0  0  0  0  0  0  0  0  0  0  0  0
  150.2595  137.5989  155.4217 H   0  0  0  0  0  0  0  0  0  0  0  0
  153.8413  140.9531  160.8912 H   0  0  0  0  0  0  0  0  0  0  0  0
  153.8767  142.8400  162.5224 H   0  0  0  0  0  0  0  0  0  0  0  0
  152.1209  144.6312  162.2936 H   0  0  0  0  0  0  0  0  0  0  0  0
  1  2  1  0  0  0  0
  1 20  1  0  0  0  0
  1 21  1  0  0  0  0
  1 22  1  0  0  0  0
  2  3  1  0  0  0  0
  2 14  1  0  0  0  0
  3  4  1  0  0  0  0
  3 23  1  0  0  0  0
  3 24  1  0  0  0  0
  4 13  1  0  0  0  0
  4  5  1  0  0  0  0
  4 25  1  0  0  0  0
  5  6  1  0  0  0  0
  5 26  1  0  0  0  0
  5 27  1  0  0  0  0
  6  7  1  0  0  0  0
  6 11  1  0  0  0  0
  7  8  1  0  0  0  0
  7 28  1  0  0  0  0
  7 29  1  0  0  0  0
  8  9  1  0  0  0  0
  8 10  2  0  0  0  0
  9 30  1  0  0  0  0
  9 31  1  0  0  0  0
 11 12  1  0  0  0  0
 11 32  1  0  0  0  0
 11 33  1  0  0  0  0
 12 13  1  0  0  0  0
 12 34  1  0  0  0  0
 12 35  1  0  0  0  0
 14 19  1  0  0  0  0
 14 15  2  0  0  0  0
 15 16  1  0  0  0  0
 15 36  1  0  0  0  0
 16 17  2  0  0  0  0
 16 37  1  0  0  0  0
 17 18  1  0  0  0  0
 17 38  1  0  0  0  0
 18 19  2  0  0  0  0
M  END
> <s_m_source_file>
AV-unprocessed.smi

> <i_m_source_file_index>
613

> <i_lp_mmshare_version>
43012

> <i_f3d_flags>
0

> <s_epik_input>
bjFuW2NIXVtjSF1bY0hdYzFOKFtDSDNdKVtDSDJdW0NAQEhdMltDSDJdTihbQ0gyXVtDSDJdTzIpW0NIMl1DKD1PKVtOSDJd

> <s_epik_cmdline>
J2VwaWtfcHl0aG9uJywgJy1waCcsICc3LjAnLCAnLXRuJywgJzgnLCAnLW1hJywgJzIwMCcsICctbWV0YWxfYmluZGluZycsICctaW1hZScsICc8aW5maWxlLm1hZT4nLCAnLW9tYWUnLCAnPG91dGZpbGUubWFlPic=

> <r_lp_tautomer_probability>
1

> <r_epik_Ionization_Penalty>
0.0398875

> <r_epik_Ionization_Penalty_Charging>
0

> <r_epik_Ionization_Penalty_Neutral>
0.0398875

> <r_epik_State_Penalty>
0.0543012

> <r_epik_Charging_Adjusted_Penalty>
0.0543012

> <i_epik_Tot_Q>
0

> <i_epik_Tot_abs_Q>
0

> <r_epik_Metal_State_Penalty>
0.0489294

> <b_epik_Metal_Only>
0

> <s_lp_Force_Field>
OPLS_2005

> <r_lp_Energy>
27.5025

> <b_lp_Chiralities_Consistent>
1

> <s_lp_Variant>
AV-unprocessed.smi:613-1

> <Gold.Version>
5.8.1

> <Gold.Id.Protein>
6NUR|6NUR_protein|mol2

> <Gold.PLP.Fitness>
35.0431

> <Gold.PLP.PLP>
-30.3785

> <Gold.PLP.part.hbond>
-3.2148

> <Gold.PLP.part.metal>
0.0000

> <Gold.PLP.part.buried>
-4.2677

> <Gold.PLP.part.nonpolar>
-21.9920

> <Gold.PLP.part.repulsive>
0.1987

> <Gold.PLP.ligand.clash>
0.0000

> <Gold.PLP.ligand.torsion>
0.5291

> <Gold.PLP.Chemscore.Hbond>
1.7920

> <Gold.PLP.Chemscore.CHOScore>
0.0000

> <Gold.PLP.Chemscore.Metal>
0.0000

> <Gold.Chemscore.Hbonds>
donor molecule, donor type, donor heavy atom, donor atom, acceptor molecule, acceptor atom, score
      P1  H  6931  6943       L1    10  0.94
      P1  H  6934  6947       L1    10  0.85

> <Gold.PLP.Chemscore.Internal.Correction>
0.3469

> <Gold.Rescore>
     Score         DG    S(hbond)    S(metal)    S(lipo)     H(rot)  DE(clash)    DE(int)     intcor
     10.86     -12.72       1.68        0.00      61.74       2.18       0.00       1.86       ----

> <Gold.Chemscore.Fitness>
10.8585

> <Gold.Chemscore.DG>
-12.7196

> <Gold.Chemscore.ZeroCoef>
-5.4800

> <Gold.Chemscore.Hbond>
1.6776

> <Gold.Chemscore.Metal>
0.0000

> <Gold.Chemscore.Lipo>
61.7374

> <Gold.Chemscore.Internal_Hbond>
0.0000

> <Gold.Chemscore.DEClash>
0.0000

> <Gold.Chemscore.DEInternal>
1.8611

> <Gold.Chemscore.Rot>
2.1823

> <Gold.Chemscore.Internal.Correction>
   9.000000E+99

> <Gold.Chemscore.Hbonds>
donor molecule, donor type, donor heavy atom, donor atom, acceptor molecule, acceptor atom, score
      P1  H  6931  6943       L1    10  0.90
      P1  H  6934  6947       L1    10  0.40

> <Gold.Chemscore.Hbond.Weighted>
-5.6031

> <Gold.Chemscore.Metal.Weighted>
-0.0000

> <Gold.Chemscore.Lipo.Weighted>
-7.2233

> <Gold.Chemscore.Internal_Hbond.Weighted>
0.0000

> <Gold.Chemscore.DEClash.Weighted>
0.0000

> <Gold.Chemscore.DEInternal.Weighted>
1.8611

> <Gold.Chemscore.Rot.Weighted>
5.5867

> <Gold.Chemscore.Internal.Correction.Weighted>
   9.000000E+99

> <Gold.Protein.RotatedTorsions>
[ 6907 6896 6895 6894 ] final -125.69 input  -60.11 | X-H torsion
[ 7974 7965 7964 7962 ] final  -30.85 input  175.53 | X-H torsion
[ 8008 7997 7996 7995 ] final -108.24 input   59.86 | X-H torsion
[ 10167 10162 10161 10158 ] final   93.02 input  -65.29 | X-H torsion
[ 10718 10713 10712 10709 ] final  152.82 input   66.30 | X-H torsion
[ 10763 10752 10751 10750 ] final  -38.94 input  -60.55 | X-H torsion
[ 11005 11000 10999 10996 ] final  114.44 input  -57.11 | X-H torsion

> <Gold.Protein.ActiveResidues>
 VAL166  LYS551  ARG553  GLY616  TRP617  ASP618  TYR619  PRO620  LYS621  CYS622 
 ASP623  PHE694  ASN695  SER759  ASP760  ASP761  ALA762  ILE779  LEU786  VAL792 
 PHE793  MET794  SER795  GLU796  ALA797  LYS798  CYS799  TRP800  GLU811  SER814 

> <Gold.Protein.RotatedAtoms>
  150.8893  133.7265  159.2909 H   0  0  0  0  0  0  0  0  0  0  0  0  # atno 6907 bound_to 6896
  151.4821  135.1051  159.9790 H   0  0  0  0  0  0  0  0  0  0  0  0  # atno 6908 bound_to 6896
  152.4810  133.8207  159.7107 H   0  0  0  0  0  0  0  0  0  0  0  0  # atno 6909 bound_to 6896
  146.1112  140.5593  142.8777 H   0  0  0  0  0  0  0  0  0  0  0  0  # atno 7974 bound_to 7965
  154.9414  140.0402  157.2098 H   0  0  0  0  0  0  0  0  0  0  0  0  # atno 8008 bound_to 7997
  154.8066  140.2861  155.5861 H   0  0  0  0  0  0  0  0  0  0  0  0  # atno 8009 bound_to 7997
  156.2967  140.2545  156.2945 H   0  0  0  0  0  0  0  0  0  0  0  0  # atno 8010 bound_to 7997
  139.8220  144.6727  150.9506 H   0  0  0  0  0  0  0  0  0  0  0  0  # atno 10167 bound_to 10162
  157.2529  131.0782  151.1718 H   0  0  0  0  0  0  0  0  0  0  0  0  # atno 10718 bound_to 10713
  153.9211  135.6782  153.4748 H   0  0  0  0  0  0  0  0  0  0  0  0  # atno 10763 bound_to 10752
  153.1028  135.4820  154.8895 H   0  0  0  0  0  0  0  0  0  0  0  0  # atno 10764 bound_to 10752
  154.7477  135.3177  154.8570 H   0  0  0  0  0  0  0  0  0  0  0  0  # atno 10765 bound_to 10752
  139.8980  134.9568  156.6892 H   0  0  0  0  0  0  0  0  0  0  0  0  # atno 11005 bound_to 11000
  144.7513  140.5197  143.6800 LP  0  0  0  0  0  0  0  0  0  0  0  0  # atno 17320 bound_to 7965
  145.5660  139.1481  143.3315 LP  0  0  0  0  0  0  0  0  0  0  0  0  # atno 17321 bound_to 7965
  140.7812  143.4082  151.1036 LP  0  0  0  0  0  0  0  0  0  0  0  0  # atno 17342 bound_to 10162
  139.7742  143.8450  152.3126 LP  0  0  0  0  0  0  0  0  0  0  0  0  # atno 17343 bound_to 10162
  157.3259  130.6960  149.6296 LP  0  0  0  0  0  0  0  0  0  0  0  0  # atno 17370 bound_to 10713
  155.9666  130.4322  150.4951 LP  0  0  0  0  0  0  0  0  0  0  0  0  # atno 17371 bound_to 10713
  140.7238  133.9118  155.8165 LP  0  0  0  0  0  0  0  0  0  0  0  0  # atno 17394 bound_to 11000
  141.0207  134.0893  157.4124 LP  0  0  0  0  0  0  0  0  0  0  0  0  # atno 17395 bound_to 11000

$$$$
