#       Name:                AV-unprocessed.smi:50
#       Creating user name   scv26
#       Creation time:       Thu Mar 26 16:36:38 2020


#       File generated by GOLD software.
#

@<TRIPOS>MOLECULE
AV-unprocessed.smi:50
    52    53     1
SMALL
NO_CHARGES


@<TRIPOS>ATOM
      1 ****        -1.9599   4.1164   0.9089 C.3            1 S1                 0.0000
      2 ****        -2.3599   3.9919  -0.5746 C.3            1 S1                 0.0000
      3 ****        -3.8952   3.9414  -0.6861 C.3            1 S1                 0.0000
      4 ****        -1.6858   2.7739  -1.2644 C.3            1 S1                 0.0000
      5 ****        -2.1224   2.6250  -2.6653 N.4            1 S1                 1.0000
      6 ****        -0.1518   2.8546  -1.3161 C.2            1 S1                 0.0000
      7 ****         0.4946   3.9029  -1.2795 O.2            1 S1                 0.0000
      8 ****         0.3738   1.6250  -1.4481 O.3            1 S1                 0.0000
      9 ****         1.7822   1.4662  -1.5097 C.3            1 S1                 0.0000
     10 ****         2.1315  -0.0246  -1.5102 C.3            1 S1                 0.0000
     11 ****         1.8940  -0.5494  -0.2146 O.3            1 S1                 0.0000
     12 ****         2.2930  -1.8746  -0.0857 C.3            1 S1                 0.0000
     13 ****         1.9130  -2.3474   1.2342 N.pl3          1 S1                 0.0000
     14 ****         1.8593  -1.6391   2.3807 C.2            1 S1                 0.0000
     15 ****         1.4846  -2.3247   3.4599 N.2            1 S1                 0.0000
     16 ****         1.2909  -3.5998   2.9411 C.2            1 S1                 0.0000
     17 ****         0.8789  -4.8732   3.5802 C.2            1 S1                 0.0000
     18 ****         0.6332  -4.8869   4.7850 O.2            1 S1                 0.0000
     19 ****         0.8083  -5.9542   2.7449 N.pl3          1 S1                -1.0000
     20 ****         1.1119  -5.8204   1.3827 C.2            1 S1                 0.0000
     21 ****         0.9977  -7.0069   0.6915 N.pl3          1 S1                 0.0000
     22 ****         1.4746  -4.7304   0.7518 N.2            1 S1                 0.0000
     23 ****         1.5474  -3.6384   1.5971 C.2            1 S1                 0.0000
     24 ****        -1.9759   1.8669  -0.7326 H              1 S1                 0.0000
     25 ****        -2.2434   3.2252   1.4697 H              1 S1                 0.0000
     26 ****        -2.4513   4.9700   1.3769 H              1 S1                 0.0000
     27 ****        -0.8871   4.2601   1.0364 H              1 S1                 0.0000
     28 ****        -2.0338   4.9024  -1.0804 H              1 S1                 0.0000
     29 ****        -4.2946   3.0321  -0.2356 H              1 S1                 0.0000
     30 ****        -4.2304   3.9768  -1.7226 H              1 S1                 0.0000
     31 ****        -4.3526   4.7903  -0.1766 H              1 S1                 0.0000
     32 ****        -1.6874   1.8055  -3.0647 H              1 S1                 0.0000
     33 ****        -1.8467   3.4424  -3.1905 H              1 S1                 0.0000
     34 ****         2.1494   1.9317  -2.4252 H              1 S1                 0.0000
     35 ****         2.2659   1.9676  -0.6698 H              1 S1                 0.0000
     36 ****         1.5501  -0.5597  -2.2627 H              1 S1                 0.0000
     37 ****         3.1860  -0.1438  -1.7632 H              1 S1                 0.0000
     38 ****         1.7987  -2.4941  -0.8359 H              1 S1                 0.0000
     39 ****         3.3751  -1.9655  -0.1873 H              1 S1                 0.0000
     40 ****         2.1013  -0.5877   2.4267 H              1 S1                 0.0000
     41 ****         0.7247  -7.8786   1.1204 H              1 S1                 0.0000
     42 ****         1.1729  -7.0856  -0.2996 H              1 S1                 0.0000
     43 ****        -3.1268   2.5251  -2.6974 H              1 S1                 0.0000
     44 ****         0.0203   4.7806  -1.2116 LP             1 S1                 0.0000
     45 ****         1.4935   3.8760  -1.3178 LP             1 S1                 0.0000
     46 ****         0.9146  -0.4909  -0.0214 LP             1 S1                 0.0000
     47 ****         2.3984   0.0017   0.4501 LP             1 S1                 0.0000
     48 ****         1.3718  -2.0046   4.4005 LP             1 S1                 0.0000
     49 ****         0.7122  -4.0464   5.3210 LP             1 S1                 0.0000
     50 ****         0.3544  -5.7386   5.2287 LP             1 S1                 0.0000
     51 ****         0.5383  -6.8459   3.1083 LP             1 S1                 0.0000
     52 ****         1.6754  -4.6928  -0.2272 LP             1 S1                 0.0000
@<TRIPOS>BOND
    1    1    2 1     
    2    1   25 1     
    3    1   26 1     
    4    1   27 1     
    5    2    3 1     
    6    2    4 1     
    7    2   28 1     
    8    3   29 1     
    9    3   30 1     
   10    3   31 1     
   11    4   24 1     
   12    4    5 1     
   13    4    6 1     
   14    5   32 1     
   15    5   33 1     
   16    5   43 1     
   17    6    7 2     
   18    6    8 1     
   19    8    9 1     
   20    9   10 1     
   21    9   34 1     
   22    9   35 1     
   23   10   11 1     
   24   10   36 1     
   25   10   37 1     
   26   11   12 1     
   27   12   13 1     
   28   12   38 1     
   29   12   39 1     
   30   13   23 1     
   31   13   14 1     
   32   14   15 2     
   33   14   40 1     
   34   15   16 1     
   35   16   23 2     
   36   16   17 1     
   37   17   18 2     
   38   17   19 1     
   39   19   20 1     
   40   20   21 1     
   41   20   22 2     
   42   21   41 1     
   43   21   42 1     
   44   22   23 1     
   45    7   44 1     
   46    7   45 1     
   47   11   46 1     
   48   11   47 1     
   49   15   48 1     
   50   18   49 1     
   51   18   50 1     
   52   19   51 1     
   53   22   52 1     
@<TRIPOS>SUBSTRUCTURE
      1 S1             1
@<TRIPOS>SET
LONE_PAIRS      STATIC     ATOMS    <user>   **** ""
9 44 45 46 47 48 49 50 51 52
DONOR_HYDROGENS      STATIC     ATOMS    <user>   **** ""
5 32 33 43 41 42
ATOM$BLUE        STATIC     ATOMS    COLORGROUP SYSTEM
9 44 45 46 47 48 49 50 51 52
ATOM$RED        STATIC     ATOMS    COLORGROUP SYSTEM
5 32 33 43 41 42
