AV-unprocessed.smi:2861|AV-procd|sdf|11007|dock5
  -GOLD-   2272015463D 1   1.00000     0.00000
 Structure written by MMmdl.
 33 35  0  0  0  0  0  0  0  0  1 V2000
  150.9862  141.1329  157.0548 O   0  0  0  0  0  0  0  0  0  0  0  0
  150.6874  142.2271  156.5743 C   0  0  0  0  0  0  0  0  0  0  0  0
  151.6125  143.4361  156.7551 C   0  0  0  0  0  0  0  0  0  0  0  0
  151.8792  143.7043  158.2093 C   0  0  0  0  0  0  0  0  0  0  0  0
  151.5200  144.8221  158.9229 C   0  0  0  0  0  0  0  0  0  0  0  0
  152.0317  144.7282  160.5858 S   0  0  0  0  0  0  0  0  0  0  0  0
  152.7189  143.1403  160.2502 C   0  0  0  0  0  0  0  0  0  0  0  0
  153.3889  142.3505  161.2320 N   0  0  0  0  0  0  0  0  0  0  0  0
  154.1657  141.1756  160.8556 C   0  0  0  0  0  0  0  0  0  0  0  0
  154.5347  140.4761  162.1684 C   0  0  0  0  0  0  0  0  0  0  0  0
  154.2602  141.5024  163.2657 C   0  0  0  0  0  0  0  0  0  0  0  0
  153.4325  142.5641  162.5608 C   0  0  0  0  0  0  0  0  0  0  0  0
  152.8997  143.4829  163.1825 O   0  0  0  0  0  0  0  0  0  0  0  0
  152.5548  142.7525  158.9798 N   0  0  0  0  0  0  0  0  0  0  0  0
  149.5589  142.4445  155.8822 N   0  0  0  0  0  0  0  0  0  0  0  0
  148.5589  141.4664  155.5978 C   0  0  0  0  0  0  0  0  0  0  0  0
  148.4384  140.9803  154.1696 C   0  0  0  0  0  0  0  0  0  0  0  0
  147.3853  141.8891  154.7407 C   0  0  0  0  0  0  0  0  0  0  0  0
  152.5525  143.2670  156.2277 H   0  0  0  0  0  0  0  0  0  0  0  0
  151.1450  144.2997  156.2804 H   0  0  0  0  0  0  0  0  0  0  0  0
  150.9931  145.6958  158.5693 H   0  0  0  0  0  0  0  0  0  0  0  0
  153.5977  140.5118  160.2022 H   0  0  0  0  0  0  0  0  0  0  0  0
  155.0620  141.4944  160.3215 H   0  0  0  0  0  0  0  0  0  0  0  0
  153.9034  139.5989  162.3165 H   0  0  0  0  0  0  0  0  0  0  0  0
  155.5719  140.1391  162.1708 H   0  0  0  0  0  0  0  0  0  0  0  0
  153.7207  141.0700  164.1090 H   0  0  0  0  0  0  0  0  0  0  0  0
  155.1847  141.9495  163.6326 H   0  0  0  0  0  0  0  0  0  0  0  0
  149.3934  143.3765  155.5306 H   0  0  0  0  0  0  0  0  0  0  0  0
  148.3456  140.7290  156.3707 H   0  0  0  0  0  0  0  0  0  0  0  0
  149.1153  141.4013  153.4283 H   0  0  0  0  0  0  0  0  0  0  0  0
  148.1718  139.9365  154.0164 H   0  0  0  0  0  0  0  0  0  0  0  0
  146.4151  141.4528  154.9695 H   0  0  0  0  0  0  0  0  0  0  0  0
  147.3602  142.9162  154.3815 H   0  0  0  0  0  0  0  0  0  0  0  0
  1  2  2  0  0  0  0
  2  3  1  0  0  0  0
  2 15  1  0  0  0  0
  3  4  1  0  0  0  0
  3 19  1  0  0  0  0
  3 20  1  0  0  0  0
  4 14  1  0  0  0  0
  4  5  2  0  0  0  0
  5  6  1  0  0  0  0
  5 21  1  0  0  0  0
  6  7  1  0  0  0  0
  7  8  1  0  0  0  0
  7 14  2  0  0  0  0
  8 12  1  0  0  0  0
  8  9  1  0  0  0  0
  9 10  1  0  0  0  0
  9 22  1  0  0  0  0
  9 23  1  0  0  0  0
 10 11  1  0  0  0  0
 10 24  1  0  0  0  0
 10 25  1  0  0  0  0
 11 12  1  0  0  0  0
 11 26  1  0  0  0  0
 11 27  1  0  0  0  0
 12 13  2  0  0  0  0
 15 16  1  0  0  0  0
 15 28  1  0  0  0  0
 16 18  1  0  0  0  0
 16 17  1  0  0  0  0
 16 29  1  0  0  0  0
 17 18  1  0  0  0  0
 17 30  1  0  0  0  0
 17 31  1  0  0  0  0
 18 32  1  0  0  0  0
 18 33  1  0  0  0  0
M  END
> <s_m_source_file>
AV-unprocessed.smi

> <i_m_source_file_index>
2861

> <i_lp_mmshare_version>
43012

> <i_f3d_flags>
0

> <s_epik_input>
W0NIMl0xW0NIMl1bQ0hdMVtOSF1DKD1PKVtDSDJdYzJbY0hdc2MobjIpTjNbQ0gyXVtDSDJdW0NIMl1DMz1P

> <s_epik_cmdline>
J2VwaWtfcHl0aG9uJywgJy1waCcsICc3LjAnLCAnLXRuJywgJzgnLCAnLW1hJywgJzIwMCcsICctbWV0YWxfYmluZGluZycsICctaW1hZScsICc8aW5maWxlLm1hZT4nLCAnLW9tYWUnLCAnPG91dGZpbGUubWFlPic=

> <r_lp_tautomer_probability>
1

> <r_epik_Ionization_Penalty>
2.96745e-05

> <r_epik_Ionization_Penalty_Charging>
0

> <r_epik_Ionization_Penalty_Neutral>
2.96745e-05

> <r_epik_State_Penalty>
-0

> <r_epik_Charging_Adjusted_Penalty>
0

> <i_epik_Tot_Q>
0

> <i_epik_Tot_abs_Q>
0

> <r_epik_Metal_State_Penalty>
-0

> <b_epik_Metal_Only>
0

> <s_lp_Force_Field>
OPLS_2005

> <r_lp_Energy>
30.3521

> <b_lp_Chiralities_Consistent>
1

> <s_lp_Variant>
AV-unprocessed.smi:2861-1

> <Gold.Version>
5.8.1

> <Gold.Id.Protein>
6NUR|6NUR_protein|mol2

> <Gold.PLP.Fitness>
44.6388

> <Gold.PLP.PLP>
-41.8914

> <Gold.PLP.part.hbond>
-0.8750

> <Gold.PLP.part.metal>
0.0000

> <Gold.PLP.part.buried>
-5.4735

> <Gold.PLP.part.nonpolar>
-37.5027

> <Gold.PLP.part.repulsive>
1.0439

> <Gold.PLP.ligand.clash>
0.0000

> <Gold.PLP.ligand.torsion>
0.1471

> <Gold.PLP.Chemscore.Hbond>
1.0000

> <Gold.PLP.Chemscore.CHOScore>
0.0000

> <Gold.PLP.Chemscore.Metal>
0.0000

> <Gold.Chemscore.Hbonds>
donor molecule, donor type, donor heavy atom, donor atom, acceptor molecule, acceptor atom, score
      L1  H    15    28       P1  8028  0.76

> <Gold.PLP.Chemscore.Internal.Correction>
0.0417

> <Gold.Rescore>
     Score         DG    S(hbond)    S(metal)    S(lipo)     H(rot)  DE(clash)    DE(int)     intcor
     13.23     -14.91       0.98        0.00      85.16       1.49       0.40       1.28       ----

> <Gold.Chemscore.Fitness>
13.2254

> <Gold.Chemscore.DG>
-14.9072

> <Gold.Chemscore.ZeroCoef>
-5.4800

> <Gold.Chemscore.Hbond>
0.9830

> <Gold.Chemscore.Metal>
0.0000

> <Gold.Chemscore.Lipo>
85.1572

> <Gold.Chemscore.Internal_Hbond>
0.0000

> <Gold.Chemscore.DEClash>
0.3981

> <Gold.Chemscore.DEInternal>
1.2837

> <Gold.Chemscore.Rot>
1.4920

> <Gold.Chemscore.Internal.Correction>
   9.000000E+99

> <Gold.Chemscore.Hbonds>
donor molecule, donor type, donor heavy atom, donor atom, acceptor molecule, acceptor atom, score
      L1  H    15    28       P1  8028  0.74

> <Gold.Chemscore.Hbond.Weighted>
-3.2832

> <Gold.Chemscore.Metal.Weighted>
-0.0000

> <Gold.Chemscore.Lipo.Weighted>
-9.9634

> <Gold.Chemscore.Internal_Hbond.Weighted>
0.0000

> <Gold.Chemscore.DEClash.Weighted>
0.3981

> <Gold.Chemscore.DEInternal.Weighted>
1.2837

> <Gold.Chemscore.Rot.Weighted>
3.8194

> <Gold.Chemscore.Internal.Correction.Weighted>
   9.000000E+99

> <Gold.Protein.RotatedTorsions>
[ 6907 6896 6895 6894 ] final  175.60 input  -60.11 | X-H torsion
[ 7974 7965 7964 7962 ] final -107.69 input  175.53 | X-H torsion
[ 8008 7997 7996 7995 ] final  -16.35 input   59.86 | X-H torsion
[ 10167 10162 10161 10158 ] final  -98.43 input  -65.29 | X-H torsion
[ 10718 10713 10712 10709 ] final   17.50 input   66.30 | X-H torsion
[ 10763 10752 10751 10750 ] final  114.82 input  -60.55 | X-H torsion
[ 11005 11000 10999 10996 ] final   35.57 input  -57.11 | X-H torsion

> <Gold.Protein.ActiveResidues>
 VAL166  LYS551  ARG553  GLY616  TRP617  ASP618  TYR619  PRO620  LYS621  CYS622 
 ASP623  PHE694  ASN695  SER759  ASP760  ASP761  ALA762  ILE779  LEU786  VAL792 
 PHE793  MET794  SER795  GLU796  ALA797  LYS798  CYS799  TRP800  GLU811  SER814 

> <Gold.Protein.RotatedAtoms>
  151.7336  133.3319  159.3346 H   0  0  0  0  0  0  0  0  0  0  0  0  # atno 6907 bound_to 6896
  150.7602  134.6341  159.6211 H   0  0  0  0  0  0  0  0  0  0  0  0  # atno 6908 bound_to 6896
  152.3576  134.6920  160.0269 H   0  0  0  0  0  0  0  0  0  0  0  0  # atno 6909 bound_to 6896
  145.2022  140.9061  143.3363 H   0  0  0  0  0  0  0  0  0  0  0  0  # atno 7974 bound_to 7965
  154.5060  140.2172  155.9251 H   0  0  0  0  0  0  0  0  0  0  0  0  # atno 8008 bound_to 7997
  156.1494  140.3164  155.8589 H   0  0  0  0  0  0  0  0  0  0  0  0  # atno 8009 bound_to 7997
  155.3968  140.0482  157.3029 H   0  0  0  0  0  0  0  0  0  0  0  0  # atno 8010 bound_to 7997
  140.2730  143.3331  152.0516 H   0  0  0  0  0  0  0  0  0  0  0  0  # atno 10167 bound_to 10162
  157.0830  130.6396  149.5831 H   0  0  0  0  0  0  0  0  0  0  0  0  # atno 10718 bound_to 10713
  153.5130  135.3614  155.2595 H   0  0  0  0  0  0  0  0  0  0  0  0  # atno 10763 bound_to 10752
  154.8740  135.4027  154.3347 H   0  0  0  0  0  0  0  0  0  0  0  0  # atno 10764 bound_to 10752
  153.4004  135.7075  153.6497 H   0  0  0  0  0  0  0  0  0  0  0  0  # atno 10765 bound_to 10752
  140.2413  134.3411  155.7924 H   0  0  0  0  0  0  0  0  0  0  0  0  # atno 11005 bound_to 11000
  144.9937  139.3665  143.6202 LP  0  0  0  0  0  0  0  0  0  0  0  0  # atno 17320 bound_to 7965
  146.3415  139.9130  142.8777 LP  0  0  0  0  0  0  0  0  0  0  0  0  # atno 17321 bound_to 7965
  139.4983  144.6643  151.6392 LP  0  0  0  0  0  0  0  0  0  0  0  0  # atno 17342 bound_to 10162
  140.5874  143.9840  150.6304 LP  0  0  0  0  0  0  0  0  0  0  0  0  # atno 17343 bound_to 10162
  155.9918  130.4974  150.7315 LP  0  0  0  0  0  0  0  0  0  0  0  0  # atno 17370 bound_to 10713
  157.4784  131.0900  151.0564 LP  0  0  0  0  0  0  0  0  0  0  0  0  # atno 17371 bound_to 10713
  141.2210  133.7301  156.8890 LP  0  0  0  0  0  0  0  0  0  0  0  0  # atno 17394 bound_to 11000
  140.1650  134.9139  157.2762 LP  0  0  0  0  0  0  0  0  0  0  0  0  # atno 17395 bound_to 11000

$$$$
