AV-unprocessed.smi:1047|AV-procd|sdf|4589|dock10
  -GOLD-   22720 3 63D 1   1.00000     0.00000
 Structure written by MMmdl.
 57 59  0  0  0  0  0  0  0  0  3 V2000
  152.0312  138.2974  154.4036 C   0  0  0  0  0  0  0  0  0  0  0  0
  150.8876  138.0478  155.3970 C   0  0  0  0  0  0  0  0  0  0  0  0
  150.0089  139.1934  155.6270 N   0  0  0  0  0  0  0  0  0  0  0  0
  149.1923  138.9919  156.8191 C   0  0  0  0  0  0  0  0  0  0  0  0
  148.2550  140.1822  157.0820 C   0  0  0  0  0  0  0  0  0  0  0  0
  147.4421  140.4055  155.9347 O   0  0  0  0  0  0  0  0  0  0  0  0
  148.2028  140.6652  154.7576 C   0  0  2  0  0  0  0  0  0  0  0  0
  147.2305  140.9222  153.5987 C   0  0  0  0  0  0  0  0  0  0  0  0
  146.4002  139.7281  153.3612 N   0  3  0  0  0  0  0  0  0  0  0  0
  146.7809  138.9163  152.1892 C   0  0  0  0  0  0  0  0  0  0  0  0
  145.8095  137.7317  152.0019 C   0  0  2  0  0  0  0  0  0  0  0  0
  145.5515  137.1556  153.2644 O   0  0  0  0  0  0  0  0  0  0  0  0
  146.3071  136.6035  151.0635 C   0  0  0  0  0  0  0  0  0  0  0  0
  145.3729  135.4782  150.9114 N   0  0  0  0  0  0  0  0  0  0  0  0
  144.1194  135.4513  150.3805 C   0  0  0  0  0  0  0  0  0  0  0  0
  143.6555  134.1756  150.4882 N   0  3  0  0  0  0  0  0  0  0  0  0
  144.6319  133.3728  151.0817 C   0  0  0  0  0  0  0  0  0  0  0  0
  144.6250  132.0224  151.4081 C   0  0  0  0  0  0  0  0  0  0  0  0
  145.7895  131.5000  152.0140 C   0  0  0  0  0  0  0  0  0  0  0  0
  145.8116  130.0288  152.3928 C   0  0  0  0  0  0  0  0  0  0  0  0
  146.9161  132.3259  152.2647 C   0  0  0  0  0  0  0  0  0  0  0  0
  148.1635  131.7522  152.9149 C   0  0  0  0  0  0  0  0  0  0  0  0
  146.9055  133.6967  151.9205 C   0  0  0  0  0  0  0  0  0  0  0  0
  145.7446  134.1979  151.3374 C   0  0  0  0  0  0  0  0  0  0  0  0
  149.1316  139.4646  154.4906 C   0  0  0  0  0  0  0  0  0  0  0  0
  152.7004  137.4377  154.3691 H   0  0  0  0  0  0  0  0  0  0  0  0
  152.6238  139.1648  154.6951 H   0  0  0  0  0  0  0  0  0  0  0  0
  151.6649  138.4612  153.3906 H   0  0  0  0  0  0  0  0  0  0  0  0
  150.3006  137.1891  155.0682 H   0  0  0  0  0  0  0  0  0  0  0  0
  151.3389  137.7553  156.3461 H   0  0  0  0  0  0  0  0  0  0  0  0
  148.5981  138.0830  156.7111 H   0  0  0  0  0  0  0  0  0  0  0  0
  149.8348  138.8413  157.6874 H   0  0  0  0  0  0  0  0  0  0  0  0
  147.6137  139.9788  157.9395 H   0  0  0  0  0  0  0  0  0  0  0  0
  148.8260  141.0826  157.3145 H   0  0  0  0  0  0  0  0  0  0  0  0
  148.8096  141.5592  154.9158 H   0  0  0  0  0  0  0  0  0  0  0  0
  146.5812  141.7627  153.8474 H   0  0  0  0  0  0  0  0  0  0  0  0
  147.7698  141.1845  152.6877 H   0  0  0  0  0  0  0  0  0  0  0  0
  146.4324  139.1451  154.1859 H   0  0  0  0  0  0  0  0  0  0  0  0
  146.8104  139.5320  151.2892 H   0  0  0  0  0  0  0  0  0  0  0  0
  147.7948  138.5510  152.3609 H   0  0  0  0  0  0  0  0  0  0  0  0
  144.8553  138.1151  151.6399 H   0  0  0  0  0  0  0  0  0  0  0  0
  145.8907  136.2733  153.2741 H   0  0  0  0  0  0  0  0  0  0  0  0
  146.4741  137.0036  150.0620 H   0  0  0  0  0  0  0  0  0  0  0  0
  147.2669  136.2102  151.4019 H   0  0  0  0  0  0  0  0  0  0  0  0
  143.5842  136.2915  149.9612 H   0  0  0  0  0  0  0  0  0  0  0  0
  143.7661  131.3976  151.2096 H   0  0  0  0  0  0  0  0  0  0  0  0
  145.9570  129.9124  153.4669 H   0  0  0  0  0  0  0  0  0  0  0  0
  146.6197  129.5115  151.8753 H   0  0  0  0  0  0  0  0  0  0  0  0
  144.8766  129.5339  152.1279 H   0  0  0  0  0  0  0  0  0  0  0  0
  148.9351  132.5122  153.0409 H   0  0  0  0  0  0  0  0  0  0  0  0
  148.5813  130.9523  152.3033 H   0  0  0  0  0  0  0  0  0  0  0  0
  147.9298  131.3488  153.9003 H   0  0  0  0  0  0  0  0  0  0  0  0
  147.7640  134.3244  152.1092 H   0  0  0  0  0  0  0  0  0  0  0  0
  149.7242  139.6733  153.6004 H   0  0  0  0  0  0  0  0  0  0  0  0
  148.5317  138.5808  154.2674 H   0  0  0  0  0  0  0  0  0  0  0  0
  145.4480  140.0345  153.2230 H   0  0  0  0  0  0  0  0  0  0  0  0
  142.7418  133.8759  150.1712 H   0  0  0  0  0  0  0  0  0  0  0  0
  1  2  1  0  0  0  0
  1 26  1  0  0  0  0
  1 27  1  0  0  0  0
  1 28  1  0  0  0  0
  2  3  1  0  0  0  0
  2 29  1  0  0  0  0
  2 30  1  0  0  0  0
  3 25  1  0  0  0  0
  3  4  1  0  0  0  0
  4  5  1  0  0  0  0
  4 31  1  0  0  0  0
  4 32  1  0  0  0  0
  5  6  1  0  0  0  0
  5 33  1  0  0  0  0
  5 34  1  0  0  0  0
  6  7  1  0  0  0  0
  7  8  1  0  0  0  0
  7 25  1  0  0  0  0
  7 35  1  0  0  0  0
  8  9  1  0  0  0  0
  8 36  1  0  0  0  0
  8 37  1  0  0  0  0
  9 10  1  0  0  0  0
  9 38  1  0  0  0  0
  9 56  1  0  0  0  0
 10 11  1  0  0  0  0
 10 39  1  0  0  0  0
 10 40  1  0  0  0  0
 11 12  1  0  0  0  0
 11 13  1  0  0  0  0
 11 41  1  0  0  0  0
 12 42  1  0  0  0  0
 13 14  1  0  0  0  0
 13 43  1  0  0  0  0
 13 44  1  0  0  0  0
 14 24  1  0  0  0  0
 14 15  1  0  0  0  0
 15 16  2  0  0  0  0
 15 45  1  0  0  0  0
 16 17  1  0  0  0  0
 16 57  1  0  0  0  0
 17 24  2  0  0  0  0
 17 18  1  0  0  0  0
 18 19  2  0  0  0  0
 18 46  1  0  0  0  0
 19 20  1  0  0  0  0
 19 21  1  0  0  0  0
 20 47  1  0  0  0  0
 20 48  1  0  0  0  0
 20 49  1  0  0  0  0
 21 22  1  0  0  0  0
 21 23  2  0  0  0  0
 22 50  1  0  0  0  0
 22 51  1  0  0  0  0
 22 52  1  0  0  0  0
 23 24  1  0  0  0  0
 23 53  1  0  0  0  0
 25 54  1  0  0  0  0
 25 55  1  0  0  0  0
M  CHG  1   9   1
M  CHG  1  16   1
M  END
> <s_m_source_file>
AV-unprocessed.smi

> <i_m_source_file_index>
1047

> <i_lp_mmshare_version>
43012

> <i_f3d_flags>
0

> <s_epik_input>
W0NIM11bQ0gyXU4xW0NIMl1bQ0gyXU9bQ0BIXShbQ0gyXTEpW0NIMl1bTkhdW0NIMl1bQ0BIXShbT0hdKVtDSDJdbihbY0hdbjIpYyhjMjMpW2NIXWMoW0NIM10pYyhbY0hdMylbQ0gzXQ==

> <s_epik_cmdline>
J2VwaWtfcHl0aG9uJywgJy1waCcsICc3LjAnLCAnLXRuJywgJzgnLCAnLW1hJywgJzIwMCcsICctbWV0YWxfYmluZGluZycsICctaW1hZScsICc8aW5maWxlLm1hZT4nLCAnLW9tYWUnLCAnPG91dGZpbGUubWFlPic=

> <r_epik_Ionization_Penalty>
1.75732

> <r_epik_Ionization_Penalty_Charging>
1.18089

> <r_epik_Ionization_Penalty_Neutral>
0.576429

> <r_epik_State_Penalty>
1.69377

> <r_epik_Charging_Adjusted_Penalty>
2.87466

> <i_epik_Tot_Q>
2

> <i_epik_Tot_abs_Q>
2

> <r_epik_Metal_State_Penalty>
5.70174

> <b_epik_Metal_Only>
0

> <s_lp_Force_Field>
OPLS_2005

> <r_lp_Energy>
41.9229

> <b_lp_Chiralities_Consistent>
1

> <s_lp_Variant>
AV-unprocessed.smi:1047-30

> <Gold.Version>
5.8.1

> <Gold.Id.Protein>
6NUR|6NUR_protein|mol2

> <Gold.PLP.Fitness>
54.6332

> <Gold.PLP.PLP>
-41.2074

> <Gold.PLP.part.hbond>
-2.0000

> <Gold.PLP.part.metal>
0.0000

> <Gold.PLP.part.buried>
0.9515

> <Gold.PLP.part.nonpolar>
-40.2083

> <Gold.PLP.part.repulsive>
0.0620

> <Gold.PLP.ligand.clash>
0.0000

> <Gold.PLP.ligand.torsion>
0.5485

> <Gold.PLP.Chemscore.Hbond>
3.7920

> <Gold.PLP.Chemscore.CHOScore>
1.0000

> <Gold.PLP.Chemscore.Metal>
0.0000

> <Gold.Chemscore.Hbonds>
donor molecule, donor type, donor heavy atom, donor atom, acceptor molecule, acceptor atom, score
      L1  H     9    56       P1 10175  2.00
      L1  H    16    57       P1 10186  1.82
      L1  C    15    45       P1 10171  1.00

> <Gold.PLP.Chemscore.Internal.Correction>
0.1467

> <Gold.Rescore>
     Score         DG    S(hbond)    S(metal)    S(lipo)     H(rot)  DE(clash)    DE(int)     intcor
     16.02     -18.09       1.89        0.00     112.72       2.69       1.54       0.53       ----

> <Gold.Chemscore.Fitness>
16.0178

> <Gold.Chemscore.DG>
-18.0858

> <Gold.Chemscore.ZeroCoef>
-5.4800

> <Gold.Chemscore.Hbond>
1.8886

> <Gold.Chemscore.Metal>
0.0000

> <Gold.Chemscore.Lipo>
112.7235

> <Gold.Chemscore.Internal_Hbond>
0.0000

> <Gold.Chemscore.DEClash>
1.5404

> <Gold.Chemscore.DEInternal>
0.5276

> <Gold.Chemscore.Rot>
2.6917

> <Gold.Chemscore.Internal.Correction>
   9.000000E+99

> <Gold.Chemscore.Hbonds>
donor molecule, donor type, donor heavy atom, donor atom, acceptor molecule, acceptor atom, score
      L1  H     9    56       P1 10175  0.98
      L1  H    16    57       P1 10186  0.89

> <Gold.Chemscore.Hbond.Weighted>
-6.3078

> <Gold.Chemscore.Metal.Weighted>
-0.0000

> <Gold.Chemscore.Lipo.Weighted>
-13.1887

> <Gold.Chemscore.Internal_Hbond.Weighted>
0.0000

> <Gold.Chemscore.DEClash.Weighted>
1.5404

> <Gold.Chemscore.DEInternal.Weighted>
0.5276

> <Gold.Chemscore.Rot.Weighted>
6.8907

> <Gold.Chemscore.Internal.Correction.Weighted>
   9.000000E+99

> <Gold.Protein.RotatedTorsions>
[ 6907 6896 6895 6894 ] final  120.96 input  -60.11 | X-H torsion
[ 7974 7965 7964 7962 ] final  -18.00 input  175.53 | X-H torsion
[ 8008 7997 7996 7995 ] final  105.66 input   59.86 | X-H torsion
[ 10167 10162 10161 10158 ] final   44.04 input  -65.29 | X-H torsion
[ 10718 10713 10712 10709 ] final -131.44 input   66.30 | X-H torsion
[ 10763 10752 10751 10750 ] final -126.99 input  -60.55 | X-H torsion
[ 11005 11000 10999 10996 ] final   68.54 input  -57.11 | X-H torsion

> <Gold.Protein.ActiveResidues>
 VAL166  LYS551  ARG553  GLY616  TRP617  ASP618  TYR619  PRO620  LYS621  CYS622 
 ASP623  PHE694  ASN695  SER759  ASP760  ASP761  ALA762  ILE779  LEU786  VAL792 
 PHE793  MET794  SER795  GLU796  ALA797  LYS798  CYS799  TRP800  GLU811  SER814 

> <Gold.Protein.RotatedAtoms>
  152.4358  133.7359  159.6613 H   0  0  0  0  0  0  0  0  0  0  0  0  # atno 6907 bound_to 6896
  150.8242  133.8190  159.3132 H   0  0  0  0  0  0  0  0  0  0  0  0  # atno 6908 bound_to 6896
  151.5863  135.1058  160.0080 H   0  0  0  0  0  0  0  0  0  0  0  0  # atno 6909 bound_to 6896
  146.1913  140.3860  142.8457 H   0  0  0  0  0  0  0  0  0  0  0  0  # atno 7974 bound_to 7965
  156.1678  140.3126  155.8919 H   0  0  0  0  0  0  0  0  0  0  0  0  # atno 8008 bound_to 7997
  155.3650  140.0478  157.3063 H   0  0  0  0  0  0  0  0  0  0  0  0  # atno 8009 bound_to 7997
  154.5210  140.2198  155.8987 H   0  0  0  0  0  0  0  0  0  0  0  0  # atno 8010 bound_to 7997
  140.3383  144.2502  150.6159 H   0  0  0  0  0  0  0  0  0  0  0  0  # atno 10167 bound_to 10162
  156.2244  130.6999  151.0791 H   0  0  0  0  0  0  0  0  0  0  0  0  # atno 10718 bound_to 10713
  154.8749  135.3977  154.3521 H   0  0  0  0  0  0  0  0  0  0  0  0  # atno 10763 bound_to 10752
  153.4305  135.7025  153.6239 H   0  0  0  0  0  0  0  0  0  0  0  0  # atno 10764 bound_to 10752
  153.4863  135.3758  155.2438 H   0  0  0  0  0  0  0  0  0  0  0  0  # atno 10765 bound_to 10752
  139.9706  134.6907  156.0456 H   0  0  0  0  0  0  0  0  0  0  0  0  # atno 11005 bound_to 11000
  144.8493  140.6977  143.6178 LP  0  0  0  0  0  0  0  0  0  0  0  0  # atno 17320 bound_to 7965
  145.3782  139.1643  143.4295 LP  0  0  0  0  0  0  0  0  0  0  0  0  # atno 17321 bound_to 7965
  140.5333  143.2239  151.8204 LP  0  0  0  0  0  0  0  0  0  0  0  0  # atno 17342 bound_to 10162
  139.4844  144.4693  151.9444 LP  0  0  0  0  0  0  0  0  0  0  0  0  # atno 17343 bound_to 10162
  157.7103  131.0737  150.6523 LP  0  0  0  0  0  0  0  0  0  0  0  0  # atno 17370 bound_to 10713
  156.6587  130.4506  149.5695 LP  0  0  0  0  0  0  0  0  0  0  0  0  # atno 17371 bound_to 10713
  141.1385  133.6570  156.3662 LP  0  0  0  0  0  0  0  0  0  0  0  0  # atno 17394 bound_to 11000
  140.5302  134.6219  157.5347 LP  0  0  0  0  0  0  0  0  0  0  0  0  # atno 17395 bound_to 11000

$$$$
