AV-unprocessed.smi:2177|AV-procd|sdf|8851|dock9
  -GOLD-   2272012 43D 1   1.00000     0.00000
 Structure written by MMmdl.
 42 43  0  0  0  0  0  0  0  0  1 V2000
  153.0984  140.5530  159.2615 C   0  0  0  0  0  0  0  0  0  0  0  0
  152.8702  141.8516  159.9808 C   0  0  0  0  0  0  0  0  0  0  0  0
  153.1305  141.9307  161.2749 N   0  0  0  0  0  0  0  0  0  0  0  0
  152.8093  143.1955  161.6141 N   0  0  0  0  0  0  0  0  0  0  0  0
  152.9709  143.6265  162.9889 C   0  0  0  0  0  0  0  0  0  0  0  0
  152.3477  143.9176  160.5313 C   0  0  0  0  0  0  0  0  0  0  0  0
  151.9170  145.3437  160.6496 C   0  0  0  0  0  0  0  0  0  0  0  0
  152.3685  143.0769  159.4504 C   0  0  0  0  0  0  0  0  0  0  0  0
  151.9369  143.3561  158.0309 C   0  0  0  0  0  0  0  0  0  0  0  0
  150.7957  142.4118  157.6506 C   0  0  0  0  0  0  0  0  0  0  0  0
  149.9016  142.1659  158.4593 O   0  0  0  0  0  0  0  0  0  0  0  0
  150.8586  141.8744  156.4226 N   0  0  0  0  0  0  0  0  0  0  0  0
  149.9898  140.8263  155.8980 C   0  0  1  0  0  0  0  0  0  0  0  0
  149.3122  141.3111  154.6080 C   0  0  0  0  0  0  0  0  0  0  0  0
  150.8194  139.5473  155.6759 C   0  0  1  0  0  0  0  0  0  0  0  0
  150.2289  138.5713  154.6538 C   0  0  0  0  0  0  0  0  0  0  0  0
  151.4416  137.8176  154.1296 C   0  0  0  0  0  0  0  0  0  0  0  0
  152.6362  138.6333  154.6318 C   0  0  0  0  0  0  0  0  0  0  0  0
  152.0806  139.8527  155.1027 O   0  0  0  0  0  0  0  0  0  0  0  0
  152.1526  140.1144  158.9429 H   0  0  0  0  0  0  0  0  0  0  0  0
  153.6057  139.8232  159.8934 H   0  0  0  0  0  0  0  0  0  0  0  0
  153.7118  140.7020  158.3731 H   0  0  0  0  0  0  0  0  0  0  0  0
  153.7583  144.3782  163.0461 H   0  0  0  0  0  0  0  0  0  0  0  0
  153.2385  142.7840  163.6284 H   0  0  0  0  0  0  0  0  0  0  0  0
  152.0374  144.0588  163.3506 H   0  0  0  0  0  0  0  0  0  0  0  0
  151.6631  145.7628  159.6760 H   0  0  0  0  0  0  0  0  0  0  0  0
  152.7103  145.9556  161.0793 H   0  0  0  0  0  0  0  0  0  0  0  0
  151.0381  145.4288  161.2886 H   0  0  0  0  0  0  0  0  0  0  0  0
  151.6068  144.3888  157.9126 H   0  0  0  0  0  0  0  0  0  0  0  0
  152.7563  143.2171  157.3251 H   0  0  0  0  0  0  0  0  0  0  0  0
  151.6296  142.1529  155.8333 H   0  0  0  0  0  0  0  0  0  0  0  0
  149.2127  140.5971  156.6296 H   0  0  0  0  0  0  0  0  0  0  0  0
  148.6449  140.5488  154.2052 H   0  0  0  0  0  0  0  0  0  0  0  0
  150.0469  141.5506  153.8384 H   0  0  0  0  0  0  0  0  0  0  0  0
  148.7155  142.2055  154.7906 H   0  0  0  0  0  0  0  0  0  0  0  0
  150.9796  139.0297  156.6241 H   0  0  0  0  0  0  0  0  0  0  0  0
  149.4764  137.9121  155.0882 H   0  0  0  0  0  0  0  0  0  0  0  0
  149.7592  139.1192  153.8354 H   0  0  0  0  0  0  0  0  0  0  0  0
  151.4800  136.7982  154.5152 H   0  0  0  0  0  0  0  0  0  0  0  0
  151.4212  137.7637  153.0405 H   0  0  0  0  0  0  0  0  0  0  0  0
  153.1282  138.1214  155.4599 H   0  0  0  0  0  0  0  0  0  0  0  0
  153.3786  138.8131  153.8538 H   0  0  0  0  0  0  0  0  0  0  0  0
  1  2  1  0  0  0  0
  1 20  1  0  0  0  0
  1 21  1  0  0  0  0
  1 22  1  0  0  0  0
  2  8  1  0  0  0  0
  2  3  2  0  0  0  0
  3  4  1  0  0  0  0
  4  5  1  0  0  0  0
  4  6  1  0  0  0  0
  5 23  1  0  0  0  0
  5 24  1  0  0  0  0
  5 25  1  0  0  0  0
  6  7  1  0  0  0  0
  6  8  2  0  0  0  0
  7 26  1  0  0  0  0
  7 27  1  0  0  0  0
  7 28  1  0  0  0  0
  8  9  1  0  0  0  0
  9 10  1  0  0  0  0
  9 29  1  0  0  0  0
  9 30  1  0  0  0  0
 10 11  2  0  0  0  0
 10 12  1  0  0  0  0
 12 13  1  0  0  0  0
 12 31  1  0  0  0  0
 13 14  1  0  0  0  0
 13 15  1  0  0  0  0
 13 32  1  0  0  0  0
 14 33  1  0  0  0  0
 14 34  1  0  0  0  0
 14 35  1  0  0  0  0
 15 19  1  0  0  0  0
 15 16  1  0  0  0  0
 15 36  1  0  0  0  0
 16 17  1  0  0  0  0
 16 37  1  0  0  0  0
 16 38  1  0  0  0  0
 17 18  1  0  0  0  0
 17 39  1  0  0  0  0
 17 40  1  0  0  0  0
 18 19  1  0  0  0  0
 18 41  1  0  0  0  0
 18 42  1  0  0  0  0
M  END
> <s_m_source_file>
AV-unprocessed.smi

> <i_m_source_file_index>
2177

> <i_lp_mmshare_version>
43012

> <i_f3d_flags>
0

> <s_epik_input>
W0NIM11jMW5uKFtDSDNdKWMoW0NIM10pYzFbQ0gyXUMoPU8pW05IXVtDQEhdKFtDSDNdKVtDQEBIXTJbQ0gyXVtDSDJdW0NIMl1PMg==

> <s_epik_cmdline>
J2VwaWtfcHl0aG9uJywgJy1waCcsICc3LjAnLCAnLXRuJywgJzgnLCAnLW1hJywgJzIwMCcsICctbWV0YWxfYmluZGluZycsICctaW1hZScsICc8aW5maWxlLm1hZT4nLCAnLW9tYWUnLCAnPG91dGZpbGUubWFlPic=

> <r_lp_tautomer_probability>
1

> <r_epik_Ionization_Penalty>
0.00310467

> <r_epik_Ionization_Penalty_Charging>
0

> <r_epik_Ionization_Penalty_Neutral>
0.00310467

> <r_epik_State_Penalty>
0.00218493

> <r_epik_Charging_Adjusted_Penalty>
0.00218493

> <i_epik_Tot_Q>
0

> <i_epik_Tot_abs_Q>
0

> <r_epik_Metal_State_Penalty>
-0

> <b_epik_Metal_Only>
0

> <s_lp_Force_Field>
OPLS_2005

> <r_lp_Energy>
11.3681

> <b_lp_Chiralities_Consistent>
1

> <s_lp_Variant>
AV-unprocessed.smi:2177-4

> <Gold.Version>
5.8.1

> <Gold.Id.Protein>
6NUR|6NUR_protein|mol2

> <Gold.PLP.Fitness>
48.3195

> <Gold.PLP.PLP>
-47.2501

> <Gold.PLP.part.hbond>
-1.0000

> <Gold.PLP.part.metal>
0.0000

> <Gold.PLP.part.buried>
-5.1017

> <Gold.PLP.part.nonpolar>
-41.4828

> <Gold.PLP.part.repulsive>
0.2239

> <Gold.PLP.ligand.clash>
0.0000

> <Gold.PLP.ligand.torsion>
0.7095

> <Gold.PLP.Chemscore.Hbond>
0.8160

> <Gold.PLP.Chemscore.CHOScore>
0.0000

> <Gold.PLP.Chemscore.Metal>
0.0000

> <Gold.Chemscore.Hbonds>
donor molecule, donor type, donor heavy atom, donor atom, acceptor molecule, acceptor atom, score
      P1  H  7989  7998       L1    19  0.83

> <Gold.PLP.Chemscore.Internal.Correction>
0.0403

> <Gold.Rescore>
     Score         DG    S(hbond)    S(metal)    S(lipo)     H(rot)  DE(clash)    DE(int)     intcor
     17.07     -18.22       0.74        0.00     119.81       1.46       0.70       0.44       ----

> <Gold.Chemscore.Fitness>
17.0742

> <Gold.Chemscore.DG>
-18.2217

> <Gold.Chemscore.ZeroCoef>
-5.4800

> <Gold.Chemscore.Hbond>
0.7389

> <Gold.Chemscore.Metal>
0.0000

> <Gold.Chemscore.Lipo>
119.8127

> <Gold.Chemscore.Internal_Hbond>
0.0000

> <Gold.Chemscore.DEClash>
0.7028

> <Gold.Chemscore.DEInternal>
0.4447

> <Gold.Chemscore.Rot>
1.4627

> <Gold.Chemscore.Internal.Correction>
   9.000000E+99

> <Gold.Chemscore.Hbonds>
donor molecule, donor type, donor heavy atom, donor atom, acceptor molecule, acceptor atom, score
      P1  H  7989  7998       L1    19  0.21

> <Gold.Chemscore.Hbond.Weighted>
-2.4680

> <Gold.Chemscore.Metal.Weighted>
-0.0000

> <Gold.Chemscore.Lipo.Weighted>
-14.0181

> <Gold.Chemscore.Internal_Hbond.Weighted>
0.0000

> <Gold.Chemscore.DEClash.Weighted>
0.7028

> <Gold.Chemscore.DEInternal.Weighted>
0.4447

> <Gold.Chemscore.Rot.Weighted>
3.7445

> <Gold.Chemscore.Internal.Correction.Weighted>
   9.000000E+99

> <Gold.Protein.RotatedTorsions>
[ 6907 6896 6895 6894 ] final  134.46 input  -60.11 | X-H torsion
[ 7974 7965 7964 7962 ] final  -34.26 input  175.53 | X-H torsion
[ 8008 7997 7996 7995 ] final  -14.81 input   59.86 | X-H torsion
[ 10167 10162 10161 10158 ] final  -73.10 input  -65.29 | X-H torsion
[ 10718 10713 10712 10709 ] final  108.78 input   66.30 | X-H torsion
[ 10763 10752 10751 10750 ] final    1.75 input  -60.55 | X-H torsion
[ 11005 11000 10999 10996 ] final  126.40 input  -57.11 | X-H torsion

> <Gold.Protein.ActiveResidues>
 VAL166  LYS551  ARG553  GLY616  TRP617  ASP618  TYR619  PRO620  LYS621  CYS622 
 ASP623  PHE694  ASN695  SER759  ASP760  ASP761  ALA762  ILE779  LEU786  VAL792 
 PHE793  MET794  SER795  GLU796  ALA797  LYS798  CYS799  TRP800  GLU811  SER814 

> <Gold.Protein.RotatedAtoms>
  152.3110  133.5753  159.5680 H   0  0  0  0  0  0  0  0  0  0  0  0  # atno 6907 bound_to 6896
  150.7323  134.0152  159.3692 H   0  0  0  0  0  0  0  0  0  0  0  0  # atno 6908 bound_to 6896
  151.8044  135.0699  160.0455 H   0  0  0  0  0  0  0  0  0  0  0  0  # atno 6909 bound_to 6896
  146.0844  140.6016  142.8893 H   0  0  0  0  0  0  0  0  0  0  0  0  # atno 7974 bound_to 7965
  154.5180  140.2213  155.9029 H   0  0  0  0  0  0  0  0  0  0  0  0  # atno 8008 bound_to 7997
  156.1630  140.3138  155.8805 H   0  0  0  0  0  0  0  0  0  0  0  0  # atno 8009 bound_to 7997
  155.3714  140.0467  157.3036 H   0  0  0  0  0  0  0  0  0  0  0  0  # atno 8010 bound_to 7997
  140.5138  143.2341  151.7547 H   0  0  0  0  0  0  0  0  0  0  0  0  # atno 10167 bound_to 10162
  157.6571  131.0900  150.6356 H   0  0  0  0  0  0  0  0  0  0  0  0  # atno 10718 bound_to 10713
  153.3042  135.6958  153.7175 H   0  0  0  0  0  0  0  0  0  0  0  0  # atno 10763 bound_to 10752
  153.6078  135.3450  155.2969 H   0  0  0  0  0  0  0  0  0  0  0  0  # atno 10764 bound_to 10752
  154.8558  135.4356  154.2161 H   0  0  0  0  0  0  0  0  0  0  0  0  # atno 10765 bound_to 10752
  139.9454  134.9630  156.8701 H   0  0  0  0  0  0  0  0  0  0  0  0  # atno 11005 bound_to 11000
  144.7315  140.4686  143.6934 LP  0  0  0  0  0  0  0  0  0  0  0  0  # atno 17320 bound_to 7965
  145.6157  139.1518  143.3051 LP  0  0  0  0  0  0  0  0  0  0  0  0  # atno 17321 bound_to 7965
  139.4903  144.4353  151.9827 LP  0  0  0  0  0  0  0  0  0  0  0  0  # atno 17342 bound_to 10162
  140.3446  144.3162  150.5960 LP  0  0  0  0  0  0  0  0  0  0  0  0  # atno 17343 bound_to 10162
  156.6662  130.4526  149.5671 LP  0  0  0  0  0  0  0  0  0  0  0  0  # atno 17370 bound_to 10713
  156.2031  130.6632  151.1189 LP  0  0  0  0  0  0  0  0  0  0  0  0  # atno 17371 bound_to 10713
  140.5848  134.0318  155.7477 LP  0  0  0  0  0  0  0  0  0  0  0  0  # atno 17394 bound_to 11000
  141.1103  133.9628  157.2923 LP  0  0  0  0  0  0  0  0  0  0  0  0  # atno 17395 bound_to 11000

$$$$
