AV-unprocessed.smi:1978|AV-procd|sdf|7999|dock6
  -GOLD-   2272010183D 1   1.00000     0.00000
 Structure written by MMmdl.
 45 46  0  0  0  0  0  0  0  0  2 V2000
  144.8137  130.7980  150.8903 C   0  0  0  0  0  0  0  0  0  0  0  0
  144.9544  132.2662  151.1039 C   0  0  0  0  0  0  0  0  0  0  0  0
  146.0312  133.0726  151.3450 C   0  0  0  0  0  0  0  0  0  0  0  0
  145.4479  134.3637  151.4429 C   0  0  0  0  0  0  0  0  0  0  0  0
  146.2488  135.5067  151.6947 N   0  0  0  0  0  0  0  0  0  0  0  0
  145.8312  136.7484  151.9935 C   0  0  0  0  0  0  0  0  0  0  0  0
  144.6550  137.0992  152.0924 O   0  0  0  0  0  0  0  0  0  0  0  0
  146.8659  137.5816  152.1768 N   0  0  0  0  0  0  0  0  0  0  0  0
  146.7456  139.0003  152.5029 C   0  0  0  0  0  0  0  0  0  0  0  0
  147.9009  139.5307  153.4031 C   0  0  1  0  0  0  0  0  0  0  0  0
  147.3206  140.4563  154.5017 C   0  0  0  0  0  0  0  0  0  0  0  0
  148.7326  138.4240  153.9948 N   0  3  2  0  0  0  0  0  0  0  0  0
  148.0240  137.6359  155.0503 C   0  0  0  0  0  0  0  0  0  0  0  0
  148.8243  136.3966  155.4840 C   0  0  0  0  0  0  0  0  0  0  0  0
  150.2244  136.7770  155.9660 C   0  0  0  0  0  0  0  0  0  0  0  0
  150.9326  137.5817  154.8726 C   0  0  0  0  0  0  0  0  0  0  0  0
  150.1155  138.8152  154.4334 C   0  0  2  0  0  0  0  0  0  0  0  0
  150.1285  139.9301  155.5035 C   0  0  0  0  0  0  0  0  0  0  0  0
  144.1341  134.3474  151.2786 N   0  0  0  0  0  0  0  0  0  0  0  0
  143.8110  133.0028  151.0599 O   0  0  0  0  0  0  0  0  0  0  0  0
  145.7695  130.2912  151.0242 H   0  0  0  0  0  0  0  0  0  0  0  0
  144.4575  130.5873  149.8818 H   0  0  0  0  0  0  0  0  0  0  0  0
  144.1027  130.3702  151.5974 H   0  0  0  0  0  0  0  0  0  0  0  0
  147.0675  132.7823  151.4349 H   0  0  0  0  0  0  0  0  0  0  0  0
  147.2462  135.3624  151.6395 H   0  0  0  0  0  0  0  0  0  0  0  0
  147.8005  137.2132  152.0743 H   0  0  0  0  0  0  0  0  0  0  0  0
  146.7152  139.5607  151.5680 H   0  0  0  0  0  0  0  0  0  0  0  0
  145.7695  139.1228  152.9704 H   0  0  0  0  0  0  0  0  0  0  0  0
  148.5621  140.1388  152.7846 H   0  0  0  0  0  0  0  0  0  0  0  0
  146.6352  141.1991  154.0956 H   0  0  0  0  0  0  0  0  0  0  0  0
  148.0903  141.0363  155.0081 H   0  0  0  0  0  0  0  0  0  0  0  0
  146.7729  139.8857  155.2522 H   0  0  0  0  0  0  0  0  0  0  0  0
  147.8091  138.2712  155.9101 H   0  0  0  0  0  0  0  0  0  0  0  0
  147.0658  137.2672  154.6926 H   0  0  0  0  0  0  0  0  0  0  0  0
  148.2910  135.8675  156.2743 H   0  0  0  0  0  0  0  0  0  0  0  0
  148.9028  135.7010  154.6470 H   0  0  0  0  0  0  0  0  0  0  0  0
  150.1603  137.3590  156.8859 H   0  0  0  0  0  0  0  0  0  0  0  0
  150.7971  135.8805  156.2052 H   0  0  0  0  0  0  0  0  0  0  0  0
  151.9222  137.8860  155.2156 H   0  0  0  0  0  0  0  0  0  0  0  0
  151.0998  136.9364  154.0090 H   0  0  0  0  0  0  0  0  0  0  0  0
  150.6570  139.1901  153.5670 H   0  0  0  0  0  0  0  0  0  0  0  0
  151.1514  140.1812  155.7849 H   0  0  0  0  0  0  0  0  0  0  0  0
  149.6065  139.6380  156.4141 H   0  0  0  0  0  0  0  0  0  0  0  0
  149.6685  140.8494  155.1424 H   0  0  0  0  0  0  0  0  0  0  0  0
  148.8784  137.7749  153.2349 H   0  0  0  0  0  0  0  0  0  0  0  0
  1  2  1  0  0  0  0
  1 21  1  0  0  0  0
  1 22  1  0  0  0  0
  1 23  1  0  0  0  0
  2 20  1  0  0  0  0
  2  3  2  0  0  0  0
  3  4  1  0  0  0  0
  3 24  1  0  0  0  0
  4  5  1  0  0  0  0
  4 19  2  0  0  0  0
  5  6  1  0  0  0  0
  5 25  1  0  0  0  0
  6  7  2  0  0  0  0
  6  8  1  0  0  0  0
  8  9  1  0  0  0  0
  8 26  1  0  0  0  0
  9 10  1  0  0  0  0
  9 27  1  0  0  0  0
  9 28  1  0  0  0  0
 10 11  1  0  0  0  0
 10 12  1  0  0  0  0
 10 29  1  0  0  0  0
 11 30  1  0  0  0  0
 11 31  1  0  0  0  0
 11 32  1  0  0  0  0
 12 17  1  0  0  0  0
 12 13  1  0  0  0  0
 12 45  1  0  0  0  0
 13 14  1  0  0  0  0
 13 33  1  0  0  0  0
 13 34  1  0  0  0  0
 14 15  1  0  0  0  0
 14 35  1  0  0  0  0
 14 36  1  0  0  0  0
 15 16  1  0  0  0  0
 15 37  1  0  0  0  0
 15 38  1  0  0  0  0
 16 17  1  0  0  0  0
 16 39  1  0  0  0  0
 16 40  1  0  0  0  0
 17 18  1  0  0  0  0
 17 41  1  0  0  0  0
 18 42  1  0  0  0  0
 18 43  1  0  0  0  0
 18 44  1  0  0  0  0
 19 20  1  0  0  0  0
M  CHG  1  12   1
M  END
> <s_m_source_file>
AV-unprocessed.smi

> <i_m_source_file_index>
1978

> <i_lp_mmshare_version>
43012

> <i_f3d_flags>
0

> <s_epik_input>
W0NIM11jMVtjSF1jKG5vMSlbTkhdQyg9TylbTkhdW0NIMl1bQ0BIXShbQ0gzXSlOMltDSDJdW0NIMl1bQ0gyXVtDSDJdW0NASF0yW0NIM10=

> <s_epik_cmdline>
J2VwaWtfcHl0aG9uJywgJy1waCcsICc3LjAnLCAnLXRuJywgJzgnLCAnLW1hJywgJzIwMCcsICctbWV0YWxfYmluZGluZycsICctaW1hZScsICc8aW5maWxlLm1hZT4nLCAnLW9tYWUnLCAnPG91dGZpbGUubWFlPic=

> <r_epik_Ionization_Penalty>
0.00265971

> <r_epik_Ionization_Penalty_Charging>
0.00262393

> <r_epik_Ionization_Penalty_Neutral>
3.57846e-05

> <r_epik_State_Penalty>
0.00182566

> <r_epik_Charging_Adjusted_Penalty>
0.00444959

> <i_epik_Tot_Q>
1

> <i_epik_Tot_abs_Q>
1

> <r_epik_Metal_State_Penalty>
0.0216344

> <b_epik_Metal_Only>
0

> <s_lp_Force_Field>
OPLS_2005

> <r_lp_Energy>
22.4222

> <b_lp_Chiralities_Consistent>
1

> <s_lp_Variant>
AV-unprocessed.smi:1978-8

> <Gold.Version>
5.8.1

> <Gold.Id.Protein>
6NUR|6NUR_protein|mol2

> <Gold.PLP.Fitness>
39.3386

> <Gold.PLP.PLP>
-29.6616

> <Gold.PLP.part.hbond>
-3.4828

> <Gold.PLP.part.metal>
0.0000

> <Gold.PLP.part.buried>
-3.0186

> <Gold.PLP.part.nonpolar>
-24.7623

> <Gold.PLP.part.repulsive>
0.6639

> <Gold.PLP.ligand.clash>
0.0000

> <Gold.PLP.ligand.torsion>
1.0731

> <Gold.PLP.Chemscore.Hbond>
3.9120

> <Gold.PLP.Chemscore.CHOScore>
0.0000

> <Gold.PLP.Chemscore.Metal>
0.0000

> <Gold.Chemscore.Hbonds>
donor molecule, donor type, donor heavy atom, donor atom, acceptor molecule, acceptor atom, score
      L1  H     5    25       P1  7948  0.90
      L1  H     8    26       P1  7948  0.94
      L1  H    12    45       P1  7948  1.92

> <Gold.PLP.Chemscore.Internal.Correction>
0.0872

> <Gold.Rescore>
     Score         DG    S(hbond)    S(metal)    S(lipo)     H(rot)  DE(clash)    DE(int)     intcor
     15.25     -19.73       2.80        0.00      75.58       1.55       0.42       4.05       ----

> <Gold.Chemscore.Fitness>
15.2546

> <Gold.Chemscore.DG>
-19.7288

> <Gold.Chemscore.ZeroCoef>
-5.4800

> <Gold.Chemscore.Hbond>
2.8046

> <Gold.Chemscore.Metal>
0.0000

> <Gold.Chemscore.Lipo>
75.5794

> <Gold.Chemscore.Internal_Hbond>
0.0000

> <Gold.Chemscore.DEClash>
0.4243

> <Gold.Chemscore.DEInternal>
4.0499

> <Gold.Chemscore.Rot>
1.5474

> <Gold.Chemscore.Internal.Correction>
   9.000000E+99

> <Gold.Chemscore.Hbonds>
donor molecule, donor type, donor heavy atom, donor atom, acceptor molecule, acceptor atom, score
      L1  H     5    25       P1  7948  0.85
      L1  H     8    26       P1  7948  0.90
      L1  H    12    45       P1  7948  0.91

> <Gold.Chemscore.Hbond.Weighted>
-9.3672

> <Gold.Chemscore.Metal.Weighted>
-0.0000

> <Gold.Chemscore.Lipo.Weighted>
-8.8428

> <Gold.Chemscore.Internal_Hbond.Weighted>
0.0000

> <Gold.Chemscore.DEClash.Weighted>
0.4243

> <Gold.Chemscore.DEInternal.Weighted>
4.0499

> <Gold.Chemscore.Rot.Weighted>
3.9612

> <Gold.Chemscore.Internal.Correction.Weighted>
   9.000000E+99

> <Gold.Protein.RotatedTorsions>
[ 6907 6896 6895 6894 ] final   16.29 input  -60.11 | X-H torsion
[ 7974 7965 7964 7962 ] final -157.71 input  175.53 | X-H torsion
[ 8008 7997 7996 7995 ] final  114.88 input   59.86 | X-H torsion
[ 10167 10162 10161 10158 ] final   -7.31 input  -65.29 | X-H torsion
[ 10718 10713 10712 10709 ] final  -83.17 input   66.30 | X-H torsion
[ 10763 10752 10751 10750 ] final -154.53 input  -60.55 | X-H torsion
[ 11005 11000 10999 10996 ] final  173.52 input  -57.11 | X-H torsion

> <Gold.Protein.ActiveResidues>
 VAL166  LYS551  ARG553  GLY616  TRP617  ASP618  TYR619  PRO620  LYS621  CYS622 
 ASP623  PHE694  ASN695  SER759  ASP760  ASP761  ALA762  ILE779  LEU786  VAL792 
 PHE793  MET794  SER795  GLU796  ALA797  LYS798  CYS799  TRP800  GLU811  SER814 

> <Gold.Protein.RotatedAtoms>
  151.8315  135.0620  160.0437 H   0  0  0  0  0  0  0  0  0  0  0  0  # atno 6907 bound_to 6896
  152.2877  133.5526  159.5546 H   0  0  0  0  0  0  0  0  0  0  0  0  # atno 6908 bound_to 6896
  150.7216  134.0390  159.3801 H   0  0  0  0  0  0  0  0  0  0  0  0  # atno 6909 bound_to 6896
  144.7536  140.3931  143.6029 H   0  0  0  0  0  0  0  0  0  0  0  0  # atno 7974 bound_to 7965
  156.2348  140.2950  156.0284 H   0  0  0  0  0  0  0  0  0  0  0  0  # atno 8008 bound_to 7997
  155.2122  140.0413  157.2952 H   0  0  0  0  0  0  0  0  0  0  0  0  # atno 8009 bound_to 7997
  154.6059  140.2439  155.7738 H   0  0  0  0  0  0  0  0  0  0  0  0  # atno 8010 bound_to 7997
  140.7025  143.6095  150.8718 H   0  0  0  0  0  0  0  0  0  0  0  0  # atno 10167 bound_to 10162
  156.0022  130.4657  150.4216 H   0  0  0  0  0  0  0  0  0  0  0  0  # atno 10718 bound_to 10713
  154.7852  135.3188  154.7902 H   0  0  0  0  0  0  0  0  0  0  0  0  # atno 10763 bound_to 10752
  153.8604  135.6854  153.4788 H   0  0  0  0  0  0  0  0  0  0  0  0  # atno 10764 bound_to 10752
  153.1501  135.4703  154.9563 H   0  0  0  0  0  0  0  0  0  0  0  0  # atno 10765 bound_to 10752
  140.3414  134.7273  157.4204 H   0  0  0  0  0  0  0  0  0  0  0  0  # atno 11005 bound_to 11000
  145.6855  139.1627  143.2676 LP  0  0  0  0  0  0  0  0  0  0  0  0  # atno 17320 bound_to 7965
  146.1519  140.6912  142.9318 LP  0  0  0  0  0  0  0  0  0  0  0  0  # atno 17321 bound_to 7965
  139.9818  143.5942  152.2940 LP  0  0  0  0  0  0  0  0  0  0  0  0  # atno 17342 bound_to 10162
  139.6566  144.7662  151.2043 LP  0  0  0  0  0  0  0  0  0  0  0  0  # atno 17343 bound_to 10162
  157.2272  131.0496  151.2513 LP  0  0  0  0  0  0  0  0  0  0  0  0  # atno 17370 bound_to 10713
  157.3745  130.7198  149.6587 LP  0  0  0  0  0  0  0  0  0  0  0  0  # atno 17371 bound_to 10713
  140.0778  134.5773  155.8572 LP  0  0  0  0  0  0  0  0  0  0  0  0  # atno 17394 bound_to 11000
  141.2037  133.6634  156.6081 LP  0  0  0  0  0  0  0  0  0  0  0  0  # atno 17395 bound_to 11000

$$$$
