AV-unprocessed.smi:2314|AV-procd|sdf|9267|dock8
  -GOLD-   2272012493D 1   1.00000     0.00000
 Structure written by MMmdl.
 37 38  0  0  0  0  0  0  0  0  1 V2000
  152.1284  142.7557  162.0499 C   0  0  0  0  0  0  0  0  0  0  0  0
  152.5357  141.9366  160.8119 C   0  0  0  0  0  0  0  0  0  0  0  0
  153.9579  141.3695  160.9440 C   0  0  0  0  0  0  0  0  0  0  0  0
  152.4045  142.6962  159.5605 N   0  0  0  0  0  0  0  0  0  0  0  0
  151.8095  144.0222  159.5111 C   0  0  0  0  0  0  0  0  0  0  0  0
  152.1034  144.5337  158.0974 C   0  0  0  0  0  0  0  0  0  0  0  0
  152.5177  143.3112  157.2625 C   0  0  2  0  0  0  0  0  0  0  0  0
  151.4027  142.8829  156.4208 N   0  0  0  0  0  0  0  0  0  0  0  0
  151.4034  141.8018  155.6276 C   0  0  0  0  0  0  0  0  0  0  0  0
  152.3778  141.0642  155.4797 O   0  0  0  0  0  0  0  0  0  0  0  0
  150.2206  141.6470  155.0105 N   0  0  0  0  0  0  0  0  0  0  0  0
  149.8552  140.6112  154.1127 C   0  0  0  0  0  0  0  0  0  0  0  0
  150.6458  139.4437  154.0853 C   0  0  0  0  0  0  0  0  0  0  0  0
  150.3064  138.4175  153.1810 C   0  0  0  0  0  0  0  0  0  0  0  0
  149.2673  138.4978  152.3232 N   0  0  0  0  0  0  0  0  0  0  0  0
  148.5282  139.6277  152.3332 C   0  0  0  0  0  0  0  0  0  0  0  0
  148.7810  140.7145  153.1948 C   0  0  0  0  0  0  0  0  0  0  0  0
  148.0217  141.8329  153.1054 F   0  0  0  0  0  0  0  0  0  0  0  0
  152.7794  142.2677  158.3473 C   0  0  0  0  0  0  0  0  0  0  0  0
  153.2942  141.1774  158.1003 O   0  0  0  0  0  0  0  0  0  0  0  0
  152.1523  142.1370  162.9475 H   0  0  0  0  0  0  0  0  0  0  0  0
  151.1144  143.1434  161.9497 H   0  0  0  0  0  0  0  0  0  0  0  0
  152.7983  143.5991  162.2193 H   0  0  0  0  0  0  0  0  0  0  0  0
  151.8475  141.0909  160.7625 H   0  0  0  0  0  0  0  0  0  0  0  0
  154.0576  140.7684  161.8481 H   0  0  0  0  0  0  0  0  0  0  0  0
  154.6996  142.1673  160.9911 H   0  0  0  0  0  0  0  0  0  0  0  0
  154.2095  140.7300  160.0970 H   0  0  0  0  0  0  0  0  0  0  0  0
  150.7335  143.9469  159.6745 H   0  0  0  0  0  0  0  0  0  0  0  0
  152.2297  144.6809  160.2722 H   0  0  0  0  0  0  0  0  0  0  0  0
  151.2567  145.0772  157.6753 H   0  0  0  0  0  0  0  0  0  0  0  0
  152.9379  145.2353  158.1380 H   0  0  0  0  0  0  0  0  0  0  0  0
  153.4174  143.5133  156.6785 H   0  0  0  0  0  0  0  0  0  0  0  0
  150.5585  143.4341  156.4731 H   0  0  0  0  0  0  0  0  0  0  0  0
  149.5517  142.3951  155.1177 H   0  0  0  0  0  0  0  0  0  0  0  0
  151.4901  139.3281  154.7489 H   0  0  0  0  0  0  0  0  0  0  0  0
  150.8878  137.5083  153.1442 H   0  0  0  0  0  0  0  0  0  0  0  0
  147.7176  139.6738  151.6211 H   0  0  0  0  0  0  0  0  0  0  0  0
  1  2  1  0  0  0  0
  1 21  1  0  0  0  0
  1 22  1  0  0  0  0
  1 23  1  0  0  0  0
  2  3  1  0  0  0  0
  2  4  1  0  0  0  0
  2 24  1  0  0  0  0
  3 25  1  0  0  0  0
  3 26  1  0  0  0  0
  3 27  1  0  0  0  0
  4 19  1  0  0  0  0
  4  5  1  0  0  0  0
  5  6  1  0  0  0  0
  5 28  1  0  0  0  0
  5 29  1  0  0  0  0
  6  7  1  0  0  0  0
  6 30  1  0  0  0  0
  6 31  1  0  0  0  0
  7  8  1  0  0  0  0
  7 19  1  0  0  0  0
  7 32  1  0  0  0  0
  8  9  1  0  0  0  0
  8 33  1  0  0  0  0
  9 10  2  0  0  0  0
  9 11  1  0  0  0  0
 11 12  1  0  0  0  0
 11 34  1  0  0  0  0
 12 17  1  0  0  0  0
 12 13  2  0  0  0  0
 13 14  1  0  0  0  0
 13 35  1  0  0  0  0
 14 15  2  0  0  0  0
 14 36  1  0  0  0  0
 15 16  1  0  0  0  0
 16 17  2  0  0  0  0
 16 37  1  0  0  0  0
 17 18  1  0  0  0  0
 19 20  2  0  0  0  0
M  END
> <s_m_source_file>
AV-unprocessed.smi

> <i_m_source_file_index>
2314

> <i_lp_mmshare_version>
43012

> <i_f3d_flags>
0

> <s_epik_input>
W0NIM11bQ0hdKFtDSDNdKU4xW0NIMl1bQ0gyXVtDQEhdKEMxPU8pW05IXUMoPU8pW05IXWMyW2NIXVtjSF1uW2NIXWMyRg==

> <s_epik_cmdline>
J2VwaWtfcHl0aG9uJywgJy1waCcsICc3LjAnLCAnLXRuJywgJzgnLCAnLW1hJywgJzIwMCcsICctbWV0YWxfYmluZGluZycsICctaW1hZScsICc8aW5maWxlLm1hZT4nLCAnLW9tYWUnLCAnPG91dGZpbGUubWFlPic=

> <r_epik_Ionization_Penalty>
0.00267735

> <r_epik_Ionization_Penalty_Charging>
0

> <r_epik_Ionization_Penalty_Neutral>
0.00267735

> <r_epik_State_Penalty>
0.00184148

> <r_epik_Charging_Adjusted_Penalty>
0.00184148

> <i_epik_Tot_Q>
0

> <i_epik_Tot_abs_Q>
0

> <r_epik_Metal_State_Penalty>
-0

> <b_epik_Metal_Only>
0

> <s_lp_Force_Field>
OPLS_2005

> <r_lp_Energy>
28.4638

> <b_lp_Chiralities_Consistent>
1

> <s_lp_Variant>
AV-unprocessed.smi:2314-2

> <Gold.Version>
5.8.1

> <Gold.Id.Protein>
6NUR|6NUR_protein|mol2

> <Gold.PLP.Fitness>
54.1876

> <Gold.PLP.PLP>
-42.4000

> <Gold.PLP.part.hbond>
-3.7876

> <Gold.PLP.part.metal>
0.0000

> <Gold.PLP.part.buried>
-0.4502

> <Gold.PLP.part.nonpolar>
-37.0697

> <Gold.PLP.part.repulsive>
0.4653

> <Gold.PLP.ligand.clash>
0.0000

> <Gold.PLP.ligand.torsion>
0.2487

> <Gold.PLP.Chemscore.Hbond>
2.0280

> <Gold.PLP.Chemscore.CHOScore>
2.0000

> <Gold.PLP.Chemscore.Metal>
0.0000

> <Gold.Chemscore.Hbonds>
donor molecule, donor type, donor heavy atom, donor atom, acceptor molecule, acceptor atom, score
      L1  H     8    33       P1  8028  0.46
      P1  H  7989  7998       L1    10  0.05
      P1  H  7997  8008       L1    20  0.40
      L1  C    14    36       P1  7948  0.04
      L1  C    14    36       P1  7949  0.92

> <Gold.PLP.Chemscore.Internal.Correction>
0.2012

> <Gold.Rescore>
     Score         DG    S(hbond)    S(metal)    S(lipo)     H(rot)  DE(clash)    DE(int)     intcor
     15.44     -21.70       2.28        0.00     101.10       1.26       3.50       2.76       ----

> <Gold.Chemscore.Fitness>
15.4378

> <Gold.Chemscore.DG>
-21.6995

> <Gold.Chemscore.ZeroCoef>
-5.4800

> <Gold.Chemscore.Hbond>
2.2824

> <Gold.Chemscore.Metal>
0.0000

> <Gold.Chemscore.Lipo>
101.0991

> <Gold.Chemscore.Internal_Hbond>
0.0000

> <Gold.Chemscore.DEClash>
3.5003

> <Gold.Chemscore.DEInternal>
2.7613

> <Gold.Chemscore.Rot>
1.2626

> <Gold.Chemscore.Internal.Correction>
   9.000000E+99

> <Gold.Chemscore.Hbonds>
donor molecule, donor type, donor heavy atom, donor atom, acceptor molecule, acceptor atom, score
      L1  H     8    33       P1  8028  0.45
      L1  H    11    34       P1  8028  0.03
      P1  H  7997  8008       L1    20  0.38

> <Gold.Chemscore.Hbond.Weighted>
-7.6231

> <Gold.Chemscore.Metal.Weighted>
-0.0000

> <Gold.Chemscore.Lipo.Weighted>
-11.8286

> <Gold.Chemscore.Internal_Hbond.Weighted>
0.0000

> <Gold.Chemscore.DEClash.Weighted>
3.5003

> <Gold.Chemscore.DEInternal.Weighted>
2.7613

> <Gold.Chemscore.Rot.Weighted>
3.2322

> <Gold.Chemscore.Internal.Correction.Weighted>
   9.000000E+99

> <Gold.Protein.RotatedTorsions>
[ 6907 6896 6895 6894 ] final   62.43 input  -60.11 | X-H torsion
[ 7974 7965 7964 7962 ] final  104.94 input  175.53 | X-H torsion
[ 8008 7997 7996 7995 ] final  -78.80 input   59.86 | X-H torsion
[ 10167 10162 10161 10158 ] final   -6.17 input  -65.29 | X-H torsion
[ 10718 10713 10712 10709 ] final  -68.19 input   66.30 | X-H torsion
[ 10763 10752 10751 10750 ] final -117.58 input  -60.55 | X-H torsion
[ 11005 11000 10999 10996 ] final  -42.79 input  -57.11 | X-H torsion

> <Gold.Protein.ActiveResidues>
 VAL166  LYS551  ARG553  GLY616  TRP617  ASP618  TYR619  PRO620  LYS621  CYS622 
 ASP623  PHE694  ASN695  SER759  ASP760  ASP761  ALA762  ILE779  LEU786  VAL792 
 PHE793  MET794  SER795  GLU796  ALA797  LYS798  CYS799  TRP800  GLU811  SER814 

> <Gold.Protein.RotatedAtoms>
  152.4172  134.6021  160.0002 H   0  0  0  0  0  0  0  0  0  0  0  0  # atno 6907 bound_to 6896
  151.6181  133.3336  159.3090 H   0  0  0  0  0  0  0  0  0  0  0  0  # atno 6908 bound_to 6896
  150.8060  134.7224  159.6710 H   0  0  0  0  0  0  0  0  0  0  0  0  # atno 6909 bound_to 6896
  145.3262  139.2499  143.3685 H   0  0  0  0  0  0  0  0  0  0  0  0  # atno 7974 bound_to 7965
  154.5724  140.0688  156.8984 H   0  0  0  0  0  0  0  0  0  0  0  0  # atno 8008 bound_to 7997
  155.2610  140.3358  155.4255 H   0  0  0  0  0  0  0  0  0  0  0  0  # atno 8009 bound_to 7997
  156.2128  140.1766  156.7641 H   0  0  0  0  0  0  0  0  0  0  0  0  # atno 8010 bound_to 7997
  140.6988  143.6224  150.8599 H   0  0  0  0  0  0  0  0  0  0  0  0  # atno 10167 bound_to 10162
  156.0518  130.4290  150.1964 H   0  0  0  0  0  0  0  0  0  0  0  0  # atno 10718 bound_to 10713
  154.8559  135.4304  154.2002 H   0  0  0  0  0  0  0  0  0  0  0  0  # atno 10763 bound_to 10752
  153.3051  135.6971  153.7173 H   0  0  0  0  0  0  0  0  0  0  0  0  # atno 10764 bound_to 10752
  153.6288  135.3488  155.3009 H   0  0  0  0  0  0  0  0  0  0  0  0  # atno 10765 bound_to 10752
  141.0340  133.6808  156.2643 H   0  0  0  0  0  0  0  0  0  0  0  0  # atno 11005 bound_to 11000
  146.3063  140.3830  142.8686 LP  0  0  0  0  0  0  0  0  0  0  0  0  # atno 17320 bound_to 7965
  144.8900  140.7512  143.5932 LP  0  0  0  0  0  0  0  0  0  0  0  0  # atno 17321 bound_to 7965
  139.9945  143.5811  152.2898 LP  0  0  0  0  0  0  0  0  0  0  0  0  # atno 17342 bound_to 10162
  139.6478  144.7659  151.2208 LP  0  0  0  0  0  0  0  0  0  0  0  0  # atno 17343 bound_to 10162
  157.0046  130.9932  151.3382 LP  0  0  0  0  0  0  0  0  0  0  0  0  # atno 17370 bound_to 10713
  157.5452  130.8146  149.8077 LP  0  0  0  0  0  0  0  0  0  0  0  0  # atno 17371 bound_to 10713
  140.6356  134.5219  157.5564 LP  0  0  0  0  0  0  0  0  0  0  0  0  # atno 17394 bound_to 11000
  139.9227  134.8116  156.1161 LP  0  0  0  0  0  0  0  0  0  0  0  0  # atno 17395 bound_to 11000

$$$$
