AV-unprocessed.smi:3237|AV-procd|sdf|12363|dock4
  -GOLD-   2272018223D 1   1.00000     0.00000
 Structure written by MMmdl.
 37 39  0  0  0  0  0  0  0  0  2 V2000
  138.1056  137.3911  155.7360 C   0  0  0  0  0  0  0  0  0  0  0  0
  139.4771  137.8086  155.3294 C   0  0  0  0  0  0  0  0  0  0  0  0
  140.2871  137.4514  154.2887 C   0  0  0  0  0  0  0  0  0  0  0  0
  141.4566  138.2350  154.5111 C   0  0  0  0  0  0  0  0  0  0  0  0
  142.6262  138.2475  153.7078 N   0  0  0  0  0  0  0  0  0  0  0  0
  143.4184  137.2156  153.3715 C   0  0  0  0  0  0  0  0  0  0  0  0
  143.2528  136.0454  153.7153 O   0  0  0  0  0  0  0  0  0  0  0  0
  144.4396  137.6164  152.6008 N   0  0  0  0  0  0  0  0  0  0  0  0
  145.4773  136.7337  152.0785 C   0  0  2  0  0  0  0  0  0  0  0  0
  144.9533  135.5855  151.2114 C   0  0  0  0  0  0  0  0  0  0  0  0
  145.9703  134.4501  151.4182 C   0  0  0  0  0  0  0  0  0  0  0  0
  146.8822  134.8826  152.5029 N   0  3  2  0  0  0  0  0  0  0  0  0
  147.3228  133.7930  153.3989 C   0  0  0  0  0  0  0  0  0  0  0  0
  148.6663  134.0449  154.0399 C   0  0  0  0  0  0  0  0  0  0  0  0
  148.5435  133.0579  152.8992 C   0  0  0  0  0  0  0  0  0  0  0  0
  146.2146  135.9995  153.1940 C   0  0  0  0  0  0  0  0  0  0  0  0
  141.3618  138.9973  155.5849 N   0  0  0  0  0  0  0  0  0  0  0  0
  140.0958  138.7284  156.1176 O   0  0  0  0  0  0  0  0  0  0  0  0
  137.5988  136.8743  154.9209 H   0  0  0  0  0  0  0  0  0  0  0  0
  137.5027  138.2559  156.0139 H   0  0  0  0  0  0  0  0  0  0  0  0
  138.1457  136.7163  156.5910 H   0  0  0  0  0  0  0  0  0  0  0  0
  140.0617  136.7433  153.5058 H   0  0  0  0  0  0  0  0  0  0  0  0
  142.8935  139.1542  153.3541 H   0  0  0  0  0  0  0  0  0  0  0  0
  144.5037  138.5956  152.3622 H   0  0  0  0  0  0  0  0  0  0  0  0
  146.2028  137.3164  151.5067 H   0  0  0  0  0  0  0  0  0  0  0  0
  143.9708  135.2620  151.5591 H   0  0  0  0  0  0  0  0  0  0  0  0
  144.8549  135.8726  150.1639 H   0  0  0  0  0  0  0  0  0  0  0  0
  145.4522  133.5262  151.6804 H   0  0  0  0  0  0  0  0  0  0  0  0
  146.5500  134.2601  150.5146 H   0  0  0  0  0  0  0  0  0  0  0  0
  146.5417  133.2620  153.9405 H   0  0  0  0  0  0  0  0  0  0  0  0
  149.1669  134.9897  153.8347 H   0  0  0  0  0  0  0  0  0  0  0  0
  148.8319  133.6379  155.0354 H   0  0  0  0  0  0  0  0  0  0  0  0
  148.6278  132.0010  153.1437 H   0  0  0  0  0  0  0  0  0  0  0  0
  148.9613  133.3471  151.9364 H   0  0  0  0  0  0  0  0  0  0  0  0
  146.9319  136.6363  153.7132 H   0  0  0  0  0  0  0  0  0  0  0  0
  145.5081  135.6090  153.9293 H   0  0  0  0  0  0  0  0  0  0  0  0
  147.7012  135.2685  152.0553 H   0  0  0  0  0  0  0  0  0  0  0  0
  1  2  1  0  0  0  0
  1 19  1  0  0  0  0
  1 20  1  0  0  0  0
  1 21  1  0  0  0  0
  2 18  1  0  0  0  0
  2  3  2  0  0  0  0
  3  4  1  0  0  0  0
  3 22  1  0  0  0  0
  4  5  1  0  0  0  0
  4 17  2  0  0  0  0
  5  6  1  0  0  0  0
  5 23  1  0  0  0  0
  6  7  2  0  0  0  0
  6  8  1  0  0  0  0
  8  9  1  0  0  0  0
  8 24  1  0  0  0  0
  9 16  1  0  0  0  0
  9 10  1  0  0  0  0
  9 25  1  0  0  0  0
 10 11  1  0  0  0  0
 10 26  1  0  0  0  0
 10 27  1  0  0  0  0
 11 12  1  0  0  0  0
 11 28  1  0  0  0  0
 11 29  1  0  0  0  0
 12 13  1  0  0  0  0
 12 16  1  0  0  0  0
 12 37  1  0  0  0  0
 13 15  1  0  0  0  0
 13 14  1  0  0  0  0
 13 30  1  0  0  0  0
 14 15  1  0  0  0  0
 14 31  1  0  0  0  0
 14 32  1  0  0  0  0
 15 33  1  0  0  0  0
 15 34  1  0  0  0  0
 16 35  1  0  0  0  0
 16 36  1  0  0  0  0
 17 18  1  0  0  0  0
M  CHG  1  12   1
M  END
> <s_m_source_file>
AV-unprocessed.smi

> <i_m_source_file_index>
3237

> <i_lp_mmshare_version>
43012

> <i_f3d_flags>
0

> <s_epik_input>
W0NIM11jMVtjSF1jKG5vMSlbTkhdQyg9TylbTkhdW0NAQEhdMltDSDJdW0NIMl1OKFtDSDJdMilbQ0hdM1tDSDJdW0NIMl0z

> <s_epik_cmdline>
J2VwaWtfcHl0aG9uJywgJy1waCcsICc3LjAnLCAnLXRuJywgJzgnLCAnLW1hJywgJzIwMCcsICctbWV0YWxfYmluZGluZycsICctaW1hZScsICc8aW5maWxlLm1hZT4nLCAnLW9tYWUnLCAnPG91dGZpbGUubWFlPic=

> <r_epik_Ionization_Penalty>
0.000720579

> <r_epik_Ionization_Penalty_Charging>
0.000680516

> <r_epik_Ionization_Penalty_Neutral>
4.00628e-05

> <r_epik_State_Penalty>
0.000432256

> <r_epik_Charging_Adjusted_Penalty>
0.00111277

> <i_epik_Tot_Q>
1

> <i_epik_Tot_abs_Q>
1

> <r_epik_Metal_State_Penalty>
0.0255091

> <b_epik_Metal_Only>
0

> <s_lp_Force_Field>
OPLS_2005

> <r_lp_Energy>
35.4942

> <b_lp_Chiralities_Consistent>
1

> <s_lp_Variant>
AV-unprocessed.smi:3237-1

> <Gold.Version>
5.8.1

> <Gold.Id.Protein>
6NUR|6NUR_protein|mol2

> <Gold.PLP.Fitness>
42.4110

> <Gold.PLP.PLP>
-31.7221

> <Gold.PLP.part.hbond>
-4.0000

> <Gold.PLP.part.metal>
0.0000

> <Gold.PLP.part.buried>
-4.5897

> <Gold.PLP.part.nonpolar>
-23.9500

> <Gold.PLP.part.repulsive>
0.3292

> <Gold.PLP.ligand.clash>
0.0000

> <Gold.PLP.ligand.torsion>
1.1556

> <Gold.PLP.Chemscore.Hbond>
3.9120

> <Gold.PLP.Chemscore.CHOScore>
0.0000

> <Gold.PLP.Chemscore.Metal>
0.0000

> <Gold.Chemscore.Hbonds>
donor molecule, donor type, donor heavy atom, donor atom, acceptor molecule, acceptor atom, score
      L1  H     5    23       P1 10175  1.00
      L1  H     8    24       P1 10175  0.96
      L1  H    12    37       P1  7948  2.00

> <Gold.PLP.Chemscore.Internal.Correction>
1.2641

> <Gold.Rescore>
     Score         DG    S(hbond)    S(metal)    S(lipo)     H(rot)  DE(clash)    DE(int)     intcor
     16.57     -18.84       2.97        0.00      57.05       1.26       0.01       2.26       ----

> <Gold.Chemscore.Fitness>
16.5682

> <Gold.Chemscore.DG>
-18.8391

> <Gold.Chemscore.ZeroCoef>
-5.4800

> <Gold.Chemscore.Hbond>
2.9665

> <Gold.Chemscore.Metal>
0.0000

> <Gold.Chemscore.Lipo>
57.0496

> <Gold.Chemscore.Internal_Hbond>
0.0000

> <Gold.Chemscore.DEClash>
0.0149

> <Gold.Chemscore.DEInternal>
2.2560

> <Gold.Chemscore.Rot>
1.2593

> <Gold.Chemscore.Internal.Correction>
   9.000000E+99

> <Gold.Chemscore.Hbonds>
donor molecule, donor type, donor heavy atom, donor atom, acceptor molecule, acceptor atom, score
      L1  H     5    23       P1 10175  1.00
      L1  H     8    24       P1 10175  0.86
      L1  H    12    37       P1  7948  0.92

> <Gold.Chemscore.Hbond.Weighted>
-9.9080

> <Gold.Chemscore.Metal.Weighted>
-0.0000

> <Gold.Chemscore.Lipo.Weighted>
-6.6748

> <Gold.Chemscore.Internal_Hbond.Weighted>
0.0000

> <Gold.Chemscore.DEClash.Weighted>
0.0149

> <Gold.Chemscore.DEInternal.Weighted>
2.2560

> <Gold.Chemscore.Rot.Weighted>
3.2237

> <Gold.Chemscore.Internal.Correction.Weighted>
   9.000000E+99

> <Gold.Protein.RotatedTorsions>
[ 6907 6896 6895 6894 ] final  -37.28 input  -60.11 | X-H torsion
[ 7974 7965 7964 7962 ] final -161.44 input  175.53 | X-H torsion
[ 8008 7997 7996 7995 ] final  -21.80 input   59.86 | X-H torsion
[ 10167 10162 10161 10158 ] final    4.24 input  -65.29 | X-H torsion
[ 10718 10713 10712 10709 ] final  173.93 input   66.30 | X-H torsion
[ 10763 10752 10751 10750 ] final  -96.85 input  -60.55 | X-H torsion
[ 11005 11000 10999 10996 ] final -141.40 input  -57.11 | X-H torsion

> <Gold.Protein.ActiveResidues>
 VAL166  LYS551  ARG553  GLY616  TRP617  ASP618  TYR619  PRO620  LYS621  CYS622 
 ASP623  PHE694  ASN695  SER759  ASP760  ASP761  ALA762  ILE779  LEU786  VAL792 
 PHE793  MET794  SER795  GLU796  ALA797  LYS798  CYS799  TRP800  GLU811  SER814 

> <Gold.Protein.RotatedAtoms>
  151.0166  134.9438  159.8036 H   0  0  0  0  0  0  0  0  0  0  0  0  # atno 6907 bound_to 6896
  152.5315  134.2958  159.9070 H   0  0  0  0  0  0  0  0  0  0  0  0  # atno 6908 bound_to 6896
  151.2965  133.4100  159.2671 H   0  0  0  0  0  0  0  0  0  0  0  0  # atno 6909 bound_to 6896
  144.7391  140.3396  143.6137 H   0  0  0  0  0  0  0  0  0  0  0  0  # atno 7974 bound_to 7965
  154.4683  140.2025  156.0060 H   0  0  0  0  0  0  0  0  0  0  0  0  # atno 8008 bound_to 7997
  156.0966  140.3250  155.7857 H   0  0  0  0  0  0  0  0  0  0  0  0  # atno 8009 bound_to 7997
  155.4867  140.0543  157.2950 H   0  0  0  0  0  0  0  0  0  0  0  0  # atno 8010 bound_to 7997
  140.6545  143.7462  150.7630 H   0  0  0  0  0  0  0  0  0  0  0  0  # atno 10167 bound_to 10162
  156.9570  131.0049  151.2936 H   0  0  0  0  0  0  0  0  0  0  0  0  # atno 10718 bound_to 10713
  154.7276  135.5068  153.8912 H   0  0  0  0  0  0  0  0  0  0  0  0  # atno 10763 bound_to 10752
  153.0920  135.6662  153.9845 H   0  0  0  0  0  0  0  0  0  0  0  0  # atno 10764 bound_to 10752
  153.9654  135.3043  155.3410 H   0  0  0  0  0  0  0  0  0  0  0  0  # atno 10765 bound_to 10752
  140.8328  134.2496  157.4848 H   0  0  0  0  0  0  0  0  0  0  0  0  # atno 11005 bound_to 11000
  145.7388  139.1758  143.2388 LP  0  0  0  0  0  0  0  0  0  0  0  0  # atno 17320 bound_to 7965
  146.1150  140.7381  142.9485 LP  0  0  0  0  0  0  0  0  0  0  0  0  # atno 17321 bound_to 7965
  140.1119  143.4691  152.2365 LP  0  0  0  0  0  0  0  0  0  0  0  0  # atno 17342 bound_to 10162
  139.5765  144.7490  151.3751 LP  0  0  0  0  0  0  0  0  0  0  0  0  # atno 17343 bound_to 10162
  157.5683  130.8293  149.8358 LP  0  0  0  0  0  0  0  0  0  0  0  0  # atno 17370 bound_to 10713
  156.0338  130.3757  150.1615 LP  0  0  0  0  0  0  0  0  0  0  0  0  # atno 17371 bound_to 10713
  139.8704  134.9595  156.4334 LP  0  0  0  0  0  0  0  0  0  0  0  0  # atno 17394 bound_to 11000
  140.8979  133.7800  155.9647 LP  0  0  0  0  0  0  0  0  0  0  0  0  # atno 17395 bound_to 11000

$$$$
