AV-unprocessed.smi:2878|AV-procd|sdf|11047|dock5
  -GOLD-   2272015513D 1   1.00000     0.00000
 Structure written by MMmdl.
 42 43  0  0  0  0  0  0  0  0  1 V2000
  148.5793  133.0061  153.0965 C   0  0  0  0  0  0  0  0  0  0  0  0
  147.0045  132.5213  153.8535 S   0  0  0  0  0  0  0  0  0  0  0  0
  145.8533  133.6552  153.0125 C   0  0  2  0  0  0  0  0  0  0  0  0
  146.1275  133.6825  151.4963 C   0  0  0  0  0  0  0  0  0  0  0  0
  145.1394  134.6035  150.7633 C   0  0  0  0  0  0  0  0  0  0  0  0
  145.1628  136.0239  151.3472 C   0  0  0  0  0  0  0  0  0  0  0  0
  144.8949  136.0083  152.8621 C   0  0  0  0  0  0  0  0  0  0  0  0
  145.8703  135.0804  153.6190 C   0  0  2  0  0  0  0  0  0  0  0  0
  147.2250  135.6342  153.6199 N   0  0  0  0  0  0  0  0  0  0  0  0
  147.9278  135.9609  154.7128 C   0  0  0  0  0  0  0  0  0  0  0  0
  147.5055  135.8509  155.8640 O   0  0  0  0  0  0  0  0  0  0  0  0
  149.1470  136.4215  154.4011 N   0  0  0  0  0  0  0  0  0  0  0  0
  150.1419  136.8680  155.3698 C   0  0  0  0  0  0  0  0  0  0  0  0
  150.9755  138.0419  154.8312 C   0  0  0  0  0  0  0  0  0  0  0  0
  150.1255  139.1889  154.3967 C   0  0  0  0  0  0  0  0  0  0  0  0
  148.8411  139.1516  154.0503 N   0  0  0  0  0  0  0  0  0  0  0  0
  148.5962  140.4702  153.8158 C   0  0  0  0  0  0  0  0  0  0  0  0
  147.2660  140.9827  153.3806 C   0  0  0  0  0  0  0  0  0  0  0  0
  149.6189  141.2939  154.0085 N   0  0  0  0  0  0  0  0  0  0  0  0
  150.6530  140.4367  154.4119 O   0  0  0  0  0  0  0  0  0  0  0  0
  149.3983  132.4485  153.5504 H   0  0  0  0  0  0  0  0  0  0  0  0
  148.7631  134.0701  153.2459 H   0  0  0  0  0  0  0  0  0  0  0  0
  148.5774  132.7971  152.0271 H   0  0  0  0  0  0  0  0  0  0  0  0
  144.8547  133.2388  153.1532 H   0  0  0  0  0  0  0  0  0  0  0  0
  147.1481  134.0173  151.3066 H   0  0  0  0  0  0  0  0  0  0  0  0
  146.0555  132.6739  151.0877 H   0  0  0  0  0  0  0  0  0  0  0  0
  145.3785  134.6349  149.6999 H   0  0  0  0  0  0  0  0  0  0  0  0
  144.1316  134.1938  150.8416 H   0  0  0  0  0  0  0  0  0  0  0  0
  146.1301  136.4867  151.1474 H   0  0  0  0  0  0  0  0  0  0  0  0
  144.4177  136.6425  150.8461 H   0  0  0  0  0  0  0  0  0  0  0  0
  144.9444  137.0224  153.2599 H   0  0  0  0  0  0  0  0  0  0  0  0
  143.8735  135.6680  153.0373 H   0  0  0  0  0  0  0  0  0  0  0  0
  145.5298  135.0141  154.6531 H   0  0  0  0  0  0  0  0  0  0  0  0
  147.6622  135.7588  152.7185 H   0  0  0  0  0  0  0  0  0  0  0  0
  149.4034  136.4722  153.4259 H   0  0  0  0  0  0  0  0  0  0  0  0
  149.6184  137.1714  156.2768 H   0  0  0  0  0  0  0  0  0  0  0  0
  150.7900  136.0352  155.6486 H   0  0  0  0  0  0  0  0  0  0  0  0
  151.6696  138.3986  155.5932 H   0  0  0  0  0  0  0  0  0  0  0  0
  151.5809  137.7162  153.9846 H   0  0  0  0  0  0  0  0  0  0  0  0
  147.3816  141.7044  152.5714 H   0  0  0  0  0  0  0  0  0  0  0  0
  146.7610  141.4722  154.2136 H   0  0  0  0  0  0  0  0  0  0  0  0
  146.6363  140.1664  153.0253 H   0  0  0  0  0  0  0  0  0  0  0  0
  1  2  1  0  0  0  0
  1 21  1  0  0  0  0
  1 22  1  0  0  0  0
  1 23  1  0  0  0  0
  2  3  1  0  0  0  0
  3  8  1  0  0  0  0
  3  4  1  0  0  0  0
  3 24  1  0  0  0  0
  4  5  1  0  0  0  0
  4 25  1  0  0  0  0
  4 26  1  0  0  0  0
  5  6  1  0  0  0  0
  5 27  1  0  0  0  0
  5 28  1  0  0  0  0
  6  7  1  0  0  0  0
  6 29  1  0  0  0  0
  6 30  1  0  0  0  0
  7  8  1  0  0  0  0
  7 31  1  0  0  0  0
  7 32  1  0  0  0  0
  8  9  1  0  0  0  0
  8 33  1  0  0  0  0
  9 10  1  0  0  0  0
  9 34  1  0  0  0  0
 10 11  2  0  0  0  0
 10 12  1  0  0  0  0
 12 13  1  0  0  0  0
 12 35  1  0  0  0  0
 13 14  1  0  0  0  0
 13 36  1  0  0  0  0
 13 37  1  0  0  0  0
 14 15  1  0  0  0  0
 14 38  1  0  0  0  0
 14 39  1  0  0  0  0
 15 20  1  0  0  0  0
 15 16  2  0  0  0  0
 16 17  1  0  0  0  0
 17 18  1  0  0  0  0
 17 19  2  0  0  0  0
 18 40  1  0  0  0  0
 18 41  1  0  0  0  0
 18 42  1  0  0  0  0
 19 20  1  0  0  0  0
M  END
> <s_m_source_file>
AV-unprocessed.smi

> <i_m_source_file_index>
2878

> <i_lp_mmshare_version>
43012

> <i_f3d_flags>
0

> <s_epik_input>
W0NIM11TW0NAQEhdMVtDSDJdW0NIMl1bQ0gyXVtDSDJdW0NASF0xW05IXUMoPU8pW05IXVtDSDJdW0NIMl1jMm5jKFtDSDNdKW5vMg==

> <s_epik_cmdline>
J2VwaWtfcHl0aG9uJywgJy1waCcsICc3LjAnLCAnLXRuJywgJzgnLCAnLW1hJywgJzIwMCcsICctbWV0YWxfYmluZGluZycsICctaW1hZScsICc8aW5maWxlLm1hZT4nLCAnLW9tYWUnLCAnPG91dGZpbGUubWFlPic=

> <r_lp_tautomer_probability>
1

> <r_epik_Ionization_Penalty>
4.9299e-05

> <r_epik_Ionization_Penalty_Charging>
0

> <r_epik_Ionization_Penalty_Neutral>
4.9299e-05

> <r_epik_State_Penalty>
-0

> <r_epik_Charging_Adjusted_Penalty>
0

> <i_epik_Tot_Q>
0

> <i_epik_Tot_abs_Q>
0

> <r_epik_Metal_State_Penalty>
-0

> <b_epik_Metal_Only>
0

> <s_lp_Force_Field>
OPLS_2005

> <r_lp_Energy>
0.628987

> <b_lp_Chiralities_Consistent>
1

> <s_lp_Variant>
AV-unprocessed.smi:2878-3

> <Gold.Version>
5.8.1

> <Gold.Id.Protein>
6NUR|6NUR_protein|mol2

> <Gold.PLP.Fitness>
39.6970

> <Gold.PLP.PLP>
-30.2990

> <Gold.PLP.part.hbond>
-4.7785

> <Gold.PLP.part.metal>
0.0000

> <Gold.PLP.part.buried>
-2.1429

> <Gold.PLP.part.nonpolar>
-23.4715

> <Gold.PLP.part.repulsive>
0.5125

> <Gold.PLP.ligand.clash>
0.0000

> <Gold.PLP.ligand.torsion>
0.6602

> <Gold.PLP.Chemscore.Hbond>
3.5576

> <Gold.PLP.Chemscore.CHOScore>
0.0000

> <Gold.PLP.Chemscore.Metal>
0.0000

> <Gold.Chemscore.Hbonds>
donor molecule, donor type, donor heavy atom, donor atom, acceptor molecule, acceptor atom, score
      L1  H     9    34       P1  7948  0.99
      L1  H    12    35       P1  7948  0.98
      P1  H  7989  7998       L1    20  0.58
      P1  H  8011  8017       L1    19  0.75

> <Gold.PLP.Chemscore.Internal.Correction>
0.0455

> <Gold.Rescore>
     Score         DG    S(hbond)    S(metal)    S(lipo)     H(rot)  DE(clash)    DE(int)     intcor
     13.28     -15.57       2.77        0.00      52.98       2.09       0.22       2.07       ----

> <Gold.Chemscore.Fitness>
13.2789

> <Gold.Chemscore.DG>
-15.5712

> <Gold.Chemscore.ZeroCoef>
-5.4800

> <Gold.Chemscore.Hbond>
2.7690

> <Gold.Chemscore.Metal>
0.0000

> <Gold.Chemscore.Lipo>
52.9817

> <Gold.Chemscore.Internal_Hbond>
0.0000

> <Gold.Chemscore.DEClash>
0.2241

> <Gold.Chemscore.DEInternal>
2.0682

> <Gold.Chemscore.Rot>
2.0923

> <Gold.Chemscore.Internal.Correction>
   9.000000E+99

> <Gold.Chemscore.Hbonds>
donor molecule, donor type, donor heavy atom, donor atom, acceptor molecule, acceptor atom, score
      L1  H     9    34       P1  7948  0.93
      L1  H    12    35       P1  7948  0.73
      P1  H  7989  7998       L1    20  0.10
      P1  H  8011  8017       L1    19  0.42

> <Gold.Chemscore.Hbond.Weighted>
-9.2486

> <Gold.Chemscore.Metal.Weighted>
-0.0000

> <Gold.Chemscore.Lipo.Weighted>
-6.1989

> <Gold.Chemscore.Internal_Hbond.Weighted>
0.0000

> <Gold.Chemscore.DEClash.Weighted>
0.2241

> <Gold.Chemscore.DEInternal.Weighted>
2.0682

> <Gold.Chemscore.Rot.Weighted>
5.3562

> <Gold.Chemscore.Internal.Correction.Weighted>
   9.000000E+99

> <Gold.Protein.RotatedTorsions>
[ 6907 6896 6895 6894 ] final -115.53 input  -60.11 | X-H torsion
[ 7974 7965 7964 7962 ] final    9.34 input  175.53 | X-H torsion
[ 8008 7997 7996 7995 ] final  100.25 input   59.86 | X-H torsion
[ 10167 10162 10161 10158 ] final  162.01 input  -65.29 | X-H torsion
[ 10718 10713 10712 10709 ] final  -48.89 input   66.30 | X-H torsion
[ 10763 10752 10751 10750 ] final  -29.14 input  -60.55 | X-H torsion
[ 11005 11000 10999 10996 ] final -125.63 input  -57.11 | X-H torsion

> <Gold.Protein.ActiveResidues>
 VAL166  LYS551  ARG553  GLY616  TRP617  ASP618  TYR619  PRO620  LYS621  CYS622 
 ASP623  PHE694  ASN695  SER759  ASP760  ASP761  ALA762  ILE779  LEU786  VAL792 
 PHE793  MET794  SER795  GLU796  ALA797  LYS798  CYS799  TRP800  GLU811  SER814 

> <Gold.Protein.RotatedAtoms>
  150.7985  133.8646  159.3241 H   0  0  0  0  0  0  0  0  0  0  0  0  # atno 6907 bound_to 6896
  151.6465  135.1005  160.0161 H   0  0  0  0  0  0  0  0  0  0  0  0  # atno 6908 bound_to 6896
  152.4069  133.6864  159.6399 H   0  0  0  0  0  0  0  0  0  0  0  0  # atno 6909 bound_to 6896
  146.2405  139.9798  142.8437 H   0  0  0  0  0  0  0  0  0  0  0  0  # atno 7974 bound_to 7965
  156.1185  140.3216  155.8174 H   0  0  0  0  0  0  0  0  0  0  0  0  # atno 8008 bound_to 7997
  155.4546  140.0535  157.3014 H   0  0  0  0  0  0  0  0  0  0  0  0  # atno 8009 bound_to 7997
  154.4810  140.2053  155.9777 H   0  0  0  0  0  0  0  0  0  0  0  0  # atno 8010 bound_to 7997
  139.4855  144.4480  151.8867 H   0  0  0  0  0  0  0  0  0  0  0  0  # atno 10167 bound_to 10162
  156.1945  130.4154  149.9325 H   0  0  0  0  0  0  0  0  0  0  0  0  # atno 10718 bound_to 10713
  153.7598  135.6920  153.4928 H   0  0  0  0  0  0  0  0  0  0  0  0  # atno 10763 bound_to 10752
  153.1946  135.4458  155.0190 H   0  0  0  0  0  0  0  0  0  0  0  0  # atno 10764 bound_to 10752
  154.8157  135.3398  154.7114 H   0  0  0  0  0  0  0  0  0  0  0  0  # atno 10765 bound_to 10752
  140.9747  134.0757  157.3832 H   0  0  0  0  0  0  0  0  0  0  0  0  # atno 11005 bound_to 11000
  145.1603  140.9669  143.4381 LP  0  0  0  0  0  0  0  0  0  0  0  0  # atno 17320 bound_to 7965
  145.0123  139.3499  143.6114 LP  0  0  0  0  0  0  0  0  0  0  0  0  # atno 17321 bound_to 7965
  140.3935  144.2585  150.5898 LP  0  0  0  0  0  0  0  0  0  0  0  0  # atno 17342 bound_to 10162
  140.5124  143.2287  151.8515 LP  0  0  0  0  0  0  0  0  0  0  0  0  # atno 17343 bound_to 10162
  156.7055  130.8950  151.3604 LP  0  0  0  0  0  0  0  0  0  0  0  0  # atno 17370 bound_to 10713
  157.6949  130.9271  150.0617 LP  0  0  0  0  0  0  0  0  0  0  0  0  # atno 17371 bound_to 10713
  139.8926  135.0125  156.6852 LP  0  0  0  0  0  0  0  0  0  0  0  0  # atno 17394 bound_to 11000
  140.7277  133.9086  155.8190 LP  0  0  0  0  0  0  0  0  0  0  0  0  # atno 17395 bound_to 11000

$$$$
