AV-unprocessed.smi:2567|AV-procd|sdf|10081|dock2
  -GOLD-   2272014103D 1   1.00000     0.00000
 Structure written by MMmdl.
 33 34  0  0  0  0  0  0  0  0  1 V2000
  150.3916  144.1584  159.4733 C   0  0  0  0  0  0  0  0  0  0  0  0
  151.7141  143.6504  158.8665 C   0  0  0  0  0  0  0  0  0  0  0  0
  152.4884  144.8716  158.3221 C   0  0  0  0  0  0  0  0  0  0  0  0
  152.5692  142.9879  159.9637 C   0  0  0  0  0  0  0  0  0  0  0  0
  151.4208  142.6451  157.7783 C   0  0  0  0  0  0  0  0  0  0  0  0
  150.6761  142.9178  156.7010 N   0  0  0  0  0  0  0  0  0  0  0  0
  150.6173  141.8331  155.9010 N   0  0  0  0  0  0  0  0  0  0  0  0
  151.3456  140.9487  156.5794 C   0  0  0  0  0  0  0  0  0  0  0  0
  151.5972  139.5787  156.0304 C   0  0  1  0  0  0  0  0  0  0  0  0
  151.0291  138.4749  156.9438 C   0  0  0  0  0  0  0  0  0  0  0  0
  151.2061  137.1628  156.3232 N   0  0  0  0  0  0  0  0  0  0  0  0
  150.6189  137.1286  154.9843 C   0  0  0  0  0  0  0  0  0  0  0  0
  151.1897  138.2665  154.1185 C   0  0  0  0  0  0  0  0  0  0  0  0
  150.9569  139.5169  154.7579 O   0  0  0  0  0  0  0  0  0  0  0  0
  151.8928  141.4008  157.7493 N   0  0  0  0  0  0  0  0  0  0  0  0
  150.5702  144.8945  160.2577 H   0  0  0  0  0  0  0  0  0  0  0  0
  149.8154  143.3456  159.9168 H   0  0  0  0  0  0  0  0  0  0  0  0
  149.7642  144.6297  158.7158 H   0  0  0  0  0  0  0  0  0  0  0  0
  151.9258  145.3878  157.5433 H   0  0  0  0  0  0  0  0  0  0  0  0
  153.4515  144.5813  157.9002 H   0  0  0  0  0  0  0  0  0  0  0  0
  152.6886  145.5977  159.1110 H   0  0  0  0  0  0  0  0  0  0  0  0
  152.8042  143.6904  160.7640 H   0  0  0  0  0  0  0  0  0  0  0  0
  153.5134  142.6196  159.5607 H   0  0  0  0  0  0  0  0  0  0  0  0
  152.0530  142.1403  160.4161 H   0  0  0  0  0  0  0  0  0  0  0  0
  152.6733  139.4446  155.9006 H   0  0  0  0  0  0  0  0  0  0  0  0
  151.5225  138.4991  157.9156 H   0  0  0  0  0  0  0  0  0  0  0  0
  149.9688  138.6565  157.1257 H   0  0  0  0  0  0  0  0  0  0  0  0
  150.8150  136.1649  154.5141 H   0  0  0  0  0  0  0  0  0  0  0  0
  149.5349  137.2301  155.0517 H   0  0  0  0  0  0  0  0  0  0  0  0
  152.2570  138.1252  153.9410 H   0  0  0  0  0  0  0  0  0  0  0  0
  150.7037  138.2747  153.1428 H   0  0  0  0  0  0  0  0  0  0  0  0
  150.7721  136.4514  156.9028 H   0  0  0  0  0  0  0  0  0  0  0  0
  150.2176  143.7900  156.4801 H   0  0  0  0  0  0  0  0  0  0  0  0
  1  2  1  0  0  0  0
  1 16  1  0  0  0  0
  1 17  1  0  0  0  0
  1 18  1  0  0  0  0
  2  3  1  0  0  0  0
  2  4  1  0  0  0  0
  2  5  1  0  0  0  0
  3 19  1  0  0  0  0
  3 20  1  0  0  0  0
  3 21  1  0  0  0  0
  4 22  1  0  0  0  0
  4 23  1  0  0  0  0
  4 24  1  0  0  0  0
  5 15  2  0  0  0  0
  5  6  1  0  0  0  0
  6  7  1  0  0  0  0
  6 33  1  0  0  0  0
  7  8  2  0  0  0  0
  8  9  1  0  0  0  0
  8 15  1  0  0  0  0
  9 14  1  0  0  0  0
  9 10  1  0  0  0  0
  9 25  1  0  0  0  0
 10 11  1  0  0  0  0
 10 26  1  0  0  0  0
 10 27  1  0  0  0  0
 11 12  1  0  0  0  0
 11 32  1  0  0  0  0
 12 13  1  0  0  0  0
 12 28  1  0  0  0  0
 12 29  1  0  0  0  0
 13 14  1  0  0  0  0
 13 30  1  0  0  0  0
 13 31  1  0  0  0  0
M  END
> <s_m_source_file>
AV-unprocessed.smi

> <i_m_source_file_index>
2567

> <i_lp_mmshare_version>
43012

> <i_f3d_flags>
0

> <s_epik_input>
W0NIM11DKFtDSDNdKShbQ0gzXSljMW5bbkhdYyhuMSlbQ0BASF0yW0NIMl1bTkhdW0NIMl1bQ0gyXU8y

> <s_epik_cmdline>
J2VwaWtfcHl0aG9uJywgJy1waCcsICc3LjAnLCAnLXRuJywgJzgnLCAnLW1hJywgJzIwMCcsICctbWV0YWxfYmluZGluZycsICctaW1hZScsICc8aW5maWxlLm1hZT4nLCAnLW9tYWUnLCAnPG91dGZpbGUubWFlPic=

> <r_lp_tautomer_probability>
0.948284

> <r_epik_Ionization_Penalty>
1.10045

> <r_epik_Ionization_Penalty_Charging>
0

> <r_epik_Ionization_Penalty_Neutral>
1.10045

> <r_epik_State_Penalty>
1.2625

> <r_epik_Charging_Adjusted_Penalty>
1.2625

> <i_epik_Tot_Q>
0

> <i_epik_Tot_abs_Q>
0

> <r_epik_Metal_State_Penalty>
1.57133

> <b_epik_Metal_Only>
0

> <s_lp_Force_Field>
OPLS_2005

> <r_lp_Energy>
14.8987

> <b_lp_Chiralities_Consistent>
1

> <s_lp_Variant>
AV-unprocessed.smi:2567-6

> <Gold.Version>
5.8.1

> <Gold.Id.Protein>
6NUR|6NUR_protein|mol2

> <Gold.PLP.Fitness>
35.9634

> <Gold.PLP.PLP>
-30.0337

> <Gold.PLP.part.hbond>
-2.0000

> <Gold.PLP.part.metal>
0.0000

> <Gold.PLP.part.buried>
-4.6626

> <Gold.PLP.part.nonpolar>
-22.6160

> <Gold.PLP.part.repulsive>
0.2174

> <Gold.PLP.ligand.clash>
0.0000

> <Gold.PLP.ligand.torsion>
0.0450

> <Gold.PLP.Chemscore.Hbond>
2.0000

> <Gold.PLP.Chemscore.CHOScore>
0.0000

> <Gold.PLP.Chemscore.Metal>
0.0000

> <Gold.Chemscore.Hbonds>
donor molecule, donor type, donor heavy atom, donor atom, acceptor molecule, acceptor atom, score
      L1  H     6    33       P1  8028  1.00
      P1  H  7989  7998       L1    14  1.00

> <Gold.PLP.Chemscore.Internal.Correction>
0.0197

> <Gold.Rescore>
     Score         DG    S(hbond)    S(metal)    S(lipo)     H(rot)  DE(clash)    DE(int)     intcor
     16.22     -16.29       1.74        0.00      69.93       1.25       0.02       0.06       ----

> <Gold.Chemscore.Fitness>
16.2155

> <Gold.Chemscore.DG>
-16.2940

> <Gold.Chemscore.ZeroCoef>
-5.4800

> <Gold.Chemscore.Hbond>
1.7423

> <Gold.Chemscore.Metal>
0.0000

> <Gold.Chemscore.Lipo>
69.9301

> <Gold.Chemscore.Internal_Hbond>
0.0000

> <Gold.Chemscore.DEClash>
0.0178

> <Gold.Chemscore.DEInternal>
0.0607

> <Gold.Chemscore.Rot>
1.2450

> <Gold.Chemscore.Internal.Correction>
   9.000000E+99

> <Gold.Chemscore.Hbonds>
donor molecule, donor type, donor heavy atom, donor atom, acceptor molecule, acceptor atom, score
      L1  H     6    33       P1  8028  0.96
      P1  H  7989  7998       L1    14  0.42

> <Gold.Chemscore.Hbond.Weighted>
-5.8194

> <Gold.Chemscore.Metal.Weighted>
-0.0000

> <Gold.Chemscore.Lipo.Weighted>
-8.1818

> <Gold.Chemscore.Internal_Hbond.Weighted>
0.0000

> <Gold.Chemscore.DEClash.Weighted>
0.0178

> <Gold.Chemscore.DEInternal.Weighted>
0.0607

> <Gold.Chemscore.Rot.Weighted>
3.1872

> <Gold.Chemscore.Internal.Correction.Weighted>
   9.000000E+99

> <Gold.Protein.RotatedTorsions>
[ 6907 6896 6895 6894 ] final  109.68 input  -60.11 | X-H torsion
[ 7974 7965 7964 7962 ] final -102.94 input  175.53 | X-H torsion
[ 8008 7997 7996 7995 ] final   24.60 input   59.86 | X-H torsion
[ 10167 10162 10161 10158 ] final  111.25 input  -65.29 | X-H torsion
[ 10718 10713 10712 10709 ] final  115.10 input   66.30 | X-H torsion
[ 10763 10752 10751 10750 ] final  -37.95 input  -60.55 | X-H torsion
[ 11005 11000 10999 10996 ] final  -92.16 input  -57.11 | X-H torsion

> <Gold.Protein.ActiveResidues>
 VAL166  LYS551  ARG553  GLY616  TRP617  ASP618  TYR619  PRO620  LYS621  CYS622 
 ASP623  PHE694  ASN695  SER759  ASP760  ASP761  ALA762  ILE779  LEU786  VAL792 
 PHE793  MET794  SER795  GLU796  ALA797  LYS798  CYS799  TRP800  GLU811  SER814 

> <Gold.Protein.RotatedAtoms>
  152.5056  133.8909  159.7393 H   0  0  0  0  0  0  0  0  0  0  0  0  # atno 6907 bound_to 6896
  150.9348  133.6716  159.2810 H   0  0  0  0  0  0  0  0  0  0  0  0  # atno 6908 bound_to 6896
  151.4048  135.0981  159.9619 H   0  0  0  0  0  0  0  0  0  0  0  0  # atno 6909 bound_to 6896
  145.2623  140.9273  143.3034 H   0  0  0  0  0  0  0  0  0  0  0  0  # atno 7974 bound_to 7965
  154.9988  140.3122  155.4876 H   0  0  0  0  0  0  0  0  0  0  0  0  # atno 8008 bound_to 7997
  156.2928  140.2235  156.5037 H   0  0  0  0  0  0  0  0  0  0  0  0  # atno 8009 bound_to 7997
  154.7637  140.0457  157.0982 H   0  0  0  0  0  0  0  0  0  0  0  0  # atno 8010 bound_to 7997
  139.6625  144.7128  151.1838 H   0  0  0  0  0  0  0  0  0  0  0  0  # atno 10167 bound_to 10162
  157.6242  131.1008  150.7281 H   0  0  0  0  0  0  0  0  0  0  0  0  # atno 10718 bound_to 10713
  153.9047  135.6798  153.4753 H   0  0  0  0  0  0  0  0  0  0  0  0  # atno 10763 bound_to 10752
  153.1110  135.4783  154.9032 H   0  0  0  0  0  0  0  0  0  0  0  0  # atno 10764 bound_to 10752
  154.7557  135.3197  154.8429 H   0  0  0  0  0  0  0  0  0  0  0  0  # atno 10765 bound_to 10752
  141.1528  133.7803  156.9981 H   0  0  0  0  0  0  0  0  0  0  0  0  # atno 11005 bound_to 11000
  144.9408  139.4191  143.6450 LP  0  0  0  0  0  0  0  0  0  0  0  0  # atno 17320 bound_to 7965
  146.3271  139.8366  142.8898 LP  0  0  0  0  0  0  0  0  0  0  0  0  # atno 17321 bound_to 7965
  140.7586  143.5971  150.8737 LP  0  0  0  0  0  0  0  0  0  0  0  0  # atno 17342 bound_to 10162
  139.9630  143.6143  152.2997 LP  0  0  0  0  0  0  0  0  0  0  0  0  # atno 17343 bound_to 10162
  156.7632  130.4805  149.5433 LP  0  0  0  0  0  0  0  0  0  0  0  0  # atno 17370 bound_to 10713
  156.1405  130.6241  151.0460 LP  0  0  0  0  0  0  0  0  0  0  0  0  # atno 17371 bound_to 10713
  140.0958  134.9565  157.1847 LP  0  0  0  0  0  0  0  0  0  0  0  0  # atno 17394 bound_to 11000
  140.3384  134.2731  155.7216 LP  0  0  0  0  0  0  0  0  0  0  0  0  # atno 17395 bound_to 11000

$$$$
