AV-unprocessed.smi:60|AV-procd|sdf|593|dock7
  -GOLD-   2262016483D 1   1.00000     0.00000
 Structure written by MMmdl.
 36 37  0  0  0  0  0  0  0  0  1 V2000
  151.5050  139.9805  154.9281 O   0  0  0  0  0  0  0  0  0  0  0  0
  150.3624  140.3774  155.1510 C   0  0  0  0  0  0  0  0  0  0  0  0
  149.4548  140.4926  154.0936 N   0  0  0  0  0  0  0  0  0  0  0  0
  148.1323  140.9203  154.2017 C   0  0  0  0  0  0  0  0  0  0  0  0
  147.4204  140.9916  153.1999 O   0  0  0  0  0  0  0  0  0  0  0  0
  147.6788  141.2520  155.4953 N   0  0  0  0  0  0  0  0  0  0  0  0
  146.3157  141.7364  155.6204 C   0  0  0  0  0  0  0  0  0  0  0  0
  146.1526  142.8496  154.8026 O   0  0  0  0  0  0  0  0  0  0  0  0
  144.8233  143.3463  154.7955 C   0  0  0  0  0  0  0  0  0  0  0  0
  144.8120  144.7413  154.1591 C   0  0  0  0  0  0  0  0  0  0  0  0
  143.8219  144.8089  153.1553 O   0  0  0  0  0  0  0  0  0  0  0  0
  148.5472  141.1733  156.5711 C   0  0  0  0  0  0  0  0  0  0  0  0
  149.8348  140.7564  156.4668 C   0  0  0  0  0  0  0  0  0  0  0  0
  150.7563  140.6776  157.6751 C   0  0  0  0  0  0  0  0  0  0  0  0
  151.3976  142.0077  158.0282 C   0  0  0  0  0  0  0  0  0  0  0  0
  151.1423  143.1495  157.2392 C   0  0  0  0  0  0  0  0  0  0  0  0
  151.7320  144.3853  157.5694 C   0  0  0  0  0  0  0  0  0  0  0  0
  152.5812  144.4841  158.6882 C   0  0  0  0  0  0  0  0  0  0  0  0
  152.8405  143.3464  159.4768 C   0  0  0  0  0  0  0  0  0  0  0  0
  152.2496  142.1105  159.1482 C   0  0  0  0  0  0  0  0  0  0  0  0
  149.7864  140.2463  153.1723 H   0  0  0  0  0  0  0  0  0  0  0  0
  145.6253  140.9333  155.3509 H   0  0  0  0  0  0  0  0  0  0  0  0
  146.1298  142.0090  156.6610 H   0  0  0  0  0  0  0  0  0  0  0  0
  144.2055  142.6761  154.1955 H   0  0  0  0  0  0  0  0  0  0  0  0
  144.3956  143.3688  155.7996 H   0  0  0  0  0  0  0  0  0  0  0  0
  144.6538  145.5189  154.9070 H   0  0  0  0  0  0  0  0  0  0  0  0
  145.7742  144.9382  153.6859 H   0  0  0  0  0  0  0  0  0  0  0  0
  143.4941  143.9365  152.9973 H   0  0  0  0  0  0  0  0  0  0  0  0
  148.1777  141.4536  157.5474 H   0  0  0  0  0  0  0  0  0  0  0  0
  150.2131  140.2775  158.5326 H   0  0  0  0  0  0  0  0  0  0  0  0
  151.5535  139.9613  157.4729 H   0  0  0  0  0  0  0  0  0  0  0  0
  150.4913  143.0815  156.3800 H   0  0  0  0  0  0  0  0  0  0  0  0
  151.5321  145.2575  156.9647 H   0  0  0  0  0  0  0  0  0  0  0  0
  153.0333  145.4317  158.9414 H   0  0  0  0  0  0  0  0  0  0  0  0
  153.4913  143.4219  160.3355 H   0  0  0  0  0  0  0  0  0  0  0  0
  152.4505  141.2437  159.7608 H   0  0  0  0  0  0  0  0  0  0  0  0
  1  2  2  0  0  0  0
  2 13  1  0  0  0  0
  2  3  1  0  0  0  0
  3 21  1  0  0  0  0
  3  4  1  0  0  0  0
  4  5  2  0  0  0  0
  4  6  1  0  0  0  0
  6  7  1  0  0  0  0
  6 12  1  0  0  0  0
  7  8  1  0  0  0  0
  7 22  1  0  0  0  0
  7 23  1  0  0  0  0
  8  9  1  0  0  0  0
  9 10  1  0  0  0  0
  9 24  1  0  0  0  0
  9 25  1  0  0  0  0
 10 11  1  0  0  0  0
 10 26  1  0  0  0  0
 10 27  1  0  0  0  0
 11 28  1  0  0  0  0
 12 13  2  0  0  0  0
 12 29  1  0  0  0  0
 13 14  1  0  0  0  0
 14 15  1  0  0  0  0
 14 30  1  0  0  0  0
 14 31  1  0  0  0  0
 15 20  1  0  0  0  0
 15 16  2  0  0  0  0
 16 17  1  0  0  0  0
 16 32  1  0  0  0  0
 17 18  2  0  0  0  0
 17 33  1  0  0  0  0
 18 19  1  0  0  0  0
 18 34  1  0  0  0  0
 19 20  2  0  0  0  0
 19 35  1  0  0  0  0
 20 36  1  0  0  0  0
M  END
> <s_m_source_file>
AV-unprocessed.smi

> <i_m_source_file_index>
60

> <i_lp_mmshare_version>
43012

> <i_f3d_flags>
0

> <s_epik_input>
W09IXVtDSDJdW0NIMl1PW0NIMl1uKGMoPU8pW25IXWMxPU8pW2NIXWMxW0NIMl1jMltjSF1bY0hdW2NIXVtjSF1bY0hdMg==

> <s_epik_cmdline>
J2VwaWtfcHl0aG9uJywgJy1waCcsICc3LjAnLCAnLXRuJywgJzgnLCAnLW1hJywgJzIwMCcsICctbWV0YWxfYmluZGluZycsICctaW1hZScsICc8aW5maWxlLm1hZT4nLCAnLW9tYWUnLCAnPG91dGZpbGUubWFlPic=

> <r_lp_tautomer_probability>
0.999537

> <r_epik_Ionization_Penalty>
0.00298861

> <r_epik_Ionization_Penalty_Charging>
0.00298856

> <r_epik_Ionization_Penalty_Neutral>
5.3532e-08

> <r_epik_State_Penalty>
0.00209779

> <r_epik_Charging_Adjusted_Penalty>
0.00508635

> <i_epik_Tot_Q>
0

> <i_epik_Tot_abs_Q>
0

> <r_epik_Metal_State_Penalty>
1.06718

> <b_epik_Metal_Only>
0

> <s_epik_Chemistry_Notes>
This compound contains an acetal/aminal-like group ( X-CH(R)-Y where X, Y are N, S, or O) that may be acid/base labile, releasing an aldehyde.

> <s_lp_Force_Field>
OPLS_2005

> <r_lp_Energy>
6.34754

> <b_lp_Chiralities_Consistent>
1

> <s_lp_Variant>
AV-unprocessed.smi:60-1

> <Gold.Version>
5.8.1

> <Gold.Id.Protein>
6NUR|6NUR_protein|mol2

> <Gold.PLP.Fitness>
47.0185

> <Gold.PLP.PLP>
-40.2774

> <Gold.PLP.part.hbond>
-4.0000

> <Gold.PLP.part.metal>
0.0000

> <Gold.PLP.part.buried>
-5.6774

> <Gold.PLP.part.nonpolar>
-32.1209

> <Gold.PLP.part.repulsive>
1.1812

> <Gold.PLP.ligand.clash>
0.0000

> <Gold.PLP.ligand.torsion>
0.7409

> <Gold.PLP.Chemscore.Hbond>
2.7250

> <Gold.PLP.Chemscore.CHOScore>
0.0000

> <Gold.PLP.Chemscore.Metal>
0.0000

> <Gold.Chemscore.Hbonds>
donor molecule, donor type, donor heavy atom, donor atom, acceptor molecule, acceptor atom, score
      L1  H     3    21       P1  7957  1.00
      L1  H    11    28       P1 10174  1.00
      P1  H  7989  7998       L1     1  0.70

> <Gold.PLP.Chemscore.Internal.Correction>
0.0478

> <Gold.Rescore>
     Score         DG    S(hbond)    S(metal)    S(lipo)     H(rot)  DE(clash)    DE(int)     intcor
     12.62     -14.98       2.20        0.00      90.13       3.28       0.23       2.13       ----

> <Gold.Chemscore.Fitness>
12.6237

> <Gold.Chemscore.DG>
-14.9788

> <Gold.Chemscore.ZeroCoef>
-5.4800

> <Gold.Chemscore.Hbond>
2.2034

> <Gold.Chemscore.Metal>
0.0000

> <Gold.Chemscore.Lipo>
90.1254

> <Gold.Chemscore.Internal_Hbond>
0.0000

> <Gold.Chemscore.DEClash>
0.2279

> <Gold.Chemscore.DEInternal>
2.1272

> <Gold.Chemscore.Rot>
3.2832

> <Gold.Chemscore.Internal.Correction>
   9.000000E+99

> <Gold.Chemscore.Hbonds>
donor molecule, donor type, donor heavy atom, donor atom, acceptor molecule, acceptor atom, score
      L1  H     3    21       P1  7957  0.92
      L1  H    11    28       P1 10174  0.97
      P1  H  7989  7998       L1     1  0.07

> <Gold.Chemscore.Hbond.Weighted>
-7.3592

> <Gold.Chemscore.Metal.Weighted>
-0.0000

> <Gold.Chemscore.Lipo.Weighted>
-10.5447

> <Gold.Chemscore.Internal_Hbond.Weighted>
0.0000

> <Gold.Chemscore.DEClash.Weighted>
0.2279

> <Gold.Chemscore.DEInternal.Weighted>
2.1272

> <Gold.Chemscore.Rot.Weighted>
8.4050

> <Gold.Chemscore.Internal.Correction.Weighted>
   9.000000E+99

> <Gold.Protein.RotatedTorsions>
[ 6907 6896 6895 6894 ] final   47.22 input  -60.11 | X-H torsion
[ 7974 7965 7964 7962 ] final -147.27 input  175.53 | X-H torsion
[ 8008 7997 7996 7995 ] final  173.32 input   59.86 | X-H torsion
[ 10167 10162 10161 10158 ] final -141.96 input  -65.29 | X-H torsion
[ 10718 10713 10712 10709 ] final -160.24 input   66.30 | X-H torsion
[ 10763 10752 10751 10750 ] final  148.71 input  -60.55 | X-H torsion
[ 11005 11000 10999 10996 ] final -167.31 input  -57.11 | X-H torsion

> <Gold.Protein.ActiveResidues>
 VAL166  LYS551  ARG553  GLY616  TRP617  ASP618  TYR619  PRO620  LYS621  CYS622 
 ASP623  PHE694  ASN695  SER759  ASP760  ASP761  ALA762  ILE779  LEU786  VAL792 
 PHE793  MET794  SER795  GLU796  ALA797  LYS798  CYS799  TRP800  GLU811  SER814 

> <Gold.Protein.RotatedAtoms>
  152.2655  134.7988  160.0423 H   0  0  0  0  0  0  0  0  0  0  0  0  # atno 6907 bound_to 6896
  151.8619  133.3453  159.3715 H   0  0  0  0  0  0  0  0  0  0  0  0  # atno 6908 bound_to 6896
  150.7132  134.5125  159.5658 H   0  0  0  0  0  0  0  0  0  0  0  0  # atno 6909 bound_to 6896
  144.8104  140.5348  143.5646 H   0  0  0  0  0  0  0  0  0  0  0  0  # atno 7974 bound_to 7965
  156.1087  140.1463  156.9368 H   0  0  0  0  0  0  0  0  0  0  0  0  # atno 8008 bound_to 7997
  154.4752  140.0897  156.7287 H   0  0  0  0  0  0  0  0  0  0  0  0  # atno 8009 bound_to 7997
  155.4634  140.3439  155.4318 H   0  0  0  0  0  0  0  0  0  0  0  0  # atno 8010 bound_to 7997
  139.8134  143.7671  152.2664 H   0  0  0  0  0  0  0  0  0  0  0  0  # atno 10167 bound_to 10162
  156.5793  130.8722  151.2860 H   0  0  0  0  0  0  0  0  0  0  0  0  # atno 10718 bound_to 10713
  154.0592  135.2875  155.3327 H   0  0  0  0  0  0  0  0  0  0  0  0  # atno 10763 bound_to 10752
  154.6819  135.5260  153.8278 H   0  0  0  0  0  0  0  0  0  0  0  0  # atno 10764 bound_to 10752
  153.0529  135.6584  154.0782 H   0  0  0  0  0  0  0  0  0  0  0  0  # atno 10765 bound_to 10752
  140.5546  134.5394  157.5130 H   0  0  0  0  0  0  0  0  0  0  0  0  # atno 11005 bound_to 11000
  145.5337  139.1475  143.3485 LP  0  0  0  0  0  0  0  0  0  0  0  0  # atno 17320 bound_to 7965
  146.2402  140.5477  142.8937 LP  0  0  0  0  0  0  0  0  0  0  0  0  # atno 17321 bound_to 7965
  139.7827  144.7438  151.0065 LP  0  0  0  0  0  0  0  0  0  0  0  0  # atno 17342 bound_to 10162
  140.7817  143.4525  151.0393 LP  0  0  0  0  0  0  0  0  0  0  0  0  # atno 17343 bound_to 10162
  157.7330  130.9724  150.1957 LP  0  0  0  0  0  0  0  0  0  0  0  0  # atno 17370 bound_to 10713
  156.2645  130.3714  149.8095 LP  0  0  0  0  0  0  0  0  0  0  0  0  # atno 17371 bound_to 10713
  139.9438  134.7739  156.0613 LP  0  0  0  0  0  0  0  0  0  0  0  0  # atno 17394 bound_to 11000
  141.1151  133.6630  156.3074 LP  0  0  0  0  0  0  0  0  0  0  0  0  # atno 17395 bound_to 11000

$$$$
