AV-unprocessed.smi:69|AV-procd|sdf|647|dock2
  -GOLD-   2262016543D 1   1.00000     0.00000
 Structure written by MMmdl.
 32 34  0  0  0  0  0  0  0  0  1 V2000
  152.7529  140.5112  159.2243 N   0  0  0  0  0  0  0  0  0  0  0  0
  152.3866  140.1302  157.9927 C   0  0  0  0  0  0  0  0  0  0  0  0
  153.0855  139.1390  157.3915 N   0  0  0  0  0  0  0  0  0  0  0  0
  152.7431  138.7445  156.1605 C   0  0  0  0  0  0  0  0  0  0  0  0
  151.7570  139.1981  155.3814 N   0  0  0  0  0  0  0  0  0  0  0  0
  151.0499  140.1934  155.9937 C   0  0  0  0  0  0  0  0  0  0  0  0
  151.3050  140.7189  157.2899 C   0  0  0  0  0  0  0  0  0  0  0  0
  150.4016  141.7335  157.5740 N   0  0  0  0  0  0  0  0  0  0  0  0
  149.6617  141.8053  156.4997 C   0  0  0  0  0  0  0  0  0  0  0  0
  149.9626  140.8912  155.5101 N   0  0  0  0  0  0  0  0  0  0  0  0
  149.3348  140.7205  154.1597 C   0  0  2  0  0  0  0  0  0  0  0  0
  148.8042  141.9518  153.7599 O   0  0  0  0  0  0  0  0  0  0  0  0
  147.3806  141.9587  153.8528 C   0  0  2  0  0  0  0  0  0  0  0  0
  146.9349  142.4501  155.2494 C   0  0  0  0  0  0  0  0  0  0  0  0
  145.5282  142.3937  155.3509 O   0  0  0  0  0  0  0  0  0  0  0  0
  147.0438  140.4957  153.5357 C   0  0  2  0  0  0  0  0  0  0  0  0
  145.7722  140.1014  154.0127 O   0  0  0  0  0  0  0  0  0  0  0  0
  148.1647  139.7181  154.2113 C   0  0  1  0  0  0  0  0  0  0  0  0
  148.4406  138.5448  153.4730 O   0  0  0  0  0  0  0  0  0  0  0  0
  150.1610  140.4290  153.5095 H   0  0  0  0  0  0  0  0  0  0  0  0
  146.9580  142.6114  153.0874 H   0  0  0  0  0  0  0  0  0  0  0  0
  147.0829  140.3552  152.4538 H   0  0  0  0  0  0  0  0  0  0  0  0
  147.9116  139.4825  155.2466 H   0  0  0  0  0  0  0  0  0  0  0  0
  152.2481  141.2505  159.6917 H   0  0  0  0  0  0  0  0  0  0  0  0
  153.5309  140.0586  159.6818 H   0  0  0  0  0  0  0  0  0  0  0  0
  153.3441  137.9515  155.7404 H   0  0  0  0  0  0  0  0  0  0  0  0
  148.8654  142.5297  156.4072 H   0  0  0  0  0  0  0  0  0  0  0  0
  147.3253  141.7952  156.0281 H   0  0  0  0  0  0  0  0  0  0  0  0
  147.2940  143.4528  155.4760 H   0  0  0  0  0  0  0  0  0  0  0  0
  145.2016  141.8162  154.6780 H   0  0  0  0  0  0  0  0  0  0  0  0
  145.1554  140.1633  153.2989 H   0  0  0  0  0  0  0  0  0  0  0  0
  149.1193  138.7426  152.8448 H   0  0  0  0  0  0  0  0  0  0  0  0
  1  2  1  0  0  0  0
  1 24  1  0  0  0  0
  1 25  1  0  0  0  0
  2  7  1  0  0  0  0
  2  3  2  0  0  0  0
  3  4  1  0  0  0  0
  4  5  2  0  0  0  0
  4 26  1  0  0  0  0
  5  6  1  0  0  0  0
  6 10  1  0  0  0  0
  6  7  2  0  0  0  0
  7  8  1  0  0  0  0
  8  9  2  0  0  0  0
  9 10  1  0  0  0  0
  9 27  1  0  0  0  0
 10 11  1  0  0  0  0
 11 20  1  0  0  0  0
 11 18  1  0  0  0  0
 11 12  1  0  0  0  0
 12 13  1  0  0  0  0
 13 21  1  0  0  0  0
 13 14  1  0  0  0  0
 13 16  1  0  0  0  0
 14 15  1  0  0  0  0
 14 28  1  0  0  0  0
 14 29  1  0  0  0  0
 15 30  1  0  0  0  0
 16 22  1  0  0  0  0
 16 17  1  0  0  0  0
 16 18  1  0  0  0  0
 17 31  1  0  0  0  0
 18 23  1  0  0  0  0
 18 19  1  0  0  0  0
 19 32  1  0  0  0  0
M  END
> <s_m_source_file>
AV-unprocessed.smi

> <i_m_source_file_index>
69

> <i_lp_mmshare_version>
43012

> <i_f3d_flags>
0

> <s_epik_input>
bjFbY0hdbmMoW05IMl0pYyhjMTIpbltjSF1uMltDQEBIXTNPW0NASF0oW0NIMl1bT0hdKVtDQEBIXShbT0hdKVtDQEhdM1tPSF0=

> <s_epik_cmdline>
J2VwaWtfcHl0aG9uJywgJy1waCcsICc3LjAnLCAnLXRuJywgJzgnLCAnLW1hJywgJzIwMCcsICctbWV0YWxfYmluZGluZycsICctaW1hZScsICc8aW5maWxlLm1hZT4nLCAnLW9tYWUnLCAnPG91dGZpbGUubWFlPic=

> <r_lp_tautomer_probability>
1

> <r_epik_Ionization_Penalty>
0.000428445

> <r_epik_Ionization_Penalty_Charging>
0

> <r_epik_Ionization_Penalty_Neutral>
0.000428445

> <r_epik_State_Penalty>
-0

> <r_epik_Charging_Adjusted_Penalty>
0

> <i_epik_Tot_Q>
0

> <i_epik_Tot_abs_Q>
0

> <r_epik_Metal_State_Penalty>
-0

> <b_epik_Metal_Only>
0

> <s_epik_Chemistry_Notes>
This compound contains an acetal/aminal-like group ( X-CH(R)-Y where X, Y are N, S, or O) that may be acid/base labile, releasing an aldehyde.

> <s_lp_Force_Field>
OPLS_2005

> <r_lp_Energy>
34.8431

> <b_lp_Chiralities_Consistent>
1

> <s_lp_Variant>
AV-unprocessed.smi:69-5

> <Gold.Version>
5.8.1

> <Gold.Id.Protein>
6NUR|6NUR_protein|mol2

> <Gold.PLP.Fitness>
40.0318

> <Gold.PLP.PLP>
-29.3328

> <Gold.PLP.part.hbond>
-5.4541

> <Gold.PLP.part.metal>
0.0000

> <Gold.PLP.part.buried>
-0.4579

> <Gold.PLP.part.nonpolar>
-23.0228

> <Gold.PLP.part.repulsive>
0.3848

> <Gold.PLP.ligand.clash>
0.0000

> <Gold.PLP.ligand.torsion>
0.7409

> <Gold.PLP.Chemscore.Hbond>
3.1498

> <Gold.PLP.Chemscore.CHOScore>
0.8989

> <Gold.PLP.Chemscore.Metal>
0.0000

> <Gold.Chemscore.Hbonds>
donor molecule, donor type, donor heavy atom, donor atom, acceptor molecule, acceptor atom, score
      L1  H    17    31       P1 10175  1.00
      L1  H    19    32       P1  7957  0.56
      P1  H  7997  8008       L1     3  0.45
      P1  H  8011  8017       L1    12  0.48
      L1  C     9    27       P1  8028  1.00

> <Gold.PLP.Chemscore.Internal.Correction>
0.0348

> <Gold.Rescore>
     Score         DG    S(hbond)    S(metal)    S(lipo)     H(rot)  DE(clash)    DE(int)     intcor
      4.81      -5.18       2.00        0.00      28.49       4.03       0.05       0.33       ----

> <Gold.Chemscore.Fitness>
4.8058

> <Gold.Chemscore.DG>
-5.1812

> <Gold.Chemscore.ZeroCoef>
-5.4800

> <Gold.Chemscore.Hbond>
1.9996

> <Gold.Chemscore.Metal>
0.0000

> <Gold.Chemscore.Lipo>
28.4908

> <Gold.Chemscore.Internal_Hbond>
0.0000

> <Gold.Chemscore.DEClash>
0.0498

> <Gold.Chemscore.DEInternal>
0.3255

> <Gold.Chemscore.Rot>
4.0277

> <Gold.Chemscore.Internal.Correction>
   9.000000E+99

> <Gold.Chemscore.Hbonds>
donor molecule, donor type, donor heavy atom, donor atom, acceptor molecule, acceptor atom, score
      L1  H    17    31       P1 10175  0.99
      L1  H    19    32       P1  7957  0.53
      P1  H  8011  8017       L1    12  0.24

> <Gold.Chemscore.Hbond.Weighted>
-6.6787

> <Gold.Chemscore.Metal.Weighted>
-0.0000

> <Gold.Chemscore.Lipo.Weighted>
-3.3334

> <Gold.Chemscore.Internal_Hbond.Weighted>
0.0000

> <Gold.Chemscore.DEClash.Weighted>
0.0498

> <Gold.Chemscore.DEInternal.Weighted>
0.3255

> <Gold.Chemscore.Rot.Weighted>
10.3110

> <Gold.Chemscore.Internal.Correction.Weighted>
   9.000000E+99

> <Gold.Protein.RotatedTorsions>
[ 6907 6896 6895 6894 ] final   29.31 input  -60.11 | X-H torsion
[ 7974 7965 7964 7962 ] final  -52.55 input  175.53 | X-H torsion
[ 8008 7997 7996 7995 ] final  -62.54 input   59.86 | X-H torsion
[ 10167 10162 10161 10158 ] final  -27.65 input  -65.29 | X-H torsion
[ 10718 10713 10712 10709 ] final  111.92 input   66.30 | X-H torsion
[ 10763 10752 10751 10750 ] final   14.49 input  -60.55 | X-H torsion
[ 11005 11000 10999 10996 ] final  -67.45 input  -57.11 | X-H torsion

> <Gold.Protein.ActiveResidues>
 VAL166  LYS551  ARG553  GLY616  TRP617  ASP618  TYR619  PRO620  LYS621  CYS622 
 ASP623  PHE694  ASN695  SER759  ASP760  ASP761  ALA762  ILE779  LEU786  VAL792 
 PHE793  MET794  SER795  GLU796  ALA797  LYS798  CYS799  TRP800  GLU811  SER814 

> <Gold.Protein.RotatedAtoms>
  152.0297  134.9775  160.0572 H   0  0  0  0  0  0  0  0  0  0  0  0  # atno 6907 bound_to 6896
  152.1256  133.4373  159.4704 H   0  0  0  0  0  0  0  0  0  0  0  0  # atno 6908 bound_to 6896
  150.6852  134.2401  159.4512 H   0  0  0  0  0  0  0  0  0  0  0  0  # atno 6909 bound_to 6896
  145.9067  140.7949  142.9716 H   0  0  0  0  0  0  0  0  0  0  0  0  # atno 7974 bound_to 7965
  154.4505  140.0994  156.6603 H   0  0  0  0  0  0  0  0  0  0  0  0  # atno 8008 bound_to 7997
  155.5300  140.3481  155.4406 H   0  0  0  0  0  0  0  0  0  0  0  0  # atno 8009 bound_to 7997
  156.0671  140.1340  156.9862 H   0  0  0  0  0  0  0  0  0  0  0  0  # atno 8010 bound_to 7997
  140.7276  143.4076  151.1160 H   0  0  0  0  0  0  0  0  0  0  0  0  # atno 10167 bound_to 10162
  157.6419  131.0959  150.6820 H   0  0  0  0  0  0  0  0  0  0  0  0  # atno 10718 bound_to 10713
  153.1617  135.6797  153.8733 H   0  0  0  0  0  0  0  0  0  0  0  0  # atno 10763 bound_to 10752
  153.8127  135.3141  155.3403 H   0  0  0  0  0  0  0  0  0  0  0  0  # atno 10764 bound_to 10752
  154.7937  135.4820  154.0200 H   0  0  0  0  0  0  0  0  0  0  0  0  # atno 10765 bound_to 10752
  141.1508  133.6719  156.6295 H   0  0  0  0  0  0  0  0  0  0  0  0  # atno 11005 bound_to 11000
  144.6740  140.1761  143.7410 LP  0  0  0  0  0  0  0  0  0  0  0  0  # atno 17320 bound_to 7965
  145.8723  139.2278  143.1654 LP  0  0  0  0  0  0  0  0  0  0  0  0  # atno 17321 bound_to 7965
  139.7704  143.8502  152.3119 LP  0  0  0  0  0  0  0  0  0  0  0  0  # atno 17342 bound_to 10162
  139.8419  144.7206  150.9321 LP  0  0  0  0  0  0  0  0  0  0  0  0  # atno 17343 bound_to 10162
  156.7142  130.4661  149.5539 LP  0  0  0  0  0  0  0  0  0  0  0  0  # atno 17370 bound_to 10713
  156.1709  130.6436  151.0836 LP  0  0  0  0  0  0  0  0  0  0  0  0  # atno 17371 bound_to 10713
  140.3478  134.7794  157.4445 LP  0  0  0  0  0  0  0  0  0  0  0  0  # atno 17394 bound_to 11000
  140.0885  134.5633  155.8468 LP  0  0  0  0  0  0  0  0  0  0  0  0  # atno 17395 bound_to 11000

$$$$
