#       Name:                AV-unprocessed.smi:890
#       Creating user name   scv26
#       Creation time:       Fri Mar 27 01:54:58 2020


#       File generated by GOLD software.
#

@<TRIPOS>MOLECULE
AV-unprocessed.smi:890
    56    59     1
SMALL
NO_CHARGES


@<TRIPOS>ATOM
      1 ****         1.3963   2.1967   0.2017 O.2            1 S1                 0.0000
      2 ****         1.0404   1.0232   0.2928 C.2            1 S1                 0.0000
      3 ****         1.8555  -0.0453   0.3333 N.am           1 S1                 0.0000
      4 ****         3.2813  -0.1161   0.3127 C.ar           1 S1                 0.0000
      5 ****         4.1310   1.0220   0.3153 C.ar           1 S1                 0.0000
      6 ****         5.5298   0.8528   0.2995 C.ar           1 S1                 0.0000
      7 ****         6.0638  -0.4479   0.2839 C.ar           1 S1                 0.0000
      8 ****         5.2328  -1.5101   0.2857 N.pl3          1 S1                 1.0000
      9 ****         3.8814  -1.4029   0.3008 C.ar           1 S1                 0.0000
     10 ****         3.1097  -2.5782   0.3003 N.3            1 S1                 0.0000
     11 ****         3.3340  -3.4783   1.4191 C.3            1 S1                 0.0000
     12 ****         2.6826  -4.8001   1.0087 C.3            1 S1                 0.0000
     13 ****         2.6609  -4.7658  -0.5243 C.3            1 S1                 0.0000
     14 ****         3.2235  -3.3910  -0.8996 C.3            1 S1                 0.0000
     15 ****        -0.2457   0.6499   0.3617 N.am           1 S1                 0.0000
     16 ****        -1.3857   1.5627   0.3775 C.3            1 S1                 0.0000
     17 ****        -2.5975   0.8739   1.0267 C.3            1 S1                 0.0000
     18 ****        -3.8372   1.7836   0.9886 C.3            1 S1                 0.0000
     19 ****        -4.1549   2.1931  -0.4020 N.4            1 S1                 1.0000
     20 ****        -5.4078   2.9756  -0.4789 C.3            1 S1                 0.0000
     21 ****        -6.6535   2.1219  -0.5327 C.3            1 S1                 0.0000
     22 ****        -6.1514   2.8079  -1.7836 C.3            1 S1                 0.0000
     23 ****        -3.0150   2.8963  -1.0417 C.3            1 S1                 0.0000
     24 ****        -1.7536   2.0161  -1.0481 C.3            1 S1                 0.0000
     25 ****         1.3909  -0.9399   0.3884 H              1 S1                 0.0000
     26 ****         3.7516   2.0302   0.3333 H              1 S1                 0.0000
     27 ****         6.1838   1.7127   0.3010 H              1 S1                 0.0000
     28 ****         7.1211  -0.6698   0.2722 H              1 S1                 0.0000
     29 ****         4.4017  -3.6244   1.5885 H              1 S1                 0.0000
     30 ****         2.8970  -3.0838   2.3370 H              1 S1                 0.0000
     31 ****         3.2275  -5.6593   1.4007 H              1 S1                 0.0000
     32 ****         1.6624  -4.8515   1.3912 H              1 S1                 0.0000
     33 ****         3.2547  -5.5689  -0.9619 H              1 S1                 0.0000
     34 ****         1.6378  -4.8748  -0.8862 H              1 S1                 0.0000
     35 ****         2.6712  -2.9455  -1.7274 H              1 S1                 0.0000
     36 ****         4.2675  -3.4830  -1.2028 H              1 S1                 0.0000
     37 ****        -0.4520  -0.3363   0.4284 H              1 S1                 0.0000
     38 ****        -1.1309   2.4400   0.9759 H              1 S1                 0.0000
     39 ****        -2.8181  -0.0598   0.5067 H              1 S1                 0.0000
     40 ****        -2.3686   0.6065   2.0591 H              1 S1                 0.0000
     41 ****        -4.6890   1.2557   1.4190 H              1 S1                 0.0000
     42 ****        -3.6718   2.6712   1.6016 H              1 S1                 0.0000
     43 ****        -5.4157   3.9305   0.0435 H              1 S1                 0.0000
     44 ****        -6.5422   1.0404  -0.4754 H              1 S1                 0.0000
     45 ****        -7.5556   2.5210  -0.0733 H              1 S1                 0.0000
     46 ****        -6.7236   3.6584  -2.1487 H              1 S1                 0.0000
     47 ****        -5.7065   2.1818  -2.5548 H              1 S1                 0.0000
     48 ****        -3.2780   3.1621  -2.0662 H              1 S1                 0.0000
     49 ****        -2.8182   3.8306  -0.5130 H              1 S1                 0.0000
     50 ****        -0.9263   2.5682  -1.4958 H              1 S1                 0.0000
     51 ****        -1.9232   1.1454  -1.6835 H              1 S1                 0.0000
     52 ****        -4.3102   1.3459  -0.9294 H              1 S1                 0.0000
     53 ****         5.6443  -2.4436   0.2754 H              1 S1                 0.0000
     54 ****         2.3693   2.4215   0.1505 LP             1 S1                 0.0000
     55 ****         0.7126   2.9262   0.1788 LP             1 S1                 0.0000
     56 ****         2.1957  -2.1776   0.3649 LP             1 S1                 0.0000
@<TRIPOS>BOND
    1    1    2 2     
    2    2    3 am    
    3    2   15 am    
    4    3    4 1     
    5    3   25 1     
    6    4    9 ar    
    7    4    5 ar    
    8    5    6 ar    
    9    5   26 1     
   10    6    7 ar    
   11    6   27 1     
   12    7    8 ar    
   13    7   28 1     
   14    8    9 ar    
   15    8   53 1     
   16    9   10 1     
   17   10   14 1     
   18   10   11 1     
   19   11   12 1     
   20   11   29 1     
   21   11   30 1     
   22   12   13 1     
   23   12   31 1     
   24   12   32 1     
   25   13   14 1     
   26   13   33 1     
   27   13   34 1     
   28   14   35 1     
   29   14   36 1     
   30   15   16 1     
   31   15   37 1     
   32   16   24 1     
   33   16   17 1     
   34   16   38 1     
   35   17   18 1     
   36   17   39 1     
   37   17   40 1     
   38   18   19 1     
   39   18   41 1     
   40   18   42 1     
   41   19   20 1     
   42   19   23 1     
   43   19   52 1     
   44   20   22 1     
   45   20   21 1     
   46   20   43 1     
   47   21   22 1     
   48   21   44 1     
   49   21   45 1     
   50   22   46 1     
   51   22   47 1     
   52   23   24 1     
   53   23   48 1     
   54   23   49 1     
   55   24   50 1     
   56   24   51 1     
   57    1   54 1     
   58    1   55 1     
   59   10   56 1     
@<TRIPOS>SUBSTRUCTURE
      1 S1             1
@<TRIPOS>SET
LONE_PAIRS      STATIC     ATOMS    <user>   **** ""
3 54 55 56
DONOR_HYDROGENS      STATIC     ATOMS    <user>   **** ""
4 25 53 37 52
ATOM$BLUE        STATIC     ATOMS    COLORGROUP SYSTEM
3 54 55 56
ATOM$RED        STATIC     ATOMS    COLORGROUP SYSTEM
4 25 53 37 52
