AV-unprocessed.smi:1985|AV-procd|sdf|8043|dock10
  -GOLD-   2272010243D 1   1.00000     0.00000
 Structure written by MMmdl.
 50 51  0  0  0  0  0  0  0  0  1 V2000
  142.1729  135.2276  153.3749 C   0  0  0  0  0  0  0  0  0  0  0  0
  143.2554  136.1262  152.7506 C   0  0  0  0  0  0  0  0  0  0  0  0
  144.6898  135.5097  152.6841 C   0  0  2  0  0  0  0  0  0  0  0  0
  145.1531  135.3237  154.1554 C   0  0  0  0  0  0  0  0  0  0  0  0
  145.6346  136.5477  152.0003 C   0  0  0  0  0  0  0  0  0  0  0  0
  146.0405  137.6109  152.9121 N   0  0  0  0  0  0  0  0  0  0  0  0
  146.7790  138.6873  152.6005 C   0  0  0  0  0  0  0  0  0  0  0  0
  147.2513  138.8733  151.4801 O   0  0  0  0  0  0  0  0  0  0  0  0
  147.0293  139.7281  153.7067 C   0  0  0  0  0  0  0  0  0  0  0  0
  148.4150  139.7723  154.2018 N   0  0  0  0  0  0  0  0  0  0  0  0
  149.2938  138.7612  153.8576 C   0  0  0  0  0  0  0  0  0  0  0  0
  150.5677  138.6975  154.3020 C   0  0  0  0  0  0  0  0  0  0  0  0
  151.0991  139.7203  155.1938 C   0  0  0  0  0  0  0  0  0  0  0  0
  152.2449  139.6956  155.6455 O   0  0  0  0  0  0  0  0  0  0  0  0
  150.1874  140.7512  155.5177 N   0  0  0  0  0  0  0  0  0  0  0  0
  150.6609  141.7777  156.4228 C   0  0  0  0  0  0  0  0  0  0  0  0
  148.8528  140.8102  155.0545 C   0  0  0  0  0  0  0  0  0  0  0  0
  148.0785  141.7109  155.3853 O   0  0  0  0  0  0  0  0  0  0  0  0
  144.6802  134.2023  151.9690 N   0  0  0  0  0  0  0  0  0  0  0  0
  145.9565  133.4776  151.9740 C   0  0  0  0  0  0  0  0  0  0  0  0
  145.8276  132.0794  151.3453 C   0  0  0  0  0  0  0  0  0  0  0  0
  145.3224  132.1932  150.0203 O   0  0  0  0  0  0  0  0  0  0  0  0
  144.0574  132.8424  149.9754 C   0  0  0  0  0  0  0  0  0  0  0  0
  144.1740  134.2468  150.5916 C   0  0  0  0  0  0  0  0  0  0  0  0
  141.2063  135.7309  153.3597 H   0  0  0  0  0  0  0  0  0  0  0  0
  142.3962  134.9885  154.4143 H   0  0  0  0  0  0  0  0  0  0  0  0
  142.0591  134.2900  152.8311 H   0  0  0  0  0  0  0  0  0  0  0  0
  142.9287  136.4317  151.7566 H   0  0  0  0  0  0  0  0  0  0  0  0
  143.2723  137.0534  153.3245 H   0  0  0  0  0  0  0  0  0  0  0  0
  144.9429  136.2014  154.7683 H   0  0  0  0  0  0  0  0  0  0  0  0
  146.2270  135.1501  154.2258 H   0  0  0  0  0  0  0  0  0  0  0  0
  144.6551  134.4777  154.6297 H   0  0  0  0  0  0  0  0  0  0  0  0
  146.5460  136.0732  151.6376 H   0  0  0  0  0  0  0  0  0  0  0  0
  145.1459  136.9908  151.1321 H   0  0  0  0  0  0  0  0  0  0  0  0
  145.6976  137.5421  153.8592 H   0  0  0  0  0  0  0  0  0  0  0  0
  146.7464  140.7077  153.3189 H   0  0  0  0  0  0  0  0  0  0  0  0
  146.3425  139.5340  154.5321 H   0  0  0  0  0  0  0  0  0  0  0  0
  148.9430  137.9743  153.2055 H   0  0  0  0  0  0  0  0  0  0  0  0
  151.1995  137.8755  153.9990 H   0  0  0  0  0  0  0  0  0  0  0  0
  149.9933  142.6389  156.4208 H   0  0  0  0  0  0  0  0  0  0  0  0
  151.6456  142.1020  156.0809 H   0  0  0  0  0  0  0  0  0  0  0  0
  150.7105  141.3270  157.4151 H   0  0  0  0  0  0  0  0  0  0  0  0
  146.7129  134.0385  151.4252 H   0  0  0  0  0  0  0  0  0  0  0  0
  146.3294  133.3512  152.9889 H   0  0  0  0  0  0  0  0  0  0  0  0
  146.7994  131.5868  151.3147 H   0  0  0  0  0  0  0  0  0  0  0  0
  145.1672  131.4479  151.9416 H   0  0  0  0  0  0  0  0  0  0  0  0
  143.7285  132.9092  148.9383 H   0  0  0  0  0  0  0  0  0  0  0  0
  143.3151  132.2472  150.5093 H   0  0  0  0  0  0  0  0  0  0  0  0
  143.1902  134.7105  150.5506 H   0  0  0  0  0  0  0  0  0  0  0  0
  144.8336  134.8476  149.9657 H   0  0  0  0  0  0  0  0  0  0  0  0
  1  2  1  0  0  0  0
  1 25  1  0  0  0  0
  1 26  1  0  0  0  0
  1 27  1  0  0  0  0
  2  3  1  0  0  0  0
  2 28  1  0  0  0  0
  2 29  1  0  0  0  0
  3  4  1  0  0  0  0
  3  5  1  0  0  0  0
  3 19  1  0  0  0  0
  4 30  1  0  0  0  0
  4 31  1  0  0  0  0
  4 32  1  0  0  0  0
  5  6  1  0  0  0  0
  5 33  1  0  0  0  0
  5 34  1  0  0  0  0
  6  7  1  0  0  0  0
  6 35  1  0  0  0  0
  7  8  2  0  0  0  0
  7  9  1  0  0  0  0
  9 10  1  0  0  0  0
  9 36  1  0  0  0  0
  9 37  1  0  0  0  0
 10 17  1  0  0  0  0
 10 11  1  0  0  0  0
 11 12  2  0  0  0  0
 11 38  1  0  0  0  0
 12 13  1  0  0  0  0
 12 39  1  0  0  0  0
 13 14  2  0  0  0  0
 13 15  1  0  0  0  0
 15 16  1  0  0  0  0
 15 17  1  0  0  0  0
 16 40  1  0  0  0  0
 16 41  1  0  0  0  0
 16 42  1  0  0  0  0
 17 18  2  0  0  0  0
 19 24  1  0  0  0  0
 19 20  1  0  0  0  0
 20 21  1  0  0  0  0
 20 43  1  0  0  0  0
 20 44  1  0  0  0  0
 21 22  1  0  0  0  0
 21 45  1  0  0  0  0
 21 46  1  0  0  0  0
 22 23  1  0  0  0  0
 23 24  1  0  0  0  0
 23 47  1  0  0  0  0
 23 48  1  0  0  0  0
 24 49  1  0  0  0  0
 24 50  1  0  0  0  0
M  END
> <s_m_source_file>
AV-unprocessed.smi

> <i_m_source_file_index>
1985

> <i_lp_mmshare_version>
43012

> <i_f3d_flags>
0

> <s_epik_input>
W0NIMl0xW0NIMl1PW0NIMl1bQ0gyXU4xW0NAQF0oW0NIM10pKFtDSDJdW0NIM10pW0NIMl1bTkhdQyg9TylbQ0gyXW4yW2NIXVtjSF1jKD1PKW4oW0NIM10pYzI9Tw==

> <s_epik_cmdline>
J2VwaWtfcHl0aG9uJywgJy1waCcsICc3LjAnLCAnLXRuJywgJzgnLCAnLW1hJywgJzIwMCcsICctbWV0YWxfYmluZGluZycsICctaW1hZScsICc8aW5maWxlLm1hZT4nLCAnLW9tYWUnLCAnPG91dGZpbGUubWFlPic=

> <r_lp_tautomer_probability>
1

> <r_epik_Ionization_Penalty>
0.318667

> <r_epik_Ionization_Penalty_Charging>
1.17294e-08

> <r_epik_Ionization_Penalty_Neutral>
0.318667

> <r_epik_State_Penalty>
0.313095

> <r_epik_Charging_Adjusted_Penalty>
0.313095

> <i_epik_Tot_Q>
0

> <i_epik_Tot_abs_Q>
0

> <r_epik_Metal_State_Penalty>
0.313065

> <b_epik_Metal_Only>
0

> <s_lp_Force_Field>
OPLS_2005

> <r_lp_Energy>
50.9959

> <b_lp_Chiralities_Consistent>
1

> <s_lp_Variant>
AV-unprocessed.smi:1985-2

> <Gold.Version>
5.8.1

> <Gold.Id.Protein>
6NUR|6NUR_protein|mol2

> <Gold.PLP.Fitness>
43.8320

> <Gold.PLP.PLP>
-37.2402

> <Gold.PLP.part.hbond>
-2.0058

> <Gold.PLP.part.metal>
0.0000

> <Gold.PLP.part.buried>
-2.5225

> <Gold.PLP.part.nonpolar>
-36.5806

> <Gold.PLP.part.repulsive>
4.2728

> <Gold.PLP.ligand.clash>
0.0000

> <Gold.PLP.ligand.torsion>
0.5783

> <Gold.PLP.Chemscore.Hbond>
1.5292

> <Gold.PLP.Chemscore.CHOScore>
1.0000

> <Gold.PLP.Chemscore.Metal>
0.0000

> <Gold.Chemscore.Hbonds>
donor molecule, donor type, donor heavy atom, donor atom, acceptor molecule, acceptor atom, score
      P1  H  7954  7966       L1     8  0.81
      P1  H  7997  8010       L1    14  0.50
      L1  C    11    38       P1  7948  1.00

> <Gold.PLP.Chemscore.Internal.Correction>
0.1606

> <Gold.Rescore>
     Score         DG    S(hbond)    S(metal)    S(lipo)     H(rot)  DE(clash)    DE(int)     intcor
     11.66     -14.29       1.69        0.00      75.13       2.20       2.11       0.52       ----

> <Gold.Chemscore.Fitness>
11.6584

> <Gold.Chemscore.DG>
-14.2863

> <Gold.Chemscore.ZeroCoef>
-5.4800

> <Gold.Chemscore.Hbond>
1.6872

> <Gold.Chemscore.Metal>
0.0000

> <Gold.Chemscore.Lipo>
75.1341

> <Gold.Chemscore.Internal_Hbond>
0.0000

> <Gold.Chemscore.DEClash>
2.1091

> <Gold.Chemscore.DEInternal>
0.5188

> <Gold.Chemscore.Rot>
2.1952

> <Gold.Chemscore.Internal.Correction>
   9.000000E+99

> <Gold.Chemscore.Hbonds>
donor molecule, donor type, donor heavy atom, donor atom, acceptor molecule, acceptor atom, score
      P1  H  7954  7966       L1     8  0.77
      P1  H  7997  8010       L1    14  0.52

> <Gold.Chemscore.Hbond.Weighted>
-5.6353

> <Gold.Chemscore.Metal.Weighted>
-0.0000

> <Gold.Chemscore.Lipo.Weighted>
-8.7907

> <Gold.Chemscore.Internal_Hbond.Weighted>
0.0000

> <Gold.Chemscore.DEClash.Weighted>
2.1091

> <Gold.Chemscore.DEInternal.Weighted>
0.5188

> <Gold.Chemscore.Rot.Weighted>
5.6197

> <Gold.Chemscore.Internal.Correction.Weighted>
   9.000000E+99

> <Gold.Protein.RotatedTorsions>
[ 6907 6896 6895 6894 ] final  -25.87 input  -60.11 | X-H torsion
[ 7974 7965 7964 7962 ] final   82.91 input  175.53 | X-H torsion
[ 8008 7997 7996 7995 ] final   94.60 input   59.86 | X-H torsion
[ 10167 10162 10161 10158 ] final  -45.69 input  -65.29 | X-H torsion
[ 10718 10713 10712 10709 ] final -104.20 input   66.30 | X-H torsion
[ 10763 10752 10751 10750 ] final -167.23 input  -60.55 | X-H torsion
[ 11005 11000 10999 10996 ] final  161.60 input  -57.11 | X-H torsion

> <Gold.Protein.ActiveResidues>
 VAL166  LYS551  ARG553  GLY616  TRP617  ASP618  TYR619  PRO620  LYS621  CYS622 
 ASP623  PHE694  ASN695  SER759  ASP760  ASP761  ALA762  ILE779  LEU786  VAL792 
 PHE793  MET794  SER795  GLU796  ALA797  LYS798  CYS799  TRP800  GLU811  SER814 

> <Gold.Protein.RotatedAtoms>
  151.1690  135.0309  159.8742 H   0  0  0  0  0  0  0  0  0  0  0  0  # atno 6907 bound_to 6896
  152.5449  134.1193  159.8402 H   0  0  0  0  0  0  0  0  0  0  0  0  # atno 6908 bound_to 6896
  151.1296  133.4999  159.2632 H   0  0  0  0  0  0  0  0  0  0  0  0  # atno 6909 bound_to 6896
  145.6189  139.2382  143.2150 H   0  0  0  0  0  0  0  0  0  0  0  0  # atno 7974 bound_to 7965
  156.0596  140.3298  155.7446 H   0  0  0  0  0  0  0  0  0  0  0  0  # atno 8008 bound_to 7997
  155.5475  140.0607  157.2874 H   0  0  0  0  0  0  0  0  0  0  0  0  # atno 8009 bound_to 7997
  154.4475  140.1900  156.0641 H   0  0  0  0  0  0  0  0  0  0  0  0  # atno 8010 bound_to 7997
  140.6848  143.2867  151.3675 H   0  0  0  0  0  0  0  0  0  0  0  0  # atno 10167 bound_to 10162
  156.0295  130.5504  150.7362 H   0  0  0  0  0  0  0  0  0  0  0  0  # atno 10718 bound_to 10713
  154.6753  135.2946  154.9687 H   0  0  0  0  0  0  0  0  0  0  0  0  # atno 10763 bound_to 10752
  154.0700  135.6619  153.4827 H   0  0  0  0  0  0  0  0  0  0  0  0  # atno 10764 bound_to 10752
  153.0512  135.5172  154.7769 H   0  0  0  0  0  0  0  0  0  0  0  0  # atno 10765 bound_to 10752
  140.2174  134.8222  157.3185 H   0  0  0  0  0  0  0  0  0  0  0  0  # atno 11005 bound_to 11000
  146.1447  140.7009  142.9350 LP  0  0  0  0  0  0  0  0  0  0  0  0  # atno 17320 bound_to 7965
  144.7239  140.4463  143.6987 LP  0  0  0  0  0  0  0  0  0  0  0  0  # atno 17321 bound_to 7965
  139.6197  144.0931  152.2380 LP  0  0  0  0  0  0  0  0  0  0  0  0  # atno 17342 bound_to 10162
  140.0372  144.6036  150.7440 LP  0  0  0  0  0  0  0  0  0  0  0  0  # atno 17343 bound_to 10162
  157.4942  131.0913  151.0391 LP  0  0  0  0  0  0  0  0  0  0  0  0  # atno 17370 bound_to 10713
  157.0789  130.5895  149.5416 LP  0  0  0  0  0  0  0  0  0  0  0  0  # atno 17371 bound_to 10713
  140.1886  134.4400  155.7729 LP  0  0  0  0  0  0  0  0  0  0  0  0  # atno 17394 bound_to 11000
  141.2224  133.7016  156.7989 LP  0  0  0  0  0  0  0  0  0  0  0  0  # atno 17395 bound_to 11000

$$$$
