AV-unprocessed.smi:77|AV-procd|sdf|771|dock1
  -GOLD-   2262017113D 1   1.00000     0.00000
 Structure written by MMmdl.
 57 61  0  0  0  0  0  0  0  0  1 V2000
  149.9732  132.9463  155.5785 O   0  0  0  0  0  0  0  0  0  0  0  0
  149.7395  133.9626  154.9226 C   0  0  0  0  0  0  0  0  0  0  0  0
  150.2702  135.3283  155.3783 C   0  0  0  0  0  0  0  0  0  0  0  0
  150.0440  135.5846  156.8049 N   0  0  0  0  0  0  0  0  0  0  0  0
  150.7938  136.5820  157.3265 C   0  0  0  0  0  0  0  0  0  0  0  0
  151.7288  136.3036  158.2729 N   0  0  0  0  0  0  0  0  0  0  0  0
  152.4649  137.2919  158.7912 C   0  0  0  0  0  0  0  0  0  0  0  0
  152.4276  138.5972  158.5117 N   0  0  0  0  0  0  0  0  0  0  0  0
  151.4903  138.8732  157.5597 C   0  0  0  0  0  0  0  0  0  0  0  0
  150.6415  137.9316  156.9158 C   0  0  0  0  0  0  0  0  0  0  0  0
  149.8221  138.5746  155.9972 N   0  0  0  0  0  0  0  0  0  0  0  0
  150.1592  139.8313  156.1002 C   0  0  0  0  0  0  0  0  0  0  0  0
  151.1464  140.1004  157.0222 N   0  0  0  0  0  0  0  0  0  0  0  0
  151.7069  141.3994  157.3466 C   0  0  0  0  0  0  0  0  0  0  0  0
  151.1103  142.0407  158.6282 C   0  0  2  0  0  0  0  0  0  0  0  0
  150.1777  143.2385  158.3121 C   0  0  0  0  0  0  0  0  0  0  0  0
  148.9510  142.8208  157.7488 O   0  0  0  0  0  0  0  0  0  0  0  0
  152.2436  142.4586  159.6013 C   0  0  2  0  0  0  0  0  0  0  0  0
  152.8278  141.3260  160.4297 C   0  0  0  0  0  0  0  0  0  0  0  0
  153.5197  142.0764  161.5605 C   0  0  0  0  0  0  0  0  0  0  0  0
  152.7070  143.2167  161.8068 O   0  0  0  0  0  0  0  0  0  0  0  0
  151.8123  143.4206  160.7172 C   0  0  0  0  0  0  0  0  0  0  0  0
  148.6547  135.6445  157.2375 C   0  0  0  0  0  0  0  0  0  0  0  0
  148.3181  135.3595  158.6834 C   0  0  0  0  0  0  0  0  0  0  0  0
  147.9619  134.3563  157.6097 C   0  0  0  0  0  0  0  0  0  0  0  0
  149.0040  133.9634  153.8015 N   0  0  0  0  0  0  0  0  0  0  0  0
  148.4165  132.8129  153.1947 C   0  0  0  0  0  0  0  0  0  0  0  0
  146.9267  132.8444  152.9304 C   0  0  0  0  0  0  0  0  0  0  0  0
  147.4719  131.9789  154.0328 C   0  0  0  0  0  0  0  0  0  0  0  0
  151.3300  135.4204  155.1335 H   0  0  0  0  0  0  0  0  0  0  0  0
  149.7559  136.0916  154.7925 H   0  0  0  0  0  0  0  0  0  0  0  0
  153.1846  136.9952  159.5399 H   0  0  0  0  0  0  0  0  0  0  0  0
  149.6872  140.6023  155.5089 H   0  0  0  0  0  0  0  0  0  0  0  0
  152.7838  141.2646  157.4476 H   0  0  0  0  0  0  0  0  0  0  0  0
  151.5579  142.0622  156.4931 H   0  0  0  0  0  0  0  0  0  0  0  0
  150.5158  141.2817  159.1398 H   0  0  0  0  0  0  0  0  0  0  0  0
  149.9234  143.7919  159.2145 H   0  0  0  0  0  0  0  0  0  0  0  0
  150.6675  143.9446  157.6409 H   0  0  0  0  0  0  0  0  0  0  0  0
  148.7081  143.4299  157.0681 H   0  0  0  0  0  0  0  0  0  0  0  0
  153.0542  142.9220  159.0360 H   0  0  0  0  0  0  0  0  0  0  0  0
  152.0326  140.6956  160.8306 H   0  0  0  0  0  0  0  0  0  0  0  0
  153.5193  140.6931  159.8728 H   0  0  0  0  0  0  0  0  0  0  0  0
  153.6391  141.4676  162.4570 H   0  0  0  0  0  0  0  0  0  0  0  0
  154.5075  142.4138  161.2440 H   0  0  0  0  0  0  0  0  0  0  0  0
  151.8292  144.4631  160.3989 H   0  0  0  0  0  0  0  0  0  0  0  0
  150.8027  143.1902  161.0600 H   0  0  0  0  0  0  0  0  0  0  0  0
  148.0364  136.3910  156.7419 H   0  0  0  0  0  0  0  0  0  0  0  0
  149.1326  135.1015  159.3576 H   0  0  0  0  0  0  0  0  0  0  0  0
  147.5065  135.9296  159.1301 H   0  0  0  0  0  0  0  0  0  0  0  0
  146.9122  134.2563  157.3419 H   0  0  0  0  0  0  0  0  0  0  0  0
  148.5441  133.4375  157.5680 H   0  0  0  0  0  0  0  0  0  0  0  0
  148.8566  134.8471  153.3355 H   0  0  0  0  0  0  0  0  0  0  0  0
  149.0165  132.2707  152.4650 H   0  0  0  0  0  0  0  0  0  0  0  0
  146.3763  133.7379  153.2195 H   0  0  0  0  0  0  0  0  0  0  0  0
  146.5657  132.3460  152.0329 H   0  0  0  0  0  0  0  0  0  0  0  0
  147.4762  130.9028  153.8715 H   0  0  0  0  0  0  0  0  0  0  0  0
  147.2871  132.2950  155.0578 H   0  0  0  0  0  0  0  0  0  0  0  0
  1  2  2  0  0  0  0
  2  3  1  0  0  0  0
  2 26  1  0  0  0  0
  3  4  1  0  0  0  0
  3 30  1  0  0  0  0
  3 31  1  0  0  0  0
  4  5  1  0  0  0  0
  4 23  1  0  0  0  0
  5 10  1  0  0  0  0
  5  6  2  0  0  0  0
  6  7  1  0  0  0  0
  7  8  2  0  0  0  0
  7 32  1  0  0  0  0
  8  9  1  0  0  0  0
  9 13  1  0  0  0  0
  9 10  2  0  0  0  0
 10 11  1  0  0  0  0
 11 12  2  0  0  0  0
 12 13  1  0  0  0  0
 12 33  1  0  0  0  0
 13 14  1  0  0  0  0
 14 15  1  0  0  0  0
 14 34  1  0  0  0  0
 14 35  1  0  0  0  0
 15 16  1  0  0  0  0
 15 18  1  0  0  0  0
 15 36  1  0  0  0  0
 16 17  1  0  0  0  0
 16 37  1  0  0  0  0
 16 38  1  0  0  0  0
 17 39  1  0  0  0  0
 18 22  1  0  0  0  0
 18 19  1  0  0  0  0
 18 40  1  0  0  0  0
 19 20  1  0  0  0  0
 19 41  1  0  0  0  0
 19 42  1  0  0  0  0
 20 21  1  0  0  0  0
 20 43  1  0  0  0  0
 20 44  1  0  0  0  0
 21 22  1  0  0  0  0
 22 45  1  0  0  0  0
 22 46  1  0  0  0  0
 23 25  1  0  0  0  0
 23 24  1  0  0  0  0
 23 47  1  0  0  0  0
 24 25  1  0  0  0  0
 24 48  1  0  0  0  0
 24 49  1  0  0  0  0
 25 50  1  0  0  0  0
 25 51  1  0  0  0  0
 26 27  1  0  0  0  0
 26 52  1  0  0  0  0
 27 29  1  0  0  0  0
 27 28  1  0  0  0  0
 27 53  1  0  0  0  0
 28 29  1  0  0  0  0
 28 54  1  0  0  0  0
 28 55  1  0  0  0  0
 29 56  1  0  0  0  0
 29 57  1  0  0  0  0
M  END
> <s_m_source_file>
AV-unprocessed.smi

> <i_m_source_file_index>
77

> <i_lp_mmshare_version>
43012

> <i_f3d_flags>
0

> <s_epik_input>
W0NIMl0xW0NIMl1bQ0hdMVtOSF1DKD1PKVtDSDJdTihbQ0hdMltDSDJdW0NIMl0yKWMobltjSF1uMyljKGMzNCluW2NIXW40W0NIMl1bQ0BIXShbQ0gyXVtPSF0pW0NAQEhdNVtDSDJdW0NIMl1PW0NIMl01

> <s_epik_cmdline>
J2VwaWtfcHl0aG9uJywgJy1waCcsICc3LjAnLCAnLXRuJywgJzgnLCAnLW1hJywgJzIwMCcsICctbWV0YWxfYmluZGluZycsICctaW1hZScsICc8aW5maWxlLm1hZT4nLCAnLW9tYWUnLCAnPG91dGZpbGUubWFlPic=

> <r_lp_tautomer_probability>
1

> <r_epik_Ionization_Penalty>
0.000703847

> <r_epik_Ionization_Penalty_Charging>
0

> <r_epik_Ionization_Penalty_Neutral>
0.000703847

> <r_epik_State_Penalty>
0.00034025

> <r_epik_Charging_Adjusted_Penalty>
0.00034025

> <i_epik_Tot_Q>
0

> <i_epik_Tot_abs_Q>
0

> <r_epik_Metal_State_Penalty>
-0

> <b_epik_Metal_Only>
0

> <s_lp_Force_Field>
OPLS_2005

> <r_lp_Energy>
55.2708

> <b_lp_Chiralities_Consistent>
1

> <s_lp_Variant>
AV-unprocessed.smi:77-1

> <Gold.Version>
5.8.1

> <Gold.Id.Protein>
6NUR|6NUR_protein|mol2

> <Gold.PLP.Fitness>
42.8852

> <Gold.PLP.PLP>
-38.9911

> <Gold.PLP.part.hbond>
-3.0000

> <Gold.PLP.part.metal>
0.0000

> <Gold.PLP.part.buried>
-5.9752

> <Gold.PLP.part.nonpolar>
-30.3358

> <Gold.PLP.part.repulsive>
0.1141

> <Gold.PLP.ligand.clash>
0.0000

> <Gold.PLP.ligand.torsion>
2.4578

> <Gold.PLP.Chemscore.Hbond>
2.2210

> <Gold.PLP.Chemscore.CHOScore>
0.0000

> <Gold.PLP.Chemscore.Metal>
0.0000

> <Gold.Chemscore.Hbonds>
donor molecule, donor type, donor heavy atom, donor atom, acceptor molecule, acceptor atom, score
      L1  H    17    39       P1  8028  1.00
      L1  H    26    52       P1  7948  1.00
      P1  H  6896  6908       L1     6  0.46

> <Gold.PLP.Chemscore.Internal.Correction>
2.1468

> <Gold.Rescore>
     Score         DG    S(hbond)    S(metal)    S(lipo)     H(rot)  DE(clash)    DE(int)     intcor
      9.79     -12.30       1.83        0.00      88.72       3.77       0.19       2.32       ----

> <Gold.Chemscore.Fitness>
9.7919

> <Gold.Chemscore.DG>
-12.3025

> <Gold.Chemscore.ZeroCoef>
-5.4800

> <Gold.Chemscore.Hbond>
1.8256

> <Gold.Chemscore.Metal>
0.0000

> <Gold.Chemscore.Lipo>
88.7161

> <Gold.Chemscore.Internal_Hbond>
0.0000

> <Gold.Chemscore.DEClash>
0.1898

> <Gold.Chemscore.DEInternal>
2.3209

> <Gold.Chemscore.Rot>
3.7714

> <Gold.Chemscore.Internal.Correction>
   9.000000E+99

> <Gold.Chemscore.Hbonds>
donor molecule, donor type, donor heavy atom, donor atom, acceptor molecule, acceptor atom, score
      L1  H    17    39       P1  8028  0.35
      L1  H    26    52       P1  7948  0.29
      P1  H  6896  6908       L1     6  0.19

> <Gold.Chemscore.Hbond.Weighted>
-6.0976

> <Gold.Chemscore.Metal.Weighted>
-0.0000

> <Gold.Chemscore.Lipo.Weighted>
-10.3798

> <Gold.Chemscore.Internal_Hbond.Weighted>
0.0000

> <Gold.Chemscore.DEClash.Weighted>
0.1898

> <Gold.Chemscore.DEInternal.Weighted>
2.3209

> <Gold.Chemscore.Rot.Weighted>
9.6548

> <Gold.Chemscore.Internal.Correction.Weighted>
   9.000000E+99

> <Gold.Protein.RotatedTorsions>
[ 6907 6896 6895 6894 ] final -138.03 input  -60.11 | X-H torsion
[ 7974 7965 7964 7962 ] final  -65.63 input  175.53 | X-H torsion
[ 8008 7997 7996 7995 ] final -174.89 input   59.86 | X-H torsion
[ 10167 10162 10161 10158 ] final -145.42 input  -65.29 | X-H torsion
[ 10718 10713 10712 10709 ] final   74.06 input   66.30 | X-H torsion
[ 10763 10752 10751 10750 ] final   -0.84 input  -60.55 | X-H torsion
[ 11005 11000 10999 10996 ] final   25.49 input  -57.11 | X-H torsion

> <Gold.Protein.ActiveResidues>
 VAL166  LYS551  ARG553  GLY616  TRP617  ASP618  TYR619  PRO620  LYS621  CYS622 
 ASP623  PHE694  ASN695  SER759  ASP760  ASP761  ALA762  ILE779  LEU786  VAL792 
 PHE793  MET794  SER795  GLU796  ALA797  LYS798  CYS799  TRP800  GLU811  SER814 

> <Gold.Protein.RotatedAtoms>
  151.0299  133.5799  159.2661 H   0  0  0  0  0  0  0  0  0  0  0  0  # atno 6907 bound_to 6896
  151.2885  135.0734  159.9205 H   0  0  0  0  0  0  0  0  0  0  0  0  # atno 6908 bound_to 6896
  152.5342  134.0002  159.7945 H   0  0  0  0  0  0  0  0  0  0  0  0  # atno 6909 bound_to 6896
  145.7518  140.8904  143.0476 H   0  0  0  0  0  0  0  0  0  0  0  0  # atno 7974 bound_to 7965
  155.9757  140.1172  157.0772 H   0  0  0  0  0  0  0  0  0  0  0  0  # atno 8008 bound_to 7997
  154.4168  140.1154  156.5435 H   0  0  0  0  0  0  0  0  0  0  0  0  # atno 8009 bound_to 7997
  155.6537  140.3473  155.4759 H   0  0  0  0  0  0  0  0  0  0  0  0  # atno 8010 bound_to 7997
  139.7807  143.8104  152.2638 H   0  0  0  0  0  0  0  0  0  0  0  0  # atno 10167 bound_to 10162
  157.6575  130.9659  150.1157 H   0  0  0  0  0  0  0  0  0  0  0  0  # atno 10718 bound_to 10713
  153.3371  135.6978  153.6898 H   0  0  0  0  0  0  0  0  0  0  0  0  # atno 10763 bound_to 10752
  153.5678  135.3522  155.2826 H   0  0  0  0  0  0  0  0  0  0  0  0  # atno 10764 bound_to 10752
  154.8629  135.4265  154.2574 H   0  0  0  0  0  0  0  0  0  0  0  0  # atno 10765 bound_to 10752
  140.3473  134.2267  155.7683 H   0  0  0  0  0  0  0  0  0  0  0  0  # atno 11005 bound_to 11000
  144.6848  139.9602  143.7480 LP  0  0  0  0  0  0  0  0  0  0  0  0  # atno 17320 bound_to 7965
  146.0349  139.3368  143.0733 LP  0  0  0  0  0  0  0  0  0  0  0  0  # atno 17321 bound_to 7965
  139.8166  144.7313  150.9627 LP  0  0  0  0  0  0  0  0  0  0  0  0  # atno 17342 bound_to 10162
  140.7818  143.4199  151.0858 LP  0  0  0  0  0  0  0  0  0  0  0  0  # atno 17343 bound_to 10162
  156.2042  130.3662  149.8751 LP  0  0  0  0  0  0  0  0  0  0  0  0  # atno 17370 bound_to 10713
  156.6646  130.8796  151.3553 LP  0  0  0  0  0  0  0  0  0  0  0  0  # atno 17371 bound_to 10713
  141.2022  133.7944  157.0403 LP  0  0  0  0  0  0  0  0  0  0  0  0  # atno 17394 bound_to 11000
  140.0732  134.9690  157.1502 LP  0  0  0  0  0  0  0  0  0  0  0  0  # atno 17395 bound_to 11000

$$$$
