AV-unprocessed.smi:1871|AV-procd|sdf|7602|dock10
  -GOLD-   22720 9323D 1   1.00000     0.00000
 Structure written by MMmdl.
 41 43  0  0  0  0  0  0  0  0  2 V2000
  149.8042  131.3263  154.2951 O   0  0  0  0  0  0  0  0  0  0  0  0
  149.5480  132.7006  154.0954 C   0  0  0  0  0  0  0  0  0  0  0  0
  148.2810  132.9613  153.3432 C   0  0  0  0  0  0  0  0  0  0  0  0
  148.0005  132.5512  152.0730 N   0  3  0  0  0  0  0  0  0  0  0  0
  146.7290  132.9887  151.7021 C   0  0  0  0  0  0  0  0  0  0  0  0
  146.0157  132.8207  150.5195 C   0  0  0  0  0  0  0  0  0  0  0  0
  144.7310  133.4005  150.4678 C   0  0  0  0  0  0  0  0  0  0  0  0
  144.2021  134.1123  151.5643 C   0  0  0  0  0  0  0  0  0  0  0  0
  144.9356  134.2766  152.7578 C   0  0  0  0  0  0  0  0  0  0  0  0
  146.2052  133.7010  152.7995 C   0  0  0  0  0  0  0  0  0  0  0  0
  147.1972  133.6639  153.7856 N   0  0  0  0  0  0  0  0  0  0  0  0
  146.9568  134.3456  155.0674 C   0  0  0  0  0  0  0  0  0  0  0  0
  147.9816  135.4635  155.3489 C   0  0  1  0  0  0  0  0  0  0  0  0
  147.7221  136.5312  154.4614 O   0  0  0  0  0  0  0  0  0  0  0  0
  147.9667  135.9038  156.8059 C   0  0  0  0  0  0  0  0  0  0  0  0
  147.6176  137.2251  157.1580 C   0  0  0  0  0  0  0  0  0  0  0  0
  147.5809  137.6123  158.5112 C   0  0  0  0  0  0  0  0  0  0  0  0
  147.8975  136.6920  159.5306 C   0  0  0  0  0  0  0  0  0  0  0  0
  147.8251  137.1269  160.8345 O   0  0  0  0  0  0  0  0  0  0  0  0
  147.0400  136.4557  161.7187 C   0  0  0  0  0  0  0  0  0  0  0  0
  147.6770  135.3357  162.1382 F   0  0  0  0  0  0  0  0  0  0  0  0
  146.7960  137.2205  162.8112 F   0  0  0  0  0  0  0  0  0  0  0  0
  148.2369  135.3642  159.1758 C   0  0  0  0  0  0  0  0  0  0  0  0
  148.2743  134.9762  157.8230 C   0  0  0  0  0  0  0  0  0  0  0  0
  149.6298  131.1168  155.2004 H   0  0  0  0  0  0  0  0  0  0  0  0
  149.5010  133.1922  155.0673 H   0  0  0  0  0  0  0  0  0  0  0  0
  150.3838  133.1362  153.5485 H   0  0  0  0  0  0  0  0  0  0  0  0
  146.4197  132.2758  149.6787 H   0  0  0  0  0  0  0  0  0  0  0  0
  144.1392  133.2969  149.5699 H   0  0  0  0  0  0  0  0  0  0  0  0
  143.2134  134.5416  151.4887 H   0  0  0  0  0  0  0  0  0  0  0  0
  144.5223  134.8246  153.5918 H   0  0  0  0  0  0  0  0  0  0  0  0
  145.9411  134.7435  155.0511 H   0  0  0  0  0  0  0  0  0  0  0  0
  146.9781  133.5975  155.8603 H   0  0  0  0  0  0  0  0  0  0  0  0
  148.9827  135.1041  155.1085 H   0  0  0  0  0  0  0  0  0  0  0  0
  148.3438  136.4889  153.7506 H   0  0  0  0  0  0  0  0  0  0  0  0
  147.3668  137.9451  156.3927 H   0  0  0  0  0  0  0  0  0  0  0  0
  147.3071  138.6250  158.7690 H   0  0  0  0  0  0  0  0  0  0  0  0
  146.0945  136.1520  161.2688 H   0  0  0  0  0  0  0  0  0  0  0  0
  148.4630  134.6286  159.9333 H   0  0  0  0  0  0  0  0  0  0  0  0
  148.5281  133.9572  157.5693 H   0  0  0  0  0  0  0  0  0  0  0  0
  148.6403  132.0091  151.5063 H   0  0  0  0  0  0  0  0  0  0  0  0
  1  2  1  0  0  0  0
  1 25  1  0  0  0  0
  2  3  1  0  0  0  0
  2 26  1  0  0  0  0
  2 27  1  0  0  0  0
  3 11  1  0  0  0  0
  3  4  2  0  0  0  0
  4  5  1  0  0  0  0
  4 41  1  0  0  0  0
  5 10  2  0  0  0  0
  5  6  1  0  0  0  0
  6  7  2  0  0  0  0
  6 28  1  0  0  0  0
  7  8  1  0  0  0  0
  7 29  1  0  0  0  0
  8  9  2  0  0  0  0
  8 30  1  0  0  0  0
  9 10  1  0  0  0  0
  9 31  1  0  0  0  0
 10 11  1  0  0  0  0
 11 12  1  0  0  0  0
 12 13  1  0  0  0  0
 12 32  1  0  0  0  0
 12 33  1  0  0  0  0
 13 14  1  0  0  0  0
 13 15  1  0  0  0  0
 13 34  1  0  0  0  0
 14 35  1  0  0  0  0
 15 24  1  0  0  0  0
 15 16  2  0  0  0  0
 16 17  1  0  0  0  0
 16 36  1  0  0  0  0
 17 18  2  0  0  0  0
 17 37  1  0  0  0  0
 18 19  1  0  0  0  0
 18 23  1  0  0  0  0
 19 20  1  0  0  0  0
 20 21  1  0  0  0  0
 20 22  1  0  0  0  0
 20 38  1  0  0  0  0
 23 24  2  0  0  0  0
 23 39  1  0  0  0  0
 24 40  1  0  0  0  0
M  CHG  1   4   1
M  END
> <s_m_source_file>
AV-unprocessed.smi

> <i_m_source_file_index>
1871

> <i_lp_mmshare_version>
43012

> <i_f3d_flags>
0

> <s_epik_input>
W2NIXTFbY0hdW2NIXVtjSF1jKGMxMiluKGMobjIpW0NIMl1bT0hdKVtDSDJdW0NASF0oW09IXSljM1tjSF1bY0hdYyhPW0NIXShGKUYpW2NIXVtjSF0z

> <s_epik_cmdline>
J2VwaWtfcHl0aG9uJywgJy1waCcsICc3LjAnLCAnLXRuJywgJzgnLCAnLW1hJywgJzIwMCcsICctbWV0YWxfYmluZGluZycsICctaW1hZScsICc8aW5maWxlLm1hZT4nLCAnLW9tYWUnLCAnPG91dGZpbGUubWFlPic=

> <r_lp_tautomer_probability>
1

> <r_epik_Ionization_Penalty>
1.35642

> <r_epik_Ionization_Penalty_Charging>
1.35557

> <r_epik_Ionization_Penalty_Neutral>
0.000856035

> <r_epik_State_Penalty>
1.43401

> <r_epik_Charging_Adjusted_Penalty>
2.78958

> <i_epik_Tot_Q>
1

> <i_epik_Tot_abs_Q>
1

> <r_epik_Metal_State_Penalty>
5.47166

> <b_epik_Metal_Only>
0

> <s_lp_Force_Field>
OPLS_2005

> <r_lp_Energy>
14.8195

> <b_lp_Chiralities_Consistent>
1

> <s_lp_Variant>
AV-unprocessed.smi:1871-4

> <Gold.Version>
5.8.1

> <Gold.Id.Protein>
6NUR|6NUR_protein|mol2

> <Gold.PLP.Fitness>
48.7671

> <Gold.PLP.PLP>
-38.0526

> <Gold.PLP.part.hbond>
-4.0000

> <Gold.PLP.part.metal>
0.0000

> <Gold.PLP.part.buried>
-6.9831

> <Gold.PLP.part.nonpolar>
-27.9350

> <Gold.PLP.part.repulsive>
0.0227

> <Gold.PLP.ligand.clash>
0.0000

> <Gold.PLP.ligand.torsion>
0.2895

> <Gold.PLP.Chemscore.Hbond>
3.7440

> <Gold.PLP.Chemscore.CHOScore>
0.0000

> <Gold.PLP.Chemscore.Metal>
0.0000

> <Gold.Chemscore.Hbonds>
donor molecule, donor type, donor heavy atom, donor atom, acceptor molecule, acceptor atom, score
      L1  H     4    41       P1 10747  1.00
      L1  H    14    35       P1  7948  1.00
      P1  H  6931  6943       L1    19  0.90
      P1  H  6934  6947       L1    19  0.85

> <Gold.PLP.Chemscore.Internal.Correction>
0.0614

> <Gold.Rescore>
     Score         DG    S(hbond)    S(metal)    S(lipo)     H(rot)  DE(clash)    DE(int)     intcor
     13.90     -14.43       3.02        0.00      63.93       3.37       0.00       0.52       ----

> <Gold.Chemscore.Fitness>
13.9049

> <Gold.Chemscore.DG>
-14.4289

> <Gold.Chemscore.ZeroCoef>
-5.4800

> <Gold.Chemscore.Hbond>
3.0197

> <Gold.Chemscore.Metal>
0.0000

> <Gold.Chemscore.Lipo>
63.9299

> <Gold.Chemscore.Internal_Hbond>
0.0000

> <Gold.Chemscore.DEClash>
0.0002

> <Gold.Chemscore.DEInternal>
0.5237

> <Gold.Chemscore.Rot>
3.3659

> <Gold.Chemscore.Internal.Correction>
   9.000000E+99

> <Gold.Chemscore.Hbonds>
donor molecule, donor type, donor heavy atom, donor atom, acceptor molecule, acceptor atom, score
      L1  H     4    41       P1 10747  0.97
      L1  H    14    35       P1  7948  0.96
      P1  H  6931  6943       L1    19  0.51
      P1  H  6934  6947       L1    19  0.32

> <Gold.Chemscore.Hbond.Weighted>
-10.0858

> <Gold.Chemscore.Metal.Weighted>
-0.0000

> <Gold.Chemscore.Lipo.Weighted>
-7.4798

> <Gold.Chemscore.Internal_Hbond.Weighted>
0.0000

> <Gold.Chemscore.DEClash.Weighted>
0.0002

> <Gold.Chemscore.DEInternal.Weighted>
0.5237

> <Gold.Chemscore.Rot.Weighted>
8.6167

> <Gold.Chemscore.Internal.Correction.Weighted>
   9.000000E+99

> <Gold.Protein.RotatedTorsions>
[ 6907 6896 6895 6894 ] final -127.95 input  -60.11 | X-H torsion
[ 7974 7965 7964 7962 ] final   67.18 input  175.53 | X-H torsion
[ 8008 7997 7996 7995 ] final  -33.15 input   59.86 | X-H torsion
[ 10167 10162 10161 10158 ] final  134.63 input  -65.29 | X-H torsion
[ 10718 10713 10712 10709 ] final  -57.81 input   66.30 | X-H torsion
[ 10763 10752 10751 10750 ] final   80.64 input  -60.55 | X-H torsion
[ 11005 11000 10999 10996 ] final  -96.17 input  -57.11 | X-H torsion

> <Gold.Protein.ActiveResidues>
 VAL166  LYS551  ARG553  GLY616  TRP617  ASP618  TYR619  PRO620  LYS621  CYS622 
 ASP623  PHE694  ASN695  SER759  ASP760  ASP761  ALA762  ILE779  LEU786  VAL792 
 PHE793  MET794  SER795  GLU796  ALA797  LYS798  CYS799  TRP800  GLU811  SER814 

> <Gold.Protein.RotatedAtoms>
  150.9127  133.6978  159.2850 H   0  0  0  0  0  0  0  0  0  0  0  0  # atno 6907 bound_to 6896
  151.4459  135.1024  159.9693 H   0  0  0  0  0  0  0  0  0  0  0  0  # atno 6908 bound_to 6896
  152.4938  133.8524  159.7263 H   0  0  0  0  0  0  0  0  0  0  0  0  # atno 6909 bound_to 6896
  145.8177  139.3067  143.1062 H   0  0  0  0  0  0  0  0  0  0  0  0  # atno 7974 bound_to 7965
  154.4158  140.1718  156.1841 H   0  0  0  0  0  0  0  0  0  0  0  0  # atno 8008 bound_to 7997
  155.9658  140.3390  155.6507 H   0  0  0  0  0  0  0  0  0  0  0  0  # atno 8009 bound_to 7997
  155.6690  140.0709  157.2517 H   0  0  0  0  0  0  0  0  0  0  0  0  # atno 8010 bound_to 7997
  139.5248  144.6557  151.5168 H   0  0  0  0  0  0  0  0  0  0  0  0  # atno 10167 bound_to 10162
  156.1183  130.4168  150.0491 H   0  0  0  0  0  0  0  0  0  0  0  0  # atno 10718 bound_to 10713
  153.1050  135.4795  154.8935 H   0  0  0  0  0  0  0  0  0  0  0  0  # atno 10763 bound_to 10752
  154.7420  135.3084  154.8713 H   0  0  0  0  0  0  0  0  0  0  0  0  # atno 10764 bound_to 10752
  153.9319  135.6844  153.4799 H   0  0  0  0  0  0  0  0  0  0  0  0  # atno 10765 bound_to 10752
  141.1419  133.8079  157.0535 H   0  0  0  0  0  0  0  0  0  0  0  0  # atno 11005 bound_to 11000
  145.9709  140.8761  143.0163 LP  0  0  0  0  0  0  0  0  0  0  0  0  # atno 17320 bound_to 7965
  144.6751  140.1944  143.7393 LP  0  0  0  0  0  0  0  0  0  0  0  0  # atno 17321 bound_to 7965
  140.6382  143.8941  150.6667 LP  0  0  0  0  0  0  0  0  0  0  0  0  # atno 17342 bound_to 10162
  140.2268  143.3767  152.1598 LP  0  0  0  0  0  0  0  0  0  0  0  0  # atno 17343 bound_to 10162
  156.8436  130.9434  151.3630 LP  0  0  0  0  0  0  0  0  0  0  0  0  # atno 17370 bound_to 10713
  157.6366  130.8772  149.9370 LP  0  0  0  0  0  0  0  0  0  0  0  0  # atno 17371 bound_to 10713
  140.0616  134.9751  157.1315 LP  0  0  0  0  0  0  0  0  0  0  0  0  # atno 17394 bound_to 11000
  140.3840  134.2257  155.7169 LP  0  0  0  0  0  0  0  0  0  0  0  0  # atno 17395 bound_to 11000

$$$$
