AV-unprocessed.smi:1246|AV-procd|sdf|5242|dock10
  -GOLD-   22720 4353D 1   1.00000     0.00000
 Structure written by MMmdl.
 35 36  0  0  0  0  0  0  0  0  1 V2000
  146.7857  138.7338  152.1397 C   0  0  0  0  0  0  0  0  0  0  0  0
  147.1818  139.9305  152.9533 C   0  0  0  0  0  0  0  0  0  0  0  0
  148.3612  140.1118  153.7332 C   0  0  0  0  0  0  0  0  0  0  0  0
  148.1931  141.3693  154.2453 C   0  0  0  0  0  0  0  0  0  0  0  0
  149.0101  142.0730  155.0734 N   0  0  0  0  0  0  0  0  0  0  0  0
  150.1554  141.6815  155.6578 C   0  0  0  0  0  0  0  0  0  0  0  0
  150.6863  140.5786  155.5240 O   0  0  0  0  0  0  0  0  0  0  0  0
  150.6645  142.6576  156.4227 N   0  0  0  0  0  0  0  0  0  0  0  0
  151.8891  142.5549  157.2082 C   0  0  0  0  0  0  0  0  0  0  0  0
  151.6337  142.8454  158.6963 C   0  0  1  0  0  0  0  0  0  0  0  0
  152.8174  142.5154  159.6000 C   0  0  0  0  0  0  0  0  0  0  0  0
  152.5054  143.3520  160.8208 C   0  0  0  0  0  0  0  0  0  0  0  0
  151.8759  144.6049  160.2118 C   0  0  0  0  0  0  0  0  0  0  0  0
  151.4215  144.2367  158.9109 O   0  0  0  0  0  0  0  0  0  0  0  0
  146.9968  141.8782  153.7914 N   0  0  0  0  0  0  0  0  0  0  0  0
  146.3819  143.1631  154.0606 C   0  0  0  0  0  0  0  0  0  0  0  0
  146.3746  140.9847  152.9924 N   0  0  0  0  0  0  0  0  0  0  0  0
  147.5062  137.9236  152.2535 H   0  0  0  0  0  0  0  0  0  0  0  0
  146.7302  138.9816  151.0795 H   0  0  0  0  0  0  0  0  0  0  0  0
  145.8104  138.3545  152.4460 H   0  0  0  0  0  0  0  0  0  0  0  0
  149.1784  139.4218  153.8798 H   0  0  0  0  0  0  0  0  0  0  0  0
  148.7096  143.0153  155.2743 H   0  0  0  0  0  0  0  0  0  0  0  0
  150.1619  143.5313  156.4793 H   0  0  0  0  0  0  0  0  0  0  0  0
  152.3229  141.5610  157.0860 H   0  0  0  0  0  0  0  0  0  0  0  0
  152.6161  143.2615  156.8069 H   0  0  0  0  0  0  0  0  0  0  0  0
  150.7544  142.3042  159.0506 H   0  0  0  0  0  0  0  0  0  0  0  0
  152.9009  141.4508  159.8207 H   0  0  0  0  0  0  0  0  0  0  0  0
  153.7526  142.8478  159.1471 H   0  0  0  0  0  0  0  0  0  0  0  0
  151.7773  142.8353  161.4475 H   0  0  0  0  0  0  0  0  0  0  0  0
  153.3844  143.5683  161.4285 H   0  0  0  0  0  0  0  0  0  0  0  0
  151.0541  144.9809  160.8213 H   0  0  0  0  0  0  0  0  0  0  0  0
  152.6134  145.4015  160.1109 H   0  0  0  0  0  0  0  0  0  0  0  0
  147.0987  143.9611  153.8657 H   0  0  0  0  0  0  0  0  0  0  0  0
  146.0719  143.2078  155.1050 H   0  0  0  0  0  0  0  0  0  0  0  0
  145.5086  143.3120  153.4239 H   0  0  0  0  0  0  0  0  0  0  0  0
  1  2  1  0  0  0  0
  1 18  1  0  0  0  0
  1 19  1  0  0  0  0
  1 20  1  0  0  0  0
  2 17  2  0  0  0  0
  2  3  1  0  0  0  0
  3  4  2  0  0  0  0
  3 21  1  0  0  0  0
  4  5  1  0  0  0  0
  4 15  1  0  0  0  0
  5  6  1  0  0  0  0
  5 22  1  0  0  0  0
  6  7  2  0  0  0  0
  6  8  1  0  0  0  0
  8  9  1  0  0  0  0
  8 23  1  0  0  0  0
  9 10  1  0  0  0  0
  9 24  1  0  0  0  0
  9 25  1  0  0  0  0
 10 14  1  0  0  0  0
 10 11  1  0  0  0  0
 10 26  1  0  0  0  0
 11 12  1  0  0  0  0
 11 27  1  0  0  0  0
 11 28  1  0  0  0  0
 12 13  1  0  0  0  0
 12 29  1  0  0  0  0
 12 30  1  0  0  0  0
 13 14  1  0  0  0  0
 13 31  1  0  0  0  0
 13 32  1  0  0  0  0
 15 16  1  0  0  0  0
 15 17  1  0  0  0  0
 16 33  1  0  0  0  0
 16 34  1  0  0  0  0
 16 35  1  0  0  0  0
M  END
> <s_m_source_file>
AV-unprocessed.smi

> <i_m_source_file_index>
1246

> <i_lp_mmshare_version>
43012

> <i_f3d_flags>
0

> <s_epik_input>
W0NIM11jMVtjSF1jKG4objEpW0NIM10pW05IXUMoPU8pW05IXVtDSDJdW0NAQEhdMltDSDJdW0NIMl1bQ0gyXU8y

> <s_epik_cmdline>
J2VwaWtfcHl0aG9uJywgJy1waCcsICc3LjAnLCAnLXRuJywgJzgnLCAnLW1hJywgJzIwMCcsICctbWV0YWxfYmluZGluZycsICctaW1hZScsICc8aW5maWxlLm1hZT4nLCAnLW9tYWUnLCAnPG91dGZpbGUubWFlPic=

> <r_lp_tautomer_probability>
1

> <r_epik_Ionization_Penalty>
9.6187e-05

> <r_epik_Ionization_Penalty_Charging>
0

> <r_epik_Ionization_Penalty_Neutral>
9.6187e-05

> <r_epik_State_Penalty>
-0

> <r_epik_Charging_Adjusted_Penalty>
0

> <i_epik_Tot_Q>
0

> <i_epik_Tot_abs_Q>
0

> <r_epik_Metal_State_Penalty>
-0

> <b_epik_Metal_Only>
0

> <s_lp_Force_Field>
OPLS_2005

> <r_lp_Energy>
18.0702

> <b_lp_Chiralities_Consistent>
1

> <s_lp_Variant>
AV-unprocessed.smi:1246-2

> <Gold.Version>
5.8.1

> <Gold.Id.Protein>
6NUR|6NUR_protein|mol2

> <Gold.PLP.Fitness>
40.9330

> <Gold.PLP.PLP>
-33.8588

> <Gold.PLP.part.hbond>
-2.7477

> <Gold.PLP.part.metal>
0.0000

> <Gold.PLP.part.buried>
-2.1994

> <Gold.PLP.part.nonpolar>
-30.5720

> <Gold.PLP.part.repulsive>
2.8563

> <Gold.PLP.ligand.clash>
0.0000

> <Gold.PLP.ligand.torsion>
0.0821

> <Gold.PLP.Chemscore.Hbond>
2.4114

> <Gold.PLP.Chemscore.CHOScore>
0.0000

> <Gold.PLP.Chemscore.Metal>
0.0000

> <Gold.Chemscore.Hbonds>
donor molecule, donor type, donor heavy atom, donor atom, acceptor molecule, acceptor atom, score
      L1  H     5    22       P1  8028  1.00
      L1  H     8    23       P1  8028  0.96
      P1  H  7989  7998       L1     7  0.40

> <Gold.PLP.Chemscore.Internal.Correction>
0.0043

> <Gold.Rescore>
     Score         DG    S(hbond)    S(metal)    S(lipo)     H(rot)  DE(clash)    DE(int)     intcor
     15.11     -19.48       2.07        0.00      87.90       1.25       3.20       1.17       ----

> <Gold.Chemscore.Fitness>
15.1067

> <Gold.Chemscore.DG>
-19.4773

> <Gold.Chemscore.ZeroCoef>
-5.4800

> <Gold.Chemscore.Hbond>
2.0682

> <Gold.Chemscore.Metal>
0.0000

> <Gold.Chemscore.Lipo>
87.8975

> <Gold.Chemscore.Internal_Hbond>
0.0000

> <Gold.Chemscore.DEClash>
3.1985

> <Gold.Chemscore.DEInternal>
1.1721

> <Gold.Chemscore.Rot>
1.2478

> <Gold.Chemscore.Internal.Correction>
   9.000000E+99

> <Gold.Chemscore.Hbonds>
donor molecule, donor type, donor heavy atom, donor atom, acceptor molecule, acceptor atom, score
      L1  H     5    22       P1  8028  0.99
      L1  H     8    23       P1  8028  0.92
      P1  H  7989  7998       L1     7  0.09

> <Gold.Chemscore.Hbond.Weighted>
-6.9077

> <Gold.Chemscore.Metal.Weighted>
-0.0000

> <Gold.Chemscore.Lipo.Weighted>
-10.2840

> <Gold.Chemscore.Internal_Hbond.Weighted>
0.0000

> <Gold.Chemscore.DEClash.Weighted>
3.1985

> <Gold.Chemscore.DEInternal.Weighted>
1.1721

> <Gold.Chemscore.Rot.Weighted>
3.1944

> <Gold.Chemscore.Internal.Correction.Weighted>
   9.000000E+99

> <Gold.Protein.RotatedTorsions>
[ 6907 6896 6895 6894 ] final  126.70 input  -60.11 | X-H torsion
[ 7974 7965 7964 7962 ] final   94.85 input  175.53 | X-H torsion
[ 8008 7997 7996 7995 ] final  158.51 input   59.86 | X-H torsion
[ 10167 10162 10161 10158 ] final   69.80 input  -65.29 | X-H torsion
[ 10718 10713 10712 10709 ] final -147.92 input   66.30 | X-H torsion
[ 10763 10752 10751 10750 ] final -177.14 input  -60.55 | X-H torsion
[ 11005 11000 10999 10996 ] final  -66.77 input  -57.11 | X-H torsion

> <Gold.Protein.ActiveResidues>
 VAL166  LYS551  ARG553  GLY616  TRP617  ASP618  TYR619  PRO620  LYS621  CYS622 
 ASP623  PHE694  ASN695  SER759  ASP760  ASP761  ALA762  ILE779  LEU786  VAL792 
 PHE793  MET794  SER795  GLU796  ALA797  LYS798  CYS799  TRP800  GLU811  SER814 

> <Gold.Protein.RotatedAtoms>
  152.3879  133.6638  159.6213 H   0  0  0  0  0  0  0  0  0  0  0  0  # atno 6907 bound_to 6896
  150.7794  133.9003  159.3348 H   0  0  0  0  0  0  0  0  0  0  0  0  # atno 6908 bound_to 6896
  151.6796  135.0965  160.0265 H   0  0  0  0  0  0  0  0  0  0  0  0  # atno 6909 bound_to 6896
  145.4600  139.2287  143.2992 H   0  0  0  0  0  0  0  0  0  0  0  0  # atno 7974 bound_to 7965
  156.2298  140.1856  156.7271 H   0  0  0  0  0  0  0  0  0  0  0  0  # atno 8008 bound_to 7997
  154.6003  140.0637  156.9387 H   0  0  0  0  0  0  0  0  0  0  0  0  # atno 8009 bound_to 7997
  155.2186  140.3305  155.4321 H   0  0  0  0  0  0  0  0  0  0  0  0  # atno 8010 bound_to 7997
  140.0638  144.5210  150.7275 H   0  0  0  0  0  0  0  0  0  0  0  0  # atno 10167 bound_to 10162
  156.4136  130.7994  151.2213 H   0  0  0  0  0  0  0  0  0  0  0  0  # atno 10718 bound_to 10713
  154.5638  135.2822  155.0893 H   0  0  0  0  0  0  0  0  0  0  0  0  # atno 10763 bound_to 10752
  154.2292  135.6377  153.5173 H   0  0  0  0  0  0  0  0  0  0  0  0  # atno 10764 bound_to 10752
  153.0037  135.5533  154.6240 H   0  0  0  0  0  0  0  0  0  0  0  0  # atno 10765 bound_to 10752
  141.1491  133.6706  156.6191 H   0  0  0  0  0  0  0  0  0  0  0  0  # atno 11005 bound_to 11000
  146.2456  140.5368  142.8915 LP  0  0  0  0  0  0  0  0  0  0  0  0  # atno 17320 bound_to 7965
  144.8008  140.6210  143.6479 LP  0  0  0  0  0  0  0  0  0  0  0  0  # atno 17321 bound_to 7965
  140.7159  143.2544  151.4436 LP  0  0  0  0  0  0  0  0  0  0  0  0  # atno 17342 bound_to 10162
  139.5877  144.1567  152.2050 LP  0  0  0  0  0  0  0  0  0  0  0  0  # atno 17343 bound_to 10162
  157.7507  131.0250  150.3900 LP  0  0  0  0  0  0  0  0  0  0  0  0  # atno 17370 bound_to 10713
  156.4203  130.3951  149.6830 LP  0  0  0  0  0  0  0  0  0  0  0  0  # atno 17371 bound_to 10713
  140.3555  134.7732  157.4497 LP  0  0  0  0  0  0  0  0  0  0  0  0  # atno 17394 bound_to 11000
  140.0827  134.5709  155.8524 LP  0  0  0  0  0  0  0  0  0  0  0  0  # atno 17395 bound_to 11000

$$$$
