AV-unprocessed.smi:3090|AV-procd|sdf|11774|dock8
  -GOLD-   2272017153D 1   1.00000     0.00000
 Structure written by MMmdl.
 22 22  0  0  0  0  0  0  0  0  2 V2000
  145.0629  136.8537  152.0475 C   0  0  0  0  0  0  0  0  0  0  0  0
  144.6185  135.5085  151.7524 N   0  0  0  0  0  0  0  0  0  0  0  0
  144.9665  134.7005  150.6919 C   0  0  0  0  0  0  0  0  0  0  0  0
  144.2953  133.5175  150.8374 C   0  0  0  0  0  0  0  0  0  0  0  0
  144.3099  132.2964  149.9560 C   0  0  2  0  0  0  0  0  0  0  0  0
  145.6056  131.7364  149.8718 O   0  0  0  0  0  0  0  0  0  0  0  0
  143.8379  132.6480  148.5342 C   0  0  0  0  0  0  0  0  0  0  0  0
  142.3788  132.5032  148.3897 N   0  3  0  0  0  0  0  0  0  0  0  0
  143.5514  133.7095  152.0371 C   0  0  0  0  0  0  0  0  0  0  0  0
  143.7464  134.8994  152.5809 N   0  0  0  0  0  0  0  0  0  0  0  0
  145.7588  137.1950  151.2805 H   0  0  0  0  0  0  0  0  0  0  0  0
  145.5653  136.8729  153.0151 H   0  0  0  0  0  0  0  0  0  0  0  0
  144.2067  137.5285  152.0741 H   0  0  0  0  0  0  0  0  0  0  0  0
  145.6554  135.0302  149.9279 H   0  0  0  0  0  0  0  0  0  0  0  0
  143.6525  131.5309  150.3704 H   0  0  0  0  0  0  0  0  0  0  0  0
  145.5772  130.8590  150.2234 H   0  0  0  0  0  0  0  0  0  0  0  0
  144.0959  133.6815  148.2998 H   0  0  0  0  0  0  0  0  0  0  0  0
  144.3352  132.0199  147.7937 H   0  0  0  0  0  0  0  0  0  0  0  0
  142.0605  131.7165  148.9372 H   0  0  0  0  0  0  0  0  0  0  0  0
  142.1491  132.3545  147.4176 H   0  0  0  0  0  0  0  0  0  0  0  0
  142.8770  133.0214  152.5254 H   0  0  0  0  0  0  0  0  0  0  0  0
  141.9285  133.3465  148.7161 H   0  0  0  0  0  0  0  0  0  0  0  0
  1  2  1  0  0  0  0
  1 11  1  0  0  0  0
  1 12  1  0  0  0  0
  1 13  1  0  0  0  0
  2 10  1  0  0  0  0
  2  3  1  0  0  0  0
  3  4  2  0  0  0  0
  3 14  1  0  0  0  0
  4  5  1  0  0  0  0
  4  9  1  0  0  0  0
  5  6  1  0  0  0  0
  5  7  1  0  0  0  0
  5 15  1  0  0  0  0
  6 16  1  0  0  0  0
  7  8  1  0  0  0  0
  7 17  1  0  0  0  0
  7 18  1  0  0  0  0
  8 19  1  0  0  0  0
  8 20  1  0  0  0  0
  8 22  1  0  0  0  0
  9 10  2  0  0  0  0
  9 21  1  0  0  0  0
M  CHG  1   8   1
M  END
> <s_m_source_file>
AV-unprocessed.smi

> <i_m_source_file_index>
3090

> <i_lp_mmshare_version>
43012

> <i_f3d_flags>
0

> <s_epik_input>
W0NIM11uMVtjSF1jKFtjSF1uMSlbQ0BIXShbT0hdKVtDSDJdW05IMl0=

> <s_epik_cmdline>
J2VwaWtfcHl0aG9uJywgJy1waCcsICc3LjAnLCAnLXRuJywgJzgnLCAnLW1hJywgJzIwMCcsICctbWV0YWxfYmluZGluZycsICctaW1hZScsICc8aW5maWxlLm1hZT4nLCAnLW9tYWUnLCAnPG91dGZpbGUubWFlPic=

> <r_lp_tautomer_probability>
1

> <r_epik_Ionization_Penalty>
0.014056

> <r_epik_Ionization_Penalty_Charging>
0.0140431

> <r_epik_Ionization_Penalty_Neutral>
1.29738e-05

> <r_epik_State_Penalty>
0.0109628

> <r_epik_Charging_Adjusted_Penalty>
0.0250059

> <i_epik_Tot_Q>
1

> <i_epik_Tot_abs_Q>
1

> <r_epik_Metal_State_Penalty>
0.0109636

> <b_epik_Metal_Only>
0

> <s_lp_Force_Field>
OPLS_2005

> <r_lp_Energy>
1.35566

> <b_lp_Chiralities_Consistent>
1

> <s_lp_Variant>
AV-unprocessed.smi:3090-1

> <Gold.Version>
5.8.1

> <Gold.Id.Protein>
6NUR|6NUR_protein|mol2

> <Gold.PLP.Fitness>
40.2663

> <Gold.PLP.PLP>
-23.3489

> <Gold.PLP.part.hbond>
-3.0000

> <Gold.PLP.part.metal>
0.0000

> <Gold.PLP.part.buried>
-4.1549

> <Gold.PLP.part.nonpolar>
-17.0982

> <Gold.PLP.part.repulsive>
0.3121

> <Gold.PLP.ligand.clash>
0.0000

> <Gold.PLP.ligand.torsion>
0.3963

> <Gold.PLP.Chemscore.Hbond>
4.0000

> <Gold.PLP.Chemscore.CHOScore>
1.9025

> <Gold.PLP.Chemscore.Metal>
0.0000

> <Gold.Chemscore.Hbonds>
donor molecule, donor type, donor heavy atom, donor atom, acceptor molecule, acceptor atom, score
      L1  H     8    19       P1 10952  1.00
      L1  H     8    20       P1 10195  0.84
      L1  H     8    22       P1 10186  2.00
      L1  C     3    14       P1  7921  1.00
      L1  C     9    21       P1 10957  0.89

> <Gold.PLP.Chemscore.Internal.Correction>
0.0024

> <Gold.Rescore>
     Score         DG    S(hbond)    S(metal)    S(lipo)     H(rot)  DE(clash)    DE(int)     intcor
     16.03     -16.55       2.97        0.00      52.52       1.96       0.09       0.43       ----

> <Gold.Chemscore.Fitness>
16.0271

> <Gold.Chemscore.DG>
-16.5494

> <Gold.Chemscore.ZeroCoef>
-5.4800

> <Gold.Chemscore.Hbond>
2.9729

> <Gold.Chemscore.Metal>
0.0000

> <Gold.Chemscore.Lipo>
52.5213

> <Gold.Chemscore.Internal_Hbond>
0.0000

> <Gold.Chemscore.DEClash>
0.0939

> <Gold.Chemscore.DEInternal>
0.4285

> <Gold.Chemscore.Rot>
1.9551

> <Gold.Chemscore.Internal.Correction>
   9.000000E+99

> <Gold.Chemscore.Hbonds>
donor molecule, donor type, donor heavy atom, donor atom, acceptor molecule, acceptor atom, score
      L1  H     8    19       P1 10952  0.98
      L1  H     8    20       P1 10195  0.79
      L1  H     8    22       P1 10186  0.99

> <Gold.Chemscore.Hbond.Weighted>
-9.9296

> <Gold.Chemscore.Metal.Weighted>
-0.0000

> <Gold.Chemscore.Lipo.Weighted>
-6.1450

> <Gold.Chemscore.Internal_Hbond.Weighted>
0.0000

> <Gold.Chemscore.DEClash.Weighted>
0.0939

> <Gold.Chemscore.DEInternal.Weighted>
0.4285

> <Gold.Chemscore.Rot.Weighted>
5.0051

> <Gold.Chemscore.Internal.Correction.Weighted>
   9.000000E+99

> <Gold.Protein.RotatedTorsions>
[ 6907 6896 6895 6894 ] final   62.32 input  -60.11 | X-H torsion
[ 7974 7965 7964 7962 ] final   93.41 input  175.53 | X-H torsion
[ 8008 7997 7996 7995 ] final -147.52 input   59.86 | X-H torsion
[ 10167 10162 10161 10158 ] final  136.96 input  -65.29 | X-H torsion
[ 10718 10713 10712 10709 ] final -153.89 input   66.30 | X-H torsion
[ 10763 10752 10751 10750 ] final -139.02 input  -60.55 | X-H torsion
[ 11005 11000 10999 10996 ] final  -45.99 input  -57.11 | X-H torsion

> <Gold.Protein.ActiveResidues>
 VAL166  LYS551  ARG553  GLY616  TRP617  ASP618  TYR619  PRO620  LYS621  CYS622 
 ASP623  PHE694  ASN695  SER759  ASP760  ASP761  ALA762  ILE779  LEU786  VAL792 
 PHE793  MET794  SER795  GLU796  ALA797  LYS798  CYS799  TRP800  GLU811  SER814 

> <Gold.Protein.RotatedAtoms>
  152.4162  134.6037  160.0006 H   0  0  0  0  0  0  0  0  0  0  0  0  # atno 6907 bound_to 6896
  151.6199  133.3334  159.3094 H   0  0  0  0  0  0  0  0  0  0  0  0  # atno 6908 bound_to 6896
  150.8051  134.7210  159.6703 H   0  0  0  0  0  0  0  0  0  0  0  0  # atno 6909 bound_to 6896
  145.4792  139.2279  143.2892 H   0  0  0  0  0  0  0  0  0  0  0  0  # atno 7974 bound_to 7965
  155.5768  140.0639  157.2793 H   0  0  0  0  0  0  0  0  0  0  0  0  # atno 8008 bound_to 7997
  154.4344  140.1859  156.0982 H   0  0  0  0  0  0  0  0  0  0  0  0  # atno 8009 bound_to 7997
  156.0335  140.3304  155.7169 H   0  0  0  0  0  0  0  0  0  0  0  0  # atno 8010 bound_to 7997
  139.5161  144.6436  151.5502 H   0  0  0  0  0  0  0  0  0  0  0  0  # atno 10167 bound_to 10162
  156.4918  130.8351  151.2573 H   0  0  0  0  0  0  0  0  0  0  0  0  # atno 10718 bound_to 10713
  154.8621  135.3595  154.5478 H   0  0  0  0  0  0  0  0  0  0  0  0  # atno 10763 bound_to 10752
  153.6098  135.7010  153.5356 H   0  0  0  0  0  0  0  0  0  0  0  0  # atno 10764 bound_to 10752
  153.3219  135.4149  155.1385 H   0  0  0  0  0  0  0  0  0  0  0  0  # atno 10765 bound_to 10752
  141.0550  133.6729  156.3091 H   0  0  0  0  0  0  0  0  0  0  0  0  # atno 11005 bound_to 11000
  146.2351  140.5577  142.8958 LP  0  0  0  0  0  0  0  0  0  0  0  0  # atno 17320 bound_to 7965
  144.7899  140.6010  143.6549 LP  0  0  0  0  0  0  0  0  0  0  0  0  # atno 17321 bound_to 7965
  140.6212  143.9255  150.6527 LP  0  0  0  0  0  0  0  0  0  0  0  0  # atno 17342 bound_to 10162
  140.2529  143.3580  152.1390 LP  0  0  0  0  0  0  0  0  0  0  0  0  # atno 17343 bound_to 10162
  157.7473  131.0011  150.2950 LP  0  0  0  0  0  0  0  0  0  0  0  0  # atno 17370 bound_to 10713
  156.3418  130.3816  149.7402 LP  0  0  0  0  0  0  0  0  0  0  0  0  # atno 17371 bound_to 10713
  140.5981  134.5583  157.5512 LP  0  0  0  0  0  0  0  0  0  0  0  0  # atno 17394 bound_to 11000
  139.9383  134.7835  156.0745 LP  0  0  0  0  0  0  0  0  0  0  0  0  # atno 17395 bound_to 11000

$$$$
