#       Name:                AV-unprocessed.smi:3198
#       Creating user name   scv26
#       Creation time:       Fri Mar 27 18:05:59 2020


#       File generated by GOLD software.
#

@<TRIPOS>MOLECULE
AV-unprocessed.smi:3198
    42    43     1
SMALL
NO_CHARGES


@<TRIPOS>ATOM
      1 ****        -4.4049   3.2733  -1.2946 C.3            1 S1                 0.0000
      2 ****        -4.1478   1.7817  -1.3272 C.ar           1 S1                 0.0000
      3 ****        -5.1917   0.8349  -1.2773 C.ar           1 S1                 0.0000
      4 ****        -4.8736  -0.5377  -1.3106 C.ar           1 S1                 0.0000
      5 ****        -3.5225  -0.9340  -1.3905 C.ar           1 S1                 0.0000
      6 ****        -2.5107   0.0552  -1.4369 C.ar           1 S1                 0.0000
      7 ****        -1.1400  -0.2221  -1.5127 N.pl3          1 S1                 0.0000
      8 ****        -0.6754  -1.6001  -1.5486 C.3            1 S1                 0.0000
      9 ****         0.8517  -1.6784  -1.4567 C.3            1 S1                 0.0000
     10 ****         1.2529  -1.2887  -0.1539 O.3            1 S1                 0.0000
     11 ****         2.6564  -1.3584   0.0336 C.3            1 S1                 0.0000
     12 ****         2.9883  -0.9155   1.4641 C.3            1 S1                 0.0000
     13 ****         4.4835  -0.7398   1.7252 C.3            1 S1                 0.0000
     14 ****         4.6161  -0.9692   3.2235 C.3            1 S1                 0.0000
     15 ****         3.2842  -1.6105   3.6229 C.3            1 S1                 0.0000
     16 ****         2.6443  -1.9286   2.3952 O.3            1 S1                 0.0000
     17 ****        -2.8659   1.3593  -1.4047 N.pl3          1 S1                 1.0000
     18 ****        -5.4739   3.4881  -1.2778 H              1 S1                 0.0000
     19 ****        -3.9760   3.7531  -2.1747 H              1 S1                 0.0000
     20 ****        -3.9543   3.7165  -0.4062 H              1 S1                 0.0000
     21 ****        -6.2224   1.1528  -1.2143 H              1 S1                 0.0000
     22 ****        -5.6578  -1.2794  -1.2749 H              1 S1                 0.0000
     23 ****        -3.2824  -1.9865  -1.4171 H              1 S1                 0.0000
     24 ****        -0.4727   0.5024  -1.2893 H              1 S1                 0.0000
     25 ****        -1.1286  -2.1696  -0.7363 H              1 S1                 0.0000
     26 ****        -1.0033  -2.0522  -2.4852 H              1 S1                 0.0000
     27 ****         1.1736  -2.7040  -1.6437 H              1 S1                 0.0000
     28 ****         1.3179  -1.0460  -2.2142 H              1 S1                 0.0000
     29 ****         3.0253  -2.3688  -0.1507 H              1 S1                 0.0000
     30 ****         3.1454  -0.6930  -0.6796 H              1 S1                 0.0000
     31 ****         2.4592   0.0063   1.7140 H              1 S1                 0.0000
     32 ****         5.0516  -1.5018   1.1895 H              1 S1                 0.0000
     33 ****         4.8531   0.2367   1.4110 H              1 S1                 0.0000
     34 ****         5.4600  -1.6246   3.4420 H              1 S1                 0.0000
     35 ****         4.7694  -0.0332   3.7620 H              1 S1                 0.0000
     36 ****         3.4151  -2.4996   4.2404 H              1 S1                 0.0000
     37 ****         2.6667  -0.9004   4.1752 H              1 S1                 0.0000
     38 ****        -2.1288   2.0637  -1.4384 H              1 S1                 0.0000
     39 ****         0.8116  -1.8924   0.5101 LP             1 S1                 0.0000
     40 ****         0.9561  -0.3468   0.0033 LP             1 S1                 0.0000
     41 ****         2.9604  -2.8181   2.0652 LP             1 S1                 0.0000
     42 ****         1.6528  -1.9536   2.5227 LP             1 S1                 0.0000
@<TRIPOS>BOND
    1    1    2 1     
    2    1   18 1     
    3    1   19 1     
    4    1   20 1     
    5    2   17 ar    
    6    2    3 ar    
    7    3    4 ar    
    8    3   21 1     
    9    4    5 ar    
   10    4   22 1     
   11    5    6 ar    
   12    5   23 1     
   13    6    7 1     
   14    6   17 ar    
   15    7    8 1     
   16    7   24 1     
   17    8    9 1     
   18    8   25 1     
   19    8   26 1     
   20    9   10 1     
   21    9   27 1     
   22    9   28 1     
   23   10   11 1     
   24   11   12 1     
   25   11   29 1     
   26   11   30 1     
   27   12   16 1     
   28   12   13 1     
   29   12   31 1     
   30   13   14 1     
   31   13   32 1     
   32   13   33 1     
   33   14   15 1     
   34   14   34 1     
   35   14   35 1     
   36   15   16 1     
   37   15   36 1     
   38   15   37 1     
   39   17   38 1     
   40   10   39 1     
   41   10   40 1     
   42   16   41 1     
   43   16   42 1     
@<TRIPOS>SUBSTRUCTURE
      1 S1             1
@<TRIPOS>SET
LONE_PAIRS      STATIC     ATOMS    <user>   **** ""
4 39 40 41 42
DONOR_HYDROGENS      STATIC     ATOMS    <user>   **** ""
2 24 38
ATOM$BLUE        STATIC     ATOMS    COLORGROUP SYSTEM
4 39 40 41 42
ATOM$RED        STATIC     ATOMS    COLORGROUP SYSTEM
2 24 38
