AV-unprocessed.smi:334|AV-procd|sdf|2368|dock5
  -GOLD-   2262022283D 1   1.00000     0.00000
 Structure written by MMmdl.
 44 46  0  0  0  0  0  0  0  0  3 V2000
  148.9942  141.3700  157.8763 C   0  0  0  0  0  0  0  0  0  0  0  0
  150.5291  141.4691  157.9533 C   0  0  2  0  0  0  0  0  0  0  0  0
  151.0625  140.1932  158.4284 N   0  0  0  0  0  0  0  0  0  0  0  0
  152.0291  139.4797  157.8308 C   0  0  0  0  0  0  0  0  0  0  0  0
  152.5887  139.8359  156.7929 O   0  0  0  0  0  0  0  0  0  0  0  0
  152.4277  138.1732  158.5317 C   0  0  0  0  0  0  0  0  0  0  0  0
  151.3635  137.1553  158.5144 N   0  0  0  0  0  0  0  0  0  0  0  0
  150.4429  137.1729  159.5809 C   0  0  0  0  0  0  0  0  0  0  0  0
  149.4341  136.2840  159.6704 C   0  0  0  0  0  0  0  0  0  0  0  0
  148.5009  136.3139  160.7752 N   0  3  0  0  0  0  0  0  0  0  0  0
  148.6336  137.1797  161.6343 O   0  0  0  0  0  0  0  0  0  0  0  0
  147.6063  135.4747  160.8223 O   0  5  0  0  0  0  0  0  0  0  0  0
  149.3161  135.2899  158.6211 C   0  0  0  0  0  0  0  0  0  0  0  0
  150.1953  135.2661  157.6003 C   0  0  0  0  0  0  0  0  0  0  0  0
  151.2944  136.2325  157.5066 C   0  0  0  0  0  0  0  0  0  0  0  0
  152.1032  136.2135  156.5786 O   0  0  0  0  0  0  0  0  0  0  0  0
  151.0112  142.6094  158.8844 C   0  0  1  0  0  0  0  0  0  0  0  0
  152.5532  142.6952  159.0177 C   0  0  0  0  0  0  0  0  0  0  0  0
  152.8605  144.1616  158.6681 C   0  0  2  0  0  0  0  0  0  0  0  0
  152.3338  145.0807  159.7849 C   0  0  0  0  0  0  0  0  0  0  0  0
  150.8087  145.0185  159.5814 C   0  0  0  0  0  0  0  0  0  0  0  0
  150.6623  144.0399  158.3998 C   0  0  1  0  0  0  0  0  0  0  0  0
  151.8668  144.4200  157.5444 C   0  0  0  0  0  0  0  0  0  0  0  0
  148.5499  142.2673  157.4481 H   0  0  0  0  0  0  0  0  0  0  0  0
  148.5566  141.2201  158.8638 H   0  0  0  0  0  0  0  0  0  0  0  0
  148.6850  140.5340  157.2481 H   0  0  0  0  0  0  0  0  0  0  0  0
  150.9120  141.6597  156.9494 H   0  0  0  0  0  0  0  0  0  0  0  0
  150.6634  139.8259  159.2801 H   0  0  0  0  0  0  0  0  0  0  0  0
  153.3304  137.7925  158.0517 H   0  0  0  0  0  0  0  0  0  0  0  0
  152.7233  138.3896  159.5601 H   0  0  0  0  0  0  0  0  0  0  0  0
  150.6212  137.9465  160.3138 H   0  0  0  0  0  0  0  0  0  0  0  0
  148.5232  134.5569  158.6470 H   0  0  0  0  0  0  0  0  0  0  0  0
  150.0892  134.5156  156.8305 H   0  0  0  0  0  0  0  0  0  0  0  0
  150.5722  142.4432  159.8697 H   0  0  0  0  0  0  0  0  0  0  0  0
  152.8997  142.4244  160.0158 H   0  0  0  0  0  0  0  0  0  0  0  0
  153.0548  142.0375  158.3061 H   0  0  0  0  0  0  0  0  0  0  0  0
  153.9049  144.3395  158.4103 H   0  0  0  0  0  0  0  0  0  0  0  0
  152.6366  144.7407  160.7759 H   0  0  0  0  0  0  0  0  0  0  0  0
  152.6967  146.1011  159.6545 H   0  0  0  0  0  0  0  0  0  0  0  0
  150.2810  144.6806  160.4740 H   0  0  0  0  0  0  0  0  0  0  0  0
  150.4185  146.0026  159.3181 H   0  0  0  0  0  0  0  0  0  0  0  0
  149.7011  144.1322  157.8960 H   0  0  0  0  0  0  0  0  0  0  0  0
  151.8511  145.4594  157.2117 H   0  0  0  0  0  0  0  0  0  0  0  0
  152.0118  143.7714  156.6791 H   0  0  0  0  0  0  0  0  0  0  0  0
  1  2  1  0  0  0  0
  1 24  1  0  0  0  0
  1 25  1  0  0  0  0
  1 26  1  0  0  0  0
  2  3  1  0  0  0  0
  2 17  1  0  0  0  0
  2 27  1  0  0  0  0
  3  4  1  0  0  0  0
  3 28  1  0  0  0  0
  4  5  2  0  0  0  0
  4  6  1  0  0  0  0
  6  7  1  0  0  0  0
  6 29  1  0  0  0  0
  6 30  1  0  0  0  0
  7 15  1  0  0  0  0
  7  8  1  0  0  0  0
  8  9  2  0  0  0  0
  8 31  1  0  0  0  0
  9 10  1  0  0  0  0
  9 13  1  0  0  0  0
 10 11  2  0  0  0  0
 10 12  1  0  0  0  0
 13 14  2  0  0  0  0
 13 32  1  0  0  0  0
 14 15  1  0  0  0  0
 14 33  1  0  0  0  0
 15 16  2  0  0  0  0
 17 22  1  0  0  0  0
 17 18  1  0  0  0  0
 17 34  1  0  0  0  0
 18 19  1  0  0  0  0
 18 35  1  0  0  0  0
 18 36  1  0  0  0  0
 19 23  1  0  0  0  0
 19 20  1  0  0  0  0
 19 37  1  0  0  0  0
 20 21  1  0  0  0  0
 20 38  1  0  0  0  0
 20 39  1  0  0  0  0
 21 22  1  0  0  0  0
 21 40  1  0  0  0  0
 21 41  1  0  0  0  0
 22 23  1  0  0  0  0
 22 42  1  0  0  0  0
 23 43  1  0  0  0  0
 23 44  1  0  0  0  0
M  CHG  1  10   1
M  CHG  1  12  -1
M  END
> <s_m_source_file>
AV-unprocessed.smi

> <i_m_source_file_index>
334

> <i_lp_mmshare_version>
43012

> <i_f3d_flags>
0

> <s_epik_input>
W0NIMl0xW0NIMl1bQ0BIXShbQ0gyXTIpW0NAQEhdKFtDSDJdW0NAQEhdMTIpW0NASF0oW0NIM10pW05IXUMoPU8pW0NIMl1uM1tjSF1jKFtOK10oPU8pW08tXSlbY0hdW2NIXWMzPU8=

> <s_epik_cmdline>
J2VwaWtfcHl0aG9uJywgJy1waCcsICc3LjAnLCAnLXRuJywgJzgnLCAnLW1hJywgJzIwMCcsICctbWV0YWxfYmluZGluZycsICctaW1hZScsICc8aW5maWxlLm1hZT4nLCAnLW9tYWUnLCAnPG91dGZpbGUubWFlPic=

> <r_lp_tautomer_probability>
1

> <r_epik_Ionization_Penalty>
2.17081e-08

> <r_epik_Ionization_Penalty_Charging>
8.1195e-11

> <r_epik_Ionization_Penalty_Neutral>
2.16269e-08

> <r_epik_State_Penalty>
-0

> <r_epik_Charging_Adjusted_Penalty>
8.1195e-11

> <i_epik_Tot_Q>
0

> <i_epik_Tot_abs_Q>
2

> <r_epik_Metal_State_Penalty>
-0

> <b_epik_Metal_Only>
0

> <s_lp_Force_Field>
OPLS_2005

> <r_lp_Energy>
62.5387

> <b_lp_Chiralities_Consistent>
1

> <s_lp_Variant>
AV-unprocessed.smi:334-7

> <Gold.Version>
5.8.1

> <Gold.Id.Protein>
6NUR|6NUR_protein|mol2

> <Gold.PLP.Fitness>
51.7274

> <Gold.PLP.PLP>
-41.6157

> <Gold.PLP.part.hbond>
-4.0000

> <Gold.PLP.part.metal>
0.0000

> <Gold.PLP.part.buried>
-6.1643

> <Gold.PLP.part.nonpolar>
-31.5675

> <Gold.PLP.part.repulsive>
0.1404

> <Gold.PLP.ligand.clash>
0.0000

> <Gold.PLP.ligand.torsion>
0.5381

> <Gold.PLP.Chemscore.Hbond>
3.7120

> <Gold.PLP.Chemscore.CHOScore>
0.0000

> <Gold.PLP.Chemscore.Metal>
0.0000

> <Gold.Chemscore.Hbonds>
donor molecule, donor type, donor heavy atom, donor atom, acceptor molecule, acceptor atom, score
      P1  H  6931  6943       L1    11  0.10
      P1  H  7997  8010       L1     5  1.00
      P1  H 10752 10763       L1    16  1.00

> <Gold.PLP.Chemscore.Internal.Correction>
0.0519

> <Gold.Rescore>
     Score         DG    S(hbond)    S(metal)    S(lipo)     H(rot)  DE(clash)    DE(int)     intcor
     25.26     -25.83       3.70        0.00     106.55       1.75       0.01       0.55       ----

> <Gold.Chemscore.Fitness>
25.2646

> <Gold.Chemscore.DG>
-25.8251

> <Gold.Chemscore.ZeroCoef>
-5.4800

> <Gold.Chemscore.Hbond>
3.6983

> <Gold.Chemscore.Metal>
0.0000

> <Gold.Chemscore.Lipo>
106.5474

> <Gold.Chemscore.Internal_Hbond>
0.0000

> <Gold.Chemscore.DEClash>
0.0127

> <Gold.Chemscore.DEInternal>
0.5478

> <Gold.Chemscore.Rot>
1.7474

> <Gold.Chemscore.Internal.Correction>
   9.000000E+99

> <Gold.Chemscore.Hbonds>
donor molecule, donor type, donor heavy atom, donor atom, acceptor molecule, acceptor atom, score
      P1  H  6931  6943       L1    11  0.13
      P1  H  6934  6947       L1    11  0.01
      P1  H  7997  8010       L1     5  1.00
      P1  H 10752 10763       L1    16  0.98

> <Gold.Chemscore.Hbond.Weighted>
-12.3524

> <Gold.Chemscore.Metal.Weighted>
-0.0000

> <Gold.Chemscore.Lipo.Weighted>
-12.4660

> <Gold.Chemscore.Internal_Hbond.Weighted>
0.0000

> <Gold.Chemscore.DEClash.Weighted>
0.0127

> <Gold.Chemscore.DEInternal.Weighted>
0.5478

> <Gold.Chemscore.Rot.Weighted>
4.4733

> <Gold.Chemscore.Internal.Correction.Weighted>
   9.000000E+99

> <Gold.Protein.RotatedTorsions>
[ 6907 6896 6895 6894 ] final -151.94 input  -60.11 | X-H torsion
[ 7974 7965 7964 7962 ] final  102.28 input  175.53 | X-H torsion
[ 8008 7997 7996 7995 ] final   62.42 input   59.86 | X-H torsion
[ 10167 10162 10161 10158 ] final  172.69 input  -65.29 | X-H torsion
[ 10718 10713 10712 10709 ] final  123.29 input   66.30 | X-H torsion
[ 10763 10752 10751 10750 ] final   98.77 input  -60.55 | X-H torsion
[ 11005 11000 10999 10996 ] final  -38.75 input  -57.11 | X-H torsion

> <Gold.Protein.ActiveResidues>
 VAL166  LYS551  ARG553  GLY616  TRP617  ASP618  TYR619  PRO620  LYS621  CYS622 
 ASP623  PHE694  ASN695  SER759  ASP760  ASP761  ALA762  ILE779  LEU786  VAL792 
 PHE793  MET794  SER795  GLU796  ALA797  LYS798  CYS799  TRP800  GLU811  SER814 

> <Gold.Protein.RotatedAtoms>
  151.2204  133.4505  159.2600 H   0  0  0  0  0  0  0  0  0  0  0  0  # atno 6907 bound_to 6896
  151.0890  134.9905  159.8403 H   0  0  0  0  0  0  0  0  0  0  0  0  # atno 6908 bound_to 6896
  152.5432  134.2139  159.8814 H   0  0  0  0  0  0  0  0  0  0  0  0  # atno 6909 bound_to 6896
  145.3612  139.2417  143.3505 H   0  0  0  0  0  0  0  0  0  0  0  0  # atno 7974 bound_to 7965
  155.6140  140.3495  155.4631 H   0  0  0  0  0  0  0  0  0  0  0  0  # atno 8008 bound_to 7997
  156.0132  140.1237  157.0457 H   0  0  0  0  0  0  0  0  0  0  0  0  # atno 8009 bound_to 7997
  154.4288  140.1077  156.5844 H   0  0  0  0  0  0  0  0  0  0  0  0  # atno 8010 bound_to 7997
  139.5084  144.3345  152.0079 H   0  0  0  0  0  0  0  0  0  0  0  0  # atno 10167 bound_to 10162
  157.5676  131.1085  150.8426 H   0  0  0  0  0  0  0  0  0  0  0  0  # atno 10718 bound_to 10713
  153.2931  135.4137  155.1185 H   0  0  0  0  0  0  0  0  0  0  0  0  # atno 10763 bound_to 10752
  154.8526  135.3523  154.5954 H   0  0  0  0  0  0  0  0  0  0  0  0  # atno 10764 bound_to 10752
  153.6377  135.7058  153.5311 H   0  0  0  0  0  0  0  0  0  0  0  0  # atno 10765 bound_to 10752
  141.0051  133.6936  156.2095 H   0  0  0  0  0  0  0  0  0  0  0  0  # atno 11005 bound_to 11000
  146.2926  140.4247  142.8733 LP  0  0  0  0  0  0  0  0  0  0  0  0  # atno 17320 bound_to 7965
  144.8645  140.7186  143.6086 LP  0  0  0  0  0  0  0  0  0  0  0  0  # atno 17321 bound_to 7965
  140.2784  144.3887  150.6127 LP  0  0  0  0  0  0  0  0  0  0  0  0  # atno 17342 bound_to 10162
  140.6036  143.2167  151.7024 LP  0  0  0  0  0  0  0  0  0  0  0  0  # atno 17343 bound_to 10162
  156.8907  130.5212  149.5286 LP  0  0  0  0  0  0  0  0  0  0  0  0  # atno 17370 bound_to 10713
  156.0723  130.5753  150.9407 LP  0  0  0  0  0  0  0  0  0  0  0  0  # atno 17371 bound_to 10713
  140.6826  134.4751  157.5589 LP  0  0  0  0  0  0  0  0  0  0  0  0  # atno 17394 bound_to 11000
  139.9059  134.8450  156.1708 LP  0  0  0  0  0  0  0  0  0  0  0  0  # atno 17395 bound_to 11000

$$$$
