AV-unprocessed.smi:552|AV-procd|sdf|2902|dock8
  -GOLD-   2262023393D 1   1.00000     0.00000
 Structure written by MMmdl.
 42 43  0  0  0  0  0  0  0  0  1 V2000
  150.1820  131.6955  155.3901 C   0  0  0  0  0  0  0  0  0  0  0  0
  150.3179  133.2238  155.3252 C   0  0  0  0  0  0  0  0  0  0  0  0
  149.1063  133.9262  154.6838 C   0  0  2  0  0  0  0  0  0  0  0  0
  148.7414  133.2996  153.3287 C   0  0  0  0  0  0  0  0  0  0  0  0
  149.3796  135.3521  154.5155 N   0  0  0  0  0  0  0  0  0  0  0  0
  149.7797  136.1875  155.4848 C   0  0  0  0  0  0  0  0  0  0  0  0
  149.9603  135.8401  156.6518 O   0  0  0  0  0  0  0  0  0  0  0  0
  149.9304  137.4380  155.0157 N   0  0  0  0  0  0  0  0  0  0  0  0
  150.3486  138.5975  155.7221 C   0  0  0  0  0  0  0  0  0  0  0  0
  150.6842  139.8247  155.1058 C   0  0  0  0  0  0  0  0  0  0  0  0
  151.0673  140.9117  155.9145 C   0  0  0  0  0  0  0  0  0  0  0  0
  151.1035  140.7524  157.3202 C   0  0  0  0  0  0  0  0  0  0  0  0
  151.4919  141.8276  158.1499 N   0  0  0  0  0  0  0  0  0  0  0  0
  152.6570  141.6411  159.0139 C   0  0  0  0  0  0  0  0  0  0  0  0
  152.7552  142.7836  160.0388 C   0  0  0  0  0  0  0  0  0  0  0  0
  152.7690  144.0355  159.3615 O   0  0  0  0  0  0  0  0  0  0  0  0
  151.5744  144.2460  158.6166 C   0  0  0  0  0  0  0  0  0  0  0  0
  151.4299  143.1548  157.5416 C   0  0  0  0  0  0  0  0  0  0  0  0
  150.7590  139.5796  157.9071 N   0  0  0  0  0  0  0  0  0  0  0  0
  150.3908  138.5407  157.1289 C   0  0  0  0  0  0  0  0  0  0  0  0
  151.0811  131.2456  155.8115 H   0  0  0  0  0  0  0  0  0  0  0  0
  150.0348  131.2725  154.3960 H   0  0  0  0  0  0  0  0  0  0  0  0
  149.3395  131.3921  156.0120 H   0  0  0  0  0  0  0  0  0  0  0  0
  150.4833  133.6146  156.3301 H   0  0  0  0  0  0  0  0  0  0  0  0
  151.2153  133.4670  154.7552 H   0  0  0  0  0  0  0  0  0  0  0  0
  148.2556  133.8000  155.3561 H   0  0  0  0  0  0  0  0  0  0  0  0
  148.5157  132.2382  153.4357 H   0  0  0  0  0  0  0  0  0  0  0  0
  149.5589  133.3953  152.6135 H   0  0  0  0  0  0  0  0  0  0  0  0
  147.8622  133.7779  152.8955 H   0  0  0  0  0  0  0  0  0  0  0  0
  149.2539  135.7294  153.5876 H   0  0  0  0  0  0  0  0  0  0  0  0
  149.6552  137.5902  154.0564 H   0  0  0  0  0  0  0  0  0  0  0  0
  150.6388  139.9591  154.0362 H   0  0  0  0  0  0  0  0  0  0  0  0
  151.3093  141.8546  155.4478 H   0  0  0  0  0  0  0  0  0  0  0  0
  152.5885  140.6894  159.5424 H   0  0  0  0  0  0  0  0  0  0  0  0
  153.5590  141.6107  158.4011 H   0  0  0  0  0  0  0  0  0  0  0  0
  151.9225  142.7475  160.7432 H   0  0  0  0  0  0  0  0  0  0  0  0
  153.6705  142.6857  160.6229 H   0  0  0  0  0  0  0  0  0  0  0  0
  150.7118  144.2495  159.2851 H   0  0  0  0  0  0  0  0  0  0  0  0
  151.6175  145.2296  158.1487 H   0  0  0  0  0  0  0  0  0  0  0  0
  152.2346  143.2432  156.8105 H   0  0  0  0  0  0  0  0  0  0  0  0
  150.4961  143.3125  157.0044 H   0  0  0  0  0  0  0  0  0  0  0  0
  150.1271  137.6317  157.6496 H   0  0  0  0  0  0  0  0  0  0  0  0
  1  2  1  0  0  0  0
  1 21  1  0  0  0  0
  1 22  1  0  0  0  0
  1 23  1  0  0  0  0
  2  3  1  0  0  0  0
  2 24  1  0  0  0  0
  2 25  1  0  0  0  0
  3  4  1  0  0  0  0
  3  5  1  0  0  0  0
  3 26  1  0  0  0  0
  4 27  1  0  0  0  0
  4 28  1  0  0  0  0
  4 29  1  0  0  0  0
  5  6  1  0  0  0  0
  5 30  1  0  0  0  0
  6  7  2  0  0  0  0
  6  8  1  0  0  0  0
  8  9  1  0  0  0  0
  8 31  1  0  0  0  0
  9 20  1  0  0  0  0
  9 10  2  0  0  0  0
 10 11  1  0  0  0  0
 10 32  1  0  0  0  0
 11 12  2  0  0  0  0
 11 33  1  0  0  0  0
 12 13  1  0  0  0  0
 12 19  1  0  0  0  0
 13 18  1  0  0  0  0
 13 14  1  0  0  0  0
 14 15  1  0  0  0  0
 14 34  1  0  0  0  0
 14 35  1  0  0  0  0
 15 16  1  0  0  0  0
 15 36  1  0  0  0  0
 15 37  1  0  0  0  0
 16 17  1  0  0  0  0
 17 18  1  0  0  0  0
 17 38  1  0  0  0  0
 17 39  1  0  0  0  0
 18 40  1  0  0  0  0
 18 41  1  0  0  0  0
 19 20  2  0  0  0  0
 20 42  1  0  0  0  0
M  END
> <s_m_source_file>
AV-unprocessed.smi

> <i_m_source_file_index>
552

> <i_lp_mmshare_version>
43012

> <i_f3d_flags>
0

> <s_epik_input>
W0NIM11bQ0gyXVtDQEhdKFtDSDNdKVtOSF1DKD1PKVtOSF1jMVtjSF1bY0hdYyhuW2NIXTEpTjJbQ0gyXVtDSDJdT1tDSDJdW0NIMl0y

> <s_epik_cmdline>
J2VwaWtfcHl0aG9uJywgJy1waCcsICc3LjAnLCAnLXRuJywgJzgnLCAnLW1hJywgJzIwMCcsICctbWV0YWxfYmluZGluZycsICctaW1hZScsICc8aW5maWxlLm1hZT4nLCAnLW9tYWUnLCAnPG91dGZpbGUubWFlPic=

> <r_lp_tautomer_probability>
1

> <r_epik_Ionization_Penalty>
0.00215965

> <r_epik_Ionization_Penalty_Charging>
0

> <r_epik_Ionization_Penalty_Neutral>
0.00215965

> <r_epik_State_Penalty>
0.00145276

> <r_epik_Charging_Adjusted_Penalty>
0.00145276

> <i_epik_Tot_Q>
0

> <i_epik_Tot_abs_Q>
0

> <r_epik_Metal_State_Penalty>
-0

> <b_epik_Metal_Only>
0

> <s_lp_Force_Field>
OPLS_2005

> <r_lp_Energy>
20.9108

> <b_lp_Chiralities_Consistent>
1

> <s_lp_Variant>
AV-unprocessed.smi:552-1

> <Gold.Version>
5.8.1

> <Gold.Id.Protein>
6NUR|6NUR_protein|mol2

> <Gold.PLP.Fitness>
37.6217

> <Gold.PLP.PLP>
-34.9705

> <Gold.PLP.part.hbond>
-1.0000

> <Gold.PLP.part.metal>
0.0000

> <Gold.PLP.part.buried>
-3.9217

> <Gold.PLP.part.nonpolar>
-29.5265

> <Gold.PLP.part.repulsive>
0.0734

> <Gold.PLP.ligand.clash>
0.0000

> <Gold.PLP.ligand.torsion>
0.3495

> <Gold.PLP.Chemscore.Hbond>
1.0000

> <Gold.PLP.Chemscore.CHOScore>
0.0000

> <Gold.PLP.Chemscore.Metal>
0.0000

> <Gold.Chemscore.Hbonds>
donor molecule, donor type, donor heavy atom, donor atom, acceptor molecule, acceptor atom, score
      L1  H     5    30       P1  7948  1.00

> <Gold.PLP.Chemscore.Internal.Correction>
0.3502

> <Gold.Rescore>
     Score         DG    S(hbond)    S(metal)    S(lipo)     H(rot)  DE(clash)    DE(int)     intcor
     15.00     -17.01       1.73        0.00      78.65       1.35       0.06       1.94       ----

> <Gold.Chemscore.Fitness>
15.0044

> <Gold.Chemscore.DG>
-17.0083

> <Gold.Chemscore.ZeroCoef>
-5.4800

> <Gold.Chemscore.Hbond>
1.7337

> <Gold.Chemscore.Metal>
0.0000

> <Gold.Chemscore.Lipo>
78.6465

> <Gold.Chemscore.Internal_Hbond>
0.0000

> <Gold.Chemscore.DEClash>
0.0626

> <Gold.Chemscore.DEInternal>
1.9413

> <Gold.Chemscore.Rot>
1.3530

> <Gold.Chemscore.Internal.Correction>
   9.000000E+99

> <Gold.Chemscore.Hbonds>
donor molecule, donor type, donor heavy atom, donor atom, acceptor molecule, acceptor atom, score
      L1  H     5    30       P1  7948  0.60

> <Gold.Chemscore.Hbond.Weighted>
-5.7904

> <Gold.Chemscore.Metal.Weighted>
-0.0000

> <Gold.Chemscore.Lipo.Weighted>
-9.2016

> <Gold.Chemscore.Internal_Hbond.Weighted>
0.0000

> <Gold.Chemscore.DEClash.Weighted>
0.0626

> <Gold.Chemscore.DEInternal.Weighted>
1.9413

> <Gold.Chemscore.Rot.Weighted>
3.4638

> <Gold.Chemscore.Internal.Correction.Weighted>
   9.000000E+99

> <Gold.Protein.RotatedTorsions>
[ 6907 6896 6895 6894 ] final  -96.41 input  -60.11 | X-H torsion
[ 7974 7965 7964 7962 ] final   -8.41 input  175.53 | X-H torsion
[ 8008 7997 7996 7995 ] final   18.89 input   59.86 | X-H torsion
[ 10167 10162 10161 10158 ] final   69.60 input  -65.29 | X-H torsion
[ 10718 10713 10712 10709 ] final -177.32 input   66.30 | X-H torsion
[ 10763 10752 10751 10750 ] final  -13.18 input  -60.55 | X-H torsion
[ 11005 11000 10999 10996 ] final   59.41 input  -57.11 | X-H torsion

> <Gold.Protein.ActiveResidues>
 VAL166  LYS551  ARG553  GLY616  TRP617  ASP618  TYR619  PRO620  LYS621  CYS622 
 ASP623  PHE694  ASN695  SER759  ASP760  ASP761  ALA762  ILE779  LEU786  VAL792 
 PHE793  MET794  SER795  GLU796  ALA797  LYS798  CYS799  TRP800  GLU811  SER814 

> <Gold.Protein.RotatedAtoms>
  150.6988  134.1508  159.4139 H   0  0  0  0  0  0  0  0  0  0  0  0  # atno 6907 bound_to 6896
  151.9490  135.0175  160.0550 H   0  0  0  0  0  0  0  0  0  0  0  0  # atno 6908 bound_to 6896
  152.2027  133.4818  159.5104 H   0  0  0  0  0  0  0  0  0  0  0  0  # atno 6909 bound_to 6896
  146.2281  140.2464  142.8345 H   0  0  0  0  0  0  0  0  0  0  0  0  # atno 7974 bound_to 7965
  154.9127  140.3016  155.5257 H   0  0  0  0  0  0  0  0  0  0  0  0  # atno 8008 bound_to 7997
  156.3014  140.2386  156.4104 H   0  0  0  0  0  0  0  0  0  0  0  0  # atno 8009 bound_to 7997
  154.8409  140.0414  157.1529 H   0  0  0  0  0  0  0  0  0  0  0  0  # atno 8010 bound_to 7997
  140.0660  144.5192  150.7260 H   0  0  0  0  0  0  0  0  0  0  0  0  # atno 10167 bound_to 10162
  156.8278  130.9642  151.3108 H   0  0  0  0  0  0  0  0  0  0  0  0  # atno 10718 bound_to 10713
  153.5095  135.7016  153.5788 H   0  0  0  0  0  0  0  0  0  0  0  0  # atno 10763 bound_to 10752
  153.3885  135.3902  155.1906 H   0  0  0  0  0  0  0  0  0  0  0  0  # atno 10764 bound_to 10752
  154.8704  135.3852  154.4573 H   0  0  0  0  0  0  0  0  0  0  0  0  # atno 10765 bound_to 10752
  140.0306  134.6018  155.9513 H   0  0  0  0  0  0  0  0  0  0  0  0  # atno 11005 bound_to 11000
  144.9445  140.8114  143.5610 LP  0  0  0  0  0  0  0  0  0  0  0  0  # atno 17320 bound_to 7965
  145.2419  139.2069  143.4988 LP  0  0  0  0  0  0  0  0  0  0  0  0  # atno 17321 bound_to 7965
  140.7149  143.2536  151.4467 LP  0  0  0  0  0  0  0  0  0  0  0  0  # atno 17342 bound_to 10162
  139.5864  144.1594  152.2035 LP  0  0  0  0  0  0  0  0  0  0  0  0  # atno 17343 bound_to 10162
  157.6423  130.8815  149.9471 LP  0  0  0  0  0  0  0  0  0  0  0  0  # atno 17370 bound_to 10713
  156.0951  130.3660  150.0321 LP  0  0  0  0  0  0  0  0  0  0  0  0  # atno 17371 bound_to 10713
  141.1828  133.6550  156.5092 LP  0  0  0  0  0  0  0  0  0  0  0  0  # atno 17394 bound_to 11000
  140.4233  134.7168  157.4902 LP  0  0  0  0  0  0  0  0  0  0  0  0  # atno 17395 bound_to 11000

$$$$
