AV-unprocessed.smi:1362|AV-procd|sdf|5560|dock6
  -GOLD-   22720 5153D 1   1.00000     0.00000
 Structure written by MMmdl.
 39 39  0  0  0  0  0  0  0  0  1 V2000
  147.5019  141.6714  153.5184 C   0  0  0  0  0  0  0  0  0  0  0  0
  148.2995  141.1583  154.6975 C   0  0  0  0  0  0  0  0  0  0  0  0
  149.4116  140.4168  154.3348 N   0  0  0  0  0  0  0  0  0  0  0  0
  150.2063  139.9042  155.3447 C   0  0  0  0  0  0  0  0  0  0  0  0
  151.4026  139.1047  154.8586 C   0  0  0  0  0  0  0  0  0  0  0  0
  149.9073  140.1195  156.6511 C   0  0  0  0  0  0  0  0  0  0  0  0
  150.7529  139.5679  157.7975 C   0  0  0  0  0  0  0  0  0  0  0  0
  152.0054  140.3793  158.1278 C   0  0  0  0  0  0  0  0  0  0  0  0
  153.1215  139.8858  157.9690 O   0  0  0  0  0  0  0  0  0  0  0  0
  151.8000  141.6219  158.5913 N   0  0  0  0  0  0  0  0  0  0  0  0
  152.8384  142.5694  158.9920 C   0  0  2  0  0  0  0  0  0  0  0  0
  153.3043  142.2113  160.4156 C   0  0  0  0  0  0  0  0  0  0  0  0
  152.3112  144.0230  158.8637 C   0  0  0  0  0  0  0  0  0  0  0  0
  151.2053  144.3338  159.8913 C   0  0  0  0  0  0  0  0  0  0  0  0
  151.7970  144.3385  157.4475 C   0  0  0  0  0  0  0  0  0  0  0  0
  148.7003  140.9157  156.9771 C   0  0  0  0  0  0  0  0  0  0  0  0
  148.3673  141.1318  158.1418 O   0  0  0  0  0  0  0  0  0  0  0  0
  147.9302  141.4165  155.9150 N   0  0  0  0  0  0  0  0  0  0  0  0
  149.6702  140.2323  153.3761 H   0  0  0  0  0  0  0  0  0  0  0  0
  146.6737  142.2988  153.8504 H   0  0  0  0  0  0  0  0  0  0  0  0
  147.0914  140.8380  152.9476 H   0  0  0  0  0  0  0  0  0  0  0  0
  148.1358  142.2651  152.8591 H   0  0  0  0  0  0  0  0  0  0  0  0
  152.3317  139.5663  155.1932 H   0  0  0  0  0  0  0  0  0  0  0  0
  151.4324  139.0477  153.7697 H   0  0  0  0  0  0  0  0  0  0  0  0
  151.3634  138.0861  155.2444 H   0  0  0  0  0  0  0  0  0  0  0  0
  151.0427  138.5351  157.5990 H   0  0  0  0  0  0  0  0  0  0  0  0
  150.1370  139.5098  158.6952 H   0  0  0  0  0  0  0  0  0  0  0  0
  150.8444  141.9358  158.6820 H   0  0  0  0  0  0  0  0  0  0  0  0
  153.6917  142.4646  158.3194 H   0  0  0  0  0  0  0  0  0  0  0  0
  154.1640  142.8062  160.7216 H   0  0  0  0  0  0  0  0  0  0  0  0
  153.6078  141.1656  160.4779 H   0  0  0  0  0  0  0  0  0  0  0  0
  152.5088  142.3684  161.1448 H   0  0  0  0  0  0  0  0  0  0  0  0
  153.1403  144.7025  159.0671 H   0  0  0  0  0  0  0  0  0  0  0  0
  150.3571  143.6588  159.7730 H   0  0  0  0  0  0  0  0  0  0  0  0
  150.8357  145.3530  159.7751 H   0  0  0  0  0  0  0  0  0  0  0  0
  151.5634  144.2420  160.9168 H   0  0  0  0  0  0  0  0  0  0  0  0
  151.0097  143.6460  157.1481 H   0  0  0  0  0  0  0  0  0  0  0  0
  152.5930  144.2845  156.7056 H   0  0  0  0  0  0  0  0  0  0  0  0
  151.3870  145.3475  157.3950 H   0  0  0  0  0  0  0  0  0  0  0  0
  1 20  1  0  0  0  0
  1 21  1  0  0  0  0
  1 22  1  0  0  0  0
  1  2  1  0  0  0  0
  2  3  1  0  0  0  0
  2 18  2  0  0  0  0
  3  4  1  0  0  0  0
  3 19  1  0  0  0  0
  4  6  2  0  0  0  0
  4  5  1  0  0  0  0
  5 23  1  0  0  0  0
  5 24  1  0  0  0  0
  5 25  1  0  0  0  0
  6 16  1  0  0  0  0
  6  7  1  0  0  0  0
  7  8  1  0  0  0  0
  7 26  1  0  0  0  0
  7 27  1  0  0  0  0
  8  9  2  0  0  0  0
  8 10  1  0  0  0  0
 10 11  1  0  0  0  0
 10 28  1  0  0  0  0
 11 12  1  0  0  0  0
 11 13  1  0  0  0  0
 11 29  1  0  0  0  0
 12 30  1  0  0  0  0
 12 31  1  0  0  0  0
 12 32  1  0  0  0  0
 13 14  1  0  0  0  0
 13 15  1  0  0  0  0
 13 33  1  0  0  0  0
 14 34  1  0  0  0  0
 14 35  1  0  0  0  0
 14 36  1  0  0  0  0
 15 37  1  0  0  0  0
 15 38  1  0  0  0  0
 15 39  1  0  0  0  0
 16 17  2  0  0  0  0
 16 18  1  0  0  0  0
M  END
> <s_m_source_file>
AV-unprocessed.smi

> <i_m_source_file_index>
1362

> <i_lp_mmshare_version>
43012

> <i_f3d_flags>
0

> <s_epik_input>
W0NIM11jMW5jKFtDSDNdKWMoYyg9TylbbkhdMSlbQ0gyXUMoPU8pW05IXVtDQEhdKFtDSDNdKVtDSF0oW0NIM10pW0NIM10=

> <s_epik_cmdline>
J2VwaWtfcHl0aG9uJywgJy1waCcsICc3LjAnLCAnLXRuJywgJzgnLCAnLW1hJywgJzIwMCcsICctbWV0YWxfYmluZGluZycsICctaW1hZScsICc8aW5maWxlLm1hZT4nLCAnLW9tYWUnLCAnPG91dGZpbGUubWFlPic=

> <r_lp_tautomer_probability>
0.156392

> <r_epik_Ionization_Penalty>
0.0140737

> <r_epik_Ionization_Penalty_Charging>
0.0139511

> <r_epik_Ionization_Penalty_Neutral>
0.000122633

> <r_epik_State_Penalty>
1.53034

> <r_epik_Charging_Adjusted_Penalty>
1.54429

> <i_epik_Tot_Q>
0

> <i_epik_Tot_abs_Q>
0

> <r_epik_Metal_State_Penalty>
1.70655

> <b_epik_Metal_Only>
0

> <s_lp_Force_Field>
OPLS_2005

> <r_lp_Energy>
10.2097

> <b_lp_Chiralities_Consistent>
1

> <s_lp_Variant>
AV-unprocessed.smi:1362-3

> <Gold.Version>
5.8.1

> <Gold.Id.Protein>
6NUR|6NUR_protein|mol2

> <Gold.PLP.Fitness>
40.3570

> <Gold.PLP.PLP>
-36.6145

> <Gold.PLP.part.hbond>
-1.8128

> <Gold.PLP.part.metal>
0.0000

> <Gold.PLP.part.buried>
-3.8563

> <Gold.PLP.part.nonpolar>
-29.9318

> <Gold.PLP.part.repulsive>
0.4371

> <Gold.PLP.ligand.clash>
0.0000

> <Gold.PLP.ligand.torsion>
0.6661

> <Gold.PLP.Chemscore.Hbond>
1.6825

> <Gold.PLP.Chemscore.CHOScore>
0.0000

> <Gold.PLP.Chemscore.Metal>
0.0000

> <Gold.Chemscore.Hbonds>
donor molecule, donor type, donor heavy atom, donor atom, acceptor molecule, acceptor atom, score
      L1  H     3    19       P1  7957  0.52
      P1  H  7997  8010       L1     9  1.00

> <Gold.PLP.Chemscore.Internal.Correction>
0.0271

> <Gold.Rescore>
     Score         DG    S(hbond)    S(metal)    S(lipo)     H(rot)  DE(clash)    DE(int)     intcor
     16.56     -17.96       1.90        0.00      89.42       1.69       0.60       0.80       ----

> <Gold.Chemscore.Fitness>
16.5600

> <Gold.Chemscore.DG>
-17.9599

> <Gold.Chemscore.ZeroCoef>
-5.4800

> <Gold.Chemscore.Hbond>
1.9006

> <Gold.Chemscore.Metal>
0.0000

> <Gold.Chemscore.Lipo>
89.4216

> <Gold.Chemscore.Internal_Hbond>
0.0000

> <Gold.Chemscore.DEClash>
0.6048

> <Gold.Chemscore.DEInternal>
0.7952

> <Gold.Chemscore.Rot>
1.6916

> <Gold.Chemscore.Internal.Correction>
   9.000000E+99

> <Gold.Chemscore.Hbonds>
donor molecule, donor type, donor heavy atom, donor atom, acceptor molecule, acceptor atom, score
      L1  H     3    19       P1  7957  0.52
      P1  H  7997  8010       L1     9  0.99

> <Gold.Chemscore.Hbond.Weighted>
-6.3481

> <Gold.Chemscore.Metal.Weighted>
-0.0000

> <Gold.Chemscore.Lipo.Weighted>
-10.4623

> <Gold.Chemscore.Internal_Hbond.Weighted>
0.0000

> <Gold.Chemscore.DEClash.Weighted>
0.6048

> <Gold.Chemscore.DEInternal.Weighted>
0.7952

> <Gold.Chemscore.Rot.Weighted>
4.3305

> <Gold.Chemscore.Internal.Correction.Weighted>
   9.000000E+99

> <Gold.Protein.RotatedTorsions>
[ 6907 6896 6895 6894 ] final -164.75 input  -60.11 | X-H torsion
[ 7974 7965 7964 7962 ] final  -35.21 input  175.53 | X-H torsion
[ 8008 7997 7996 7995 ] final   40.25 input   59.86 | X-H torsion
[ 10167 10162 10161 10158 ] final   61.18 input  -65.29 | X-H torsion
[ 10718 10713 10712 10709 ] final  -14.31 input   66.30 | X-H torsion
[ 10763 10752 10751 10750 ] final  139.11 input  -60.55 | X-H torsion
[ 11005 11000 10999 10996 ] final   16.10 input  -57.11 | X-H torsion

> <Gold.Protein.ActiveResidues>
 VAL166  LYS551  ARG553  GLY616  TRP617  ASP618  TYR619  PRO620  LYS621  CYS622 
 ASP623  PHE694  ASN695  SER759  ASP760  ASP761  ALA762  ILE779  LEU786  VAL792 
 PHE793  MET794  SER795  GLU796  ALA797  LYS798  CYS799  TRP800  GLU811  SER814 

> <Gold.Protein.RotatedAtoms>
  151.4168  133.3710  159.2750 H   0  0  0  0  0  0  0  0  0  0  0  0  # atno 6907 bound_to 6896
  150.9322  134.8738  159.7569 H   0  0  0  0  0  0  0  0  0  0  0  0  # atno 6908 bound_to 6896
  152.5033  134.4114  159.9502 H   0  0  0  0  0  0  0  0  0  0  0  0  # atno 6909 bound_to 6896
  146.0765  140.6132  142.8928 H   0  0  0  0  0  0  0  0  0  0  0  0  # atno 7974 bound_to 7965
  155.2501  140.3352  155.4283 H   0  0  0  0  0  0  0  0  0  0  0  0  # atno 8008 bound_to 7997
  156.2219  140.1813  156.7500 H   0  0  0  0  0  0  0  0  0  0  0  0  # atno 8009 bound_to 7997
  154.5839  140.0649  156.9128 H   0  0  0  0  0  0  0  0  0  0  0  0  # atno 8010 bound_to 7997
  140.1575  144.4402  150.6726 H   0  0  0  0  0  0  0  0  0  0  0  0  # atno 10167 bound_to 10162
  156.6178  130.4867  149.6176 H   0  0  0  0  0  0  0  0  0  0  0  0  # atno 10718 bound_to 10713
  153.9006  135.3022  155.3448 H   0  0  0  0  0  0  0  0  0  0  0  0  # atno 10763 bound_to 10752
  154.7672  135.4904  153.9580 H   0  0  0  0  0  0  0  0  0  0  0  0  # atno 10764 bound_to 10752
  153.1247  135.6790  153.9377 H   0  0  0  0  0  0  0  0  0  0  0  0  # atno 10765 bound_to 10752
  140.4509  134.1225  155.7702 H   0  0  0  0  0  0  0  0  0  0  0  0  # atno 11005 bound_to 11000
  144.7265  140.4541  143.6969 LP  0  0  0  0  0  0  0  0  0  0  0  0  # atno 17320 bound_to 7965
  145.6296  139.1534  143.2976 LP  0  0  0  0  0  0  0  0  0  0  0  0  # atno 17321 bound_to 7965
  140.6664  143.2269  151.5733 LP  0  0  0  0  0  0  0  0  0  0  0  0  # atno 17342 bound_to 10162
  139.5396  144.2684  152.1324 LP  0  0  0  0  0  0  0  0  0  0  0  0  # atno 17343 bound_to 10162
  156.2337  130.6810  151.1488 LP  0  0  0  0  0  0  0  0  0  0  0  0  # atno 17370 bound_to 10713
  157.7236  131.0665  150.6029 LP  0  0  0  0  0  0  0  0  0  0  0  0  # atno 17371 bound_to 10713
  141.1664  133.8694  157.1700 LP  0  0  0  0  0  0  0  0  0  0  0  0  # atno 17394 bound_to 11000
  140.0008  135.0029  157.0184 LP  0  0  0  0  0  0  0  0  0  0  0  0  # atno 17395 bound_to 11000

$$$$
