AV-unprocessed.smi:2355|AV-procd|sdf|9388|dock6
  -GOLD-   2272013 23D 1   1.00000     0.00000
 Structure written by MMmdl.
 48 49  0  0  0  0  0  0  0  0  1 V2000
  151.2976  144.9233  160.0409 C   0  0  0  0  0  0  0  0  0  0  0  0
  151.9692  143.6274  159.6377 C   0  0  0  0  0  0  0  0  0  0  0  0
  151.4374  142.8261  158.6091 C   0  0  0  0  0  0  0  0  0  0  0  0
  152.1100  141.6326  158.2816 C   0  0  0  0  0  0  0  0  0  0  0  0
  151.5964  140.7247  157.1839 C   0  0  0  0  0  0  0  0  0  0  0  0
  153.2352  141.2253  158.9070 N   0  0  0  0  0  0  0  0  0  0  0  0
  153.7558  141.9884  159.9000 C   0  0  0  0  0  0  0  0  0  0  0  0
  154.9301  141.6478  160.6224 N   0  0  0  0  0  0  0  0  0  0  0  0
  155.9023  140.7881  160.2706 C   0  0  0  0  0  0  0  0  0  0  0  0
  155.9439  140.1533  159.2162 O   0  0  0  0  0  0  0  0  0  0  0  0
  156.8387  140.7018  161.2267 N   0  0  0  0  0  0  0  0  0  0  0  0
  158.0167  139.8347  161.1961 C   0  0  1  0  0  0  0  0  0  0  0  0
  159.2940  140.6921  161.2512 C   0  0  0  0  0  0  0  0  0  0  0  0
  157.9214  138.7369  162.3023 C   0  0  1  0  0  0  0  0  0  0  0  0
  158.8217  139.1217  163.5052 C   0  0  0  0  0  0  0  0  0  0  0  0
  156.5293  138.4199  162.7114 N   0  0  0  0  0  0  0  0  0  0  0  0
  155.7258  137.8418  161.6268 C   0  0  0  0  0  0  0  0  0  0  0  0
  154.2926  137.4943  162.0644 C   0  0  0  0  0  0  0  0  0  0  0  0
  154.3320  136.6022  163.1691 O   0  0  0  0  0  0  0  0  0  0  0  0
  155.0327  137.1552  164.2742 C   0  0  0  0  0  0  0  0  0  0  0  0
  156.4719  137.5026  163.8555 C   0  0  0  0  0  0  0  0  0  0  0  0
  153.1438  143.2008  160.2895 C   0  0  0  0  0  0  0  0  0  0  0  0
  150.3891  145.0969  159.4634 H   0  0  0  0  0  0  0  0  0  0  0  0
  151.9720  145.7641  159.8776 H   0  0  0  0  0  0  0  0  0  0  0  0
  151.0299  144.8970  161.0974 H   0  0  0  0  0  0  0  0  0  0  0  0
  150.5389  143.1182  158.0853 H   0  0  0  0  0  0  0  0  0  0  0  0
  150.6301  141.0640  156.8098 H   0  0  0  0  0  0  0  0  0  0  0  0
  151.4783  139.7064  157.5558 H   0  0  0  0  0  0  0  0  0  0  0  0
  152.2982  140.7072  156.3499 H   0  0  0  0  0  0  0  0  0  0  0  0
  155.0350  142.1008  161.5180 H   0  0  0  0  0  0  0  0  0  0  0  0
  156.7161  141.2602  162.0585 H   0  0  0  0  0  0  0  0  0  0  0  0
  158.0863  139.3371  160.2300 H   0  0  0  0  0  0  0  0  0  0  0  0
  160.1848  140.0676  161.3242 H   0  0  0  0  0  0  0  0  0  0  0  0
  159.2953  141.3853  162.0918 H   0  0  0  0  0  0  0  0  0  0  0  0
  159.3905  141.2930  160.3462 H   0  0  0  0  0  0  0  0  0  0  0  0
  158.3504  137.8305  161.8721 H   0  0  0  0  0  0  0  0  0  0  0  0
  159.8322  139.3851  163.1995 H   0  0  0  0  0  0  0  0  0  0  0  0
  158.9515  138.2961  164.2032 H   0  0  0  0  0  0  0  0  0  0  0  0
  158.4123  139.9670  164.0590 H   0  0  0  0  0  0  0  0  0  0  0  0
  155.6343  138.5411  160.7984 H   0  0  0  0  0  0  0  0  0  0  0  0
  156.2152  136.9475  161.2384 H   0  0  0  0  0  0  0  0  0  0  0  0
  153.7419  138.3971  162.3338 H   0  0  0  0  0  0  0  0  0  0  0  0
  153.7507  137.0225  161.2448 H   0  0  0  0  0  0  0  0  0  0  0  0
  154.5116  138.0413  164.6402 H   0  0  0  0  0  0  0  0  0  0  0  0
  155.0402  136.4299  165.0880 H   0  0  0  0  0  0  0  0  0  0  0  0
  157.0118  136.5841  163.6202 H   0  0  0  0  0  0  0  0  0  0  0  0
  156.9569  137.9413  164.7253 H   0  0  0  0  0  0  0  0  0  0  0  0
  153.5686  143.8001  161.0820 H   0  0  0  0  0  0  0  0  0  0  0  0
  1  2  1  0  0  0  0
  1 23  1  0  0  0  0
  1 24  1  0  0  0  0
  1 25  1  0  0  0  0
  2 22  1  0  0  0  0
  2  3  2  0  0  0  0
  3  4  1  0  0  0  0
  3 26  1  0  0  0  0
  4  5  1  0  0  0  0
  4  6  2  0  0  0  0
  5 27  1  0  0  0  0
  5 28  1  0  0  0  0
  5 29  1  0  0  0  0
  6  7  1  0  0  0  0
  7  8  1  0  0  0  0
  7 22  2  0  0  0  0
  8  9  1  0  0  0  0
  8 30  1  0  0  0  0
  9 10  2  0  0  0  0
  9 11  1  0  0  0  0
 11 12  1  0  0  0  0
 11 31  1  0  0  0  0
 12 13  1  0  0  0  0
 12 14  1  0  0  0  0
 12 32  1  0  0  0  0
 13 33  1  0  0  0  0
 13 34  1  0  0  0  0
 13 35  1  0  0  0  0
 14 15  1  0  0  0  0
 14 16  1  0  0  0  0
 14 36  1  0  0  0  0
 15 37  1  0  0  0  0
 15 38  1  0  0  0  0
 15 39  1  0  0  0  0
 16 21  1  0  0  0  0
 16 17  1  0  0  0  0
 17 18  1  0  0  0  0
 17 40  1  0  0  0  0
 17 41  1  0  0  0  0
 18 19  1  0  0  0  0
 18 42  1  0  0  0  0
 18 43  1  0  0  0  0
 19 20  1  0  0  0  0
 20 21  1  0  0  0  0
 20 44  1  0  0  0  0
 20 45  1  0  0  0  0
 21 46  1  0  0  0  0
 21 47  1  0  0  0  0
 22 48  1  0  0  0  0
M  END
> <s_m_source_file>
AV-unprocessed.smi

> <i_m_source_file_index>
2355

> <i_lp_mmshare_version>
43012

> <i_f3d_flags>
0

> <s_epik_input>
W0NIM11jMVtjSF1jKFtDSDNdKW5jKFtjSF0xKVtOSF1DKD1PKVtOSF1bQ0BIXShbQ0gzXSlbQ0BIXShbQ0gzXSlOMltDSDJdW0NIMl1PW0NIMl1bQ0gyXTI=

> <s_epik_cmdline>
J2VwaWtfcHl0aG9uJywgJy1waCcsICc3LjAnLCAnLXRuJywgJzgnLCAnLW1hJywgJzIwMCcsICctbWV0YWxfYmluZGluZycsICctaW1hZScsICc8aW5maWxlLm1hZT4nLCAnLW9tYWUnLCAnPG91dGZpbGUubWFlPic=

> <r_epik_Ionization_Penalty>
0.266238

> <r_epik_Ionization_Penalty_Charging>
0

> <r_epik_Ionization_Penalty_Neutral>
0.266238

> <r_epik_State_Penalty>
0.257924

> <r_epik_Charging_Adjusted_Penalty>
0.257924

> <i_epik_Tot_Q>
0

> <i_epik_Tot_abs_Q>
0

> <r_epik_Metal_State_Penalty>
0.257904

> <b_epik_Metal_Only>
0

> <s_lp_Force_Field>
OPLS_2005

> <r_lp_Energy>
36.8304

> <b_lp_Chiralities_Consistent>
1

> <s_lp_Variant>
AV-unprocessed.smi:2355-4

> <Gold.Version>
5.8.1

> <Gold.Id.Protein>
6NUR|6NUR_protein|mol2

> <Gold.PLP.Fitness>
38.4195

> <Gold.PLP.PLP>
-37.6538

> <Gold.PLP.part.hbond>
-2.8635

> <Gold.PLP.part.metal>
0.0000

> <Gold.PLP.part.buried>
-5.6490

> <Gold.PLP.part.nonpolar>
-29.3094

> <Gold.PLP.part.repulsive>
0.0759

> <Gold.PLP.ligand.clash>
0.0000

> <Gold.PLP.ligand.torsion>
1.1635

> <Gold.PLP.Chemscore.Hbond>
1.0000

> <Gold.PLP.Chemscore.CHOScore>
0.0000

> <Gold.PLP.Chemscore.Metal>
0.0000

> <Gold.Chemscore.Hbonds>
donor molecule, donor type, donor heavy atom, donor atom, acceptor molecule, acceptor atom, score
      P1  H  7997  8008       L1    10  0.70

> <Gold.PLP.Chemscore.Internal.Correction>
0.0926

> <Gold.Rescore>
     Score         DG    S(hbond)    S(metal)    S(lipo)     H(rot)  DE(clash)    DE(int)     intcor
     13.27     -15.67       1.00        0.00      89.29       1.40       0.00       2.41       ----

> <Gold.Chemscore.Fitness>
13.2696

> <Gold.Chemscore.DG>
-15.6749

> <Gold.Chemscore.ZeroCoef>
-5.4800

> <Gold.Chemscore.Hbond>
0.9986

> <Gold.Chemscore.Metal>
0.0000

> <Gold.Chemscore.Lipo>
89.2948

> <Gold.Chemscore.Internal_Hbond>
0.0000

> <Gold.Chemscore.DEClash>
0.0000

> <Gold.Chemscore.DEInternal>
2.4053

> <Gold.Chemscore.Rot>
1.4015

> <Gold.Chemscore.Internal.Correction>
   9.000000E+99

> <Gold.Chemscore.Hbonds>
donor molecule, donor type, donor heavy atom, donor atom, acceptor molecule, acceptor atom, score
      P1  H  7997  8008       L1    10  0.66

> <Gold.Chemscore.Hbond.Weighted>
-3.3352

> <Gold.Chemscore.Metal.Weighted>
-0.0000

> <Gold.Chemscore.Lipo.Weighted>
-10.4475

> <Gold.Chemscore.Internal_Hbond.Weighted>
0.0000

> <Gold.Chemscore.DEClash.Weighted>
0.0000

> <Gold.Chemscore.DEInternal.Weighted>
2.4053

> <Gold.Chemscore.Rot.Weighted>
3.5878

> <Gold.Chemscore.Internal.Correction.Weighted>
   9.000000E+99

> <Gold.Protein.RotatedTorsions>
[ 6907 6896 6895 6894 ] final   57.87 input  -60.11 | X-H torsion
[ 7974 7965 7964 7962 ] final   42.34 input  175.53 | X-H torsion
[ 8008 7997 7996 7995 ] final -122.16 input   59.86 | X-H torsion
[ 10167 10162 10161 10158 ] final  -50.15 input  -65.29 | X-H torsion
[ 10718 10713 10712 10709 ] final -101.26 input   66.30 | X-H torsion
[ 10763 10752 10751 10750 ] final   88.45 input  -60.55 | X-H torsion
[ 11005 11000 10999 10996 ] final   63.09 input  -57.11 | X-H torsion

> <Gold.Protein.ActiveResidues>
 VAL166  LYS551  ARG553  GLY616  TRP617  ASP618  TYR619  PRO620  LYS621  CYS622 
 ASP623  PHE694  ASN695  SER759  ASP760  ASP761  ALA762  ILE779  LEU786  VAL792 
 PHE793  MET794  SER795  GLU796  ALA797  LYS798  CYS799  TRP800  GLU811  SER814 

> <Gold.Protein.RotatedAtoms>
  152.3772  134.6645  160.0155 H   0  0  0  0  0  0  0  0  0  0  0  0  # atno 6907 bound_to 6896
  151.6920  133.3305  159.3253 H   0  0  0  0  0  0  0  0  0  0  0  0  # atno 6908 bound_to 6896
  150.7719  134.6626  159.6392 H   0  0  0  0  0  0  0  0  0  0  0  0  # atno 6909 bound_to 6896
  146.0748  139.5312  142.9574 H   0  0  0  0  0  0  0  0  0  0  0  0  # atno 7974 bound_to 7965
  155.1598  140.0405  157.2840 H   0  0  0  0  0  0  0  0  0  0  0  0  # atno 8008 bound_to 7997
  154.6344  140.2532  155.7368 H   0  0  0  0  0  0  0  0  0  0  0  0  # atno 8009 bound_to 7997
  156.2501  140.2868  156.0711 H   0  0  0  0  0  0  0  0  0  0  0  0  # atno 8010 bound_to 7997
  140.6651  143.2669  151.4318 H   0  0  0  0  0  0  0  0  0  0  0  0  # atno 10167 bound_to 10162
  156.0189  130.5365  150.6937 H   0  0  0  0  0  0  0  0  0  0  0  0  # atno 10718 bound_to 10713
  153.1770  135.4506  154.9978 H   0  0  0  0  0  0  0  0  0  0  0  0  # atno 10763 bound_to 10752
  154.8005  135.3254  154.7565 H   0  0  0  0  0  0  0  0  0  0  0  0  # atno 10764 bound_to 10752
  153.8034  135.6961  153.4907 H   0  0  0  0  0  0  0  0  0  0  0  0  # atno 10765 bound_to 10752
  140.0048  134.6387  155.9873 H   0  0  0  0  0  0  0  0  0  0  0  0  # atno 11005 bound_to 11000
  145.6325  141.0301  143.1855 LP  0  0  0  0  0  0  0  0  0  0  0  0  # atno 17320 bound_to 7965
  144.7255  139.7891  143.7366 LP  0  0  0  0  0  0  0  0  0  0  0  0  # atno 17321 bound_to 7965
  139.5897  144.1525  152.2073 LP  0  0  0  0  0  0  0  0  0  0  0  0  # atno 17342 bound_to 10162
  140.0876  144.5648  150.7077 LP  0  0  0  0  0  0  0  0  0  0  0  0  # atno 17343 bound_to 10162
  157.4613  131.0883  151.0743 LP  0  0  0  0  0  0  0  0  0  0  0  0  # atno 17370 bound_to 10713
  157.1230  130.6069  149.5510 LP  0  0  0  0  0  0  0  0  0  0  0  0  # atno 17371 bound_to 10713
  141.1669  133.6537  156.4510 LP  0  0  0  0  0  0  0  0  0  0  0  0  # atno 17394 bound_to 11000
  140.4662  134.6796  157.5108 LP  0  0  0  0  0  0  0  0  0  0  0  0  # atno 17395 bound_to 11000

$$$$
