AV-unprocessed.smi:2784|AV-procd|sdf|10740|dock7
  -GOLD-   2272015173D 1   1.00000     0.00000
 Structure written by MMmdl.
 31 32  0  0  0  0  0  0  0  0  1 V2000
  149.8360  140.3482  158.4366 C   0  0  0  0  0  0  0  0  0  0  0  0
  150.4202  141.5276  158.9646 O   0  0  0  0  0  0  0  0  0  0  0  0
  151.7535  141.7582  158.5171 C   0  0  2  0  0  0  0  0  0  0  0  0
  152.4562  142.5475  159.6231 C   0  0  0  0  0  0  0  0  0  0  0  0
  152.0408  143.9946  159.3752 C   0  0  0  0  0  0  0  0  0  0  0  0
  151.9911  144.1268  157.8510 C   0  0  0  0  0  0  0  0  0  0  0  0
  151.7792  142.7048  157.2939 C   0  0  2  0  0  0  0  0  0  0  0  0
  150.5613  142.6334  156.4883 N   0  0  0  0  0  0  0  0  0  0  0  0
  150.1899  141.5940  155.7262 C   0  0  0  0  0  0  0  0  0  0  0  0
  150.8862  140.5776  155.6388 O   0  0  0  0  0  0  0  0  0  0  0  0
  148.9710  141.8630  155.1206 N   0  0  0  0  0  0  0  0  0  0  0  0
  148.2597  140.8886  154.6440 C   0  0  0  0  0  0  0  0  0  0  0  0
  147.0263  140.9706  154.0179 N   0  0  0  0  0  0  0  0  0  0  0  0
  146.6389  139.7055  153.6723 C   0  0  0  0  0  0  0  0  0  0  0  0
  147.5882  138.8606  154.0642 C   0  0  0  0  0  0  0  0  0  0  0  0
  148.5956  139.5543  154.6640 O   0  0  0  0  0  0  0  0  0  0  0  0
  148.8088  140.2593  158.7896 H   0  0  0  0  0  0  0  0  0  0  0  0
  150.3824  139.4624  158.7631 H   0  0  0  0  0  0  0  0  0  0  0  0
  149.8179  140.3647  157.3465 H   0  0  0  0  0  0  0  0  0  0  0  0
  152.2818  140.8242  158.3144 H   0  0  0  0  0  0  0  0  0  0  0  0
  152.1986  142.1983  160.6236 H   0  0  0  0  0  0  0  0  0  0  0  0
  153.5371  142.4549  159.5086 H   0  0  0  0  0  0  0  0  0  0  0  0
  151.0467  144.1645  159.7909 H   0  0  0  0  0  0  0  0  0  0  0  0
  152.7205  144.7115  159.8364 H   0  0  0  0  0  0  0  0  0  0  0  0
  151.2127  144.8269  157.5439 H   0  0  0  0  0  0  0  0  0  0  0  0
  152.9381  144.5236  157.4830 H   0  0  0  0  0  0  0  0  0  0  0  0
  152.6457  142.4613  156.6761 H   0  0  0  0  0  0  0  0  0  0  0  0
  149.9451  143.4324  156.5269 H   0  0  0  0  0  0  0  0  0  0  0  0
  146.4737  141.7948  153.8309 H   0  0  0  0  0  0  0  0  0  0  0  0
  145.6980  139.5406  153.1681 H   0  0  0  0  0  0  0  0  0  0  0  0
  147.6914  137.7881  153.9930 H   0  0  0  0  0  0  0  0  0  0  0  0
  1  2  1  0  0  0  0
  1 17  1  0  0  0  0
  1 18  1  0  0  0  0
  1 19  1  0  0  0  0
  2  3  1  0  0  0  0
  3  7  1  0  0  0  0
  3  4  1  0  0  0  0
  3 20  1  0  0  0  0
  4  5  1  0  0  0  0
  4 21  1  0  0  0  0
  4 22  1  0  0  0  0
  5  6  1  0  0  0  0
  5 23  1  0  0  0  0
  5 24  1  0  0  0  0
  6  7  1  0  0  0  0
  6 25  1  0  0  0  0
  6 26  1  0  0  0  0
  7  8  1  0  0  0  0
  7 27  1  0  0  0  0
  8 28  1  0  0  0  0
  8  9  1  0  0  0  0
  9 11  1  0  0  0  0
  9 10  2  0  0  0  0
 11 12  2  0  0  0  0
 12 16  1  0  0  0  0
 12 13  1  0  0  0  0
 13 29  1  0  0  0  0
 13 14  1  0  0  0  0
 14 30  1  0  0  0  0
 14 15  2  0  0  0  0
 15 31  1  0  0  0  0
 15 16  1  0  0  0  0
M  END
> <s_m_source_file>
AV-unprocessed.smi

> <i_m_source_file_index>
2784

> <i_lp_mmshare_version>
43012

> <i_f3d_flags>
0

> <s_epik_input>
W0NIM11PW0NAQEhdMVtDSDJdW0NIMl1bQ0gyXVtDQEhdMVtOSF1DKD1PKVtOSF1jMm5bY0hdW2NIXW8y

> <s_epik_cmdline>
J2VwaWtfcHl0aG9uJywgJy1waCcsICc3LjAnLCAnLXRuJywgJzgnLCAnLW1hJywgJzIwMCcsICctbWV0YWxfYmluZGluZycsICctaW1hZScsICc8aW5maWxlLm1hZT4nLCAnLW9tYWUnLCAnPG91dGZpbGUubWFlPic=

> <r_lp_tautomer_probability>
0.107061

> <r_epik_Ionization_Penalty>
1.29244

> <r_epik_Ionization_Penalty_Charging>
1.29208

> <r_epik_Ionization_Penalty_Neutral>
0.000359742

> <r_epik_State_Penalty>
2.59896

> <r_epik_Charging_Adjusted_Penalty>
3.89105

> <i_epik_Tot_Q>
0

> <i_epik_Tot_abs_Q>
0

> <r_epik_Metal_State_Penalty>
3.62496

> <b_epik_Metal_Only>
0

> <s_lp_Force_Field>
OPLS_2005

> <r_lp_Energy>
45.4205

> <b_lp_Chiralities_Consistent>
1

> <s_lp_Variant>
AV-unprocessed.smi:2784-15

> <Gold.Version>
5.8.1

> <Gold.Id.Protein>
6NUR|6NUR_protein|mol2

> <Gold.PLP.Fitness>
36.9041

> <Gold.PLP.PLP>
-26.7034

> <Gold.PLP.part.hbond>
-2.4125

> <Gold.PLP.part.metal>
0.0000

> <Gold.PLP.part.buried>
-5.2034

> <Gold.PLP.part.nonpolar>
-20.8878

> <Gold.PLP.part.repulsive>
2.1298

> <Gold.PLP.ligand.clash>
0.0000

> <Gold.PLP.ligand.torsion>
0.5704

> <Gold.PLP.Chemscore.Hbond>
1.7760

> <Gold.PLP.Chemscore.CHOScore>
2.0000

> <Gold.PLP.Chemscore.Metal>
0.0000

> <Gold.Chemscore.Hbonds>
donor molecule, donor type, donor heavy atom, donor atom, acceptor molecule, acceptor atom, score
      L1  H     8    28       P1  8028  1.00
      P1  H  7989  7998       L1    10  0.30
      L1  C    14    30       P1 10175  1.00
      L1  C    15    31       P1  7948  0.02

> <Gold.PLP.Chemscore.Internal.Correction>
0.0134

> <Gold.Rescore>
     Score         DG    S(hbond)    S(metal)    S(lipo)     H(rot)  DE(clash)    DE(int)     intcor
     11.04     -14.62       1.33        0.00      69.27       1.32       1.31       2.27       ----

> <Gold.Chemscore.Fitness>
11.0433

> <Gold.Chemscore.DG>
-14.6236

> <Gold.Chemscore.ZeroCoef>
-5.4800

> <Gold.Chemscore.Hbond>
1.3255

> <Gold.Chemscore.Metal>
0.0000

> <Gold.Chemscore.Lipo>
69.2708

> <Gold.Chemscore.Internal_Hbond>
0.0000

> <Gold.Chemscore.DEClash>
1.3130

> <Gold.Chemscore.DEInternal>
2.2672

> <Gold.Chemscore.Rot>
1.3235

> <Gold.Chemscore.Internal.Correction>
   9.000000E+99

> <Gold.Chemscore.Hbonds>
donor molecule, donor type, donor heavy atom, donor atom, acceptor molecule, acceptor atom, score
      L1  H     8    28       P1  8028  0.95
      P1  H  7989  7998       L1    10  0.06

> <Gold.Chemscore.Hbond.Weighted>
-4.4270

> <Gold.Chemscore.Metal.Weighted>
-0.0000

> <Gold.Chemscore.Lipo.Weighted>
-8.1047

> <Gold.Chemscore.Internal_Hbond.Weighted>
0.0000

> <Gold.Chemscore.DEClash.Weighted>
1.3130

> <Gold.Chemscore.DEInternal.Weighted>
2.2672

> <Gold.Chemscore.Rot.Weighted>
3.3882

> <Gold.Chemscore.Internal.Correction.Weighted>
   9.000000E+99

> <Gold.Protein.RotatedTorsions>
[ 6907 6896 6895 6894 ] final -100.85 input  -60.11 | X-H torsion
[ 7974 7965 7964 7962 ] final  -63.68 input  175.53 | X-H torsion
[ 8008 7997 7996 7995 ] final    9.06 input   59.86 | X-H torsion
[ 10167 10162 10161 10158 ] final   17.14 input  -65.29 | X-H torsion
[ 10718 10713 10712 10709 ] final -106.06 input   66.30 | X-H torsion
[ 10763 10752 10751 10750 ] final   -3.79 input  -60.55 | X-H torsion
[ 11005 11000 10999 10996 ] final   40.37 input  -57.11 | X-H torsion

> <Gold.Protein.ActiveResidues>
 VAL166  LYS551  ARG553  GLY616  TRP617  ASP618  TYR619  PRO620  LYS621  CYS622 
 ASP623  PHE694  ASN695  SER759  ASP760  ASP761  ALA762  ILE779  LEU786  VAL792 
 PHE793  MET794  SER795  GLU796  ALA797  LYS798  CYS799  TRP800  GLU811  SER814 

> <Gold.Protein.RotatedAtoms>
  150.7131  134.0824  159.3902 H   0  0  0  0  0  0  0  0  0  0  0  0  # atno 6907 bound_to 6896
  151.8808  135.0452  160.0498 H   0  0  0  0  0  0  0  0  0  0  0  0  # atno 6908 bound_to 6896
  152.2569  133.5228  159.5395 H   0  0  0  0  0  0  0  0  0  0  0  0  # atno 6909 bound_to 6896
  145.7760  140.8787  143.0355 H   0  0  0  0  0  0  0  0  0  0  0  0  # atno 7974 bound_to 7965
  154.7751  140.2809  155.6108 H   0  0  0  0  0  0  0  0  0  0  0  0  # atno 8008 bound_to 7997
  156.2940  140.2634  156.2490 H   0  0  0  0  0  0  0  0  0  0  0  0  # atno 8009 bound_to 7997
  154.9853  140.0374  157.2285 H   0  0  0  0  0  0  0  0  0  0  0  0  # atno 8010 bound_to 7997
  140.5747  143.9095  150.6741 H   0  0  0  0  0  0  0  0  0  0  0  0  # atno 10167 bound_to 10162
  156.0373  130.5594  150.7628 H   0  0  0  0  0  0  0  0  0  0  0  0  # atno 10718 bound_to 10713
  153.3761  135.6996  153.6600 H   0  0  0  0  0  0  0  0  0  0  0  0  # atno 10763 bound_to 10752
  153.5230  135.3608  155.2641 H   0  0  0  0  0  0  0  0  0  0  0  0  # atno 10764 bound_to 10752
  154.8687  135.4162  154.3050 H   0  0  0  0  0  0  0  0  0  0  0  0  # atno 10765 bound_to 10752
  140.1937  134.3955  155.8132 H   0  0  0  0  0  0  0  0  0  0  0  0  # atno 11005 bound_to 11000
  144.6804  139.9922  143.7484 LP  0  0  0  0  0  0  0  0  0  0  0  0  # atno 17320 bound_to 7965
  146.0122  139.3179  143.0863 LP  0  0  0  0  0  0  0  0  0  0  0  0  # atno 17321 bound_to 7965
  140.2579  143.3545  152.1349 LP  0  0  0  0  0  0  0  0  0  0  0  0  # atno 17342 bound_to 10162
  139.5136  144.6935  151.5694 LP  0  0  0  0  0  0  0  0  0  0  0  0  # atno 17343 bound_to 10162
  157.5143  131.0927  151.0159 LP  0  0  0  0  0  0  0  0  0  0  0  0  # atno 17370 bound_to 10713
  157.0507  130.5786  149.5370 LP  0  0  0  0  0  0  0  0  0  0  0  0  # atno 17371 bound_to 10713
  141.2227  133.7059  156.8140 LP  0  0  0  0  0  0  0  0  0  0  0  0  # atno 17394 bound_to 11000
  140.2131  134.8813  157.3296 LP  0  0  0  0  0  0  0  0  0  0  0  0  # atno 17395 bound_to 11000

$$$$
