#       Name:                AV-unprocessed.smi:653
#       Creating user name   scv26
#       Creation time:       Fri Mar 27 00:14:10 2020


#       File generated by GOLD software.
#

@<TRIPOS>MOLECULE
AV-unprocessed.smi:653
    49    50     1
SMALL
NO_CHARGES


@<TRIPOS>ATOM
      1 ****        -5.0553   2.3469   4.3983 C.3            1 S1                 0.0000
      2 ****        -4.5070   1.8065   3.0940 C.ar           1 S1                 0.0000
      3 ****        -4.5896   2.5672   1.9088 C.ar           1 S1                 0.0000
      4 ****        -4.0599   2.0220   0.7237 C.ar           1 S1                 0.0000
      5 ****        -3.4692   0.7420   0.7683 C.ar           1 S1                 0.0000
      6 ****        -2.8811   0.1114  -0.4804 C.3            1 S1                 0.0000
      7 ****        -1.3958   0.4545  -0.5989 C.2            1 S1                 0.0000
      8 ****        -1.0523   1.5840  -0.9480 O.2            1 S1                 0.0000
      9 ****        -0.5296  -0.5280  -0.3061 N.am           1 S1                 0.0000
     10 ****         0.9258  -0.4130  -0.3304 C.3            1 S1                 0.0000
     11 ****         1.5500  -1.1198  -1.5594 C.3            1 S1                 0.0000
     12 ****         1.1806  -0.4629  -2.8825 C.3            1 S1                 0.0000
     13 ****         2.2107   0.6599  -3.0149 C.3            1 S1                 0.0000
     14 ****         3.2850   0.3105  -2.1457 O.3            1 S1                 0.0000
     15 ****         3.0832  -1.0060  -1.6447 C.3            1 S1                 0.0000
     16 ****         3.8936  -1.2521  -0.3514 C.3            1 S1                 0.0000
     17 ****         5.3943  -1.0177  -0.5883 C.3            1 S1                 0.0000
     18 ****         3.6681  -2.6696   0.2019 C.3            1 S1                 0.0000
     19 ****        -3.4373   0.0648   2.0059 C.ar           1 S1                 0.0000
     20 ****        -3.9423   0.5798   3.1473 N.ar           1 S1                 0.0000
     21 ****        -5.8525   3.0679   4.2151 H              1 S1                 0.0000
     22 ****        -4.2648   2.8444   4.9606 H              1 S1                 0.0000
     23 ****        -5.4622   1.5435   5.0137 H              1 S1                 0.0000
     24 ****        -5.0457   3.5464   1.9057 H              1 S1                 0.0000
     25 ****        -4.1043   2.5789  -0.2007 H              1 S1                 0.0000
     26 ****        -3.0244  -0.9700  -0.4512 H              1 S1                 0.0000
     27 ****        -3.4076   0.4751  -1.3636 H              1 S1                 0.0000
     28 ****        -0.9083  -1.4225  -0.0305 H              1 S1                 0.0000
     29 ****         1.2418   0.6303  -0.2804 H              1 S1                 0.0000
     30 ****         1.2817  -0.8764   0.5888 H              1 S1                 0.0000
     31 ****         1.2450  -2.1671  -1.5567 H              1 S1                 0.0000
     32 ****         1.3210  -1.1797  -3.6928 H              1 S1                 0.0000
     33 ****         0.1532  -0.1070  -2.9447 H              1 S1                 0.0000
     34 ****         2.5579   0.7673  -4.0427 H              1 S1                 0.0000
     35 ****         1.7949   1.6156  -2.6944 H              1 S1                 0.0000
     36 ****         3.4373  -1.6979  -2.4119 H              1 S1                 0.0000
     37 ****         3.5754  -0.5355   0.4060 H              1 S1                 0.0000
     38 ****         5.7873  -1.6967  -1.3460 H              1 S1                 0.0000
     39 ****         5.9657  -1.1744   0.3270 H              1 S1                 0.0000
     40 ****         5.5898   0.0018  -0.9216 H              1 S1                 0.0000
     41 ****         3.9785  -3.4278  -0.5180 H              1 S1                 0.0000
     42 ****         2.6206  -2.8501   0.4405 H              1 S1                 0.0000
     43 ****         4.2397  -2.8281   1.1168 H              1 S1                 0.0000
     44 ****        -2.9924  -0.9165   2.0831 H              1 S1                 0.0000
     45 ****        -1.7443   2.2758  -1.1537 LP             1 S1                 0.0000
     46 ****        -0.0811   1.8095  -1.0259 LP             1 S1                 0.0000
     47 ****         3.3191   0.9556  -1.3824 LP             1 S1                 0.0000
     48 ****         4.1472   0.3460  -2.6509 LP             1 S1                 0.0000
     49 ****        -3.8999   0.0690   4.0060 LP             1 S1                 0.0000
@<TRIPOS>BOND
    1    1    2 1     
    2    1   21 1     
    3    1   22 1     
    4    1   23 1     
    5    2   20 ar    
    6    2    3 ar    
    7    3    4 ar    
    8    3   24 1     
    9    4    5 ar    
   10    4   25 1     
   11    5    6 1     
   12    5   19 ar    
   13    6    7 1     
   14    6   26 1     
   15    6   27 1     
   16    7    8 2     
   17    7    9 am    
   18    9   10 1     
   19    9   28 1     
   20   10   11 1     
   21   10   29 1     
   22   10   30 1     
   23   11   15 1     
   24   11   12 1     
   25   11   31 1     
   26   12   13 1     
   27   12   32 1     
   28   12   33 1     
   29   13   14 1     
   30   13   34 1     
   31   13   35 1     
   32   14   15 1     
   33   15   16 1     
   34   15   36 1     
   35   16   17 1     
   36   16   18 1     
   37   16   37 1     
   38   17   38 1     
   39   17   39 1     
   40   17   40 1     
   41   18   41 1     
   42   18   42 1     
   43   18   43 1     
   44   19   20 ar    
   45   19   44 1     
   46    8   45 1     
   47    8   46 1     
   48   14   47 1     
   49   14   48 1     
   50   20   49 1     
@<TRIPOS>SUBSTRUCTURE
      1 S1             1
@<TRIPOS>SET
LONE_PAIRS      STATIC     ATOMS    <user>   **** ""
5 45 46 47 48 49
DONOR_HYDROGENS      STATIC     ATOMS    <user>   **** ""
1 28
ATOM$BLUE        STATIC     ATOMS    COLORGROUP SYSTEM
5 45 46 47 48 49
ATOM$RED        STATIC     ATOMS    COLORGROUP SYSTEM
1 28
