AV-unprocessed.smi:2217|AV-procd|sdf|8969|dock6
  -GOLD-   2272012183D 1   1.00000     0.00000
 Structure written by MMmdl.
 45 48  0  0  0  0  0  0  0  0  1 V2000
  149.9589  128.8540  154.4266 C   0  0  0  0  0  0  0  0  0  0  0  0
  149.7872  130.3564  154.3486 C   0  0  0  0  0  0  0  0  0  0  0  0
  150.4405  131.2123  155.2550 C   0  0  0  0  0  0  0  0  0  0  0  0
  150.2495  132.6023  155.1338 C   0  0  0  0  0  0  0  0  0  0  0  0
  149.4135  133.1078  154.1124 C   0  0  0  0  0  0  0  0  0  0  0  0
  149.3050  134.5303  154.0881 N   0  0  0  0  0  0  0  0  0  0  0  0
  149.3957  135.4509  155.0720 C   0  0  0  0  0  0  0  0  0  0  0  0
  149.6139  135.1197  156.2363 O   0  0  0  0  0  0  0  0  0  0  0  0
  149.2419  136.7303  154.7011 N   0  0  0  0  0  0  0  0  0  0  0  0
  149.3419  137.8886  155.5936 C   0  0  1  0  0  0  0  0  0  0  0  0
  150.7780  138.3634  155.8337 C   0  0  1  0  0  0  0  0  0  0  0  0
  152.1295  137.7571  155.7136 C   0  0  0  0  0  0  0  0  0  0  0  0
  152.8356  138.9773  155.0652 C   0  0  0  0  0  0  0  0  0  0  0  0
  151.7817  139.9122  154.7216 O   0  0  0  0  0  0  0  0  0  0  0  0
  150.6475  139.0928  154.5126 C   0  0  2  0  0  0  0  0  0  0  0  0
  149.1539  139.2786  154.8721 C   0  0  0  0  0  0  0  0  0  0  0  0
  148.1600  139.3466  153.7052 C   0  0  0  0  0  0  0  0  0  0  0  0
  147.5792  140.7570  153.6729 C   0  0  0  0  0  0  0  0  0  0  0  0
  147.5592  141.1729  155.1363 C   0  0  0  0  0  0  0  0  0  0  0  0
  148.7940  140.5023  155.7388 C   0  0  0  0  0  0  0  0  0  0  0  0
  148.7895  132.2707  153.2443 N   0  0  0  0  0  0  0  0  0  0  0  0
  148.9717  130.9387  153.3602 C   0  0  0  0  0  0  0  0  0  0  0  0
  150.3186  128.5499  155.4101 H   0  0  0  0  0  0  0  0  0  0  0  0
  150.6776  128.5188  153.6785 H   0  0  0  0  0  0  0  0  0  0  0  0
  149.0097  128.3503  154.2418 H   0  0  0  0  0  0  0  0  0  0  0  0
  151.0791  130.8152  156.0304 H   0  0  0  0  0  0  0  0  0  0  0  0
  150.7456  133.2720  155.8214 H   0  0  0  0  0  0  0  0  0  0  0  0
  149.0859  134.9138  153.1804 H   0  0  0  0  0  0  0  0  0  0  0  0
  149.0624  136.9185  153.7246 H   0  0  0  0  0  0  0  0  0  0  0  0
  148.7522  137.7933  156.5067 H   0  0  0  0  0  0  0  0  0  0  0  0
  150.7708  139.0491  156.6874 H   0  0  0  0  0  0  0  0  0  0  0  0
  152.5595  137.4834  156.6772 H   0  0  0  0  0  0  0  0  0  0  0  0
  152.1354  136.8864  155.0567 H   0  0  0  0  0  0  0  0  0  0  0  0
  153.5373  139.4540  155.7502 H   0  0  0  0  0  0  0  0  0  0  0  0
  153.3843  138.6775  154.1714 H   0  0  0  0  0  0  0  0  0  0  0  0
  150.7929  138.4606  153.6305 H   0  0  0  0  0  0  0  0  0  0  0  0
  148.6192  139.0900  152.7498 H   0  0  0  0  0  0  0  0  0  0  0  0
  147.3496  138.6338  153.8640 H   0  0  0  0  0  0  0  0  0  0  0  0
  148.2439  141.4157  153.1124 H   0  0  0  0  0  0  0  0  0  0  0  0
  146.5938  140.7985  153.2078 H   0  0  0  0  0  0  0  0  0  0  0  0
  147.5599  142.2552  155.2682 H   0  0  0  0  0  0  0  0  0  0  0  0
  146.6612  140.7793  155.6139 H   0  0  0  0  0  0  0  0  0  0  0  0
  148.6123  140.2335  156.7798 H   0  0  0  0  0  0  0  0  0  0  0  0
  149.6189  141.2155  155.7417 H   0  0  0  0  0  0  0  0  0  0  0  0
  148.4514  130.3225  152.6416 H   0  0  0  0  0  0  0  0  0  0  0  0
  1  2  1  0  0  0  0
  1 23  1  0  0  0  0
  1 24  1  0  0  0  0
  1 25  1  0  0  0  0
  2 22  1  0  0  0  0
  2  3  2  0  0  0  0
  3  4  1  0  0  0  0
  3 26  1  0  0  0  0
  4  5  2  0  0  0  0
  4 27  1  0  0  0  0
  5  6  1  0  0  0  0
  5 21  1  0  0  0  0
  6  7  1  0  0  0  0
  6 28  1  0  0  0  0
  7  8  2  0  0  0  0
  7  9  1  0  0  0  0
  9 10  1  0  0  0  0
  9 29  1  0  0  0  0
 10 16  1  0  0  0  0
 10 11  1  0  0  0  0
 10 30  1  0  0  0  0
 11 15  1  0  0  0  0
 11 12  1  0  0  0  0
 11 31  1  0  0  0  0
 12 13  1  0  0  0  0
 12 32  1  0  0  0  0
 12 33  1  0  0  0  0
 13 14  1  0  0  0  0
 13 34  1  0  0  0  0
 13 35  1  0  0  0  0
 14 15  1  0  0  0  0
 15 16  1  0  0  0  0
 15 36  1  0  0  0  0
 16 20  1  0  0  0  0
 16 17  1  0  0  0  0
 17 18  1  0  0  0  0
 17 37  1  0  0  0  0
 17 38  1  0  0  0  0
 18 19  1  0  0  0  0
 18 39  1  0  0  0  0
 18 40  1  0  0  0  0
 19 20  1  0  0  0  0
 19 41  1  0  0  0  0
 19 42  1  0  0  0  0
 20 43  1  0  0  0  0
 20 44  1  0  0  0  0
 21 22  2  0  0  0  0
 22 45  1  0  0  0  0
M  END
> <s_m_source_file>
AV-unprocessed.smi

> <i_m_source_file_index>
2217

> <i_lp_mmshare_version>
43012

> <i_f3d_flags>
0

> <s_epik_input>
W0NIM11jMVtjSF1bY0hdYyhuW2NIXTEpW05IXUMoPU8pW05IXVtDQEBIXTJbQ0BASF0oW0NIMl1bQ0gyXU8zKVtDQEhdM0MyNFtDSDJdW0NIMl1bQ0gyXVtDSDJdNA==

> <s_epik_cmdline>
J2VwaWtfcHl0aG9uJywgJy1waCcsICc3LjAnLCAnLXRuJywgJzgnLCAnLW1hJywgJzIwMCcsICctbWV0YWxfYmluZGluZycsICctaW1hZScsICc8aW5maWxlLm1hZT4nLCAnLW9tYWUnLCAnPG91dGZpbGUubWFlPic=

> <r_lp_tautomer_probability>
1

> <r_epik_Ionization_Penalty>
6.14796e-05

> <r_epik_Ionization_Penalty_Charging>
0

> <r_epik_Ionization_Penalty_Neutral>
6.14796e-05

> <r_epik_State_Penalty>
-0

> <r_epik_Charging_Adjusted_Penalty>
0

> <i_epik_Tot_Q>
0

> <i_epik_Tot_abs_Q>
0

> <r_epik_Metal_State_Penalty>
-0

> <b_epik_Metal_Only>
0

> <s_lp_Force_Field>
OPLS_2005

> <r_lp_Energy>
82.2592

> <b_lp_Chiralities_Consistent>
1

> <s_lp_Variant>
AV-unprocessed.smi:2217-2

> <Gold.Version>
5.8.1

> <Gold.Id.Protein>
6NUR|6NUR_protein|mol2

> <Gold.PLP.Fitness>
43.5698

> <Gold.PLP.PLP>
-33.5957

> <Gold.PLP.part.hbond>
-2.7954

> <Gold.PLP.part.metal>
0.0000

> <Gold.PLP.part.buried>
-1.8488

> <Gold.PLP.part.nonpolar>
-28.9777

> <Gold.PLP.part.repulsive>
0.2551

> <Gold.PLP.ligand.clash>
0.0000

> <Gold.PLP.ligand.torsion>
0.3404

> <Gold.PLP.Chemscore.Hbond>
2.8100

> <Gold.PLP.Chemscore.CHOScore>
0.6504

> <Gold.PLP.Chemscore.Metal>
0.0000

> <Gold.Chemscore.Hbonds>
donor molecule, donor type, donor heavy atom, donor atom, acceptor molecule, acceptor atom, score
      L1  H     6    28       P1  7948  0.75
      L1  H     9    29       P1  7948  0.96
      P1  H  7989  7998       L1    14  1.00
      L1  C    22    45       P1 10747  0.68

> <Gold.PLP.Chemscore.Internal.Correction>
0.2736

> <Gold.Rescore>
     Score         DG    S(hbond)    S(metal)    S(lipo)     H(rot)  DE(clash)    DE(int)     intcor
     17.97     -19.69       2.44        0.00      73.64       1.00       0.00       1.73       ----

> <Gold.Chemscore.Fitness>
17.9654

> <Gold.Chemscore.DG>
-19.6947

> <Gold.Chemscore.ZeroCoef>
-5.4800

> <Gold.Chemscore.Hbond>
2.4429

> <Gold.Chemscore.Metal>
0.0000

> <Gold.Chemscore.Lipo>
73.6363

> <Gold.Chemscore.Internal_Hbond>
0.0000

> <Gold.Chemscore.DEClash>
0.0021

> <Gold.Chemscore.DEInternal>
1.7271

> <Gold.Chemscore.Rot>
1.0000

> <Gold.Chemscore.Internal.Correction>
   9.000000E+99

> <Gold.Chemscore.Hbonds>
donor molecule, donor type, donor heavy atom, donor atom, acceptor molecule, acceptor atom, score
      L1  H     6    28       P1  7948  0.09
      L1  H     9    29       P1  7948  0.90
      P1  H  7989  7998       L1    14  0.23

> <Gold.Chemscore.Hbond.Weighted>
-8.1592

> <Gold.Chemscore.Metal.Weighted>
-0.0000

> <Gold.Chemscore.Lipo.Weighted>
-8.6154

> <Gold.Chemscore.Internal_Hbond.Weighted>
0.0000

> <Gold.Chemscore.DEClash.Weighted>
0.0021

> <Gold.Chemscore.DEInternal.Weighted>
1.7271

> <Gold.Chemscore.Rot.Weighted>
2.5600

> <Gold.Chemscore.Internal.Correction.Weighted>
   9.000000E+99

> <Gold.Protein.RotatedTorsions>
[ 6907 6896 6895 6894 ] final  135.94 input  -60.11 | X-H torsion
[ 7974 7965 7964 7962 ] final  -99.76 input  175.53 | X-H torsion
[ 8008 7997 7996 7995 ] final -122.67 input   59.86 | X-H torsion
[ 10167 10162 10161 10158 ] final -171.20 input  -65.29 | X-H torsion
[ 10718 10713 10712 10709 ] final   31.10 input   66.30 | X-H torsion
[ 10763 10752 10751 10750 ] final   44.47 input  -60.55 | X-H torsion
[ 11005 11000 10999 10996 ] final  -10.37 input  -57.11 | X-H torsion

> <Gold.Protein.ActiveResidues>
 VAL166  LYS551  ARG553  GLY616  TRP617  ASP618  TYR619  PRO620  LYS621  CYS622 
 ASP623  PHE694  ASN695  SER759  ASP760  ASP761  ALA762  ILE779  LEU786  VAL792 
 PHE793  MET794  SER795  GLU796  ALA797  LYS798  CYS799  TRP800  GLU811  SER814 

> <Gold.Protein.RotatedAtoms>
  152.2949  133.5598  159.5580 H   0  0  0  0  0  0  0  0  0  0  0  0  # atno 6907 bound_to 6896
  150.7251  134.0375  159.3763 H   0  0  0  0  0  0  0  0  0  0  0  0  # atno 6908 bound_to 6896
  151.8278  135.0631  160.0484 H   0  0  0  0  0  0  0  0  0  0  0  0  # atno 6909 bound_to 6896
  145.3033  140.9382  143.2811 H   0  0  0  0  0  0  0  0  0  0  0  0  # atno 7974 bound_to 7965
  155.1680  140.0407  157.2857 H   0  0  0  0  0  0  0  0  0  0  0  0  # atno 8008 bound_to 7997
  154.6290  140.2519  155.7430 H   0  0  0  0  0  0  0  0  0  0  0  0  # atno 8009 bound_to 7997
  156.2474  140.2879  156.0632 H   0  0  0  0  0  0  0  0  0  0  0  0  # atno 8010 bound_to 7997
  139.5816  144.1410  152.1523 H   0  0  0  0  0  0  0  0  0  0  0  0  # atno 10167 bound_to 10162
  157.2682  130.7195  149.6490 H   0  0  0  0  0  0  0  0  0  0  0  0  # atno 10718 bound_to 10713
  152.9841  135.6069  154.3279 H   0  0  0  0  0  0  0  0  0  0  0  0  # atno 10763 bound_to 10752
  154.2984  135.2773  155.2624 H   0  0  0  0  0  0  0  0  0  0  0  0  # atno 10764 bound_to 10752
  154.4887  135.5898  153.6499 H   0  0  0  0  0  0  0  0  0  0  0  0  # atno 10765 bound_to 10752
  140.7440  133.8647  155.8991 H   0  0  0  0  0  0  0  0  0  0  0  0  # atno 11005 bound_to 11000
  144.9075  139.4570  143.6603 LP  0  0  0  0  0  0  0  0  0  0  0  0  # atno 17320 bound_to 7965
  146.3144  139.7865  142.8995 LP  0  0  0  0  0  0  0  0  0  0  0  0  # atno 17321 bound_to 7965
  140.0964  144.5577  150.7019 LP  0  0  0  0  0  0  0  0  0  0  0  0  # atno 17342 bound_to 10162
  140.7094  143.2493  151.4628 LP  0  0  0  0  0  0  0  0  0  0  0  0  # atno 17343 bound_to 10162
  155.9663  130.4376  150.5182 LP  0  0  0  0  0  0  0  0  0  0  0  0  # atno 17370 bound_to 10713
  157.3101  131.0662  151.2007 LP  0  0  0  0  0  0  0  0  0  0  0  0  # atno 17371 bound_to 10713
  140.9811  134.1404  157.4493 LP  0  0  0  0  0  0  0  0  0  0  0  0  # atno 17394 bound_to 11000
  139.8800  135.0010  156.6046 LP  0  0  0  0  0  0  0  0  0  0  0  0  # atno 17395 bound_to 11000

$$$$
