AV-unprocessed.smi:613|AV-procd|sdf|3067|dock6
  -GOLD-   2262023593D 1   1.00000     0.00000
 Structure written by MMmdl.
 39 40  0  0  0  0  0  0  0  0  2 V2000
  148.9766  141.7484  157.3658 C   0  0  0  0  0  0  0  0  0  0  0  0
  150.4161  141.9472  157.2495 N   0  0  0  0  0  0  0  0  0  0  0  0
  151.0987  141.4494  156.0526 C   0  0  0  0  0  0  0  0  0  0  0  0
  151.2456  139.9148  156.0291 C   0  0  1  0  0  0  0  0  0  0  0  0
  149.9533  139.1803  155.6116 C   0  0  0  0  0  0  0  0  0  0  0  0
  150.1482  137.7340  155.4831 N   0  0  0  0  0  0  0  0  0  0  0  0
  148.9371  137.0053  155.0806 C   0  0  0  0  0  0  0  0  0  0  0  0
  149.0506  135.4801  155.1891 C   0  0  0  0  0  0  0  0  0  0  0  0
  148.8625  134.7775  154.0696 N   0  0  0  0  0  0  0  0  0  0  0  0
  149.3124  134.9475  156.2658 O   0  0  0  0  0  0  0  0  0  0  0  0
  151.2579  137.4692  154.5724 C   0  0  0  0  0  0  0  0  0  0  0  0
  152.5380  138.2052  154.9996 C   0  0  0  0  0  0  0  0  0  0  0  0
  152.2739  139.6010  155.0943 O   0  0  0  0  0  0  0  0  0  0  0  0
  151.0507  142.8704  158.1144 C   0  0  0  0  0  0  0  0  0  0  0  0
  151.9041  142.4723  159.1728 C   0  0  0  0  0  0  0  0  0  0  0  0
  152.4764  143.4606  159.9914 C   0  0  0  0  0  0  0  0  0  0  0  0
  152.1671  144.8008  159.7068 C   0  0  0  0  0  0  0  0  0  0  0  0
  151.3593  145.1714  158.6904 N   0  0  0  0  0  0  0  0  0  0  0  0
  150.8300  144.2007  157.9265 N   0  3  0  0  0  0  0  0  0  0  0  0
  148.7205  141.3535  158.3494 H   0  0  0  0  0  0  0  0  0  0  0  0
  148.6193  141.0371  156.6205 H   0  0  0  0  0  0  0  0  0  0  0  0
  148.4432  142.6870  157.2132 H   0  0  0  0  0  0  0  0  0  0  0  0
  150.6226  141.8005  155.1372 H   0  0  0  0  0  0  0  0  0  0  0  0
  152.0943  141.8945  156.0409 H   0  0  0  0  0  0  0  0  0  0  0  0
  151.5622  139.5675  157.0143 H   0  0  0  0  0  0  0  0  0  0  0  0
  149.1883  139.3909  156.3576 H   0  0  0  0  0  0  0  0  0  0  0  0
  149.5904  139.5875  154.6661 H   0  0  0  0  0  0  0  0  0  0  0  0
  148.0876  137.3329  155.6826 H   0  0  0  0  0  0  0  0  0  0  0  0
  148.6858  137.2499  154.0471 H   0  0  0  0  0  0  0  0  0  0  0  0
  148.9342  133.7705  154.0892 H   0  0  0  0  0  0  0  0  0  0  0  0
  148.6561  135.2565  153.2050 H   0  0  0  0  0  0  0  0  0  0  0  0
  151.4587  136.3978  154.5313 H   0  0  0  0  0  0  0  0  0  0  0  0
  150.9903  137.7738  153.5591 H   0  0  0  0  0  0  0  0  0  0  0  0
  152.9003  137.8294  155.9577 H   0  0  0  0  0  0  0  0  0  0  0  0
  153.3313  138.0414  154.2700 H   0  0  0  0  0  0  0  0  0  0  0  0
  152.1240  141.4345  159.3733 H   0  0  0  0  0  0  0  0  0  0  0  0
  153.1284  143.2007  160.8122 H   0  0  0  0  0  0  0  0  0  0  0  0
  152.5795  145.5982  160.3073 H   0  0  0  0  0  0  0  0  0  0  0  0
  150.2168  144.4769  157.1596 H   0  0  0  0  0  0  0  0  0  0  0  0
  1  2  1  0  0  0  0
  1 20  1  0  0  0  0
  1 21  1  0  0  0  0
  1 22  1  0  0  0  0
  2  3  1  0  0  0  0
  2 14  1  0  0  0  0
  3  4  1  0  0  0  0
  3 23  1  0  0  0  0
  3 24  1  0  0  0  0
  4 13  1  0  0  0  0
  4  5  1  0  0  0  0
  4 25  1  0  0  0  0
  5  6  1  0  0  0  0
  5 26  1  0  0  0  0
  5 27  1  0  0  0  0
  6  7  1  0  0  0  0
  6 11  1  0  0  0  0
  7  8  1  0  0  0  0
  7 28  1  0  0  0  0
  7 29  1  0  0  0  0
  8  9  1  0  0  0  0
  8 10  2  0  0  0  0
  9 30  1  0  0  0  0
  9 31  1  0  0  0  0
 11 12  1  0  0  0  0
 11 32  1  0  0  0  0
 11 33  1  0  0  0  0
 12 13  1  0  0  0  0
 12 34  1  0  0  0  0
 12 35  1  0  0  0  0
 14 19  1  0  0  0  0
 14 15  2  0  0  0  0
 15 16  1  0  0  0  0
 15 36  1  0  0  0  0
 16 17  2  0  0  0  0
 16 37  1  0  0  0  0
 17 18  1  0  0  0  0
 17 38  1  0  0  0  0
 18 19  2  0  0  0  0
 19 39  1  0  0  0  0
M  CHG  1  19   1
M  END
> <s_m_source_file>
AV-unprocessed.smi

> <i_m_source_file_index>
613

> <i_lp_mmshare_version>
43012

> <i_f3d_flags>
0

> <s_epik_input>
bjFuW2NIXVtjSF1bY0hdYzFOKFtDSDNdKVtDSDJdW0NAQEhdMltDSDJdTihbQ0gyXVtDSDJdTzIpW0NIMl1DKD1PKVtOSDJd

> <s_epik_cmdline>
J2VwaWtfcHl0aG9uJywgJy1waCcsICc3LjAnLCAnLXRuJywgJzgnLCAnLW1hJywgJzIwMCcsICctbWV0YWxfYmluZGluZycsICctaW1hZScsICc8aW5maWxlLm1hZT4nLCAnLW9tYWUnLCAnPG91dGZpbGUubWFlPic=

> <r_lp_tautomer_probability>
0.966961

> <r_epik_Ionization_Penalty>
1.86301

> <r_epik_Ionization_Penalty_Charging>
1.86058

> <r_epik_Ionization_Penalty_Neutral>
0.00243207

> <r_epik_State_Penalty>
1.48112

> <r_epik_Charging_Adjusted_Penalty>
3.3417

> <i_epik_Tot_Q>
1

> <i_epik_Tot_abs_Q>
1

> <r_epik_Metal_State_Penalty>
1.50193

> <b_epik_Metal_Only>
0

> <s_lp_Force_Field>
OPLS_2005

> <r_lp_Energy>
27.4635

> <b_lp_Chiralities_Consistent>
1

> <s_lp_Variant>
AV-unprocessed.smi:613-4

> <Gold.Version>
5.8.1

> <Gold.Id.Protein>
6NUR|6NUR_protein|mol2

> <Gold.PLP.Fitness>
45.2502

> <Gold.PLP.PLP>
-37.0615

> <Gold.PLP.part.hbond>
-3.6450

> <Gold.PLP.part.metal>
0.0000

> <Gold.PLP.part.buried>
-6.2750

> <Gold.PLP.part.nonpolar>
-28.3726

> <Gold.PLP.part.repulsive>
0.3635

> <Gold.PLP.ligand.clash>
0.0000

> <Gold.PLP.ligand.torsion>
1.7072

> <Gold.PLP.Chemscore.Hbond>
3.8000

> <Gold.PLP.Chemscore.CHOScore>
0.0000

> <Gold.PLP.Chemscore.Metal>
0.0000

> <Gold.Chemscore.Hbonds>
donor molecule, donor type, donor heavy atom, donor atom, acceptor molecule, acceptor atom, score
      L1  H     9    31       P1  7948  1.00
      L1  H    19    39       P1  8028  2.00
      P1  H  7989  7998       L1    13  0.58

> <Gold.PLP.Chemscore.Internal.Correction>
0.2031

> <Gold.Rescore>
     Score         DG    S(hbond)    S(metal)    S(lipo)     H(rot)  DE(clash)    DE(int)     intcor
     14.71     -16.48       2.37        0.00      75.15       2.23       0.03       1.73       ----

> <Gold.Chemscore.Fitness>
14.7145

> <Gold.Chemscore.DG>
-16.4752

> <Gold.Chemscore.ZeroCoef>
-5.4800

> <Gold.Chemscore.Hbond>
2.3722

> <Gold.Chemscore.Metal>
0.0000

> <Gold.Chemscore.Lipo>
75.1541

> <Gold.Chemscore.Internal_Hbond>
0.0000

> <Gold.Chemscore.DEClash>
0.0329

> <Gold.Chemscore.DEInternal>
1.7278

> <Gold.Chemscore.Rot>
2.2348

> <Gold.Chemscore.Internal.Correction>
   9.000000E+99

> <Gold.Chemscore.Hbonds>
donor molecule, donor type, donor heavy atom, donor atom, acceptor molecule, acceptor atom, score
      L1  H     9    31       P1  7948  0.81
      L1  H    19    39       P1  8028  0.59
      P1  H  7989  7998       L1    13  0.13

> <Gold.Chemscore.Hbond.Weighted>
-7.9233

> <Gold.Chemscore.Metal.Weighted>
-0.0000

> <Gold.Chemscore.Lipo.Weighted>
-8.7930

> <Gold.Chemscore.Internal_Hbond.Weighted>
0.0000

> <Gold.Chemscore.DEClash.Weighted>
0.0329

> <Gold.Chemscore.DEInternal.Weighted>
1.7278

> <Gold.Chemscore.Rot.Weighted>
5.7211

> <Gold.Chemscore.Internal.Correction.Weighted>
   9.000000E+99

> <Gold.Protein.RotatedTorsions>
[ 6907 6896 6895 6894 ] final  118.00 input  -60.11 | X-H torsion
[ 7974 7965 7964 7962 ] final -118.06 input  175.53 | X-H torsion
[ 8008 7997 7996 7995 ] final  -94.97 input   59.86 | X-H torsion
[ 10167 10162 10161 10158 ] final   65.65 input  -65.29 | X-H torsion
[ 10718 10713 10712 10709 ] final   20.44 input   66.30 | X-H torsion
[ 10763 10752 10751 10750 ] final   90.57 input  -60.55 | X-H torsion
[ 11005 11000 10999 10996 ] final   57.46 input  -57.11 | X-H torsion

> <Gold.Protein.ActiveResidues>
 VAL166  LYS551  ARG553  GLY616  TRP617  ASP618  TYR619  PRO620  LYS621  CYS622 
 ASP623  PHE694  ASN695  SER759  ASP760  ASP761  ALA762  ILE779  LEU786  VAL792 
 PHE793  MET794  SER795  GLU796  ALA797  LYS798  CYS799  TRP800  GLU811  SER814 

> <Gold.Protein.RotatedAtoms>
  152.4574  133.7750  159.6819 H   0  0  0  0  0  0  0  0  0  0  0  0  # atno 6907 bound_to 6896
  150.8505  133.7785  159.3033 H   0  0  0  0  0  0  0  0  0  0  0  0  # atno 6908 bound_to 6896
  151.5382  135.1071  159.9971 H   0  0  0  0  0  0  0  0  0  0  0  0  # atno 6909 bound_to 6896
  145.0781  140.8406  143.4055 H   0  0  0  0  0  0  0  0  0  0  0  0  # atno 7974 bound_to 7965
  154.7552  140.0484  157.0927 H   0  0  0  0  0  0  0  0  0  0  0  0  # atno 8008 bound_to 7997
  155.0006  140.3124  155.4849 H   0  0  0  0  0  0  0  0  0  0  0  0  # atno 8009 bound_to 7997
  156.2893  140.2202  156.5116 H   0  0  0  0  0  0  0  0  0  0  0  0  # atno 8010 bound_to 7997
  140.1089  144.4836  150.6990 H   0  0  0  0  0  0  0  0  0  0  0  0  # atno 10167 bound_to 10162
  157.1245  130.6564  149.5933 H   0  0  0  0  0  0  0  0  0  0  0  0  # atno 10718 bound_to 10713
  153.1989  135.4429  155.0242 H   0  0  0  0  0  0  0  0  0  0  0  0  # atno 10763 bound_to 10752
  154.8135  135.3305  154.7242 H   0  0  0  0  0  0  0  0  0  0  0  0  # atno 10764 bound_to 10752
  153.7689  135.6986  153.4966 H   0  0  0  0  0  0  0  0  0  0  0  0  # atno 10765 bound_to 10752
  140.0451  134.5818  155.9333 H   0  0  0  0  0  0  0  0  0  0  0  0  # atno 11005 bound_to 11000
  145.1211  139.2693  143.5588 LP  0  0  0  0  0  0  0  0  0  0  0  0  # atno 17320 bound_to 7965
  146.3530  140.0836  142.8616 LP  0  0  0  0  0  0  0  0  0  0  0  0  # atno 17321 bound_to 7965
  140.6936  143.2390  151.5062 LP  0  0  0  0  0  0  0  0  0  0  0  0  # atno 17342 bound_to 10162
  139.5630  144.2111  152.1721 LP  0  0  0  0  0  0  0  0  0  0  0  0  # atno 17343 bound_to 10162
  155.9821  130.4833  150.6864 LP  0  0  0  0  0  0  0  0  0  0  0  0  # atno 17370 bound_to 10713
  157.4447  131.0865  151.0907 LP  0  0  0  0  0  0  0  0  0  0  0  0  # atno 17371 bound_to 10713
  141.1902  133.6568  156.5404 LP  0  0  0  0  0  0  0  0  0  0  0  0  # atno 17394 bound_to 11000
  140.4007  134.7359  157.4778 LP  0  0  0  0  0  0  0  0  0  0  0  0  # atno 17395 bound_to 11000

$$$$
