#       Name:                AV-unprocessed.smi:2968
#       Creating user name   scv26
#       Creation time:       Fri Mar 27 16:23:35 2020


#       File generated by GOLD software.
#

@<TRIPOS>MOLECULE
AV-unprocessed.smi:2968
    50    51     1
SMALL
NO_CHARGES


@<TRIPOS>ATOM
      1 ****        -0.1324  -0.1721   3.2982 O.2            1 S1                 0.0000
      2 ****        -0.6376   0.9081   2.4362 S.o2           1 S1                 0.0000
      3 ****        -0.2521   2.3021   2.7071 O.2            1 S1                 0.0000
      4 ****        -0.2010   0.5251   0.7460 C.ar           1 S1                 0.0000
      5 ****        -0.0550   1.5517  -0.2061 C.ar           1 S1                 0.0000
      6 ****         0.3156   1.1988  -1.5184 C.ar           1 S1                 0.0000
      7 ****         0.5398  -0.1618  -1.8198 C.ar           1 S1                 0.0000
      8 ****         0.9619  -0.5030  -3.1128 N.pl3          1 S1                 0.0000
      9 ****         1.9073  -1.6044  -3.2702 C.3            1 S1                 0.0000
     10 ****         3.3168  -1.2399  -2.7731 C.3            1 S1                 0.0000
     11 ****         3.3260  -1.2580  -1.3560 O.3            1 S1                 0.0000
     12 ****         4.5099  -0.7325  -0.7851 C.3            1 S1                 0.0000
     13 ****         4.3457  -0.7239   0.7398 C.3            1 S1                 0.0000
     14 ****         3.6006   0.4070   1.1410 O.3            1 S1                 0.0000
     15 ****         0.3844  -1.1482  -0.9034 N.ar           1 S1                 0.0000
     16 ****         0.0335  -0.8071   0.3545 C.ar           1 S1                 0.0000
     17 ****        -2.3765   0.8251   2.4387 N.pl3          1 S1                 0.0000
     18 ****        -3.1648   1.9258   1.8466 C.3            1 S1                 0.0000
     19 ****        -3.6634   1.5729   0.4337 C.3            1 S1                 0.0000
     20 ****        -4.4316   0.2471   0.4322 C.3            1 S1                 0.0000
     21 ****        -3.5485  -0.8606   1.0163 C.3            1 S1                 0.0000
     22 ****        -3.0495  -0.4906   2.4249 C.3            1 S1                 0.0000
     23 ****        -0.2217   2.5854   0.0577 H              1 S1                 0.0000
     24 ****         0.4451   1.9629  -2.2709 H              1 S1                 0.0000
     25 ****         1.0782   0.2664  -3.7560 H              1 S1                 0.0000
     26 ****         1.5432  -2.5112  -2.7860 H              1 S1                 0.0000
     27 ****         1.9564  -1.8292  -4.3357 H              1 S1                 0.0000
     28 ****         4.0419  -1.9680  -3.1387 H              1 S1                 0.0000
     29 ****         3.6121  -0.2628  -3.1596 H              1 S1                 0.0000
     30 ****         5.3457  -1.3763  -1.0628 H              1 S1                 0.0000
     31 ****         4.7286   0.2691  -1.1595 H              1 S1                 0.0000
     32 ****         3.8682  -1.6385   1.0926 H              1 S1                 0.0000
     33 ****         5.3238  -0.6636   1.2172 H              1 S1                 0.0000
     34 ****         3.5106   0.3896   2.0817 H              1 S1                 0.0000
     35 ****        -0.0691  -1.6195   1.0584 H              1 S1                 0.0000
     36 ****        -4.0188   2.1240   2.4949 H              1 S1                 0.0000
     37 ****        -2.5780   2.8436   1.8232 H              1 S1                 0.0000
     38 ****        -4.3035   2.3716   0.0585 H              1 S1                 0.0000
     39 ****        -2.8225   1.5079  -0.2555 H              1 S1                 0.0000
     40 ****        -5.3437   0.3452   1.0221 H              1 S1                 0.0000
     41 ****        -4.7384  -0.0102  -0.5819 H              1 S1                 0.0000
     42 ****        -4.1070  -1.7960   1.0578 H              1 S1                 0.0000
     43 ****        -2.7036  -1.0403   0.3531 H              1 S1                 0.0000
     44 ****        -2.3820  -1.2629   2.8061 H              1 S1                 0.0000
     45 ****        -3.8958  -0.4502   3.1113 H              1 S1                 0.0000
     46 ****         3.2231  -2.2051  -1.0522 LP             1 S1                 0.0000
     47 ****         2.5513  -0.7169  -1.0288 LP             1 S1                 0.0000
     48 ****         2.6961   0.3831   0.7154 LP             1 S1                 0.0000
     49 ****         4.0777   1.2409   0.8634 LP             1 S1                 0.0000
     50 ****         0.5264  -2.1060  -1.1533 LP             1 S1                 0.0000
@<TRIPOS>BOND
    1    1    2 2     
    2    2    3 2     
    3    2    4 1     
    4    2   17 1     
    5    4   16 ar    
    6    4    5 ar    
    7    5    6 ar    
    8    5   23 1     
    9    6    7 ar    
   10    6   24 1     
   11    7    8 1     
   12    7   15 ar    
   13    8    9 1     
   14    8   25 1     
   15    9   10 1     
   16    9   26 1     
   17    9   27 1     
   18   10   11 1     
   19   10   28 1     
   20   10   29 1     
   21   11   12 1     
   22   12   13 1     
   23   12   30 1     
   24   12   31 1     
   25   13   14 1     
   26   13   32 1     
   27   13   33 1     
   28   14   34 1     
   29   15   16 ar    
   30   16   35 1     
   31   17   22 1     
   32   17   18 1     
   33   18   19 1     
   34   18   36 1     
   35   18   37 1     
   36   19   20 1     
   37   19   38 1     
   38   19   39 1     
   39   20   21 1     
   40   20   40 1     
   41   20   41 1     
   42   21   22 1     
   43   21   42 1     
   44   21   43 1     
   45   22   44 1     
   46   22   45 1     
   47   11   46 1     
   48   11   47 1     
   49   14   48 1     
   50   14   49 1     
   51   15   50 1     
@<TRIPOS>SUBSTRUCTURE
      1 S1             1
@<TRIPOS>SET
LONE_PAIRS      STATIC     ATOMS    <user>   **** ""
7 1 3 46 47 48 49 50
DONOR_HYDROGENS      STATIC     ATOMS    <user>   **** ""
2 25 34
ATOM$BLUE        STATIC     ATOMS    COLORGROUP SYSTEM
7 1 3 46 47 48 49 50
ATOM$RED        STATIC     ATOMS    COLORGROUP SYSTEM
2 25 34
