#       Name:                AV-unprocessed.smi:2647
#       Creating user name   scv26
#       Creation time:       Fri Mar 27 14:29:34 2020


#       File generated by GOLD software.
#

@<TRIPOS>MOLECULE
AV-unprocessed.smi:2647
    40    41     1
SMALL
NO_CHARGES


@<TRIPOS>ATOM
      1 ****        -1.8426  -0.0425  -2.1976 O.2            1 S1                 0.0000
      2 ****        -2.2458   0.3252  -1.0938 C.2            1 S1                 0.0000
      3 ****        -2.1577  -0.4263   0.0129 N.am           1 S1                 0.0000
      4 ****        -1.5755  -1.7631   0.0734 C.3            1 S1                 0.0000
      5 ****        -0.0375  -1.7312   0.1107 C.3            1 S1                 0.0000
      6 ****         0.5344  -0.9976   1.3387 C.3            1 S1                 0.0000
      7 ****         2.0004  -1.0067   1.3291 N.am           1 S1                 0.0000
      8 ****         2.7492  -1.9844   1.8585 C.2            1 S1                 0.0000
      9 ****         2.3338  -2.9914   2.4311 O.2            1 S1                 0.0000
     10 ****         4.2328  -1.7060   1.6581 C.3            1 S1                 0.0000
     11 ****         4.2358  -0.3751   0.8990 C.3            1 S1                 0.0000
     12 ****         2.7534  -0.0559   0.7579 C.2            1 S1                 0.0000
     13 ****         2.3429   0.9515   0.1823 O.2            1 S1                 0.0000
     14 ****        -2.8212   1.5117  -0.8308 N.am           1 S1                 0.0000
     15 ****        -3.1074   2.5706  -1.7324 C.2            1 S1                 0.0000
     16 ****        -2.8319   2.5263  -3.0454 N.2            1 S1                 0.0000
     17 ****        -3.2184   3.6904  -3.6971 N.2            1 S1                 0.0000
     18 ****        -3.7688   4.5659  -2.8512 C.2            1 S1                 0.0000
     19 ****        -3.8695   4.0535  -1.1755 S.3            1 S1                 0.0000
     20 ****        -2.5143  -0.0464   0.8775 H              1 S1                 0.0000
     21 ****        -1.9570  -2.2611   0.9651 H              1 S1                 0.0000
     22 ****        -1.9173  -2.3544  -0.7778 H              1 S1                 0.0000
     23 ****         0.3308  -2.7576   0.1022 H              1 S1                 0.0000
     24 ****         0.3407  -1.2695  -0.8025 H              1 S1                 0.0000
     25 ****         0.1736   0.0319   1.3674 H              1 S1                 0.0000
     26 ****         0.1644  -1.4626   2.2542 H              1 S1                 0.0000
     27 ****         4.7407  -1.6272   2.6199 H              1 S1                 0.0000
     28 ****         4.6967  -2.5051   1.0789 H              1 S1                 0.0000
     29 ****         4.7450   0.4107   1.4579 H              1 S1                 0.0000
     30 ****         4.7016  -0.4683  -0.0826 H              1 S1                 0.0000
     31 ****        -3.0925   1.6748   0.1275 H              1 S1                 0.0000
     32 ****        -4.1183   5.5202  -3.2163 H              1 S1                 0.0000
     33 ****        -1.4234  -0.9444  -2.3018 LP             1 S1                 0.0000
     34 ****        -1.9344   0.5608  -2.9898 LP             1 S1                 0.0000
     35 ****         1.3500  -3.1373   2.5354 LP             1 S1                 0.0000
     36 ****         2.9800  -3.6637   2.7922 LP             1 S1                 0.0000
     37 ****         1.3599   1.1197   0.1086 LP             1 S1                 0.0000
     38 ****         2.9923   1.6019  -0.2117 LP             1 S1                 0.0000
     39 ****        -2.3997   1.7477  -3.5003 LP             1 S1                 0.0000
     40 ****        -3.0996   3.8528  -4.6766 LP             1 S1                 0.0000
@<TRIPOS>BOND
    1    1    2 2     
    2    2    3 am    
    3    2   14 am    
    4    3    4 1     
    5    3   20 1     
    6    4    5 1     
    7    4   21 1     
    8    4   22 1     
    9    5    6 1     
   10    5   23 1     
   11    5   24 1     
   12    6    7 1     
   13    6   25 1     
   14    6   26 1     
   15    7   12 am    
   16    7    8 am    
   17    8    9 2     
   18    8   10 1     
   19   10   11 1     
   20   10   27 1     
   21   10   28 1     
   22   11   12 1     
   23   11   29 1     
   24   11   30 1     
   25   12   13 2     
   26   14   15 1     
   27   14   31 1     
   28   15   19 1     
   29   15   16 2     
   30   16   17 1     
   31   17   18 2     
   32   18   19 1     
   33   18   32 1     
   34    1   33 1     
   35    1   34 1     
   36    9   35 1     
   37    9   36 1     
   38   13   37 1     
   39   13   38 1     
   40   16   39 1     
   41   17   40 1     
@<TRIPOS>SUBSTRUCTURE
      1 S1             1
@<TRIPOS>SET
LONE_PAIRS      STATIC     ATOMS    <user>   **** ""
8 33 34 35 36 37 38 39 40
DONOR_HYDROGENS      STATIC     ATOMS    <user>   **** ""
2 20 31
ATOM$BLUE        STATIC     ATOMS    COLORGROUP SYSTEM
8 33 34 35 36 37 38 39 40
ATOM$RED        STATIC     ATOMS    COLORGROUP SYSTEM
2 20 31
