AV-unprocessed.smi:2519|AV-procd|sdf|9904|dock2
  -GOLD-   2272013543D 1   1.00000     0.00000
 Structure written by MMmdl.
 43 44  0  0  0  0  0  0  0  0  1 V2000
  154.4533  139.5092  160.6489 C   0  0  0  0  0  0  0  0  0  0  0  0
  153.6497  140.6508  160.2410 N   0  0  0  0  0  0  0  0  0  0  0  0
  153.5611  141.8030  160.9256 C   0  0  0  0  0  0  0  0  0  0  0  0
  154.1591  142.0017  161.9843 O   0  0  0  0  0  0  0  0  0  0  0  0
  152.6578  142.8542  160.3346 C   0  0  0  0  0  0  0  0  0  0  0  0
  152.5825  144.1358  160.9243 C   0  0  0  0  0  0  0  0  0  0  0  0
  151.7355  145.0976  160.3459 C   0  0  0  0  0  0  0  0  0  0  0  0
  150.9932  144.7508  159.2021 C   0  0  0  0  0  0  0  0  0  0  0  0
  151.1169  143.4512  158.6662 C   0  0  0  0  0  0  0  0  0  0  0  0
  150.3243  143.1938  157.5172 N   0  0  0  0  0  0  0  0  0  0  0  0
  149.9390  142.0028  157.0161 C   0  0  0  0  0  0  0  0  0  0  0  0
  150.2656  140.9102  157.4768 O   0  0  0  0  0  0  0  0  0  0  0  0
  149.1393  142.0900  155.9368 N   0  0  0  0  0  0  0  0  0  0  0  0
  148.5447  141.0055  155.1521 C   0  0  1  0  0  0  0  0  0  0  0  0
  149.6658  140.1520  154.5325 C   0  0  0  0  0  0  0  0  0  0  0  0
  149.0938  138.9664  153.7414 C   0  0  0  0  0  0  0  0  0  0  0  0
  148.1711  138.1051  154.6181 C   0  0  0  0  0  0  0  0  0  0  0  0
  147.0334  138.9424  155.2395 C   0  0  1  0  0  0  0  0  0  0  0  0
  146.0889  138.0855  156.1072 C   0  0  0  0  0  0  0  0  0  0  0  0
  145.5180  137.1244  155.3804 F   0  0  0  0  0  0  0  0  0  0  0  0
  146.7711  137.5236  157.1053 F   0  0  0  0  0  0  0  0  0  0  0  0
  145.1346  138.8511  156.6361 F   0  0  0  0  0  0  0  0  0  0  0  0
  147.6219  140.1312  156.0289 C   0  0  0  0  0  0  0  0  0  0  0  0
  151.9389  142.5340  159.2313 N   0  0  0  0  0  0  0  0  0  0  0  0
  154.3739  138.7148  159.9066 H   0  0  0  0  0  0  0  0  0  0  0  0
  154.1108  139.1168  161.6072 H   0  0  0  0  0  0  0  0  0  0  0  0
  155.5042  139.7868  160.7405 H   0  0  0  0  0  0  0  0  0  0  0  0
  153.1238  140.5692  159.3819 H   0  0  0  0  0  0  0  0  0  0  0  0
  153.1590  144.3851  161.8034 H   0  0  0  0  0  0  0  0  0  0  0  0
  151.6556  146.0863  160.7731 H   0  0  0  0  0  0  0  0  0  0  0  0
  150.3358  145.4770  158.7461 H   0  0  0  0  0  0  0  0  0  0  0  0
  149.9861  144.0114  157.0320 H   0  0  0  0  0  0  0  0  0  0  0  0
  148.9124  143.0240  155.6269 H   0  0  0  0  0  0  0  0  0  0  0  0
  147.9623  141.4317  154.3331 H   0  0  0  0  0  0  0  0  0  0  0  0
  150.2851  140.7655  153.8768 H   0  0  0  0  0  0  0  0  0  0  0  0
  150.3242  139.7771  155.3177 H   0  0  0  0  0  0  0  0  0  0  0  0
  148.5394  139.3357  152.8777 H   0  0  0  0  0  0  0  0  0  0  0  0
  149.9074  138.3565  153.3478 H   0  0  0  0  0  0  0  0  0  0  0  0
  147.7570  137.2941  154.0186 H   0  0  0  0  0  0  0  0  0  0  0  0
  148.7576  137.6346  155.4082 H   0  0  0  0  0  0  0  0  0  0  0  0
  146.4392  139.3516  154.4207 H   0  0  0  0  0  0  0  0  0  0  0  0
  148.1805  139.7579  156.8883 H   0  0  0  0  0  0  0  0  0  0  0  0
  146.8102  140.7363  156.4335 H   0  0  0  0  0  0  0  0  0  0  0  0
  1  2  1  0  0  0  0
  1 25  1  0  0  0  0
  1 26  1  0  0  0  0
  1 27  1  0  0  0  0
  2  3  1  0  0  0  0
  2 28  1  0  0  0  0
  3  4  2  0  0  0  0
  3  5  1  0  0  0  0
  5 24  1  0  0  0  0
  5  6  2  0  0  0  0
  6  7  1  0  0  0  0
  6 29  1  0  0  0  0
  7  8  2  0  0  0  0
  7 30  1  0  0  0  0
  8  9  1  0  0  0  0
  8 31  1  0  0  0  0
  9 10  1  0  0  0  0
  9 24  2  0  0  0  0
 10 11  1  0  0  0  0
 10 32  1  0  0  0  0
 11 12  2  0  0  0  0
 11 13  1  0  0  0  0
 13 14  1  0  0  0  0
 13 33  1  0  0  0  0
 14 23  1  0  0  0  0
 14 15  1  0  0  0  0
 14 34  1  0  0  0  0
 15 16  1  0  0  0  0
 15 35  1  0  0  0  0
 15 36  1  0  0  0  0
 16 17  1  0  0  0  0
 16 37  1  0  0  0  0
 16 38  1  0  0  0  0
 17 18  1  0  0  0  0
 17 39  1  0  0  0  0
 17 40  1  0  0  0  0
 18 19  1  0  0  0  0
 18 23  1  0  0  0  0
 18 41  1  0  0  0  0
 19 20  1  0  0  0  0
 19 21  1  0  0  0  0
 19 22  1  0  0  0  0
 23 42  1  0  0  0  0
 23 43  1  0  0  0  0
M  END
> <s_m_source_file>
AV-unprocessed.smi

> <i_m_source_file_index>
2519

> <i_lp_mmshare_version>
43012

> <i_f3d_flags>
0

> <s_epik_input>
W0NIM11bTkhdQyg9TyljMVtjSF1bY0hdW2NIXWMobjEpW05IXUMoPU8pW05IXVtDQEBIXTJbQ0gyXVtDSDJdW0NIMl1bQ0BASF0oQyhGKShGKUYpW0NIMl0y

> <s_epik_cmdline>
J2VwaWtfcHl0aG9uJywgJy1waCcsICc3LjAnLCAnLXRuJywgJzgnLCAnLW1hJywgJzIwMCcsICctbWV0YWxfYmluZGluZycsICctaW1hZScsICc8aW5maWxlLm1hZT4nLCAnLW9tYWUnLCAnPG91dGZpbGUubWFlPic=

> <r_lp_tautomer_probability>
1

> <r_epik_Ionization_Penalty>
3.74915e-05

> <r_epik_Ionization_Penalty_Charging>
0

> <r_epik_Ionization_Penalty_Neutral>
3.74915e-05

> <r_epik_State_Penalty>
-0

> <r_epik_Charging_Adjusted_Penalty>
0

> <i_epik_Tot_Q>
0

> <i_epik_Tot_abs_Q>
0

> <r_epik_Metal_State_Penalty>
-0

> <b_epik_Metal_Only>
0

> <s_lp_Force_Field>
OPLS_2005

> <r_lp_Energy>
27.1439

> <b_lp_Chiralities_Consistent>
1

> <s_lp_Variant>
AV-unprocessed.smi:2519-2

> <Gold.Version>
5.8.1

> <Gold.Id.Protein>
6NUR|6NUR_protein|mol2

> <Gold.PLP.Fitness>
40.2049

> <Gold.PLP.PLP>
-34.4664

> <Gold.PLP.part.hbond>
-3.0000

> <Gold.PLP.part.metal>
0.0000

> <Gold.PLP.part.buried>
-5.1985

> <Gold.PLP.part.nonpolar>
-26.3686

> <Gold.PLP.part.repulsive>
0.2236

> <Gold.PLP.ligand.clash>
0.0000

> <Gold.PLP.ligand.torsion>
0.1215

> <Gold.PLP.Chemscore.Hbond>
1.9760

> <Gold.PLP.Chemscore.CHOScore>
0.0000

> <Gold.PLP.Chemscore.Metal>
0.0000

> <Gold.Chemscore.Hbonds>
donor molecule, donor type, donor heavy atom, donor atom, acceptor molecule, acceptor atom, score
      L1  H    10    32       P1  8028  0.98
      L1  H    13    33       P1  8028  1.00

> <Gold.PLP.Chemscore.Internal.Correction>
0.0535

> <Gold.Rescore>
     Score         DG    S(hbond)    S(metal)    S(lipo)     H(rot)  DE(clash)    DE(int)     intcor
     16.67     -18.06       1.92        0.00      74.55       1.00       0.03       1.37       ----

> <Gold.Chemscore.Fitness>
16.6705

> <Gold.Chemscore.DG>
-18.0645

> <Gold.Chemscore.ZeroCoef>
-5.4800

> <Gold.Chemscore.Hbond>
1.9227

> <Gold.Chemscore.Metal>
0.0000

> <Gold.Chemscore.Lipo>
74.5524

> <Gold.Chemscore.Internal_Hbond>
0.0000

> <Gold.Chemscore.DEClash>
0.0270

> <Gold.Chemscore.DEInternal>
1.3670

> <Gold.Chemscore.Rot>
1.0000

> <Gold.Chemscore.Internal.Correction>
   9.000000E+99

> <Gold.Chemscore.Hbonds>
donor molecule, donor type, donor heavy atom, donor atom, acceptor molecule, acceptor atom, score
      L1  H    10    32       P1  8028  0.85
      L1  H    13    33       P1  8028  0.99

> <Gold.Chemscore.Hbond.Weighted>
-6.4219

> <Gold.Chemscore.Metal.Weighted>
-0.0000

> <Gold.Chemscore.Lipo.Weighted>
-8.7226

> <Gold.Chemscore.Internal_Hbond.Weighted>
0.0000

> <Gold.Chemscore.DEClash.Weighted>
0.0270

> <Gold.Chemscore.DEInternal.Weighted>
1.3670

> <Gold.Chemscore.Rot.Weighted>
2.5600

> <Gold.Chemscore.Internal.Correction.Weighted>
   9.000000E+99

> <Gold.Protein.RotatedTorsions>
[ 6907 6896 6895 6894 ] final  152.03 input  -60.11 | X-H torsion
[ 7974 7965 7964 7962 ] final  -89.53 input  175.53 | X-H torsion
[ 8008 7997 7996 7995 ] final  146.78 input   59.86 | X-H torsion
[ 10167 10162 10161 10158 ] final -177.83 input  -65.29 | X-H torsion
[ 10718 10713 10712 10709 ] final  -50.58 input   66.30 | X-H torsion
[ 10763 10752 10751 10750 ] final  -35.68 input  -60.55 | X-H torsion
[ 11005 11000 10999 10996 ] final  -30.68 input  -57.11 | X-H torsion

> <Gold.Protein.ActiveResidues>
 VAL166  LYS551  ARG553  GLY616  TRP617  ASP618  TYR619  PRO620  LYS621  CYS622 
 ASP623  PHE694  ASN695  SER759  ASP760  ASP761  ALA762  ILE779  LEU786  VAL792 
 PHE793  MET794  SER795  GLU796  ALA797  LYS798  CYS799  TRP800  GLU811  SER814 

> <Gold.Protein.RotatedAtoms>
  152.0924  133.4207  159.4549 H   0  0  0  0  0  0  0  0  0  0  0  0  # atno 6907 bound_to 6896
  150.6862  134.2857  159.4655 H   0  0  0  0  0  0  0  0  0  0  0  0  # atno 6908 bound_to 6896
  152.0709  134.9533  160.0625 H   0  0  0  0  0  0  0  0  0  0  0  0  # atno 6909 bound_to 6896
  145.4385  140.9558  143.2088 H   0  0  0  0  0  0  0  0  0  0  0  0  # atno 7974 bound_to 7965
  156.2845  140.2173  156.5432 H   0  0  0  0  0  0  0  0  0  0  0  0  # atno 8008 bound_to 7997
  154.7352  140.0492  157.0785 H   0  0  0  0  0  0  0  0  0  0  0  0  # atno 8009 bound_to 7997
  155.0301  140.3134  155.4764 H   0  0  0  0  0  0  0  0  0  0  0  0  # atno 8010 bound_to 7997
  139.5461  144.2232  152.0990 H   0  0  0  0  0  0  0  0  0  0  0  0  # atno 10167 bound_to 10162
  156.1787  130.4150  149.9538 H   0  0  0  0  0  0  0  0  0  0  0  0  # atno 10718 bound_to 10713
  153.8672  135.6834  153.4777 H   0  0  0  0  0  0  0  0  0  0  0  0  # atno 10763 bound_to 10752
  153.1308  135.4699  154.9343 H   0  0  0  0  0  0  0  0  0  0  0  0  # atno 10764 bound_to 10752
  154.7731  135.3245  154.8098 H   0  0  0  0  0  0  0  0  0  0  0  0  # atno 10765 bound_to 10752
  140.9403  133.7283  156.1066 H   0  0  0  0  0  0  0  0  0  0  0  0  # atno 11005 bound_to 11000
  144.8137  139.5916  143.7018 LP  0  0  0  0  0  0  0  0  0  0  0  0  # atno 17320 bound_to 7965
  146.2569  139.6322  142.9389 LP  0  0  0  0  0  0  0  0  0  0  0  0  # atno 17321 bound_to 7965
  140.1719  144.4928  150.6575 LP  0  0  0  0  0  0  0  0  0  0  0  0  # atno 17342 bound_to 10162
  140.6709  143.2285  151.5626 LP  0  0  0  0  0  0  0  0  0  0  0  0  # atno 17343 bound_to 10162
  156.7315  130.9045  151.3626 LP  0  0  0  0  0  0  0  0  0  0  0  0  # atno 17370 bound_to 10713
  157.6854  130.9180  150.0372 LP  0  0  0  0  0  0  0  0  0  0  0  0  # atno 17371 bound_to 10713
  140.7743  134.3797  157.5501 LP  0  0  0  0  0  0  0  0  0  0  0  0  # atno 17394 bound_to 11000
  139.8818  134.9042  156.2871 LP  0  0  0  0  0  0  0  0  0  0  0  0  # atno 17395 bound_to 11000

$$$$
