AV-unprocessed.smi:264|AV-procd|sdf|2012|dock10
  -GOLD-   2262021213D 1   1.00000     0.00000
 Structure written by MMmdl.
 52 56  0  0  0  0  0  0  0  0  1 V2000
  151.7593  138.6744  157.6529 C   0  0  0  0  0  0  0  0  0  0  0  0
  150.7982  139.8712  157.5668 C   0  0  1  0  0  0  0  0  0  0  0  0
  151.2401  140.9352  158.4095 O   0  0  0  0  0  0  0  0  0  0  0  0
  151.3851  142.1308  157.6553 C   0  0  0  0  0  0  0  0  0  0  0  0
  150.4301  141.9575  156.4819 C   0  0  0  0  0  0  0  0  0  0  0  0
  150.5674  140.4757  156.1624 C   0  0  1  0  0  0  0  0  0  0  0  0
  151.7120  140.2995  155.3417 O   0  0  0  0  0  0  0  0  0  0  0  0
  149.3439  139.8714  155.4332 C   0  0  0  0  0  0  0  0  0  0  0  0
  148.2982  140.8445  155.1566 N   0  0  0  0  0  0  0  0  0  0  0  0
  148.0208  141.4321  153.9430 C   0  0  0  0  0  0  0  0  0  0  0  0
  147.0341  142.2861  153.9509 N   0  0  0  0  0  0  0  0  0  0  0  0
  146.5858  142.2762  155.2667 C   0  0  0  0  0  0  0  0  0  0  0  0
  145.5559  142.9573  155.9763 C   0  0  0  0  0  0  0  0  0  0  0  0
  144.7105  143.8630  155.4413 N   0  0  0  0  0  0  0  0  0  0  0  0
  145.0749  144.2626  154.0914 C   0  0  0  0  0  0  0  0  0  0  0  0
  144.2192  145.4627  153.6612 C   0  0  0  0  0  0  0  0  0  0  0  0
  142.8319  145.1533  153.7976 O   0  0  0  0  0  0  0  0  0  0  0  0
  142.4344  144.7660  155.1177 C   0  0  2  0  0  0  0  0  0  0  0  0
  140.9539  144.3995  155.0664 C   0  0  0  0  0  0  0  0  0  0  0  0
  140.4221  144.8985  156.4012 C   0  0  0  0  0  0  0  0  0  0  0  0
  141.1067  146.1272  156.5563 O   0  0  0  0  0  0  0  0  0  0  0  0
  142.4492  145.9422  156.1229 C   0  0  0  0  0  0  0  0  0  0  0  0
  143.2911  143.5624  155.5771 C   0  0  0  0  0  0  0  0  0  0  0  0
  145.4211  142.7039  157.3009 N   0  0  0  0  0  0  0  0  0  0  0  0
  146.2309  141.8252  157.8991 C   0  0  0  0  0  0  0  0  0  0  0  0
  147.2255  141.1106  157.3684 N   0  0  0  0  0  0  0  0  0  0  0  0
  147.3717  141.3740  156.0381 C   0  0  0  0  0  0  0  0  0  0  0  0
  151.4340  137.8621  157.0025 H   0  0  0  0  0  0  0  0  0  0  0  0
  151.8011  138.2875  158.6712 H   0  0  0  0  0  0  0  0  0  0  0  0
  152.7746  138.9516  157.3679 H   0  0  0  0  0  0  0  0  0  0  0  0
  149.8358  139.5612  157.9762 H   0  0  0  0  0  0  0  0  0  0  0  0
  151.1605  143.0130  158.2549 H   0  0  0  0  0  0  0  0  0  0  0  0
  152.4153  142.2092  157.3051 H   0  0  0  0  0  0  0  0  0  0  0  0
  149.4155  142.1783  156.8154 H   0  0  0  0  0  0  0  0  0  0  0  0
  150.6571  142.6144  155.6409 H   0  0  0  0  0  0  0  0  0  0  0  0
  152.4380  140.7545  155.7399 H   0  0  0  0  0  0  0  0  0  0  0  0
  149.6530  139.4212  154.4888 H   0  0  0  0  0  0  0  0  0  0  0  0
  148.9092  139.0656  156.0260 H   0  0  0  0  0  0  0  0  0  0  0  0
  148.5835  141.2117  153.0473 H   0  0  0  0  0  0  0  0  0  0  0  0
  146.1334  144.5231  154.0472 H   0  0  0  0  0  0  0  0  0  0  0  0
  144.9183  143.4262  153.4085 H   0  0  0  0  0  0  0  0  0  0  0  0
  144.4775  146.3447  154.2474 H   0  0  0  0  0  0  0  0  0  0  0  0
  144.4223  145.7115  152.6197 H   0  0  0  0  0  0  0  0  0  0  0  0
  140.4589  144.9476  154.2631 H   0  0  0  0  0  0  0  0  0  0  0  0
  140.7679  143.3373  154.9034 H   0  0  0  0  0  0  0  0  0  0  0  0
  139.3406  145.0362  156.4013 H   0  0  0  0  0  0  0  0  0  0  0  0
  140.6881  144.2186  157.2121 H   0  0  0  0  0  0  0  0  0  0  0  0
  143.0747  145.7181  156.9879 H   0  0  0  0  0  0  0  0  0  0  0  0
  142.8100  146.8733  155.6873 H   0  0  0  0  0  0  0  0  0  0  0  0
  143.0472  142.6959  154.9628 H   0  0  0  0  0  0  0  0  0  0  0  0
  143.0615  143.2971  156.6102 H   0  0  0  0  0  0  0  0  0  0  0  0
  146.0587  141.6747  158.9548 H   0  0  0  0  0  0  0  0  0  0  0  0
  1  2  1  0  0  0  0
  1 28  1  0  0  0  0
  1 29  1  0  0  0  0
  1 30  1  0  0  0  0
  2  6  1  0  0  0  0
  2  3  1  0  0  0  0
  2 31  1  0  0  0  0
  3  4  1  0  0  0  0
  4  5  1  0  0  0  0
  4 32  1  0  0  0  0
  4 33  1  0  0  0  0
  5  6  1  0  0  0  0
  5 34  1  0  0  0  0
  5 35  1  0  0  0  0
  6  7  1  0  0  0  0
  6  8  1  0  0  0  0
  7 36  1  0  0  0  0
  8  9  1  0  0  0  0
  8 37  1  0  0  0  0
  8 38  1  0  0  0  0
  9 27  1  0  0  0  0
  9 10  1  0  0  0  0
 10 11  2  0  0  0  0
 10 39  1  0  0  0  0
 11 12  1  0  0  0  0
 12 27  2  0  0  0  0
 12 13  1  0  0  0  0
 13 14  1  0  0  0  0
 13 24  2  0  0  0  0
 14 23  1  0  0  0  0
 14 15  1  0  0  0  0
 15 16  1  0  0  0  0
 15 40  1  0  0  0  0
 15 41  1  0  0  0  0
 16 17  1  0  0  0  0
 16 42  1  0  0  0  0
 16 43  1  0  0  0  0
 17 18  1  0  0  0  0
 18 22  1  0  0  0  0
 18 19  1  0  0  0  0
 18 23  1  0  0  0  0
 19 20  1  0  0  0  0
 19 44  1  0  0  0  0
 19 45  1  0  0  0  0
 20 21  1  0  0  0  0
 20 46  1  0  0  0  0
 20 47  1  0  0  0  0
 21 22  1  0  0  0  0
 22 48  1  0  0  0  0
 22 49  1  0  0  0  0
 23 50  1  0  0  0  0
 23 51  1  0  0  0  0
 24 25  1  0  0  0  0
 25 26  2  0  0  0  0
 25 52  1  0  0  0  0
 26 27  1  0  0  0  0
M  END
> <s_m_source_file>
AV-unprocessed.smi

> <i_m_source_file_index>
264

> <i_lp_mmshare_version>
43012

> <i_f3d_flags>
0

> <s_epik_input>
W0NIMl0xW0NIMl1PW0NAQEhdKFtDSDNdKVtDQEBdMShbT0hdKVtDSDJdbihbY0hdbjIpYyhjMjMpbltjSF1uYzNOKFtDSDJdNClbQ0gyXVtDSDJdT1tDQF00NVtDSDJdW0NIMl1PW0NIMl01

> <s_epik_cmdline>
J2VwaWtfcHl0aG9uJywgJy1waCcsICc3LjAnLCAnLXRuJywgJzgnLCAnLW1hJywgJzIwMCcsICctbWV0YWxfYmluZGluZycsICctaW1hZScsICc8aW5maWxlLm1hZT4nLCAnLW9tYWUnLCAnPG91dGZpbGUubWFlPic=

> <r_lp_tautomer_probability>
1

> <r_epik_Ionization_Penalty>
0.00539389

> <r_epik_Ionization_Penalty_Charging>
0

> <r_epik_Ionization_Penalty_Neutral>
0.00539389

> <r_epik_State_Penalty>
0.00375441

> <r_epik_Charging_Adjusted_Penalty>
0.00375441

> <i_epik_Tot_Q>
0

> <i_epik_Tot_abs_Q>
0

> <r_epik_Metal_State_Penalty>
-0

> <b_epik_Metal_Only>
0

> <s_lp_Force_Field>
OPLS_2005

> <r_lp_Energy>
56.7772

> <b_lp_Chiralities_Consistent>
1

> <s_lp_Variant>
AV-unprocessed.smi:264-6

> <Gold.Version>
5.8.1

> <Gold.Id.Protein>
6NUR|6NUR_protein|mol2

> <Gold.PLP.Fitness>
37.3640

> <Gold.PLP.PLP>
-34.4022

> <Gold.PLP.part.hbond>
-1.9048

> <Gold.PLP.part.metal>
0.0000

> <Gold.PLP.part.buried>
-4.3153

> <Gold.PLP.part.nonpolar>
-29.4299

> <Gold.PLP.part.repulsive>
1.3542

> <Gold.PLP.ligand.clash>
0.0000

> <Gold.PLP.ligand.torsion>
1.4461

> <Gold.PLP.Chemscore.Hbond>
0.8960

> <Gold.PLP.Chemscore.CHOScore>
1.0000

> <Gold.PLP.Chemscore.Metal>
0.0000

> <Gold.Chemscore.Hbonds>
donor molecule, donor type, donor heavy atom, donor atom, acceptor molecule, acceptor atom, score
      P1  H  7989  7998       L1     7  0.85
      L1  C    10    39       P1  7957  1.00

> <Gold.PLP.Chemscore.Internal.Correction>
0.1661

> <Gold.Rescore>
     Score         DG    S(hbond)    S(metal)    S(lipo)     H(rot)  DE(clash)    DE(int)     intcor
      7.16     -12.37       0.77        0.00      83.07       2.11       2.37       2.85       ----

> <Gold.Chemscore.Fitness>
7.1551

> <Gold.Chemscore.DG>
-12.3695

> <Gold.Chemscore.ZeroCoef>
-5.4800

> <Gold.Chemscore.Hbond>
0.7672

> <Gold.Chemscore.Metal>
0.0000

> <Gold.Chemscore.Lipo>
83.0713

> <Gold.Chemscore.Internal_Hbond>
0.0000

> <Gold.Chemscore.DEClash>
2.3655

> <Gold.Chemscore.DEInternal>
2.8490

> <Gold.Chemscore.Rot>
2.1063

> <Gold.Chemscore.Internal.Correction>
   9.000000E+99

> <Gold.Chemscore.Hbonds>
donor molecule, donor type, donor heavy atom, donor atom, acceptor molecule, acceptor atom, score
      P1  H  7989  7998       L1     7  0.45

> <Gold.Chemscore.Hbond.Weighted>
-2.5623

> <Gold.Chemscore.Metal.Weighted>
-0.0000

> <Gold.Chemscore.Lipo.Weighted>
-9.7193

> <Gold.Chemscore.Internal_Hbond.Weighted>
0.0000

> <Gold.Chemscore.DEClash.Weighted>
2.3655

> <Gold.Chemscore.DEInternal.Weighted>
2.8490

> <Gold.Chemscore.Rot.Weighted>
5.3921

> <Gold.Chemscore.Internal.Correction.Weighted>
   9.000000E+99

> <Gold.Protein.RotatedTorsions>
[ 6907 6896 6895 6894 ] final  157.91 input  -60.11 | X-H torsion
[ 7974 7965 7964 7962 ] final  156.79 input  175.53 | X-H torsion
[ 8008 7997 7996 7995 ] final  -86.67 input   59.86 | X-H torsion
[ 10167 10162 10161 10158 ] final    4.32 input  -65.29 | X-H torsion
[ 10718 10713 10712 10709 ] final   -6.44 input   66.30 | X-H torsion
[ 10763 10752 10751 10750 ] final  -51.25 input  -60.55 | X-H torsion
[ 11005 11000 10999 10996 ] final  -46.04 input  -57.11 | X-H torsion

> <Gold.Protein.ActiveResidues>
 VAL166  LYS551  ARG553  GLY616  TRP617  ASP618  TYR619  PRO620  LYS621  CYS622 
 ASP623  PHE694  ASN695  SER759  ASP760  ASP761  ALA762  ILE779  LEU786  VAL792 
 PHE793  MET794  SER795  GLU796  ALA797  LYS798  CYS799  TRP800  GLU811  SER814 

> <Gold.Protein.RotatedAtoms>
  152.0082  133.3851  159.4208 H   0  0  0  0  0  0  0  0  0  0  0  0  # atno 6907 bound_to 6896
  150.6902  134.3759  159.5022 H   0  0  0  0  0  0  0  0  0  0  0  0  # atno 6908 bound_to 6896
  152.1516  134.8983  160.0598 H   0  0  0  0  0  0  0  0  0  0  0  0  # atno 6909 bound_to 6896
  144.7942  139.7252  143.6209 H   0  0  0  0  0  0  0  0  0  0  0  0  # atno 7974 bound_to 7965
  154.6545  140.0575  156.9993 H   0  0  0  0  0  0  0  0  0  0  0  0  # atno 8008 bound_to 7997
  155.1321  140.3257  155.4453 H   0  0  0  0  0  0  0  0  0  0  0  0  # atno 8009 bound_to 7997
  156.2591  140.1979  156.6440 H   0  0  0  0  0  0  0  0  0  0  0  0  # atno 8010 bound_to 7997
  140.6540  143.7473  150.7623 H   0  0  0  0  0  0  0  0  0  0  0  0  # atno 10167 bound_to 10162
  156.7318  130.5182  149.5844 H   0  0  0  0  0  0  0  0  0  0  0  0  # atno 10718 bound_to 10713
  154.1235  135.6531  153.4908 H   0  0  0  0  0  0  0  0  0  0  0  0  # atno 10763 bound_to 10752
  153.0217  135.5276  154.7073 H   0  0  0  0  0  0  0  0  0  0  0  0  # atno 10764 bound_to 10752
  154.6287  135.2973  155.0212 H   0  0  0  0  0  0  0  0  0  0  0  0  # atno 10765 bound_to 10752
  141.0554  133.6728  156.3098 H   0  0  0  0  0  0  0  0  0  0  0  0  # atno 11005 bound_to 11000
  146.2204  139.5625  142.9622 LP  0  0  0  0  0  0  0  0  0  0  0  0  # atno 17320 bound_to 7965
  145.5717  141.0393  143.2170 LP  0  0  0  0  0  0  0  0  0  0  0  0  # atno 17321 bound_to 7965
  140.1129  143.4683  152.2359 LP  0  0  0  0  0  0  0  0  0  0  0  0  # atno 17342 bound_to 10162
  139.5760  144.7487  151.3764 LP  0  0  0  0  0  0  0  0  0  0  0  0  # atno 17343 bound_to 10162
  156.1524  130.6319  151.0612 LP  0  0  0  0  0  0  0  0  0  0  0  0  # atno 17370 bound_to 10713
  157.6855  131.0826  150.7253 LP  0  0  0  0  0  0  0  0  0  0  0  0  # atno 17371 bound_to 10713
  140.5975  134.5589  157.5511 LP  0  0  0  0  0  0  0  0  0  0  0  0  # atno 17394 bound_to 11000
  139.9385  134.7830  156.0739 LP  0  0  0  0  0  0  0  0  0  0  0  0  # atno 17395 bound_to 11000

$$$$
