AV-unprocessed.smi:648|AV-procd|sdf|3171|dock2
  -GOLD-   22720 0 93D 1   1.00000     0.00000
 Structure written by MMmdl.
 46 47  0  0  0  0  0  0  0  0  2 V2000
  144.6784  133.4380  152.0004 C   0  0  0  0  0  0  0  0  0  0  0  0
  144.6459  134.9106  152.4353 C   0  0  1  0  0  0  0  0  0  0  0  0
  143.6866  135.1136  153.6238 C   0  0  0  0  0  0  0  0  0  0  0  0
  143.5898  136.5802  154.1075 C   0  0  0  0  0  0  0  0  0  0  0  0
  142.7176  137.4200  153.1465 C   0  0  0  0  0  0  0  0  0  0  0  0
  142.8675  136.5932  155.4725 C   0  0  0  0  0  0  0  0  0  0  0  0
  145.0140  137.1781  154.3163 C   0  0  0  0  0  0  0  0  0  0  0  0
  146.0884  136.9106  153.2174 C   0  0  1  0  0  0  0  0  0  0  0  0
  145.8620  137.8286  151.9847 C   0  0  0  0  0  0  0  0  0  0  0  0
  146.7488  137.5168  150.9269 O   0  0  0  0  0  0  0  0  0  0  0  0
  147.4235  137.3091  153.7537 N   0  3  0  0  0  0  0  0  0  0  0  0
  147.8441  138.7273  153.6692 C   0  0  0  0  0  0  0  0  0  0  0  0
  148.7631  139.0884  154.8451 C   0  0  0  0  0  0  0  0  0  0  0  0
  150.1173  138.6137  154.6379 N   0  0  0  0  0  0  0  0  0  0  0  0
  150.5784  137.3957  154.3491 C   0  0  0  0  0  0  0  0  0  0  0  0
  151.8970  137.3389  154.2233 N   0  0  0  0  0  0  0  0  0  0  0  0
  152.2059  138.6487  154.4594 C   0  0  0  0  0  0  0  0  0  0  0  0
  151.1748  139.4555  154.7112 N   0  0  0  0  0  0  0  0  0  0  0  0
  146.0541  135.4099  152.8102 C   0  0  0  0  0  0  0  0  0  0  0  0
  145.0379  132.7925  152.8025 H   0  0  0  0  0  0  0  0  0  0  0  0
  145.3329  133.2965  151.1399 H   0  0  0  0  0  0  0  0  0  0  0  0
  143.6844  133.0918  151.7155 H   0  0  0  0  0  0  0  0  0  0  0  0
  144.2788  135.4765  151.5806 H   0  0  0  0  0  0  0  0  0  0  0  0
  142.6928  134.7460  153.3639 H   0  0  0  0  0  0  0  0  0  0  0  0
  144.0272  134.4846  154.4480 H   0  0  0  0  0  0  0  0  0  0  0  0
  142.7674  138.4823  153.3875 H   0  0  0  0  0  0  0  0  0  0  0  0
  141.6698  137.1248  153.2145 H   0  0  0  0  0  0  0  0  0  0  0  0
  142.9836  137.3007  152.1009 H   0  0  0  0  0  0  0  0  0  0  0  0
  142.7624  137.6086  155.8569 H   0  0  0  0  0  0  0  0  0  0  0  0
  143.4075  136.0146  156.2231 H   0  0  0  0  0  0  0  0  0  0  0  0
  141.8666  136.1660  155.3993 H   0  0  0  0  0  0  0  0  0  0  0  0
  144.9389  138.2497  154.5068 H   0  0  0  0  0  0  0  0  0  0  0  0
  145.3842  136.7615  155.2518 H   0  0  0  0  0  0  0  0  0  0  0  0
  144.8615  137.7463  151.5760 H   0  0  0  0  0  0  0  0  0  0  0  0
  146.0047  138.8766  152.2523 H   0  0  0  0  0  0  0  0  0  0  0  0
  147.5641  137.2127  151.2974 H   0  0  0  0  0  0  0  0  0  0  0  0
  147.4328  137.0583  154.7325 H   0  0  0  0  0  0  0  0  0  0  0  0
  148.3622  138.9217  152.7315 H   0  0  0  0  0  0  0  0  0  0  0  0
  146.9643  139.3710  153.6938 H   0  0  0  0  0  0  0  0  0  0  0  0
  148.7920  140.1696  154.9879 H   0  0  0  0  0  0  0  0  0  0  0  0
  148.3856  138.6551  155.7725 H   0  0  0  0  0  0  0  0  0  0  0  0
  149.9390  136.5334  154.2283 H   0  0  0  0  0  0  0  0  0  0  0  0
  153.2204  139.0188  154.4449 H   0  0  0  0  0  0  0  0  0  0  0  0
  146.3935  134.7847  153.6355 H   0  0  0  0  0  0  0  0  0  0  0  0
  146.7483  135.2228  151.9901 H   0  0  0  0  0  0  0  0  0  0  0  0
  148.1175  136.7455  153.2839 H   0  0  0  0  0  0  0  0  0  0  0  0
  1  2  1  0  0  0  0
  1 20  1  0  0  0  0
  1 21  1  0  0  0  0
  1 22  1  0  0  0  0
  2 19  1  0  0  0  0
  2  3  1  0  0  0  0
  2 23  1  0  0  0  0
  3  4  1  0  0  0  0
  3 24  1  0  0  0  0
  3 25  1  0  0  0  0
  4  5  1  0  0  0  0
  4  6  1  0  0  0  0
  4  7  1  0  0  0  0
  5 26  1  0  0  0  0
  5 27  1  0  0  0  0
  5 28  1  0  0  0  0
  6 29  1  0  0  0  0
  6 30  1  0  0  0  0
  6 31  1  0  0  0  0
  7  8  1  0  0  0  0
  7 32  1  0  0  0  0
  7 33  1  0  0  0  0
  8  9  1  0  0  0  0
  8 11  1  0  0  0  0
  8 19  1  0  0  0  0
  9 10  1  0  0  0  0
  9 34  1  0  0  0  0
  9 35  1  0  0  0  0
 10 36  1  0  0  0  0
 11 12  1  0  0  0  0
 11 37  1  0  0  0  0
 11 46  1  0  0  0  0
 12 13  1  0  0  0  0
 12 38  1  0  0  0  0
 12 39  1  0  0  0  0
 13 14  1  0  0  0  0
 13 40  1  0  0  0  0
 13 41  1  0  0  0  0
 14 18  1  0  0  0  0
 14 15  1  0  0  0  0
 15 16  2  0  0  0  0
 15 42  1  0  0  0  0
 16 17  1  0  0  0  0
 17 18  2  0  0  0  0
 17 43  1  0  0  0  0
 19 44  1  0  0  0  0
 19 45  1  0  0  0  0
M  CHG  1  11   1
M  END
> <s_m_source_file>
AV-unprocessed.smi

> <i_m_source_file_index>
648

> <i_lp_mmshare_version>
43012

> <i_f3d_flags>
0

> <s_epik_input>
W0NIM11DMShbQ0gzXSlbQ0gyXVtDQEBIXShbQ0gzXSlbQ0gyXVtDQF0oW0NIMl0xKShbQ0gyXVtPSF0pW05IXVtDSDJdW0NIMl1uMltjSF1uW2NIXW4y

> <s_epik_cmdline>
J2VwaWtfcHl0aG9uJywgJy1waCcsICc3LjAnLCAnLXRuJywgJzgnLCAnLW1hJywgJzIwMCcsICctbWV0YWxfYmluZGluZycsICctaW1hZScsICc8aW5maWxlLm1hZT4nLCAnLW9tYWUnLCAnPG91dGZpbGUubWFlPic=

> <r_lp_tautomer_probability>
1

> <r_epik_Ionization_Penalty>
0.00942316

> <r_epik_Ionization_Penalty_Charging>
0.00942185

> <r_epik_Ionization_Penalty_Neutral>
1.31257e-06

> <r_epik_State_Penalty>
0.00715409

> <r_epik_Charging_Adjusted_Penalty>
0.0165759

> <i_epik_Tot_Q>
1

> <i_epik_Tot_abs_Q>
1

> <r_epik_Metal_State_Penalty>
0.00715563

> <b_epik_Metal_Only>
0

> <s_lp_Force_Field>
OPLS_2005

> <r_lp_Energy>
31.5534

> <b_lp_Chiralities_Consistent>
1

> <s_lp_Variant>
AV-unprocessed.smi:648-2

> <Gold.Version>
5.8.1

> <Gold.Id.Protein>
6NUR|6NUR_protein|mol2

> <Gold.PLP.Fitness>
40.9697

> <Gold.PLP.PLP>
-25.6604

> <Gold.PLP.part.hbond>
-5.1958

> <Gold.PLP.part.metal>
0.0000

> <Gold.PLP.part.buried>
-1.4723

> <Gold.PLP.part.nonpolar>
-20.0032

> <Gold.PLP.part.repulsive>
0.2418

> <Gold.PLP.ligand.clash>
0.0000

> <Gold.PLP.ligand.torsion>
0.7708

> <Gold.PLP.Chemscore.Hbond>
5.0000

> <Gold.PLP.Chemscore.CHOScore>
0.6073

> <Gold.PLP.Chemscore.Metal>
0.0000

> <Gold.Chemscore.Hbonds>
donor molecule, donor type, donor heavy atom, donor atom, acceptor molecule, acceptor atom, score
      L1  H    10    36       P1  7948  1.00
      L1  H    11    46       P1  7948  2.00
      P1  H  7989  7998       L1    18  0.90
      P1  H 10752 10764       L1    16  0.99
      L1  C    15    42       P1  7948  0.66

> <Gold.PLP.Chemscore.Internal.Correction>
0.0291

> <Gold.Rescore>
     Score         DG    S(hbond)    S(metal)    S(lipo)     H(rot)  DE(clash)    DE(int)     intcor
     13.73     -14.55       3.73        0.00      40.47       3.17       0.12       0.71       ----

> <Gold.Chemscore.Fitness>
13.7271

> <Gold.Chemscore.DG>
-14.5523

> <Gold.Chemscore.ZeroCoef>
-5.4800

> <Gold.Chemscore.Hbond>
3.7322

> <Gold.Chemscore.Metal>
0.0000

> <Gold.Chemscore.Lipo>
40.4658

> <Gold.Chemscore.Internal_Hbond>
0.0000

> <Gold.Chemscore.DEClash>
0.1150

> <Gold.Chemscore.DEInternal>
0.7102

> <Gold.Chemscore.Rot>
3.1750

> <Gold.Chemscore.Internal.Correction>
   9.000000E+99

> <Gold.Chemscore.Hbonds>
donor molecule, donor type, donor heavy atom, donor atom, acceptor molecule, acceptor atom, score
      L1  H    10    36       P1  7948  1.00
      L1  H    11    46       P1  7948  0.96
      P1  H  7989  7998       L1    18  0.18
      P1  H 10752 10764       L1    16  0.92

> <Gold.Chemscore.Hbond.Weighted>
-12.4657

> <Gold.Chemscore.Metal.Weighted>
-0.0000

> <Gold.Chemscore.Lipo.Weighted>
-4.7345

> <Gold.Chemscore.Internal_Hbond.Weighted>
0.0000

> <Gold.Chemscore.DEClash.Weighted>
0.1150

> <Gold.Chemscore.DEInternal.Weighted>
0.7102

> <Gold.Chemscore.Rot.Weighted>
8.1279

> <Gold.Chemscore.Internal.Correction.Weighted>
   9.000000E+99

> <Gold.Protein.RotatedTorsions>
[ 6907 6896 6895 6894 ] final    4.37 input  -60.11 | X-H torsion
[ 7974 7965 7964 7962 ] final   57.36 input  175.53 | X-H torsion
[ 8008 7997 7996 7995 ] final  164.58 input   59.86 | X-H torsion
[ 10167 10162 10161 10158 ] final -145.08 input  -65.29 | X-H torsion
[ 10718 10713 10712 10709 ] final   33.79 input   66.30 | X-H torsion
[ 10763 10752 10751 10750 ] final  -85.42 input  -60.55 | X-H torsion
[ 11005 11000 10999 10996 ] final   -9.57 input  -57.11 | X-H torsion

> <Gold.Protein.ActiveResidues>
 VAL166  LYS551  ARG553  GLY616  TRP617  ASP618  TYR619  PRO620  LYS621  CYS622 
 ASP623  PHE694  ASN695  SER759  ASP760  ASP761  ALA762  ILE779  LEU786  VAL792 
 PHE793  MET794  SER795  GLU796  ALA797  LYS798  CYS799  TRP800  GLU811  SER814 

> <Gold.Protein.RotatedAtoms>
  151.6401  135.1013  160.0139 H   0  0  0  0  0  0  0  0  0  0  0  0  # atno 6907 bound_to 6896
  152.4059  133.6883  159.6364 H   0  0  0  0  0  0  0  0  0  0  0  0  # atno 6908 bound_to 6896
  150.7953  133.8627  159.3277 H   0  0  0  0  0  0  0  0  0  0  0  0  # atno 6909 bound_to 6896
  145.9299  139.3799  143.0427 H   0  0  0  0  0  0  0  0  0  0  0  0  # atno 7974 bound_to 7965
  156.1868  140.1693  156.8169 H   0  0  0  0  0  0  0  0  0  0  0  0  # atno 8008 bound_to 7997
  154.5424  140.0734  156.8564 H   0  0  0  0  0  0  0  0  0  0  0  0  # atno 8009 bound_to 7997
  155.3189  140.3372  155.4244 H   0  0  0  0  0  0  0  0  0  0  0  0  # atno 8010 bound_to 7997
  139.7838  143.8062  152.2642 H   0  0  0  0  0  0  0  0  0  0  0  0  # atno 10167 bound_to 10162
  157.3023  130.7357  149.6674 H   0  0  0  0  0  0  0  0  0  0  0  0  # atno 10718 bound_to 10713
  154.6109  135.5485  153.7472 H   0  0  0  0  0  0  0  0  0  0  0  0  # atno 10763 bound_to 10752
  153.0194  135.6389  154.1580 H   0  0  0  0  0  0  0  0  0  0  0  0  # atno 10764 bound_to 10752
  154.1518  135.2902  155.3113 H   0  0  0  0  0  0  0  0  0  0  0  0  # atno 10765 bound_to 10752
  140.7355  133.8713  155.8926 H   0  0  0  0  0  0  0  0  0  0  0  0  # atno 11005 bound_to 11000
  145.8440  140.9565  143.0784 LP  0  0  0  0  0  0  0  0  0  0  0  0  # atno 17320 bound_to 7965
  144.6763  140.0321  143.7482 LP  0  0  0  0  0  0  0  0  0  0  0  0  # atno 17321 bound_to 7965
  139.8133  144.7327  150.9668 LP  0  0  0  0  0  0  0  0  0  0  0  0  # atno 17342 bound_to 10162
  140.7819  143.4229  151.0813 LP  0  0  0  0  0  0  0  0  0  0  0  0  # atno 17343 bound_to 10162
  155.9672  130.4276  150.4752 LP  0  0  0  0  0  0  0  0  0  0  0  0  # atno 17370 bound_to 10713
  157.2735  131.0592  151.2244 LP  0  0  0  0  0  0  0  0  0  0  0  0  # atno 17371 bound_to 10713
  140.9883  134.1313  157.4432 LP  0  0  0  0  0  0  0  0  0  0  0  0  # atno 17394 bound_to 11000
  139.8817  135.0032  156.6175 LP  0  0  0  0  0  0  0  0  0  0  0  0  # atno 17395 bound_to 11000

$$$$
