AV-unprocessed.smi:1978|AV-procd|sdf|7993|dock2
  -GOLD-   2272010173D 1   1.00000     0.00000
 Structure written by MMmdl.
 45 46  0  0  0  0  0  0  0  0  2 V2000
  151.5907  141.0883  157.7597 C   0  0  0  0  0  0  0  0  0  0  0  0
  151.2604  140.3047  156.5357 C   0  0  0  0  0  0  0  0  0  0  0  0
  150.0783  139.9365  155.9573 C   0  0  0  0  0  0  0  0  0  0  0  0
  150.4958  139.1997  154.8171 C   0  0  0  0  0  0  0  0  0  0  0  0
  149.5471  138.6241  153.9337 N   0  0  0  0  0  0  0  0  0  0  0  0
  148.2148  138.7998  153.9383 C   0  0  0  0  0  0  0  0  0  0  0  0
  147.5904  139.4797  154.7533 O   0  0  0  0  0  0  0  0  0  0  0  0
  147.6287  138.1374  152.9302 N   0  0  0  0  0  0  0  0  0  0  0  0
  146.1924  138.1326  152.6629 C   0  0  0  0  0  0  0  0  0  0  0  0
  145.7337  136.9343  151.7808 C   0  0  1  0  0  0  0  0  0  0  0  0
  145.9625  137.2881  150.2880 C   0  0  0  0  0  0  0  0  0  0  0  0
  146.4128  135.6548  152.1884 N   0  3  1  0  0  0  0  0  0  0  0  0
  146.1537  135.2565  153.6064 C   0  0  0  0  0  0  0  0  0  0  0  0
  147.0595  134.0942  154.0457 C   0  0  0  0  0  0  0  0  0  0  0  0
  146.9032  132.8837  153.1236 C   0  0  0  0  0  0  0  0  0  0  0  0
  147.1404  133.3120  151.6713 C   0  0  0  0  0  0  0  0  0  0  0  0
  146.2350  134.4907  151.2556 C   0  0  1  0  0  0  0  0  0  0  0  0
  144.7612  134.0539  151.0874 C   0  0  0  0  0  0  0  0  0  0  0  0
  151.8136  139.1262  154.7085 N   0  0  0  0  0  0  0  0  0  0  0  0
  152.3104  139.8339  155.8093 O   0  0  0  0  0  0  0  0  0  0  0  0
  150.6889  141.4959  158.2167 H   0  0  0  0  0  0  0  0  0  0  0  0
  152.2532  141.9200  157.5196 H   0  0  0  0  0  0  0  0  0  0  0  0
  152.0894  140.4598  158.4974 H   0  0  0  0  0  0  0  0  0  0  0  0
  149.0783  140.1586  156.2991 H   0  0  0  0  0  0  0  0  0  0  0  0
  149.9261  138.0259  153.2146 H   0  0  0  0  0  0  0  0  0  0  0  0
  148.2129  137.6006  152.3057 H   0  0  0  0  0  0  0  0  0  0  0  0
  145.6721  138.1068  153.6209 H   0  0  0  0  0  0  0  0  0  0  0  0
  145.9603  139.0975  152.2178 H   0  0  0  0  0  0  0  0  0  0  0  0
  144.6622  136.7903  151.9251 H   0  0  0  0  0  0  0  0  0  0  0  0
  145.5041  138.2390  150.0182 H   0  0  0  0  0  0  0  0  0  0  0  0
  145.5206  136.5602  149.6094 H   0  0  0  0  0  0  0  0  0  0  0  0
  147.0258  137.3627  150.0578 H   0  0  0  0  0  0  0  0  0  0  0  0
  146.3465  136.0716  154.2977 H   0  0  0  0  0  0  0  0  0  0  0  0
  145.1035  134.9942  153.7374 H   0  0  0  0  0  0  0  0  0  0  0  0
  148.0996  134.4229  154.0432 H   0  0  0  0  0  0  0  0  0  0  0  0
  146.8286  133.8094  155.0728 H   0  0  0  0  0  0  0  0  0  0  0  0
  147.6100  132.1026  153.4054 H   0  0  0  0  0  0  0  0  0  0  0  0
  145.9072  132.4546  153.2362 H   0  0  0  0  0  0  0  0  0  0  0  0
  148.1850  133.6038  151.5529 H   0  0  0  0  0  0  0  0  0  0  0  0
  146.9879  132.4633  151.0034 H   0  0  0  0  0  0  0  0  0  0  0  0
  146.6038  134.7777  150.2722 H   0  0  0  0  0  0  0  0  0  0  0  0
  144.6846  133.2371  150.3692 H   0  0  0  0  0  0  0  0  0  0  0  0
  144.1310  134.8608  150.7161 H   0  0  0  0  0  0  0  0  0  0  0  0
  144.3211  133.7022  152.0193 H   0  0  0  0  0  0  0  0  0  0  0  0
  147.4000  135.8643  152.1475 H   0  0  0  0  0  0  0  0  0  0  0  0
  1  2  1  0  0  0  0
  1 21  1  0  0  0  0
  1 22  1  0  0  0  0
  1 23  1  0  0  0  0
  2 20  1  0  0  0  0
  2  3  2  0  0  0  0
  3  4  1  0  0  0  0
  3 24  1  0  0  0  0
  4  5  1  0  0  0  0
  4 19  2  0  0  0  0
  5  6  1  0  0  0  0
  5 25  1  0  0  0  0
  6  7  2  0  0  0  0
  6  8  1  0  0  0  0
  8  9  1  0  0  0  0
  8 26  1  0  0  0  0
  9 10  1  0  0  0  0
  9 27  1  0  0  0  0
  9 28  1  0  0  0  0
 10 11  1  0  0  0  0
 10 12  1  0  0  0  0
 10 29  1  0  0  0  0
 11 30  1  0  0  0  0
 11 31  1  0  0  0  0
 11 32  1  0  0  0  0
 12 17  1  0  0  0  0
 12 13  1  0  0  0  0
 12 45  1  0  0  0  0
 13 14  1  0  0  0  0
 13 33  1  0  0  0  0
 13 34  1  0  0  0  0
 14 15  1  0  0  0  0
 14 35  1  0  0  0  0
 14 36  1  0  0  0  0
 15 16  1  0  0  0  0
 15 37  1  0  0  0  0
 15 38  1  0  0  0  0
 16 17  1  0  0  0  0
 16 39  1  0  0  0  0
 16 40  1  0  0  0  0
 17 18  1  0  0  0  0
 17 41  1  0  0  0  0
 18 42  1  0  0  0  0
 18 43  1  0  0  0  0
 18 44  1  0  0  0  0
 19 20  1  0  0  0  0
M  CHG  1  12   1
M  END
> <s_m_source_file>
AV-unprocessed.smi

> <i_m_source_file_index>
1978

> <i_lp_mmshare_version>
43012

> <i_f3d_flags>
0

> <s_epik_input>
W0NIM11jMVtjSF1jKG5vMSlbTkhdQyg9TylbTkhdW0NIMl1bQ0BIXShbQ0gzXSlOMltDSDJdW0NIMl1bQ0gyXVtDSDJdW0NASF0yW0NIM10=

> <s_epik_cmdline>
J2VwaWtfcHl0aG9uJywgJy1waCcsICc3LjAnLCAnLXRuJywgJzgnLCAnLW1hJywgJzIwMCcsICctbWV0YWxfYmluZGluZycsICctaW1hZScsICc8aW5maWxlLm1hZT4nLCAnLW9tYWUnLCAnPG91dGZpbGUubWFlPic=

> <r_epik_Ionization_Penalty>
0.00265971

> <r_epik_Ionization_Penalty_Charging>
0.00262393

> <r_epik_Ionization_Penalty_Neutral>
3.57846e-05

> <r_epik_State_Penalty>
0.00182566

> <r_epik_Charging_Adjusted_Penalty>
0.00444959

> <i_epik_Tot_Q>
1

> <i_epik_Tot_abs_Q>
1

> <r_epik_Metal_State_Penalty>
0.0216344

> <b_epik_Metal_Only>
0

> <s_lp_Force_Field>
OPLS_2005

> <r_lp_Energy>
22.9601

> <b_lp_Chiralities_Consistent>
1

> <s_lp_Variant>
AV-unprocessed.smi:1978-2

> <Gold.Version>
5.8.1

> <Gold.Id.Protein>
6NUR|6NUR_protein|mol2

> <Gold.PLP.Fitness>
42.4809

> <Gold.PLP.PLP>
-30.5148

> <Gold.PLP.part.hbond>
-7.0019

> <Gold.PLP.part.metal>
0.0000

> <Gold.PLP.part.buried>
4.4469

> <Gold.PLP.part.nonpolar>
-27.8443

> <Gold.PLP.part.repulsive>
0.3615

> <Gold.PLP.ligand.clash>
0.0000

> <Gold.PLP.ligand.torsion>
0.4335

> <Gold.PLP.Chemscore.Hbond>
4.2466

> <Gold.PLP.Chemscore.CHOScore>
0.0000

> <Gold.PLP.Chemscore.Metal>
0.0000

> <Gold.Chemscore.Hbonds>
donor molecule, donor type, donor heavy atom, donor atom, acceptor molecule, acceptor atom, score
      L1  H     5    25       P1  7948  0.04
      L1  H     8    26       P1  7948  1.00
      L1  H    12    45       P1  7948  2.00
      P1  H  7989  7998       L1    19  0.16
      P1  H  7997  8008       L1    20  0.76

> <Gold.PLP.Chemscore.Internal.Correction>
0.0933

> <Gold.Rescore>
     Score         DG    S(hbond)    S(metal)    S(lipo)     H(rot)  DE(clash)    DE(int)     intcor
     15.70     -19.45       2.97        0.00      68.40       1.55       1.85       1.90       ----

> <Gold.Chemscore.Fitness>
15.7040

> <Gold.Chemscore.DG>
-19.4538

> <Gold.Chemscore.ZeroCoef>
-5.4800

> <Gold.Chemscore.Hbond>
2.9738

> <Gold.Chemscore.Metal>
0.0000

> <Gold.Chemscore.Lipo>
68.3977

> <Gold.Chemscore.Internal_Hbond>
0.0000

> <Gold.Chemscore.DEClash>
1.8464

> <Gold.Chemscore.DEInternal>
1.9035

> <Gold.Chemscore.Rot>
1.5474

> <Gold.Chemscore.Internal.Correction>
   9.000000E+99

> <Gold.Chemscore.Hbonds>
donor molecule, donor type, donor heavy atom, donor atom, acceptor molecule, acceptor atom, score
      L1  H     5    25       P1  7948  0.04
      L1  H     8    26       P1  7948  0.96
      L1  H    12    45       P1  7948  0.99
      P1  H  7997  8008       L1    20  0.73

> <Gold.Chemscore.Hbond.Weighted>
-9.9325

> <Gold.Chemscore.Metal.Weighted>
-0.0000

> <Gold.Chemscore.Lipo.Weighted>
-8.0025

> <Gold.Chemscore.Internal_Hbond.Weighted>
0.0000

> <Gold.Chemscore.DEClash.Weighted>
1.8464

> <Gold.Chemscore.DEInternal.Weighted>
1.9035

> <Gold.Chemscore.Rot.Weighted>
3.9612

> <Gold.Chemscore.Internal.Correction.Weighted>
   9.000000E+99

> <Gold.Protein.RotatedTorsions>
[ 6907 6896 6895 6894 ] final    5.94 input  -60.11 | X-H torsion
[ 7974 7965 7964 7962 ] final   23.87 input  175.53 | X-H torsion
[ 8008 7997 7996 7995 ] final  -22.43 input   59.86 | X-H torsion
[ 10167 10162 10161 10158 ] final -105.83 input  -65.29 | X-H torsion
[ 10718 10713 10712 10709 ] final   97.64 input   66.30 | X-H torsion
[ 10763 10752 10751 10750 ] final   25.80 input  -60.55 | X-H torsion
[ 11005 11000 10999 10996 ] final  169.34 input  -57.11 | X-H torsion

> <Gold.Protein.ActiveResidues>
 VAL166  LYS551  ARG553  GLY616  TRP617  ASP618  TYR619  PRO620  LYS621  CYS622 
 ASP623  PHE694  ASN695  SER759  ASP760  ASP761  ALA762  ILE779  LEU786  VAL792 
 PHE793  MET794  SER795  GLU796  ALA797  LYS798  CYS799  TRP800  GLU811  SER814 

> <Gold.Protein.RotatedAtoms>
  151.6657  135.0983  160.0187 H   0  0  0  0  0  0  0  0  0  0  0  0  # atno 6907 bound_to 6896
  152.3921  133.6689  159.6254 H   0  0  0  0  0  0  0  0  0  0  0  0  # atno 6908 bound_to 6896
  150.7835  133.8853  159.3339 H   0  0  0  0  0  0  0  0  0  0  0  0  # atno 6909 bound_to 6896
  146.1964  139.7684  142.8794 H   0  0  0  0  0  0  0  0  0  0  0  0  # atno 7974 bound_to 7965
  154.4645  140.2008  156.0156 H   0  0  0  0  0  0  0  0  0  0  0  0  # atno 8008 bound_to 7997
  156.0901  140.3259  155.7776 H   0  0  0  0  0  0  0  0  0  0  0  0  # atno 8009 bound_to 7997
  155.4970  140.0551  157.2936 H   0  0  0  0  0  0  0  0  0  0  0  0  # atno 8010 bound_to 7997
  140.1943  143.3867  152.1181 H   0  0  0  0  0  0  0  0  0  0  0  0  # atno 10167 bound_to 10162
  157.6909  131.0616  150.4675 H   0  0  0  0  0  0  0  0  0  0  0  0  # atno 10718 bound_to 10713
  153.0666  135.6575  154.0340 H   0  0  0  0  0  0  0  0  0  0  0  0  # atno 10763 bound_to 10752
  153.9995  135.2938  155.3405 H   0  0  0  0  0  0  0  0  0  0  0  0  # atno 10764 bound_to 10752
  154.7027  135.5238  153.8618 H   0  0  0  0  0  0  0  0  0  0  0  0  # atno 10765 bound_to 10752
  140.2967  134.7628  157.3883 H   0  0  0  0  0  0  0  0  0  0  0  0  # atno 11005 bound_to 11000
  145.3628  141.0329  143.3275 LP  0  0  0  0  0  0  0  0  0  0  0  0  # atno 17320 bound_to 7965
  144.8590  139.5206  143.6821 LP  0  0  0  0  0  0  0  0  0  0  0  0  # atno 17321 bound_to 7965
  139.5243  144.7082  151.5289 LP  0  0  0  0  0  0  0  0  0  0  0  0  # atno 17342 bound_to 10162
  140.6434  143.8843  150.6714 LP  0  0  0  0  0  0  0  0  0  0  0  0  # atno 17343 bound_to 10162
  156.5015  130.4118  149.6350 LP  0  0  0  0  0  0  0  0  0  0  0  0  # atno 17370 bound_to 10713
  156.3323  130.7338  151.2270 LP  0  0  0  0  0  0  0  0  0  0  0  0  # atno 17371 bound_to 10713
  140.1146  134.5300  155.8236 LP  0  0  0  0  0  0  0  0  0  0  0  0  # atno 17394 bound_to 11000
  141.2136  133.6735  156.6752 LP  0  0  0  0  0  0  0  0  0  0  0  0  # atno 17395 bound_to 11000

$$$$
