#       Name:                AV-unprocessed.smi:1350
#       Creating user name   scv26
#       Creation time:       Fri Mar 27 05:11:27 2020


#       File generated by GOLD software.
#

@<TRIPOS>MOLECULE
AV-unprocessed.smi:1350
    50    52     1
SMALL
NO_CHARGES


@<TRIPOS>ATOM
      1 ****        -3.6307   5.3672   1.9906 C.3            1 S1                 0.0000
      2 ****        -2.9900   4.2743   1.3487 O.3            1 S1                 0.0000
      3 ****        -3.7588   3.1926   0.9679 C.ar           1 S1                 0.0000
      4 ****        -5.1633   3.1290   1.1605 C.ar           1 S1                 0.0000
      5 ****        -5.8956   2.0034   0.7397 C.ar           1 S1                 0.0000
      6 ****        -5.2388   0.9283   0.1170 C.ar           1 S1                 0.0000
      7 ****        -3.8472   0.9777  -0.0779 C.ar           1 S1                 0.0000
      8 ****        -3.1022   2.0976   0.3529 C.ar           1 S1                 0.0000
      9 ****        -1.5995   2.1322   0.1145 C.3            1 S1                 0.0000
     10 ****        -1.0214   0.8356   0.1260 O.3            1 S1                 0.0000
     11 ****         0.3723   0.8478  -0.1353 C.3            1 S1                 0.0000
     12 ****         0.9097  -0.5898  -0.0533 C.3            1 S1                 0.0000
     13 ****         0.6290  -1.2477  -1.2734 O.3            1 S1                 0.0000
     14 ****         2.4292  -0.6225   0.2034 C.3            1 S1                 0.0000
     15 ****         2.9525  -1.9893   0.3433 N.pl3          1 S1                 0.0000
     16 ****         2.9538  -2.8066   1.4313 C.2            1 S1                 0.0000
     17 ****         3.5517  -3.9750   1.0690 N.pl3          1 S1                 1.0000
     18 ****         3.9367  -3.9055  -0.2713 C.ar           1 S1                 0.0000
     19 ****         4.5744  -4.8377  -1.0838 C.ar           1 S1                 0.0000
     20 ****         4.8217  -4.4511  -2.4172 C.ar           1 S1                 0.0000
     21 ****         4.4381  -3.1820  -2.8968 C.ar           1 S1                 0.0000
     22 ****         3.7930  -2.2439  -2.0638 C.ar           1 S1                 0.0000
     23 ****         3.5535  -2.6326  -0.7457 C.ar           1 S1                 0.0000
     24 ****        -2.8872   6.1250   2.2363 H              1 S1                 0.0000
     25 ****        -4.1062   5.0593   2.9227 H              1 S1                 0.0000
     26 ****        -4.3731   5.8323   1.3408 H              1 S1                 0.0000
     27 ****        -5.7073   3.9354   1.6279 H              1 S1                 0.0000
     28 ****        -6.9643   1.9674   0.8915 H              1 S1                 0.0000
     29 ****        -5.8009   0.0669  -0.2123 H              1 S1                 0.0000
     30 ****        -3.3545   0.1474  -0.5624 H              1 S1                 0.0000
     31 ****        -1.4175   2.6136  -0.8473 H              1 S1                 0.0000
     32 ****        -1.1143   2.7382   0.8805 H              1 S1                 0.0000
     33 ****         0.5925   1.2992  -1.1043 H              1 S1                 0.0000
     34 ****         0.8571   1.4629   0.6245 H              1 S1                 0.0000
     35 ****         0.4069  -1.1208   0.7561 H              1 S1                 0.0000
     36 ****         1.0037  -0.7442  -1.9795 H              1 S1                 0.0000
     37 ****         2.9777  -0.0987  -0.5796 H              1 S1                 0.0000
     38 ****         2.6571  -0.1021   1.1345 H              1 S1                 0.0000
     39 ****         2.5522  -2.5705   2.4063 H              1 S1                 0.0000
     40 ****         4.8677  -5.8114  -0.7191 H              1 S1                 0.0000
     41 ****         5.3140  -5.1423  -3.0859 H              1 S1                 0.0000
     42 ****         4.6420  -2.9223  -3.9255 H              1 S1                 0.0000
     43 ****         3.5011  -1.2771  -2.4451 H              1 S1                 0.0000
     44 ****         3.6840  -4.7608   1.6928 H              1 S1                 0.0000
     45 ****        -2.2896   3.9328   1.9755 LP             1 S1                 0.0000
     46 ****        -2.5530   4.6314   0.5232 LP             1 S1                 0.0000
     47 ****        -1.4717   0.2798  -0.5727 LP             1 S1                 0.0000
     48 ****        -1.1732   0.4270   1.0260 LP             1 S1                 0.0000
     49 ****        -0.3606  -1.3187  -1.3982 LP             1 S1                 0.0000
     50 ****         1.0302  -2.1636  -1.2626 LP             1 S1                 0.0000
@<TRIPOS>BOND
    1    1    2 1     
    2    1   24 1     
    3    1   25 1     
    4    1   26 1     
    5    2    3 1     
    6    3    8 ar    
    7    3    4 ar    
    8    4    5 ar    
    9    4   27 1     
   10    5    6 ar    
   11    5   28 1     
   12    6    7 ar    
   13    6   29 1     
   14    7    8 ar    
   15    7   30 1     
   16    8    9 1     
   17    9   10 1     
   18    9   31 1     
   19    9   32 1     
   20   10   11 1     
   21   11   12 1     
   22   11   33 1     
   23   11   34 1     
   24   12   13 1     
   25   12   14 1     
   26   12   35 1     
   27   13   36 1     
   28   14   15 1     
   29   14   37 1     
   30   14   38 1     
   31   15   23 1     
   32   15   16 1     
   33   16   17 2     
   34   16   39 1     
   35   17   18 1     
   36   17   44 1     
   37   18   23 ar    
   38   18   19 ar    
   39   19   20 ar    
   40   19   40 1     
   41   20   21 ar    
   42   20   41 1     
   43   21   22 ar    
   44   21   42 1     
   45   22   23 ar    
   46   22   43 1     
   47    2   45 1     
   48    2   46 1     
   49   10   47 1     
   50   10   48 1     
   51   13   49 1     
   52   13   50 1     
@<TRIPOS>SUBSTRUCTURE
      1 S1             1
@<TRIPOS>SET
LONE_PAIRS      STATIC     ATOMS    <user>   **** ""
6 45 46 47 48 49 50
DONOR_HYDROGENS      STATIC     ATOMS    <user>   **** ""
2 36 44
ATOM$BLUE        STATIC     ATOMS    COLORGROUP SYSTEM
6 45 46 47 48 49 50
ATOM$RED        STATIC     ATOMS    COLORGROUP SYSTEM
2 36 44
