#       Name:                AV-unprocessed.smi:3142
#       Creating user name   scv26
#       Creation time:       Fri Mar 27 17:37:19 2020


#       File generated by GOLD software.
#

@<TRIPOS>MOLECULE
AV-unprocessed.smi:3142
    39    41     1
SMALL
NO_CHARGES


@<TRIPOS>ATOM
      1 ****        -2.7972  -1.9035  -1.2244 C.3            1 S1                 0.0000
      2 ****        -2.1322  -0.8622  -0.3035 C.3            1 S1                 0.0000
      3 ****        -0.6178  -0.7541  -0.5357 C.2            1 S1                 0.0000
      4 ****         0.0485  -1.7628  -0.7699 O.2            1 S1                 0.0000
      5 ****        -0.0894   0.4769  -0.4480 N.am           1 S1                 0.0000
      6 ****         1.3236   0.8100  -0.5921 C.3            1 S1                 0.0000
      7 ****         1.7060   1.9892   0.2832 C.3            1 S1                 0.0000
      8 ****         3.1133   2.1634   0.8025 C.3            1 S1                 0.0000
      9 ****         1.9935   1.8056   1.7538 C.3            1 S1                 0.0000
     10 ****         1.7174   1.0742  -2.0360 C.3            1 S1                 0.0000
     11 ****         2.0761  -0.0525  -2.9757 C.3            1 S1                 0.0000
     12 ****         3.1446   0.9062  -2.5024 C.3            1 S1                 0.0000
     13 ****        -2.4155  -1.1232   1.1178 N.pl3          1 S1                 0.0000
     14 ****        -2.9768  -0.2525   2.0180 C.2            1 S1                 0.0000
     15 ****        -3.0306  -0.9091   3.2204 C.2            1 S1                 0.0000
     16 ****        -2.4942  -2.1504   3.0089 N.pl3          1 S1                 1.0000
     17 ****        -2.1174  -2.2783   1.7329 C.2            1 S1                 0.0000
     18 ****        -2.6188  -1.6679  -2.2742 H              1 S1                 0.0000
     19 ****        -3.8771  -1.9213  -1.0744 H              1 S1                 0.0000
     20 ****        -2.4227  -2.9122  -1.0456 H              1 S1                 0.0000
     21 ****        -2.5762   0.1072  -0.5367 H              1 S1                 0.0000
     22 ****        -0.7145   1.2461  -0.2554 H              1 S1                 0.0000
     23 ****         1.9113  -0.0421  -0.2437 H              1 S1                 0.0000
     24 ****         1.1889   2.9096   0.0176 H              1 S1                 0.0000
     25 ****         3.8417   1.3878   0.5760 H              1 S1                 0.0000
     26 ****         3.5093   3.1756   0.8488 H              1 S1                 0.0000
     27 ****         1.6439   2.5793   2.4342 H              1 S1                 0.0000
     28 ****         1.9773   0.7928   2.1513 H              1 S1                 0.0000
     29 ****         1.1751   1.9046  -2.4851 H              1 S1                 0.0000
     30 ****         2.0993  -1.0638  -2.5750 H              1 S1                 0.0000
     31 ****         1.7445   0.0322  -4.0085 H              1 S1                 0.0000
     32 ****         3.5271   1.6285  -3.2206 H              1 S1                 0.0000
     33 ****         3.8742   0.5249  -1.7908 H              1 S1                 0.0000
     34 ****        -3.2886   0.7451   1.7443 H              1 S1                 0.0000
     35 ****        -3.3975  -0.5928   4.1862 H              1 S1                 0.0000
     36 ****        -1.6579  -3.1433   1.2879 H              1 S1                 0.0000
     37 ****        -2.3918  -2.8684   3.7151 H              1 S1                 0.0000
     38 ****        -0.3961  -2.6576  -0.8097 LP             1 S1                 0.0000
     39 ****         1.0342  -1.6871  -0.9204 LP             1 S1                 0.0000
@<TRIPOS>BOND
    1    1    2 1     
    2    1   18 1     
    3    1   19 1     
    4    1   20 1     
    5    2    3 1     
    6    2   13 1     
    7    2   21 1     
    8    3    4 2     
    9    3    5 am    
   10    5    6 1     
   11    5   22 1     
   12    6    7 1     
   13    6   10 1     
   14    6   23 1     
   15    7    9 1     
   16    7    8 1     
   17    7   24 1     
   18    8    9 1     
   19    8   25 1     
   20    8   26 1     
   21    9   27 1     
   22    9   28 1     
   23   10   12 1     
   24   10   11 1     
   25   10   29 1     
   26   11   12 1     
   27   11   30 1     
   28   11   31 1     
   29   12   32 1     
   30   12   33 1     
   31   13   17 1     
   32   13   14 1     
   33   14   15 2     
   34   14   34 1     
   35   15   16 1     
   36   15   35 1     
   37   16   17 2     
   38   16   37 1     
   39   17   36 1     
   40    4   38 1     
   41    4   39 1     
@<TRIPOS>SUBSTRUCTURE
      1 S1             1
@<TRIPOS>SET
LONE_PAIRS      STATIC     ATOMS    <user>   **** ""
2 38 39
DONOR_HYDROGENS      STATIC     ATOMS    <user>   **** ""
2 22 37
ATOM$BLUE        STATIC     ATOMS    COLORGROUP SYSTEM
2 38 39
ATOM$RED        STATIC     ATOMS    COLORGROUP SYSTEM
2 22 37
