AV-unprocessed.smi:603|AV-procd|sdf|3036|dock9
  -GOLD-   2262023553D 1   1.00000     0.00000
 Structure written by MMmdl.
 35 36  0  0  0  0  0  0  0  0  1 V2000
  149.9104  140.2974  154.1494 O   0  0  0  0  0  0  0  0  0  0  0  0
  149.1389  141.1134  154.6579 C   0  0  0  0  0  0  0  0  0  0  0  0
  147.6766  141.1320  154.1992 C   0  0  0  0  0  0  0  0  0  0  0  0
  147.1620  139.7743  153.9749 N   0  0  0  0  0  0  0  0  0  0  0  0
  146.5740  139.5937  152.7349 N   0  0  0  0  0  0  0  0  0  0  0  0
  146.0931  138.4401  152.4218 C   0  0  0  0  0  0  0  0  0  0  0  0
  146.1417  137.3141  153.3277 C   0  0  0  0  0  0  0  0  0  0  0  0
  145.4807  135.7895  152.8523 Cl  0  0  0  0  0  0  0  0  0  0  0  0
  146.7156  137.5024  154.5425 C   0  0  0  0  0  0  0  0  0  0  0  0
  146.8108  136.2025  155.6805 Cl  0  0  0  0  0  0  0  0  0  0  0  0
  147.2739  138.8043  154.9341 C   0  0  0  0  0  0  0  0  0  0  0  0
  147.8019  139.0145  156.0268 O   0  0  0  0  0  0  0  0  0  0  0  0
  149.4581  142.0177  155.6128 N   0  0  0  0  0  0  0  0  0  0  0  0
  150.6282  142.2684  156.2458 C   0  0  0  0  0  0  0  0  0  0  0  0
  151.5331  141.4354  156.2408 O   0  0  0  0  0  0  0  0  0  0  0  0
  150.7463  143.4550  156.8711 N   0  0  0  0  0  0  0  0  0  0  0  0
  151.9215  143.9133  157.6066 C   0  0  0  0  0  0  0  0  0  0  0  0
  151.7424  143.7304  159.1270 C   0  0  0  0  0  0  0  0  0  0  0  0
  151.5395  145.1341  159.6974 C   0  0  0  0  0  0  0  0  0  0  0  0
  152.3497  146.0327  158.7687 C   0  0  0  0  0  0  0  0  0  0  0  0
  152.1521  145.4201  157.3809 C   0  0  0  0  0  0  0  0  0  0  0  0
  147.0621  141.6692  154.9242 H   0  0  0  0  0  0  0  0  0  0  0  0
  147.6089  141.7161  153.2793 H   0  0  0  0  0  0  0  0  0  0  0  0
  145.6234  138.2514  151.4563 H   0  0  0  0  0  0  0  0  0  0  0  0
  148.6908  142.6026  155.9108 H   0  0  0  0  0  0  0  0  0  0  0  0
  149.9593  144.0874  156.8312 H   0  0  0  0  0  0  0  0  0  0  0  0
  152.8002  143.3578  157.2737 H   0  0  0  0  0  0  0  0  0  0  0  0
  150.9243  143.0596  159.3930 H   0  0  0  0  0  0  0  0  0  0  0  0
  152.6542  143.3019  159.5449 H   0  0  0  0  0  0  0  0  0  0  0  0
  150.4842  145.4050  159.6422 H   0  0  0  0  0  0  0  0  0  0  0  0
  151.8517  145.2135  160.7391 H   0  0  0  0  0  0  0  0  0  0  0  0
  152.0379  147.0765  158.8155 H   0  0  0  0  0  0  0  0  0  0  0  0
  153.4043  145.9872  159.0441 H   0  0  0  0  0  0  0  0  0  0  0  0
  153.0038  145.6124  156.7278 H   0  0  0  0  0  0  0  0  0  0  0  0
  151.2791  145.8782  156.9126 H   0  0  0  0  0  0  0  0  0  0  0  0
  1  2  2  0  0  0  0
  2  3  1  0  0  0  0
  2 13  1  0  0  0  0
  3  4  1  0  0  0  0
  3 22  1  0  0  0  0
  3 23  1  0  0  0  0
  4 11  1  0  0  0  0
  4  5  1  0  0  0  0
  5  6  2  0  0  0  0
  6  7  1  0  0  0  0
  6 24  1  0  0  0  0
  7  8  1  0  0  0  0
  7  9  2  0  0  0  0
  9 10  1  0  0  0  0
  9 11  1  0  0  0  0
 11 12  2  0  0  0  0
 13 14  1  0  0  0  0
 13 25  1  0  0  0  0
 14 15  2  0  0  0  0
 14 16  1  0  0  0  0
 16 17  1  0  0  0  0
 16 26  1  0  0  0  0
 17 21  1  0  0  0  0
 17 18  1  0  0  0  0
 17 27  1  0  0  0  0
 18 19  1  0  0  0  0
 18 28  1  0  0  0  0
 18 29  1  0  0  0  0
 19 20  1  0  0  0  0
 19 30  1  0  0  0  0
 19 31  1  0  0  0  0
 20 21  1  0  0  0  0
 20 32  1  0  0  0  0
 20 33  1  0  0  0  0
 21 34  1  0  0  0  0
 21 35  1  0  0  0  0
M  END
> <s_m_source_file>
AV-unprocessed.smi

> <i_m_source_file_index>
603

> <i_lp_mmshare_version>
43012

> <i_f3d_flags>
0

> <s_epik_input>
W0NIMl0xW0NIMl1bQ0gyXVtDSDJdW0NIXTFbTkhdQyg9TylbTkhdQyg9TylbQ0gyXW4ybltjSF1jKENsKWMoQ2wpYzI9Tw==

> <s_epik_cmdline>
J2VwaWtfcHl0aG9uJywgJy1waCcsICc3LjAnLCAnLXRuJywgJzgnLCAnLW1hJywgJzIwMCcsICctbWV0YWxfYmluZGluZycsICctaW1hZScsICc8aW5maWxlLm1hZT4nLCAnLW9tYWUnLCAnPG91dGZpbGUubWFlPic=

> <r_lp_tautomer_probability>
1

> <r_epik_Ionization_Penalty>
3.28905e-05

> <r_epik_Ionization_Penalty_Charging>
2.24292e-11

> <r_epik_Ionization_Penalty_Neutral>
3.28905e-05

> <r_epik_State_Penalty>
-0

> <r_epik_Charging_Adjusted_Penalty>
2.24292e-11

> <i_epik_Tot_Q>
0

> <i_epik_Tot_abs_Q>
0

> <r_epik_Metal_State_Penalty>
-0

> <b_epik_Metal_Only>
0

> <s_lp_Force_Field>
OPLS_2005

> <r_lp_Energy>
36.9935

> <b_lp_Chiralities_Consistent>
1

> <s_lp_Variant>
AV-unprocessed.smi:603-1

> <Gold.Version>
5.8.1

> <Gold.Id.Protein>
6NUR|6NUR_protein|mol2

> <Gold.PLP.Fitness>
46.9600

> <Gold.PLP.PLP>
-38.7106

> <Gold.PLP.part.hbond>
-3.0000

> <Gold.PLP.part.metal>
0.0000

> <Gold.PLP.part.buried>
-4.9339

> <Gold.PLP.part.nonpolar>
-33.0761

> <Gold.PLP.part.repulsive>
3.5288

> <Gold.PLP.ligand.clash>
0.0000

> <Gold.PLP.ligand.torsion>
0.7290

> <Gold.PLP.Chemscore.Hbond>
2.2944

> <Gold.PLP.Chemscore.CHOScore>
0.9361

> <Gold.PLP.Chemscore.Metal>
0.0000

> <Gold.Chemscore.Hbonds>
donor molecule, donor type, donor heavy atom, donor atom, acceptor molecule, acceptor atom, score
      L1  H    13    25       P1  8028  0.27
      L1  H    16    26       P1  8028  0.78
      P1  H  7989  7998       L1     1  0.83
      L1  C     6    24       P1 10171  1.00

> <Gold.PLP.Chemscore.Internal.Correction>
0.0159

> <Gold.Rescore>
     Score         DG    S(hbond)    S(metal)    S(lipo)     H(rot)  DE(clash)    DE(int)     intcor
     13.97     -16.80       1.88        0.00      79.32       1.65       0.33       2.50       ----

> <Gold.Chemscore.Fitness>
13.9707

> <Gold.Chemscore.DG>
-16.7971

> <Gold.Chemscore.ZeroCoef>
-5.4800

> <Gold.Chemscore.Hbond>
1.8778

> <Gold.Chemscore.Metal>
0.0000

> <Gold.Chemscore.Lipo>
79.3167

> <Gold.Chemscore.Internal_Hbond>
0.0000

> <Gold.Chemscore.DEClash>
0.3267

> <Gold.Chemscore.DEInternal>
2.4998

> <Gold.Chemscore.Rot>
1.6543

> <Gold.Chemscore.Internal.Correction>
   9.000000E+99

> <Gold.Chemscore.Hbonds>
donor molecule, donor type, donor heavy atom, donor atom, acceptor molecule, acceptor atom, score
      L1  H    13    25       P1  8028  0.28
      L1  H    16    26       P1  8028  0.74
      P1  H  7989  7998       L1     1  0.81

> <Gold.Chemscore.Hbond.Weighted>
-6.2719

> <Gold.Chemscore.Metal.Weighted>
-0.0000

> <Gold.Chemscore.Lipo.Weighted>
-9.2801

> <Gold.Chemscore.Internal_Hbond.Weighted>
0.0000

> <Gold.Chemscore.DEClash.Weighted>
0.3267

> <Gold.Chemscore.DEInternal.Weighted>
2.4998

> <Gold.Chemscore.Rot.Weighted>
4.2349

> <Gold.Chemscore.Internal.Correction.Weighted>
   9.000000E+99

> <Gold.Protein.RotatedTorsions>
[ 6907 6896 6895 6894 ] final  179.91 input  -60.11 | X-H torsion
[ 7974 7965 7964 7962 ] final  147.00 input  175.53 | X-H torsion
[ 8008 7997 7996 7995 ] final   54.28 input   59.86 | X-H torsion
[ 10167 10162 10161 10158 ] final  132.66 input  -65.29 | X-H torsion
[ 10718 10713 10712 10709 ] final   79.49 input   66.30 | X-H torsion
[ 10763 10752 10751 10750 ] final   99.52 input  -60.55 | X-H torsion
[ 11005 11000 10999 10996 ] final  177.91 input  -57.11 | X-H torsion

> <Gold.Protein.ActiveResidues>
 VAL166  LYS551  ARG553  GLY616  TRP617  ASP618  TYR619  PRO620  LYS621  CYS622 
 ASP623  PHE694  ASN695  SER759  ASP760  ASP761  ALA762  ILE779  LEU786  VAL792 
 PHE793  MET794  SER795  GLU796  ALA797  LYS798  CYS799  TRP800  GLU811  SER814 

> <Gold.Protein.RotatedAtoms>
  151.6640  133.3316  159.3180 H   0  0  0  0  0  0  0  0  0  0  0  0  # atno 6907 bound_to 6896
  150.7900  134.6920  159.6511 H   0  0  0  0  0  0  0  0  0  0  0  0  # atno 6908 bound_to 6896
  152.3977  134.6341  160.0134 H   0  0  0  0  0  0  0  0  0  0  0  0  # atno 6909 bound_to 6896
  144.8626  139.5974  143.5923 H   0  0  0  0  0  0  0  0  0  0  0  0  # atno 7974 bound_to 7965
  155.4821  140.3469  155.4341 H   0  0  0  0  0  0  0  0  0  0  0  0  # atno 8008 bound_to 7997
  156.1032  140.1441  156.9467 H   0  0  0  0  0  0  0  0  0  0  0  0  # atno 8009 bound_to 7997
  154.4707  140.0902  156.7116 H   0  0  0  0  0  0  0  0  0  0  0  0  # atno 8010 bound_to 7997
  139.5330  144.6652  151.4883 H   0  0  0  0  0  0  0  0  0  0  0  0  # atno 10167 bound_to 10162
  157.6778  130.9916  150.1940 H   0  0  0  0  0  0  0  0  0  0  0  0  # atno 10718 bound_to 10713
  153.3024  135.4110  155.1265 H   0  0  0  0  0  0  0  0  0  0  0  0  # atno 10763 bound_to 10752
  154.8553  135.3545  154.5833 H   0  0  0  0  0  0  0  0  0  0  0  0  # atno 10764 bound_to 10752
  153.6259  135.7062  153.5351 H   0  0  0  0  0  0  0  0  0  0  0  0  # atno 10765 bound_to 10752
  140.3892  134.6877  157.4497 H   0  0  0  0  0  0  0  0  0  0  0  0  # atno 11005 bound_to 11000
  146.2872  139.7037  142.9187 LP  0  0  0  0  0  0  0  0  0  0  0  0  # atno 17320 bound_to 7965
  145.4283  141.0413  143.2925 LP  0  0  0  0  0  0  0  0  0  0  0  0  # atno 17321 bound_to 7965
  140.6520  143.8677  150.6796 LP  0  0  0  0  0  0  0  0  0  0  0  0  # atno 17342 bound_to 10162
  140.2044  143.3933  152.1766 LP  0  0  0  0  0  0  0  0  0  0  0  0  # atno 17343 bound_to 10162
  156.2645  130.3714  149.8095 LP  0  0  0  0  0  0  0  0  0  0  0  0  # atno 17370 bound_to 10713
  156.5831  130.8474  151.3388 LP  0  0  0  0  0  0  0  0  0  0  0  0  # atno 17371 bound_to 10713
  140.0419  134.6255  155.8970 LP  0  0  0  0  0  0  0  0  0  0  0  0  # atno 17394 bound_to 11000
  141.1896  133.6566  156.5377 LP  0  0  0  0  0  0  0  0  0  0  0  0  # atno 17395 bound_to 11000

$$$$
