AV-unprocessed.smi:2881|AV-procd|sdf|11065|dock7
  -GOLD-   2272015543D 1   1.00000     0.00000
 Structure written by MMmdl.
 40 42  0  0  0  0  0  0  0  0  1 V2000
  147.5349  138.8325  153.5592 C   0  0  0  0  0  0  0  0  0  0  0  0
  148.6631  139.1770  154.4862 C   0  0  0  0  0  0  0  0  0  0  0  0
  150.0642  139.0893  154.2376 C   0  0  0  0  0  0  0  0  0  0  0  0
  150.6422  139.5234  155.3979 C   0  0  0  0  0  0  0  0  0  0  0  0
  152.0773  139.6797  155.7887 C   0  0  0  0  0  0  0  0  0  0  0  0
  152.2006  140.1885  157.2249 C   0  0  0  0  0  0  0  0  0  0  0  0
  152.9626  139.6304  158.0139 O   0  0  0  0  0  0  0  0  0  0  0  0
  151.4448  141.2480  157.5506 N   0  0  0  0  0  0  0  0  0  0  0  0
  151.4446  141.9087  158.8533 C   0  0  2  0  0  0  0  0  0  0  0  0
  150.7812  143.3093  158.8446 C   0  0  2  0  0  0  0  0  0  0  0  0
  151.3612  144.2039  157.7280 C   0  0  0  0  0  0  0  0  0  0  0  0
  152.7876  144.4896  158.2332 C   0  0  0  0  0  0  0  0  0  0  0  0
  152.8281  143.7443  159.5819 C   0  0  1  0  0  0  0  0  0  0  0  0
  151.4020  143.9460  160.0815 C   0  0  0  0  0  0  0  0  0  0  0  0
  152.8893  142.2205  159.3254 C   0  0  1  0  0  0  0  0  0  0  0  0
  153.3127  141.4175  160.5703 C   0  0  0  0  0  0  0  0  0  0  0  0
  154.7152  141.4717  160.7275 O   0  0  0  0  0  0  0  0  0  0  0  0
  149.6051  139.8305  156.2499 N   0  0  0  0  0  0  0  0  0  0  0  0
  148.3926  139.6228  155.7040 N   0  0  0  0  0  0  0  0  0  0  0  0
  149.7079  140.1773  157.1930 H   0  0  0  0  0  0  0  0  0  0  0  0
  147.9013  138.6246  152.5537 H   0  0  0  0  0  0  0  0  0  0  0  0
  146.8194  139.6519  153.4874 H   0  0  0  0  0  0  0  0  0  0  0  0
  146.9985  137.9492  153.9064 H   0  0  0  0  0  0  0  0  0  0  0  0
  150.5689  138.7618  153.3407 H   0  0  0  0  0  0  0  0  0  0  0  0
  152.5707  140.3782  155.1120 H   0  0  0  0  0  0  0  0  0  0  0  0
  152.6059  138.7301  155.6949 H   0  0  0  0  0  0  0  0  0  0  0  0
  150.8500  141.6461  156.8386 H   0  0  0  0  0  0  0  0  0  0  0  0
  150.9379  141.2712  159.5809 H   0  0  0  0  0  0  0  0  0  0  0  0
  149.6912  143.2747  158.8504 H   0  0  0  0  0  0  0  0  0  0  0  0
  151.3493  143.7355  156.7440 H   0  0  0  0  0  0  0  0  0  0  0  0
  150.7944  145.1326  157.6513 H   0  0  0  0  0  0  0  0  0  0  0  0
  153.5537  144.1404  157.5400 H   0  0  0  0  0  0  0  0  0  0  0  0
  152.9331  145.5609  158.3770 H   0  0  0  0  0  0  0  0  0  0  0  0
  153.6067  144.1112  160.2514 H   0  0  0  0  0  0  0  0  0  0  0  0
  151.1329  144.9961  160.2105 H   0  0  0  0  0  0  0  0  0  0  0  0
  151.1792  143.4079  161.0039 H   0  0  0  0  0  0  0  0  0  0  0  0
  153.6169  142.0236  158.5355 H   0  0  0  0  0  0  0  0  0  0  0  0
  152.8519  141.8355  161.4655 H   0  0  0  0  0  0  0  0  0  0  0  0
  152.9977  140.3762  160.5017 H   0  0  0  0  0  0  0  0  0  0  0  0
  155.0741  142.0181  160.0449 H   0  0  0  0  0  0  0  0  0  0  0  0
  1 21  1  0  0  0  0
  1 22  1  0  0  0  0
  1 23  1  0  0  0  0
  1  2  1  0  0  0  0
  2 19  2  0  0  0  0
  2  3  1  0  0  0  0
  3  4  2  0  0  0  0
  3 24  1  0  0  0  0
  4 18  1  0  0  0  0
  4  5  1  0  0  0  0
  5  6  1  0  0  0  0
  5 25  1  0  0  0  0
  5 26  1  0  0  0  0
  6  7  2  0  0  0  0
  6  8  1  0  0  0  0
  8  9  1  0  0  0  0
  8 27  1  0  0  0  0
  9 15  1  0  0  0  0
  9 10  1  0  0  0  0
  9 28  1  0  0  0  0
 10 14  1  0  0  0  0
 10 11  1  0  0  0  0
 10 29  1  0  0  0  0
 11 12  1  0  0  0  0
 11 30  1  0  0  0  0
 11 31  1  0  0  0  0
 12 13  1  0  0  0  0
 12 32  1  0  0  0  0
 12 33  1  0  0  0  0
 13 14  1  0  0  0  0
 13 15  1  0  0  0  0
 13 34  1  0  0  0  0
 14 35  1  0  0  0  0
 14 36  1  0  0  0  0
 15 16  1  0  0  0  0
 15 37  1  0  0  0  0
 16 17  1  0  0  0  0
 16 38  1  0  0  0  0
 16 39  1  0  0  0  0
 17 40  1  0  0  0  0
 18 19  1  0  0  0  0
 18 20  1  0  0  0  0
M  END
> <s_m_source_file>
AV-unprocessed.smi

> <i_m_source_file_index>
2881

> <i_lp_mmshare_version>
43012

> <i_f3d_flags>
0

> <s_epik_input>
W0NIM11jMVtjSF1jKG5bbkhdMSlbQ0gyXUMoPU8pW05IXVtDQEhdKFtDQEBIXTIzKVtDQEhdKFtDSDJdW09IXSlbQ0BASF0oW0NIMl0zKVtDSDJdW0NIMl0y

> <s_epik_cmdline>
J2VwaWtfcHl0aG9uJywgJy1waCcsICc3LjAnLCAnLXRuJywgJzgnLCAnLW1hJywgJzIwMCcsICctbWV0YWxfYmluZGluZycsICctaW1hZScsICc8aW5maWxlLm1hZT4nLCAnLW9tYWUnLCAnPG91dGZpbGUubWFlPic=

> <r_lp_tautomer_probability>
0.5

> <r_epik_Ionization_Penalty>
0.00013396

> <r_epik_Ionization_Penalty_Charging>
0

> <r_epik_Ionization_Penalty_Neutral>
0.00013396

> <r_epik_State_Penalty>
0.41068

> <r_epik_Charging_Adjusted_Penalty>
0.41068

> <i_epik_Tot_Q>
0

> <i_epik_Tot_abs_Q>
0

> <r_epik_Metal_State_Penalty>
0.41066

> <b_epik_Metal_Only>
0

> <s_lp_Force_Field>
OPLS_2005

> <r_lp_Energy>
46.7591

> <b_lp_Chiralities_Consistent>
1

> <s_lp_Variant>
AV-unprocessed.smi:2881-11

> <Gold.Version>
5.8.1

> <Gold.Id.Protein>
6NUR|6NUR_protein|mol2

> <Gold.PLP.Fitness>
42.3571

> <Gold.PLP.PLP>
-40.1862

> <Gold.PLP.part.hbond>
-2.0000

> <Gold.PLP.part.metal>
0.0000

> <Gold.PLP.part.buried>
-1.5758

> <Gold.PLP.part.nonpolar>
-37.4048

> <Gold.PLP.part.repulsive>
0.1137

> <Gold.PLP.ligand.clash>
0.0000

> <Gold.PLP.ligand.torsion>
0.4284

> <Gold.PLP.Chemscore.Hbond>
1.0000

> <Gold.PLP.Chemscore.CHOScore>
0.0000

> <Gold.PLP.Chemscore.Metal>
0.0000

> <Gold.Chemscore.Hbonds>
donor molecule, donor type, donor heavy atom, donor atom, acceptor molecule, acceptor atom, score
      P1  H  7997  8010       L1     7  1.00

> <Gold.PLP.Chemscore.Internal.Correction>
0.0277

> <Gold.Rescore>
     Score         DG    S(hbond)    S(metal)    S(lipo)     H(rot)  DE(clash)    DE(int)     intcor
     12.83     -16.02       0.76        0.00     118.06       2.28       0.13       3.05       ----

> <Gold.Chemscore.Fitness>
12.8340

> <Gold.Chemscore.DG>
-16.0157

> <Gold.Chemscore.ZeroCoef>
-5.4800

> <Gold.Chemscore.Hbond>
0.7629

> <Gold.Chemscore.Metal>
0.0000

> <Gold.Chemscore.Lipo>
118.0573

> <Gold.Chemscore.Internal_Hbond>
0.0000

> <Gold.Chemscore.DEClash>
0.1290

> <Gold.Chemscore.DEInternal>
3.0527

> <Gold.Chemscore.Rot>
2.2755

> <Gold.Chemscore.Internal.Correction>
   9.000000E+99

> <Gold.Chemscore.Hbonds>
donor molecule, donor type, donor heavy atom, donor atom, acceptor molecule, acceptor atom, score
      P1  H  7997  8010       L1     7  0.24

> <Gold.Chemscore.Hbond.Weighted>
-2.5482

> <Gold.Chemscore.Metal.Weighted>
-0.0000

> <Gold.Chemscore.Lipo.Weighted>
-13.8127

> <Gold.Chemscore.Internal_Hbond.Weighted>
0.0000

> <Gold.Chemscore.DEClash.Weighted>
0.1290

> <Gold.Chemscore.DEInternal.Weighted>
3.0527

> <Gold.Chemscore.Rot.Weighted>
5.8252

> <Gold.Chemscore.Internal.Correction.Weighted>
   9.000000E+99

> <Gold.Protein.RotatedTorsions>
[ 6907 6896 6895 6894 ] final   33.08 input  -60.11 | X-H torsion
[ 7974 7965 7964 7962 ] final  -30.84 input  175.53 | X-H torsion
[ 8008 7997 7996 7995 ] final   23.81 input   59.86 | X-H torsion
[ 10167 10162 10161 10158 ] final  -74.09 input  -65.29 | X-H torsion
[ 10718 10713 10712 10709 ] final  -63.66 input   66.30 | X-H torsion
[ 10763 10752 10751 10750 ] final   59.76 input  -60.55 | X-H torsion
[ 11005 11000 10999 10996 ] final  -18.30 input  -57.11 | X-H torsion

> <Gold.Protein.ActiveResidues>
 VAL166  LYS551  ARG553  GLY616  TRP617  ASP618  TYR619  PRO620  LYS621  CYS622 
 ASP623  PHE694  ASN695  SER759  ASP760  ASP761  ALA762  ILE779  LEU786  VAL792 
 PHE793  MET794  SER795  GLU796  ALA797  LYS798  CYS799  TRP800  GLU811  SER814 

> <Gold.Protein.RotatedAtoms>
  152.0836  134.9455  160.0572 H   0  0  0  0  0  0  0  0  0  0  0  0  # atno 6907 bound_to 6896
  152.0734  133.4113  159.4477 H   0  0  0  0  0  0  0  0  0  0  0  0  # atno 6908 bound_to 6896
  150.6836  134.2985  159.4740 H   0  0  0  0  0  0  0  0  0  0  0  0  # atno 6909 bound_to 6896
  146.1112  140.5592  142.8777 H   0  0  0  0  0  0  0  0  0  0  0  0  # atno 7974 bound_to 7965
  154.9866  140.3108  155.4924 H   0  0  0  0  0  0  0  0  0  0  0  0  # atno 8008 bound_to 7997
  156.2946  140.2257  156.4908 H   0  0  0  0  0  0  0  0  0  0  0  0  # atno 8009 bound_to 7997
  154.7741  140.0450  157.1063 H   0  0  0  0  0  0  0  0  0  0  0  0  # atno 8010 bound_to 7997
  140.5056  143.2353  151.7680 H   0  0  0  0  0  0  0  0  0  0  0  0  # atno 10167 bound_to 10162
  156.0777  130.4223  150.1309 H   0  0  0  0  0  0  0  0  0  0  0  0  # atno 10718 bound_to 10713
  152.9903  135.5560  154.5764 H   0  0  0  0  0  0  0  0  0  0  0  0  # atno 10763 bound_to 10752
  154.5154  135.2804  155.1309 H   0  0  0  0  0  0  0  0  0  0  0  0  # atno 10764 bound_to 10752
  154.2684  135.6368  153.5353 H   0  0  0  0  0  0  0  0  0  0  0  0  # atno 10765 bound_to 10752
  140.8255  133.8036  155.9703 H   0  0  0  0  0  0  0  0  0  0  0  0  # atno 11005 bound_to 11000
  144.7513  140.5199  143.6799 LP  0  0  0  0  0  0  0  0  0  0  0  0  # atno 17320 bound_to 7965
  145.5659  139.1481  143.3315 LP  0  0  0  0  0  0  0  0  0  0  0  0  # atno 17321 bound_to 7965
  139.4883  144.4462  151.9707 LP  0  0  0  0  0  0  0  0  0  0  0  0  # atno 17342 bound_to 10162
  140.3553  144.3039  150.5942 LP  0  0  0  0  0  0  0  0  0  0  0  0  # atno 17343 bound_to 10162
  156.9347  130.9725  151.3527 LP  0  0  0  0  0  0  0  0  0  0  0  0  # atno 17370 bound_to 10713
  157.5880  130.8423  149.8617 LP  0  0  0  0  0  0  0  0  0  0  0  0  # atno 17371 bound_to 10713
  140.9054  134.2326  157.5017 LP  0  0  0  0  0  0  0  0  0  0  0  0  # atno 17394 bound_to 11000
  139.8706  134.9726  156.4778 LP  0  0  0  0  0  0  0  0  0  0  0  0  # atno 17395 bound_to 11000

$$$$
