AV-unprocessed.smi:2850|AV-procd|sdf|10970|dock1
  -GOLD-   2272015423D 1   1.00000     0.00000
 Structure written by MMmdl.
 44 45  0  0  0  0  0  0  0  0  1 V2000
  143.6205  145.7742  154.4696 C   0  0  0  0  0  0  0  0  0  0  0  0
  144.2155  144.6861  155.7947 S   0  0  0  0  0  0  0  0  0  0  0  0
  145.4356  143.6206  155.0875 C   0  0  0  0  0  0  0  0  0  0  0  0
  145.6693  143.6188  153.7006 C   0  0  0  0  0  0  0  0  0  0  0  0
  146.6573  142.7413  153.2207 C   0  0  0  0  0  0  0  0  0  0  0  0
  147.3317  141.9364  154.1613 C   0  0  0  0  0  0  0  0  0  0  0  0
  148.3243  141.0547  153.7132 N   0  0  0  0  0  0  0  0  0  0  0  0
  148.8781  140.0512  154.6117 C   0  0  0  0  0  0  0  0  0  0  0  0
  150.2184  140.4992  155.2096 C   0  0  1  0  0  0  0  0  0  0  0  0
  150.0201  141.5917  156.2784 C   0  0  0  0  0  0  0  0  0  0  0  0
  151.2749  141.9799  156.9137 N   0  0  0  0  0  0  0  0  0  0  0  0
  151.0476  143.0244  157.9141 C   0  0  0  0  0  0  0  0  0  0  0  0
  152.3143  143.6597  158.5266 C   0  0  0  0  0  0  0  0  0  0  0  0
  152.9181  142.7300  159.5894 C   0  0  0  0  0  0  0  0  0  0  0  0
  152.0241  145.0450  159.1268 C   0  0  0  0  0  0  0  0  0  0  0  0
  151.9090  140.7887  157.4739 C   0  0  0  0  0  0  0  0  0  0  0  0
  152.0969  139.6881  156.4162 C   0  0  0  0  0  0  0  0  0  0  0  0
  150.8402  139.3737  155.8257 O   0  0  0  0  0  0  0  0  0  0  0  0
  147.0505  141.9946  155.4882 N   0  0  0  0  0  0  0  0  0  0  0  0
  146.1114  142.8278  155.9496 N   0  0  0  0  0  0  0  0  0  0  0  0
  142.8649  146.4572  154.8572 H   0  0  0  0  0  0  0  0  0  0  0  0
  143.1750  145.1886  153.6653 H   0  0  0  0  0  0  0  0  0  0  0  0
  144.4411  146.3642  154.0610 H   0  0  0  0  0  0  0  0  0  0  0  0
  145.1160  144.2623  153.0325 H   0  0  0  0  0  0  0  0  0  0  0  0
  146.8880  142.6900  152.1666 H   0  0  0  0  0  0  0  0  0  0  0  0
  148.5346  140.9926  152.7275 H   0  0  0  0  0  0  0  0  0  0  0  0
  148.1636  139.8775  155.4174 H   0  0  0  0  0  0  0  0  0  0  0  0
  149.0001  139.1069  154.0795 H   0  0  0  0  0  0  0  0  0  0  0  0
  150.8615  140.8830  154.4151 H   0  0  0  0  0  0  0  0  0  0  0  0
  149.5586  142.4649  155.8157 H   0  0  0  0  0  0  0  0  0  0  0  0
  149.3195  141.2349  157.0352 H   0  0  0  0  0  0  0  0  0  0  0  0
  150.4622  143.8261  157.4614 H   0  0  0  0  0  0  0  0  0  0  0  0
  150.4239  142.6219  158.7141 H   0  0  0  0  0  0  0  0  0  0  0  0
  153.0703  143.7785  157.7512 H   0  0  0  0  0  0  0  0  0  0  0  0
  152.2222  142.5637  160.4124 H   0  0  0  0  0  0  0  0  0  0  0  0
  153.8332  143.1509  160.0073 H   0  0  0  0  0  0  0  0  0  0  0  0
  153.1690  141.7577  159.1645 H   0  0  0  0  0  0  0  0  0  0  0  0
  151.2727  144.9860  159.9147 H   0  0  0  0  0  0  0  0  0  0  0  0
  151.6569  145.7366  158.3681 H   0  0  0  0  0  0  0  0  0  0  0  0
  152.9246  145.4834  159.5575 H   0  0  0  0  0  0  0  0  0  0  0  0
  152.8842  141.0368  157.8907 H   0  0  0  0  0  0  0  0  0  0  0  0
  151.3055  140.3994  158.2955 H   0  0  0  0  0  0  0  0  0  0  0  0
  152.7994  140.0084  155.6451 H   0  0  0  0  0  0  0  0  0  0  0  0
  152.5109  138.7896  156.8736 H   0  0  0  0  0  0  0  0  0  0  0  0
  1  2  1  0  0  0  0
  1 21  1  0  0  0  0
  1 22  1  0  0  0  0
  1 23  1  0  0  0  0
  2  3  1  0  0  0  0
  3 20  1  0  0  0  0
  3  4  2  0  0  0  0
  4  5  1  0  0  0  0
  4 24  1  0  0  0  0
  5  6  2  0  0  0  0
  5 25  1  0  0  0  0
  6  7  1  0  0  0  0
  6 19  1  0  0  0  0
  7  8  1  0  0  0  0
  7 26  1  0  0  0  0
  8  9  1  0  0  0  0
  8 27  1  0  0  0  0
  8 28  1  0  0  0  0
  9 18  1  0  0  0  0
  9 10  1  0  0  0  0
  9 29  1  0  0  0  0
 10 11  1  0  0  0  0
 10 30  1  0  0  0  0
 10 31  1  0  0  0  0
 11 12  1  0  0  0  0
 11 16  1  0  0  0  0
 12 13  1  0  0  0  0
 12 32  1  0  0  0  0
 12 33  1  0  0  0  0
 13 14  1  0  0  0  0
 13 15  1  0  0  0  0
 13 34  1  0  0  0  0
 14 35  1  0  0  0  0
 14 36  1  0  0  0  0
 14 37  1  0  0  0  0
 15 38  1  0  0  0  0
 15 39  1  0  0  0  0
 15 40  1  0  0  0  0
 16 17  1  0  0  0  0
 16 41  1  0  0  0  0
 16 42  1  0  0  0  0
 17 18  1  0  0  0  0
 17 43  1  0  0  0  0
 17 44  1  0  0  0  0
 19 20  2  0  0  0  0
M  END
> <s_m_source_file>
AV-unprocessed.smi

> <i_m_source_file_index>
2850

> <i_lp_mmshare_version>
43012

> <i_f3d_flags>
0

> <s_epik_input>
W0NIM11TYzFbY0hdW2NIXWMobm4xKVtOSF1bQ0gyXVtDQEBIXTJbQ0gyXU4oW0NIMl1bQ0gyXU8yKVtDSDJdW0NIXShbQ0gzXSlbQ0gzXQ==

> <s_epik_cmdline>
J2VwaWtfcHl0aG9uJywgJy1waCcsICc3LjAnLCAnLXRuJywgJzgnLCAnLW1hJywgJzIwMCcsICctbWV0YWxfYmluZGluZycsICctaW1hZScsICc8aW5maWxlLm1hZT4nLCAnLW9tYWUnLCAnPG91dGZpbGUubWFlPic=

> <r_lp_tautomer_probability>
0.999978

> <r_epik_Ionization_Penalty>
1.20939

> <r_epik_Ionization_Penalty_Charging>
0

> <r_epik_Ionization_Penalty_Neutral>
1.20939

> <r_epik_State_Penalty>
1.27042

> <r_epik_Charging_Adjusted_Penalty>
1.27042

> <i_epik_Tot_Q>
0

> <i_epik_Tot_abs_Q>
0

> <r_epik_Metal_State_Penalty>
1.26998

> <b_epik_Metal_Only>
0

> <s_lp_Force_Field>
OPLS_2005

> <r_lp_Energy>
30.7386

> <b_lp_Chiralities_Consistent>
1

> <s_lp_Variant>
AV-unprocessed.smi:2850-6

> <Gold.Version>
5.8.1

> <Gold.Id.Protein>
6NUR|6NUR_protein|mol2

> <Gold.PLP.Fitness>
43.4465

> <Gold.PLP.PLP>
-41.1005

> <Gold.PLP.part.hbond>
-1.0000

> <Gold.PLP.part.metal>
0.0000

> <Gold.PLP.part.buried>
-5.9146

> <Gold.PLP.part.nonpolar>
-34.8532

> <Gold.PLP.part.repulsive>
0.5190

> <Gold.PLP.ligand.clash>
0.0000

> <Gold.PLP.ligand.torsion>
0.5219

> <Gold.PLP.Chemscore.Hbond>
1.0000

> <Gold.PLP.Chemscore.CHOScore>
0.0000

> <Gold.PLP.Chemscore.Metal>
0.0000

> <Gold.Chemscore.Hbonds>
donor molecule, donor type, donor heavy atom, donor atom, acceptor molecule, acceptor atom, score
      L1  H     7    26       P1  7957  0.79

> <Gold.PLP.Chemscore.Internal.Correction>
0.3897

> <Gold.Rescore>
     Score         DG    S(hbond)    S(metal)    S(lipo)     H(rot)  DE(clash)    DE(int)     intcor
     15.67     -18.04       0.99        0.00     113.00       1.55       1.65       0.72       ----

> <Gold.Chemscore.Fitness>
15.6676

> <Gold.Chemscore.DG>
-18.0418

> <Gold.Chemscore.ZeroCoef>
-5.4800

> <Gold.Chemscore.Hbond>
0.9884

> <Gold.Chemscore.Metal>
0.0000

> <Gold.Chemscore.Lipo>
113.0041

> <Gold.Chemscore.Internal_Hbond>
0.0000

> <Gold.Chemscore.DEClash>
1.6498

> <Gold.Chemscore.DEInternal>
0.7244

> <Gold.Chemscore.Rot>
1.5473

> <Gold.Chemscore.Internal.Correction>
   9.000000E+99

> <Gold.Chemscore.Hbonds>
donor molecule, donor type, donor heavy atom, donor atom, acceptor molecule, acceptor atom, score
      L1  H     7    26       P1  7957  0.74

> <Gold.Chemscore.Hbond.Weighted>
-3.3013

> <Gold.Chemscore.Metal.Weighted>
-0.0000

> <Gold.Chemscore.Lipo.Weighted>
-13.2215

> <Gold.Chemscore.Internal_Hbond.Weighted>
0.0000

> <Gold.Chemscore.DEClash.Weighted>
1.6498

> <Gold.Chemscore.DEInternal.Weighted>
0.7244

> <Gold.Chemscore.Rot.Weighted>
3.9610

> <Gold.Chemscore.Internal.Correction.Weighted>
   9.000000E+99

> <Gold.Protein.RotatedTorsions>
[ 6907 6896 6895 6894 ] final  165.05 input  -60.11 | X-H torsion
[ 7974 7965 7964 7962 ] final   32.97 input  175.53 | X-H torsion
[ 8008 7997 7996 7995 ] final   76.01 input   59.86 | X-H torsion
[ 10167 10162 10161 10158 ] final   47.10 input  -65.29 | X-H torsion
[ 10718 10713 10712 10709 ] final -171.32 input   66.30 | X-H torsion
[ 10763 10752 10751 10750 ] final  -55.57 input  -60.55 | X-H torsion
[ 11005 11000 10999 10996 ] final  107.63 input  -57.11 | X-H torsion

> <Gold.Protein.ActiveResidues>
 VAL166  LYS551  ARG553  GLY616  TRP617  ASP618  TYR619  PRO620  LYS621  CYS622 
 ASP623  PHE694  ASN695  SER759  ASP760  ASP761  ALA762  ILE779  LEU786  VAL792 
 PHE793  MET794  SER795  GLU796  ALA797  LYS798  CYS799  TRP800  GLU811  SER814 

> <Gold.Protein.RotatedAtoms>
  151.9005  133.3537  159.3828 H   0  0  0  0  0  0  0  0  0  0  0  0  # atno 6907 bound_to 6896
  150.7081  134.4833  159.5490 H   0  0  0  0  0  0  0  0  0  0  0  0  # atno 6908 bound_to 6896
  152.2421  134.8219  160.0509 H   0  0  0  0  0  0  0  0  0  0  0  0  # atno 6909 bound_to 6896
  146.1452  139.6457  142.9136 H   0  0  0  0  0  0  0  0  0  0  0  0  # atno 7974 bound_to 7965
  155.8212  140.3470  155.5515 H   0  0  0  0  0  0  0  0  0  0  0  0  # atno 8008 bound_to 7997
  155.8340  140.0931  157.1795 H   0  0  0  0  0  0  0  0  0  0  0  0  # atno 8009 bound_to 7997
  154.4004  140.1407  156.3636 H   0  0  0  0  0  0  0  0  0  0  0  0  # atno 8010 bound_to 7997
  140.3071  144.2865  150.6207 H   0  0  0  0  0  0  0  0  0  0  0  0  # atno 10167 bound_to 10162
  156.7391  130.9335  151.3109 H   0  0  0  0  0  0  0  0  0  0  0  0  # atno 10718 bound_to 10713
  154.1929  135.6424  153.5065 H   0  0  0  0  0  0  0  0  0  0  0  0  # atno 10763 bound_to 10752
  153.0030  135.5433  154.6396 H   0  0  0  0  0  0  0  0  0  0  0  0  # atno 10764 bound_to 10752
  154.5790  135.2923  155.0725 H   0  0  0  0  0  0  0  0  0  0  0  0  # atno 10765 bound_to 10752
  139.8831  134.9406  156.5848 H   0  0  0  0  0  0  0  0  0  0  0  0  # atno 11005 bound_to 11000
  145.4955  141.0438  143.2569 LP  0  0  0  0  0  0  0  0  0  0  0  0  # atno 17320 bound_to 7965
  144.7837  139.6471  143.7143 LP  0  0  0  0  0  0  0  0  0  0  0  0  # atno 17321 bound_to 7965
  140.5601  143.2193  151.7780 LP  0  0  0  0  0  0  0  0  0  0  0  0  # atno 17342 bound_to 10162
  139.4902  144.4361  151.9818 LP  0  0  0  0  0  0  0  0  0  0  0  0  # atno 17343 bound_to 10162
  157.6826  130.9154  150.0305 LP  0  0  0  0  0  0  0  0  0  0  0  0  # atno 17370 bound_to 10713
  156.1477  130.3642  149.9486 LP  0  0  0  0  0  0  0  0  0  0  0  0  # atno 17371 bound_to 10713
  140.7999  133.8513  155.8718 LP  0  0  0  0  0  0  0  0  0  0  0  0  # atno 17394 bound_to 11000
  140.9601  134.1666  157.4660 LP  0  0  0  0  0  0  0  0  0  0  0  0  # atno 17395 bound_to 11000

$$$$
