AV-unprocessed.smi:633|AV-procd|sdf|3132|dock6
  -GOLD-   22720 0 53D 1   1.00000     0.00000
 Structure written by MMmdl.
 53 56  0  0  0  0  0  0  0  0  1 V2000
  151.9036  144.3798  157.5307 C   0  0  0  0  0  0  0  0  0  0  0  0
  151.1406  143.5210  158.5552 C   0  0  1  0  0  0  0  0  0  0  0  0
  150.4806  142.2717  157.9389 C   0  0  0  0  0  0  0  0  0  0  0  0
  151.4749  141.2407  157.6491 N   0  0  0  0  0  0  0  0  0  0  0  0
  151.0830  140.1492  156.8447 C   0  0  0  0  0  0  0  0  0  0  0  0
  151.6950  139.9383  155.5871 C   0  0  0  0  0  0  0  0  0  0  0  0
  151.2918  138.8440  154.7981 C   0  0  0  0  0  0  0  0  0  0  0  0
  150.2766  137.9873  155.2831 C   0  0  0  0  0  0  0  0  0  0  0  0
  149.7995  136.8391  154.5950 N   0  0  0  0  0  0  0  0  0  0  0  0
  149.3695  135.6738  155.1085 C   0  0  0  0  0  0  0  0  0  0  0  0
  149.3605  135.3864  156.3052 O   0  0  0  0  0  0  0  0  0  0  0  0
  148.9637  134.8406  154.1379 N   0  0  0  0  0  0  0  0  0  0  0  0
  148.4426  133.4851  154.3089 C   0  0  0  0  0  0  0  0  0  0  0  0
  149.2497  132.6327  155.2774 C   0  0  0  0  0  0  0  0  0  0  0  0
  150.7487  132.7803  155.3891 C   0  0  0  0  0  0  0  0  0  0  0  0
  150.1535  131.5302  154.7806 C   0  0  0  0  0  0  0  0  0  0  0  0
  148.2104  132.7466  152.9989 C   0  0  0  0  0  0  0  0  0  0  0  0
  147.2643  133.2883  151.9545 C   0  0  0  0  0  0  0  0  0  0  0  0
  146.9073  132.0347  152.7217 C   0  0  0  0  0  0  0  0  0  0  0  0
  149.7327  138.2728  156.5509 C   0  0  0  0  0  0  0  0  0  0  0  0
  150.1142  139.3221  157.3086 N   0  0  0  0  0  0  0  0  0  0  0  0
  152.3108  140.9100  158.7986 C   0  0  0  0  0  0  0  0  0  0  0  0
  152.9661  142.1808  159.3688 C   0  0  2  0  0  0  0  0  0  0  0  0
  153.7414  141.8929  160.6588 C   0  0  0  0  0  0  0  0  0  0  0  0
  151.9600  143.1487  159.6657 O   0  0  0  0  0  0  0  0  0  0  0  0
  151.2259  144.7605  156.7659 H   0  0  0  0  0  0  0  0  0  0  0  0
  152.6840  143.8178  157.0179 H   0  0  0  0  0  0  0  0  0  0  0  0
  152.3703  145.2385  158.0137 H   0  0  0  0  0  0  0  0  0  0  0  0
  150.3462  144.1481  158.9609 H   0  0  0  0  0  0  0  0  0  0  0  0
  149.7468  141.8640  158.6358 H   0  0  0  0  0  0  0  0  0  0  0  0
  149.9425  142.5511  157.0319 H   0  0  0  0  0  0  0  0  0  0  0  0
  152.4583  140.6056  155.2155 H   0  0  0  0  0  0  0  0  0  0  0  0
  151.7765  138.6804  153.8483 H   0  0  0  0  0  0  0  0  0  0  0  0
  149.8322  136.8953  153.5875 H   0  0  0  0  0  0  0  0  0  0  0  0
  149.0192  135.1754  153.1873 H   0  0  0  0  0  0  0  0  0  0  0  0
  147.4615  133.6296  154.7637 H   0  0  0  0  0  0  0  0  0  0  0  0
  148.7358  132.4321  156.2159 H   0  0  0  0  0  0  0  0  0  0  0  0
  151.2455  133.4754  154.7154 H   0  0  0  0  0  0  0  0  0  0  0  0
  151.1880  132.6979  156.3810 H   0  0  0  0  0  0  0  0  0  0  0  0
  150.1962  130.6147  155.3670 H   0  0  0  0  0  0  0  0  0  0  0  0
  150.2524  131.4005  153.7047 H   0  0  0  0  0  0  0  0  0  0  0  0
  149.0991  132.2492  152.6147 H   0  0  0  0  0  0  0  0  0  0  0  0
  146.7130  134.1962  152.1916 H   0  0  0  0  0  0  0  0  0  0  0  0
  147.5517  133.1760  150.9111 H   0  0  0  0  0  0  0  0  0  0  0  0
  146.9570  131.0870  152.1892 H   0  0  0  0  0  0  0  0  0  0  0  0
  146.1144  132.1121  153.4629 H   0  0  0  0  0  0  0  0  0  0  0  0
  148.9623  137.6431  156.9715 H   0  0  0  0  0  0  0  0  0  0  0  0
  151.6867  140.4367  159.5576 H   0  0  0  0  0  0  0  0  0  0  0  0
  153.0887  140.1933  158.5389 H   0  0  0  0  0  0  0  0  0  0  0  0
  153.6662  142.5897  158.6398 H   0  0  0  0  0  0  0  0  0  0  0  0
  154.5340  141.1644  160.4863 H   0  0  0  0  0  0  0  0  0  0  0  0
  153.0846  141.4959  161.4336 H   0  0  0  0  0  0  0  0  0  0  0  0
  154.2033  142.8012  161.0466 H   0  0  0  0  0  0  0  0  0  0  0  0
  1  2  1  0  0  0  0
  1 26  1  0  0  0  0
  1 27  1  0  0  0  0
  1 28  1  0  0  0  0
  2 25  1  0  0  0  0
  2  3  1  0  0  0  0
  2 29  1  0  0  0  0
  3  4  1  0  0  0  0
  3 30  1  0  0  0  0
  3 31  1  0  0  0  0
  4  5  1  0  0  0  0
  4 22  1  0  0  0  0
  5 21  1  0  0  0  0
  5  6  2  0  0  0  0
  6  7  1  0  0  0  0
  6 32  1  0  0  0  0
  7  8  2  0  0  0  0
  7 33  1  0  0  0  0
  8  9  1  0  0  0  0
  8 20  1  0  0  0  0
  9 10  1  0  0  0  0
  9 34  1  0  0  0  0
 10 11  2  0  0  0  0
 10 12  1  0  0  0  0
 12 13  1  0  0  0  0
 12 35  1  0  0  0  0
 13 14  1  0  0  0  0
 13 17  1  0  0  0  0
 13 36  1  0  0  0  0
 14 16  1  0  0  0  0
 14 15  1  0  0  0  0
 14 37  1  0  0  0  0
 15 16  1  0  0  0  0
 15 38  1  0  0  0  0
 15 39  1  0  0  0  0
 16 40  1  0  0  0  0
 16 41  1  0  0  0  0
 17 19  1  0  0  0  0
 17 18  1  0  0  0  0
 17 42  1  0  0  0  0
 18 19  1  0  0  0  0
 18 43  1  0  0  0  0
 18 44  1  0  0  0  0
 19 45  1  0  0  0  0
 19 46  1  0  0  0  0
 20 21  2  0  0  0  0
 20 47  1  0  0  0  0
 22 23  1  0  0  0  0
 22 48  1  0  0  0  0
 22 49  1  0  0  0  0
 23 24  1  0  0  0  0
 23 25  1  0  0  0  0
 23 50  1  0  0  0  0
 24 51  1  0  0  0  0
 24 52  1  0  0  0  0
 24 53  1  0  0  0  0
M  END
> <s_m_source_file>
AV-unprocessed.smi

> <i_m_source_file_index>
633

> <i_lp_mmshare_version>
43012

> <i_f3d_flags>
0

> <s_epik_input>
W0NIM11bQ0BASF0xW0NIMl1OKFtDSDJdW0NASF0oTzEpW0NIM10pYzJbY0hdW2NIXWMoW2NIXW4yKVtOSF1DKD1PKVtOSF1bQ0hdKFtDSF0zW0NIMl1bQ0gyXTMpW0NIXTRbQ0gyXVtDSDJdNA==

> <s_epik_cmdline>
J2VwaWtfcHl0aG9uJywgJy1waCcsICc3LjAnLCAnLXRuJywgJzgnLCAnLW1hJywgJzIwMCcsICctbWV0YWxfYmluZGluZycsICctaW1hZScsICc8aW5maWxlLm1hZT4nLCAnLW9tYWUnLCAnPG91dGZpbGUubWFlPic=

> <r_lp_tautomer_probability>
1

> <r_epik_Ionization_Penalty>
0.00291159

> <r_epik_Ionization_Penalty_Charging>
0

> <r_epik_Ionization_Penalty_Neutral>
0.00291159

> <r_epik_State_Penalty>
0.00200877

> <r_epik_Charging_Adjusted_Penalty>
0.00200877

> <i_epik_Tot_Q>
0

> <i_epik_Tot_abs_Q>
0

> <r_epik_Metal_State_Penalty>
-0

> <b_epik_Metal_Only>
0

> <s_lp_Force_Field>
OPLS_2005

> <r_lp_Energy>
43.3159

> <b_lp_Chiralities_Consistent>
1

> <s_lp_Variant>
AV-unprocessed.smi:633-3

> <Gold.Version>
5.8.1

> <Gold.Id.Protein>
6NUR|6NUR_protein|mol2

> <Gold.PLP.Fitness>
50.2169

> <Gold.PLP.PLP>
-46.2965

> <Gold.PLP.part.hbond>
-2.0000

> <Gold.PLP.part.metal>
0.0000

> <Gold.PLP.part.buried>
-5.4573

> <Gold.PLP.part.nonpolar>
-38.7021

> <Gold.PLP.part.repulsive>
0.0672

> <Gold.PLP.ligand.clash>
0.0000

> <Gold.PLP.ligand.torsion>
2.1343

> <Gold.PLP.Chemscore.Hbond>
1.8960

> <Gold.PLP.Chemscore.CHOScore>
0.0000

> <Gold.PLP.Chemscore.Metal>
0.0000

> <Gold.Chemscore.Hbonds>
donor molecule, donor type, donor heavy atom, donor atom, acceptor molecule, acceptor atom, score
      L1  H     9    34       P1  7948  0.91
      L1  H    12    35       P1  7948  1.00

> <Gold.PLP.Chemscore.Internal.Correction>
2.5010

> <Gold.Rescore>
     Score         DG    S(hbond)    S(metal)    S(lipo)     H(rot)  DE(clash)    DE(int)     intcor
     17.19     -21.66       1.88        0.00     115.30       1.40       0.03       4.44       ----

> <Gold.Chemscore.Fitness>
17.1908

> <Gold.Chemscore.DG>
-21.6612

> <Gold.Chemscore.ZeroCoef>
-5.4800

> <Gold.Chemscore.Hbond>
1.8803

> <Gold.Chemscore.Metal>
0.0000

> <Gold.Chemscore.Lipo>
115.3047

> <Gold.Chemscore.Internal_Hbond>
0.0000

> <Gold.Chemscore.DEClash>
0.0278

> <Gold.Chemscore.DEInternal>
4.4426

> <Gold.Chemscore.Rot>
1.4022

> <Gold.Chemscore.Internal.Correction>
   9.000000E+99

> <Gold.Chemscore.Hbonds>
donor molecule, donor type, donor heavy atom, donor atom, acceptor molecule, acceptor atom, score
      L1  H     9    34       P1  7948  0.42
      L1  H    12    35       P1  7948  0.30

> <Gold.Chemscore.Hbond.Weighted>
-6.2802

> <Gold.Chemscore.Metal.Weighted>
-0.0000

> <Gold.Chemscore.Lipo.Weighted>
-13.4907

> <Gold.Chemscore.Internal_Hbond.Weighted>
0.0000

> <Gold.Chemscore.DEClash.Weighted>
0.0278

> <Gold.Chemscore.DEInternal.Weighted>
4.4426

> <Gold.Chemscore.Rot.Weighted>
3.5897

> <Gold.Chemscore.Internal.Correction.Weighted>
   9.000000E+99

> <Gold.Protein.RotatedTorsions>
[ 6907 6896 6895 6894 ] final  122.81 input  -60.11 | X-H torsion
[ 7974 7965 7964 7962 ] final    9.29 input  175.53 | X-H torsion
[ 8008 7997 7996 7995 ] final  -71.46 input   59.86 | X-H torsion
[ 10167 10162 10161 10158 ] final -146.29 input  -65.29 | X-H torsion
[ 10718 10713 10712 10709 ] final  112.85 input   66.30 | X-H torsion
[ 10763 10752 10751 10750 ] final   80.61 input  -60.55 | X-H torsion
[ 11005 11000 10999 10996 ] final  161.44 input  -57.11 | X-H torsion

> <Gold.Protein.ActiveResidues>
 VAL166  LYS551  ARG553  GLY616  TRP617  ASP618  TYR619  PRO620  LYS621  CYS622 
 ASP623  PHE694  ASN695  SER759  ASP760  ASP761  ALA762  ILE779  LEU786  VAL792 
 PHE793  MET794  SER795  GLU796  ALA797  LYS798  CYS799  TRP800  GLU811  SER814 

> <Gold.Protein.RotatedAtoms>
  152.4213  133.7121  159.6484 H   0  0  0  0  0  0  0  0  0  0  0  0  # atno 6907 bound_to 6896
  150.8089  133.8448  159.3198 H   0  0  0  0  0  0  0  0  0  0  0  0  # atno 6908 bound_to 6896
  151.6163  135.1038  160.0143 H   0  0  0  0  0  0  0  0  0  0  0  0  # atno 6909 bound_to 6896
  146.2405  139.9806  142.8436 H   0  0  0  0  0  0  0  0  0  0  0  0  # atno 7974 bound_to 7965
  154.5090  140.0815  156.7951 H   0  0  0  0  0  0  0  0  0  0  0  0  # atno 8008 bound_to 7997
  155.3829  140.3428  155.4229 H   0  0  0  0  0  0  0  0  0  0  0  0  # atno 8009 bound_to 7997
  156.1550  140.1570  156.8695 H   0  0  0  0  0  0  0  0  0  0  0  0  # atno 8010 bound_to 7997
  139.7726  143.8215  152.2627 H   0  0  0  0  0  0  0  0  0  0  0  0  # atno 10167 bound_to 10162
  157.6370  131.0974  150.6955 H   0  0  0  0  0  0  0  0  0  0  0  0  # atno 10718 bound_to 10713
  153.1048  135.4796  154.8931 H   0  0  0  0  0  0  0  0  0  0  0  0  # atno 10763 bound_to 10752
  154.7418  135.3084  154.8718 H   0  0  0  0  0  0  0  0  0  0  0  0  # atno 10764 bound_to 10752
  153.9324  135.6843  153.4799 H   0  0  0  0  0  0  0  0  0  0  0  0  # atno 10765 bound_to 10752
  140.2158  134.8233  157.3169 H   0  0  0  0  0  0  0  0  0  0  0  0  # atno 11005 bound_to 11000
  145.1595  140.9665  143.4385 LP  0  0  0  0  0  0  0  0  0  0  0  0  # atno 17320 bound_to 7965
  145.0129  139.3493  143.6111 LP  0  0  0  0  0  0  0  0  0  0  0  0  # atno 17321 bound_to 7965
  139.8254  144.7277  150.9518 LP  0  0  0  0  0  0  0  0  0  0  0  0  # atno 17342 bound_to 10162
  140.7815  143.4119  151.0978 LP  0  0  0  0  0  0  0  0  0  0  0  0  # atno 17343 bound_to 10162
  156.7285  130.4702  149.5505 LP  0  0  0  0  0  0  0  0  0  0  0  0  # atno 17370 bound_to 10713
  156.1618  130.6379  151.0728 LP  0  0  0  0  0  0  0  0  0  0  0  0  # atno 17371 bound_to 10713
  140.1902  134.4381  155.7720 LP  0  0  0  0  0  0  0  0  0  0  0  0  # atno 17394 bound_to 11000
  141.2225  133.7023  156.8014 LP  0  0  0  0  0  0  0  0  0  0  0  0  # atno 17395 bound_to 11000

$$$$
