#       Name:                AV-unprocessed.smi:1840
#       Creating user name   scv26
#       Creation time:       Fri Mar 27 09:18:57 2020


#       File generated by GOLD software.
#

@<TRIPOS>MOLECULE
AV-unprocessed.smi:1840
    46    47     1
SMALL
NO_CHARGES


@<TRIPOS>ATOM
      1 ****        -3.8063  -1.5977  -1.4051 C.3            1 S1                 0.0000
      2 ****        -3.1368  -0.8904  -0.2178 C.3            1 S1                 0.0000
      3 ****        -3.5936  -1.4829   1.1293 C.3            1 S1                 0.0000
      4 ****        -3.0767  -0.7363   2.2629 N.pl3          1 S1                 0.0000
      5 ****        -1.9921  -1.0317   3.0619 C.2            1 S1                 0.0000
      6 ****        -1.8849  -0.0331   3.9869 C.2            1 S1                 0.0000
      7 ****        -2.9654   0.8373   3.6706 C.2            1 S1                 0.0000
      8 ****        -3.6770   0.4135   2.6386 N.2            1 S1                 0.0000
      9 ****        -1.6838  -0.9917  -0.3392 N.am           1 S1                 0.0000
     10 ****        -0.8825  -0.0681  -0.8872 C.2            1 S1                 0.0000
     11 ****        -1.2819   0.9766  -1.4015 O.2            1 S1                 0.0000
     12 ****         0.4081  -0.4191  -0.7923 N.am           1 S1                 0.0000
     13 ****         1.5467   0.3631  -1.2717 C.3            1 S1                 0.0000
     14 ****         2.4513  -0.5535  -2.1191 C.3            1 S1                 0.0000
     15 ****         3.7077   0.1811  -2.6078 C.3            1 S1                 0.0000
     16 ****         4.4895   0.7733  -1.4281 C.3            1 S1                 0.0000
     17 ****         3.5990   1.7041  -0.5914 C.3            1 S1                 0.0000
     18 ****         2.3288   0.9886  -0.0868 C.3            1 S1                 0.0000
     19 ****         1.4695   1.9491   0.7556 C.3            1 S1                 0.0000
     20 ****        -4.8919  -1.5148  -1.3475 H              1 S1                 0.0000
     21 ****        -3.5540  -2.6582  -1.4302 H              1 S1                 0.0000
     22 ****        -3.4938  -1.1577  -2.3528 H              1 S1                 0.0000
     23 ****        -3.4356   0.1594  -0.2413 H              1 S1                 0.0000
     24 ****        -4.6831  -1.4846   1.1904 H              1 S1                 0.0000
     25 ****        -3.2757  -2.5226   1.2204 H              1 S1                 0.0000
     26 ****        -1.3909  -1.9147   2.9039 H              1 S1                 0.0000
     27 ****        -1.1467   0.0614   4.7691 H              1 S1                 0.0000
     28 ****        -3.2516   1.7586   4.1564 H              1 S1                 0.0000
     29 ****        -1.2542  -1.8168   0.0529 H              1 S1                 0.0000
     30 ****         0.6251  -1.2982  -0.3461 H              1 S1                 0.0000
     31 ****         1.1982   1.1708  -1.9182 H              1 S1                 0.0000
     32 ****         2.7494  -1.4243  -1.5329 H              1 S1                 0.0000
     33 ****         1.8960  -0.9353  -2.9766 H              1 S1                 0.0000
     34 ****         4.3438  -0.5024  -3.1710 H              1 S1                 0.0000
     35 ****         3.4225   0.9777  -3.2961 H              1 S1                 0.0000
     36 ****         4.8730  -0.0315  -0.7997 H              1 S1                 0.0000
     37 ****         5.3582   1.3204  -1.7952 H              1 S1                 0.0000
     38 ****         4.1714   2.0876   0.2539 H              1 S1                 0.0000
     39 ****         3.3188   2.5712  -1.1911 H              1 S1                 0.0000
     40 ****         2.6495   0.1788   0.5705 H              1 S1                 0.0000
     41 ****         1.0681   2.7584   0.1449 H              1 S1                 0.0000
     42 ****         2.0553   2.3977   1.5583 H              1 S1                 0.0000
     43 ****         0.6284   1.4357   1.2216 H              1 S1                 0.0000
     44 ****        -4.4794   0.8474   2.2288 LP             1 S1                 0.0000
     45 ****        -2.2610   1.1785  -1.4280 LP             1 S1                 0.0000
     46 ****        -0.6273   1.6234  -1.7929 LP             1 S1                 0.0000
@<TRIPOS>BOND
    1    1    2 1     
    2    1   20 1     
    3    1   21 1     
    4    1   22 1     
    5    2    3 1     
    6    2    9 1     
    7    2   23 1     
    8    3    4 1     
    9    3   24 1     
   10    3   25 1     
   11    4    8 1     
   12    4    5 1     
   13    5    6 2     
   14    5   26 1     
   15    6    7 1     
   16    6   27 1     
   17    7    8 2     
   18    7   28 1     
   19    9   10 am    
   20    9   29 1     
   21   10   11 2     
   22   10   12 am    
   23   12   13 1     
   24   12   30 1     
   25   13   18 1     
   26   13   14 1     
   27   13   31 1     
   28   14   15 1     
   29   14   32 1     
   30   14   33 1     
   31   15   16 1     
   32   15   34 1     
   33   15   35 1     
   34   16   17 1     
   35   16   36 1     
   36   16   37 1     
   37   17   18 1     
   38   17   38 1     
   39   17   39 1     
   40   18   19 1     
   41   18   40 1     
   42   19   41 1     
   43   19   42 1     
   44   19   43 1     
   45    8   44 1     
   46   11   45 1     
   47   11   46 1     
@<TRIPOS>SUBSTRUCTURE
      1 S1             1
@<TRIPOS>SET
LONE_PAIRS      STATIC     ATOMS    <user>   **** ""
3 44 45 46
DONOR_HYDROGENS      STATIC     ATOMS    <user>   **** ""
2 29 30
ATOM$BLUE        STATIC     ATOMS    COLORGROUP SYSTEM
3 44 45 46
ATOM$RED        STATIC     ATOMS    COLORGROUP SYSTEM
2 29 30
