AV-unprocessed.smi:1695|AV-procd|sdf|6792|dock6
  -GOLD-   22720 7553D 1   1.00000     0.00000
 Structure written by MMmdl.
 51 53  0  0  0  0  0  0  0  0  2 V2000
  152.4061  143.1765  160.8165 C   0  0  0  0  0  0  0  0  0  0  0  0
  152.0528  142.5132  159.4970 C   0  0  0  0  0  0  0  0  0  0  0  0
  152.2548  141.1225  159.3508 C   0  0  0  0  0  0  0  0  0  0  0  0
  151.9393  140.4681  158.1400 C   0  0  0  0  0  0  0  0  0  0  0  0
  152.0536  139.1356  157.7829 N   0  0  0  0  0  0  0  0  0  0  0  0
  151.5976  139.1530  156.5346 C   0  0  0  0  0  0  0  0  0  0  0  0
  151.2139  140.3432  156.0327 N   0  0  0  0  0  0  0  0  0  0  0  0
  150.6936  140.6048  154.6999 C   0  0  0  0  0  0  0  0  0  0  0  0
  149.3479  141.3643  154.6913 C   0  0  1  0  0  0  0  0  0  0  0  0
  148.7447  141.2181  153.4201 O   0  0  0  0  0  0  0  0  0  0  0  0
  148.3599  140.8697  155.7719 C   0  0  0  0  0  0  0  0  0  0  0  0
  147.3921  141.9148  156.1933 N   0  3  1  0  0  0  0  0  0  0  0  0
  146.2884  142.0886  155.2139 C   0  0  0  0  0  0  0  0  0  0  0  0
  145.3899  143.2761  155.5972 C   0  0  0  0  0  0  0  0  0  0  0  0
  144.8202  143.1102  157.0195 C   0  0  2  0  0  0  0  0  0  0  0  0
  143.9781  144.3286  157.4213 C   0  0  0  0  0  0  0  0  0  0  0  0
  144.6131  145.4966  157.5456 N   0  0  0  0  0  0  0  0  0  0  0  0
  142.7693  144.2178  157.6178 O   0  0  0  0  0  0  0  0  0  0  0  0
  145.9844  142.8914  158.0048 C   0  0  0  0  0  0  0  0  0  0  0  0
  146.8660  141.7096  157.5690 C   0  0  0  0  0  0  0  0  0  0  0  0
  151.4133  141.2494  157.0696 C   0  0  0  0  0  0  0  0  0  0  0  0
  151.2051  142.6333  157.2045 C   0  0  0  0  0  0  0  0  0  0  0  0
  151.5258  143.2714  158.4209 C   0  0  0  0  0  0  0  0  0  0  0  0
  151.2992  144.7669  158.5548 C   0  0  0  0  0  0  0  0  0  0  0  0
  152.8041  142.4556  161.5313 H   0  0  0  0  0  0  0  0  0  0  0  0
  151.5233  143.6362  161.2613 H   0  0  0  0  0  0  0  0  0  0  0  0
  153.1609  143.9485  160.6661 H   0  0  0  0  0  0  0  0  0  0  0  0
  152.6541  140.5441  160.1711 H   0  0  0  0  0  0  0  0  0  0  0  0
  151.5476  138.2485  155.9464 H   0  0  0  0  0  0  0  0  0  0  0  0
  151.4413  141.1808  154.1530 H   0  0  0  0  0  0  0  0  0  0  0  0
  150.5978  139.6547  154.1720 H   0  0  0  0  0  0  0  0  0  0  0  0
  149.5703  142.4217  154.8283 H   0  0  0  0  0  0  0  0  0  0  0  0
  149.0464  140.4145  153.0254 H   0  0  0  0  0  0  0  0  0  0  0  0
  147.8176  140.0072  155.3804 H   0  0  0  0  0  0  0  0  0  0  0  0
  148.9017  140.5126  156.6493 H   0  0  0  0  0  0  0  0  0  0  0  0
  146.7003  142.2630  154.2191 H   0  0  0  0  0  0  0  0  0  0  0  0
  145.7008  141.1709  155.1576 H   0  0  0  0  0  0  0  0  0  0  0  0
  145.9680  144.1992  155.5253 H   0  0  0  0  0  0  0  0  0  0  0  0
  144.5766  143.3653  154.8757 H   0  0  0  0  0  0  0  0  0  0  0  0
  144.1827  142.2241  157.0355 H   0  0  0  0  0  0  0  0  0  0  0  0
  144.1031  146.3275  157.8086 H   0  0  0  0  0  0  0  0  0  0  0  0
  145.6077  145.5449  157.3756 H   0  0  0  0  0  0  0  0  0  0  0  0
  146.5990  143.7908  158.0738 H   0  0  0  0  0  0  0  0  0  0  0  0
  145.5964  142.7055  159.0075 H   0  0  0  0  0  0  0  0  0  0  0  0
  146.2924  140.7818  157.6060 H   0  0  0  0  0  0  0  0  0  0  0  0
  147.6838  141.5995  158.2798 H   0  0  0  0  0  0  0  0  0  0  0  0
  150.8037  143.1994  156.3769 H   0  0  0  0  0  0  0  0  0  0  0  0
  150.8935  145.1911  157.6358 H   0  0  0  0  0  0  0  0  0  0  0  0
  152.2372  145.2779  158.7727 H   0  0  0  0  0  0  0  0  0  0  0  0
  150.5942  144.9761  159.3596 H   0  0  0  0  0  0  0  0  0  0  0  0
  147.9003  142.7876  156.1958 H   0  0  0  0  0  0  0  0  0  0  0  0
  1  2  1  0  0  0  0
  1 25  1  0  0  0  0
  1 26  1  0  0  0  0
  1 27  1  0  0  0  0
  2 23  1  0  0  0  0
  2  3  2  0  0  0  0
  3  4  1  0  0  0  0
  3 28  1  0  0  0  0
  4 21  2  0  0  0  0
  4  5  1  0  0  0  0
  5  6  2  0  0  0  0
  6  7  1  0  0  0  0
  6 29  1  0  0  0  0
  7  8  1  0  0  0  0
  7 21  1  0  0  0  0
  8  9  1  0  0  0  0
  8 30  1  0  0  0  0
  8 31  1  0  0  0  0
  9 10  1  0  0  0  0
  9 11  1  0  0  0  0
  9 32  1  0  0  0  0
 10 33  1  0  0  0  0
 11 12  1  0  0  0  0
 11 34  1  0  0  0  0
 11 35  1  0  0  0  0
 12 20  1  0  0  0  0
 12 13  1  0  0  0  0
 12 51  1  0  0  0  0
 13 14  1  0  0  0  0
 13 36  1  0  0  0  0
 13 37  1  0  0  0  0
 14 15  1  0  0  0  0
 14 38  1  0  0  0  0
 14 39  1  0  0  0  0
 15 16  1  0  0  0  0
 15 19  1  0  0  0  0
 15 40  1  0  0  0  0
 16 17  1  0  0  0  0
 16 18  2  0  0  0  0
 17 41  1  0  0  0  0
 17 42  1  0  0  0  0
 19 20  1  0  0  0  0
 19 43  1  0  0  0  0
 19 44  1  0  0  0  0
 20 45  1  0  0  0  0
 20 46  1  0  0  0  0
 21 22  1  0  0  0  0
 22 23  2  0  0  0  0
 22 47  1  0  0  0  0
 23 24  1  0  0  0  0
 24 48  1  0  0  0  0
 24 49  1  0  0  0  0
 24 50  1  0  0  0  0
M  CHG  1  12   1
M  END
> <s_m_source_file>
AV-unprocessed.smi

> <i_m_source_file_index>
1695

> <i_lp_mmshare_version>
43012

> <i_f3d_flags>
0

> <s_epik_input>
W0NIM11jKFtjSF0xKWMoW0NIM10pW2NIXWMoYzEyKW4oW2NIXW4yKVtDSDJdW0NASF0oW09IXSlbQ0gyXU4zW0NIMl1bQ0gyXVtDSF0oQyg9TylbTkgyXSlbQ0gyXVtDSDJdMw==

> <s_epik_cmdline>
J2VwaWtfcHl0aG9uJywgJy1waCcsICc3LjAnLCAnLXRuJywgJzgnLCAnLW1hJywgJzIwMCcsICctbWV0YWxfYmluZGluZycsICctaW1hZScsICc8aW5maWxlLm1hZT4nLCAnLW9tYWUnLCAnPG91dGZpbGUubWFlPic=

> <r_epik_Ionization_Penalty>
0.113899

> <r_epik_Ionization_Penalty_Charging>
0.0258844

> <r_epik_Ionization_Penalty_Neutral>
0.0880147

> <r_epik_State_Penalty>
0.0974403

> <r_epik_Charging_Adjusted_Penalty>
0.123325

> <i_epik_Tot_Q>
1

> <i_epik_Tot_abs_Q>
1

> <r_epik_Metal_State_Penalty>
0.0851148

> <b_epik_Metal_Only>
0

> <s_lp_Force_Field>
OPLS_2005

> <r_lp_Energy>
20.1405

> <b_lp_Chiralities_Consistent>
1

> <s_lp_Variant>
AV-unprocessed.smi:1695-4

> <Gold.Version>
5.8.1

> <Gold.Id.Protein>
6NUR|6NUR_protein|mol2

> <Gold.PLP.Fitness>
53.2973

> <Gold.PLP.PLP>
-41.3725

> <Gold.PLP.part.hbond>
-4.0000

> <Gold.PLP.part.metal>
0.0000

> <Gold.PLP.part.buried>
-1.8819

> <Gold.PLP.part.nonpolar>
-33.7581

> <Gold.PLP.part.repulsive>
0.0111

> <Gold.PLP.ligand.clash>
0.0000

> <Gold.PLP.ligand.torsion>
0.7647

> <Gold.PLP.Chemscore.Hbond>
4.4672

> <Gold.PLP.Chemscore.CHOScore>
0.0000

> <Gold.PLP.Chemscore.Metal>
0.0000

> <Gold.Chemscore.Hbonds>
donor molecule, donor type, donor heavy atom, donor atom, acceptor molecule, acceptor atom, score
      L1  H    10    33       P1  7957  0.59
      L1  H    12    51       P1  8028  1.07
      L1  H    17    42       P1  8029  0.45
      P1  H  8011  8017       L1    10  0.80

> <Gold.PLP.Chemscore.Internal.Correction>
0.0526

> <Gold.Rescore>
     Score         DG    S(hbond)    S(metal)    S(lipo)     H(rot)  DE(clash)    DE(int)     intcor
     14.88     -17.34       1.91        0.00     109.04       2.85       1.62       0.85       ----

> <Gold.Chemscore.Fitness>
14.8811

> <Gold.Chemscore.DG>
-17.3432

> <Gold.Chemscore.ZeroCoef>
-5.4800

> <Gold.Chemscore.Hbond>
1.9139

> <Gold.Chemscore.Metal>
0.0000

> <Gold.Chemscore.Lipo>
109.0393

> <Gold.Chemscore.Internal_Hbond>
0.0000

> <Gold.Chemscore.DEClash>
1.6165

> <Gold.Chemscore.DEInternal>
0.8457

> <Gold.Chemscore.Rot>
2.8464

> <Gold.Chemscore.Internal.Correction>
   9.000000E+99

> <Gold.Chemscore.Hbonds>
donor molecule, donor type, donor heavy atom, donor atom, acceptor molecule, acceptor atom, score
      L1  H    10    33       P1  7957  0.58
      L1  H    12    51       P1  8028  0.27
      L1  H    17    42       P1  8029  0.10
      P1  H  8011  8017       L1    10  0.05

> <Gold.Chemscore.Hbond.Weighted>
-6.3923

> <Gold.Chemscore.Metal.Weighted>
-0.0000

> <Gold.Chemscore.Lipo.Weighted>
-12.7576

> <Gold.Chemscore.Internal_Hbond.Weighted>
0.0000

> <Gold.Chemscore.DEClash.Weighted>
1.6165

> <Gold.Chemscore.DEInternal.Weighted>
0.8457

> <Gold.Chemscore.Rot.Weighted>
7.2867

> <Gold.Chemscore.Internal.Correction.Weighted>
   9.000000E+99

> <Gold.Protein.RotatedTorsions>
[ 6907 6896 6895 6894 ] final  165.17 input  -60.11 | X-H torsion
[ 7974 7965 7964 7962 ] final  175.65 input  175.53 | X-H torsion
[ 8008 7997 7996 7995 ] final -105.89 input   59.86 | X-H torsion
[ 10167 10162 10161 10158 ] final  -36.23 input  -65.29 | X-H torsion
[ 10718 10713 10712 10709 ] final    8.53 input   66.30 | X-H torsion
[ 10763 10752 10751 10750 ] final  150.07 input  -60.55 | X-H torsion
[ 11005 11000 10999 10996 ] final  143.53 input  -57.11 | X-H torsion

> <Gold.Protein.ActiveResidues>
 VAL166  LYS551  ARG553  GLY616  TRP617  ASP618  TYR619  PRO620  LYS621  CYS622 
 ASP623  PHE694  ASN695  SER759  ASP760  ASP761  ALA762  ILE779  LEU786  VAL792 
 PHE793  MET794  SER795  GLU796  ALA797  LYS798  CYS799  TRP800  GLU811  SER814 

> <Gold.Protein.RotatedAtoms>
  151.8985  133.3532  159.3822 H   0  0  0  0  0  0  0  0  0  0  0  0  # atno 6907 bound_to 6896
  150.7086  134.4852  159.5499 H   0  0  0  0  0  0  0  0  0  0  0  0  # atno 6908 bound_to 6896
  152.2436  134.8204  160.0507 H   0  0  0  0  0  0  0  0  0  0  0  0  # atno 6909 bound_to 6896
  144.7198  139.9979  143.6440 H   0  0  0  0  0  0  0  0  0  0  0  0  # atno 7974 bound_to 7965
  154.9065  140.0411  157.1922 H   0  0  0  0  0  0  0  0  0  0  0  0  # atno 8008 bound_to 7997
  154.8391  140.2911  155.5650 H   0  0  0  0  0  0  0  0  0  0  0  0  # atno 8009 bound_to 7997
  156.2991  140.2486  156.3331 H   0  0  0  0  0  0  0  0  0  0  0  0  # atno 8010 bound_to 7997
  140.7147  143.3423  151.2331 H   0  0  0  0  0  0  0  0  0  0  0  0  # atno 10167 bound_to 10162
  156.9530  130.5904  149.5658 H   0  0  0  0  0  0  0  0  0  0  0  0  # atno 10718 bound_to 10713
  154.0814  135.2859  155.3289 H   0  0  0  0  0  0  0  0  0  0  0  0  # atno 10763 bound_to 10752
  154.6681  135.5309  153.8106 H   0  0  0  0  0  0  0  0  0  0  0  0  # atno 10764 bound_to 10752
  153.0447  135.6551  154.0989 H   0  0  0  0  0  0  0  0  0  0  0  0  # atno 10765 bound_to 10752
  140.0561  134.9230  157.1102 H   0  0  0  0  0  0  0  0  0  0  0  0  # atno 11005 bound_to 11000
  146.0359  139.3377  143.0727 LP  0  0  0  0  0  0  0  0  0  0  0  0  # atno 17320 bound_to 7965
  145.8395  140.9588  143.0807 LP  0  0  0  0  0  0  0  0  0  0  0  0  # atno 17321 bound_to 7965
  139.6934  143.9654  152.2870 LP  0  0  0  0  0  0  0  0  0  0  0  0  # atno 17342 bound_to 10162
  139.9323  144.6733  150.8350 LP  0  0  0  0  0  0  0  0  0  0  0  0  # atno 17343 bound_to 10162
  156.0354  130.5442  150.8641 LP  0  0  0  0  0  0  0  0  0  0  0  0  # atno 17370 bound_to 10713
  157.5709  131.0946  150.9419 LP  0  0  0  0  0  0  0  0  0  0  0  0  # atno 17371 bound_to 10713
  140.3842  134.2254  155.7169 LP  0  0  0  0  0  0  0  0  0  0  0  0  # atno 17394 bound_to 11000
  141.1952  133.8110  157.0723 LP  0  0  0  0  0  0  0  0  0  0  0  0  # atno 17395 bound_to 11000

$$$$
