AV-unprocessed.smi:1809|AV-procd|sdf|7318|dock2
  -GOLD-   22720 8573D 1   1.00000     0.00000
 Structure written by MMmdl.
 39 41  0  0  0  0  0  0  0  0  1 V2000
  150.3406  131.3980  155.4794 C   0  0  0  0  0  0  0  0  0  0  0  0
  150.2520  132.7642  156.0689 C   0  0  0  0  0  0  0  0  0  0  0  0
  150.1923  132.9831  157.3883 N   0  0  0  0  0  0  0  0  0  0  0  0
  150.1211  134.3349  157.6947 N   0  0  0  0  0  0  0  0  0  0  0  0
  150.1307  135.0983  156.5933 C   0  0  0  0  0  0  0  0  0  0  0  0
  150.0689  136.5168  156.6153 N   0  0  0  0  0  0  0  0  0  0  0  0
  150.2916  137.3449  157.6511 C   0  0  0  0  0  0  0  0  0  0  0  0
  150.5954  136.9921  158.7907 O   0  0  0  0  0  0  0  0  0  0  0  0
  150.1442  138.6261  157.2850 N   0  0  0  0  0  0  0  0  0  0  0  0
  150.3536  139.7827  158.1499 C   0  0  0  0  0  0  0  0  0  0  0  0
  151.5894  140.5957  157.7104 C   0  0  1  0  0  0  0  0  0  0  0  0
  151.6417  142.0048  158.3484 C   0  0  0  0  0  0  0  0  0  0  0  0
  152.0559  141.9280  159.7365 N   0  0  0  0  0  0  0  0  0  0  0  0
  152.2397  143.1818  160.4304 C   0  0  0  0  0  0  0  0  0  0  0  0
  153.0482  142.8068  161.6840 C   0  0  0  0  0  0  0  0  0  0  0  0
  153.7048  141.4548  161.3279 C   0  0  0  0  0  0  0  0  0  0  0  0
  153.3280  141.2697  159.8565 C   0  0  1  0  0  0  0  0  0  0  0  0
  153.2452  139.8337  159.3237 C   0  0  0  0  0  0  0  0  0  0  0  0
  152.8119  139.8828  157.9602 O   0  0  0  0  0  0  0  0  0  0  0  0
  150.2236  134.2176  155.0776 S   0  0  0  0  0  0  0  0  0  0  0  0
  150.1503  130.6380  156.2381 H   0  0  0  0  0  0  0  0  0  0  0  0
  151.3354  131.2366  155.0641 H   0  0  0  0  0  0  0  0  0  0  0  0
  149.6053  131.2864  154.6825 H   0  0  0  0  0  0  0  0  0  0  0  0
  149.8360  136.9531  155.7357 H   0  0  0  0  0  0  0  0  0  0  0  0
  149.8905  138.8192  156.3273 H   0  0  0  0  0  0  0  0  0  0  0  0
  149.4639  140.4079  158.0732 H   0  0  0  0  0  0  0  0  0  0  0  0
  150.4209  139.4883  159.1981 H   0  0  0  0  0  0  0  0  0  0  0  0
  151.5219  140.7289  156.6301 H   0  0  0  0  0  0  0  0  0  0  0  0
  152.3483  142.6218  157.7912 H   0  0  0  0  0  0  0  0  0  0  0  0
  150.6715  142.4967  158.2713 H   0  0  0  0  0  0  0  0  0  0  0  0
  152.8143  143.8739  159.8124 H   0  0  0  0  0  0  0  0  0  0  0  0
  151.2863  143.6533  160.6702 H   0  0  0  0  0  0  0  0  0  0  0  0
  153.7873  143.5730  161.9199 H   0  0  0  0  0  0  0  0  0  0  0  0
  152.3947  142.6933  162.5497 H   0  0  0  0  0  0  0  0  0  0  0  0
  154.7849  141.4591  161.4778 H   0  0  0  0  0  0  0  0  0  0  0  0
  153.2797  140.6581  161.9401 H   0  0  0  0  0  0  0  0  0  0  0  0
  154.0629  141.8105  159.2562 H   0  0  0  0  0  0  0  0  0  0  0  0
  154.2200  139.3483  159.3715 H   0  0  0  0  0  0  0  0  0  0  0  0
  152.5596  139.2342  159.9224 H   0  0  0  0  0  0  0  0  0  0  0  0
  1  2  1  0  0  0  0
  1 21  1  0  0  0  0
  1 22  1  0  0  0  0
  1 23  1  0  0  0  0
  2 20  1  0  0  0  0
  2  3  2  0  0  0  0
  3  4  1  0  0  0  0
  4  5  2  0  0  0  0
  5  6  1  0  0  0  0
  5 20  1  0  0  0  0
  6  7  1  0  0  0  0
  6 24  1  0  0  0  0
  7  8  2  0  0  0  0
  7  9  1  0  0  0  0
  9 10  1  0  0  0  0
  9 25  1  0  0  0  0
 10 11  1  0  0  0  0
 10 26  1  0  0  0  0
 10 27  1  0  0  0  0
 11 19  1  0  0  0  0
 11 12  1  0  0  0  0
 11 28  1  0  0  0  0
 12 13  1  0  0  0  0
 12 29  1  0  0  0  0
 12 30  1  0  0  0  0
 13 17  1  0  0  0  0
 13 14  1  0  0  0  0
 14 15  1  0  0  0  0
 14 31  1  0  0  0  0
 14 32  1  0  0  0  0
 15 16  1  0  0  0  0
 15 33  1  0  0  0  0
 15 34  1  0  0  0  0
 16 17  1  0  0  0  0
 16 35  1  0  0  0  0
 16 36  1  0  0  0  0
 17 18  1  0  0  0  0
 17 37  1  0  0  0  0
 18 19  1  0  0  0  0
 18 38  1  0  0  0  0
 18 39  1  0  0  0  0
M  END
> <s_m_source_file>
AV-unprocessed.smi

> <i_m_source_file_index>
1809

> <i_lp_mmshare_version>
43012

> <i_f3d_flags>
0

> <s_epik_input>
W0NIM11jMW5uYyhzMSlbTkhdQyg9TylbTkhdW0NIMl1bQ0BIXShbQ0gyXTIpT1tDSDJdW0NAQEhdKE4yMylbQ0gyXVtDSDJdW0NIMl0z

> <s_epik_cmdline>
J2VwaWtfcHl0aG9uJywgJy1waCcsICc3LjAnLCAnLXRuJywgJzgnLCAnLW1hJywgJzIwMCcsICctbWV0YWxfYmluZGluZycsICctaW1hZScsICc8aW5maWxlLm1hZT4nLCAnLW9tYWUnLCAnPG91dGZpbGUubWFlPic=

> <r_lp_tautomer_probability>
1

> <r_epik_Ionization_Penalty>
1.05954

> <r_epik_Ionization_Penalty_Charging>
0

> <r_epik_Ionization_Penalty_Neutral>
1.05954

> <r_epik_State_Penalty>
1.4238

> <r_epik_Charging_Adjusted_Penalty>
1.4238

> <i_epik_Tot_Q>
0

> <i_epik_Tot_abs_Q>
0

> <r_epik_Metal_State_Penalty>
1.7901

> <b_epik_Metal_Only>
0

> <s_lp_Force_Field>
OPLS_2005

> <r_lp_Energy>
48.8115

> <b_lp_Chiralities_Consistent>
1

> <s_lp_Variant>
AV-unprocessed.smi:1809-10

> <Gold.Version>
5.8.1

> <Gold.Id.Protein>
6NUR|6NUR_protein|mol2

> <Gold.PLP.Fitness>
38.1417

> <Gold.PLP.PLP>
-33.2804

> <Gold.PLP.part.hbond>
-3.4228

> <Gold.PLP.part.metal>
0.0000

> <Gold.PLP.part.buried>
-5.3775

> <Gold.PLP.part.nonpolar>
-24.2374

> <Gold.PLP.part.repulsive>
0.0734

> <Gold.PLP.ligand.clash>
0.0000

> <Gold.PLP.ligand.torsion>
0.1677

> <Gold.PLP.Chemscore.Hbond>
1.7296

> <Gold.PLP.Chemscore.CHOScore>
0.0000

> <Gold.PLP.Chemscore.Metal>
0.0000

> <Gold.Chemscore.Hbonds>
donor molecule, donor type, donor heavy atom, donor atom, acceptor molecule, acceptor atom, score
      P1  H  6896  6909       L1     4  0.73
      P1  H  7997  8008       L1    19  1.00

> <Gold.PLP.Chemscore.Internal.Correction>
0.0079

> <Gold.Rescore>
     Score         DG    S(hbond)    S(metal)    S(lipo)     H(rot)  DE(clash)    DE(int)     intcor
     13.81     -15.27       1.02        0.00      83.50       1.32       0.00       1.47       ----

> <Gold.Chemscore.Fitness>
13.8059

> <Gold.Chemscore.DG>
-15.2726

> <Gold.Chemscore.ZeroCoef>
-5.4800

> <Gold.Chemscore.Hbond>
1.0184

> <Gold.Chemscore.Metal>
0.0000

> <Gold.Chemscore.Lipo>
83.4991

> <Gold.Chemscore.Internal_Hbond>
0.0000

> <Gold.Chemscore.DEClash>
0.0000

> <Gold.Chemscore.DEInternal>
1.4667

> <Gold.Chemscore.Rot>
1.3196

> <Gold.Chemscore.Internal.Correction>
   9.000000E+99

> <Gold.Chemscore.Hbonds>
donor molecule, donor type, donor heavy atom, donor atom, acceptor molecule, acceptor atom, score
      P1  H  6896  6909       L1     4  0.16
      P1  H  7997  8008       L1    19  0.66

> <Gold.Chemscore.Hbond.Weighted>
-3.4015

> <Gold.Chemscore.Metal.Weighted>
-0.0000

> <Gold.Chemscore.Lipo.Weighted>
-9.7694

> <Gold.Chemscore.Internal_Hbond.Weighted>
0.0000

> <Gold.Chemscore.DEClash.Weighted>
0.0000

> <Gold.Chemscore.DEInternal.Weighted>
1.4667

> <Gold.Chemscore.Rot.Weighted>
3.3783

> <Gold.Chemscore.Internal.Correction.Weighted>
   9.000000E+99

> <Gold.Protein.RotatedTorsions>
[ 6907 6896 6895 6894 ] final   29.96 input  -60.11 | X-H torsion
[ 7974 7965 7964 7962 ] final  103.95 input  175.53 | X-H torsion
[ 8008 7997 7996 7995 ] final  -63.64 input   59.86 | X-H torsion
[ 10167 10162 10161 10158 ] final  174.36 input  -65.29 | X-H torsion
[ 10718 10713 10712 10709 ] final   -0.64 input   66.30 | X-H torsion
[ 10763 10752 10751 10750 ] final   86.84 input  -60.55 | X-H torsion
[ 11005 11000 10999 10996 ] final   13.28 input  -57.11 | X-H torsion

> <Gold.Protein.ActiveResidues>
 VAL166  LYS551  ARG553  GLY616  TRP617  ASP618  TYR619  PRO620  LYS621  CYS622 
 ASP623  PHE694  ASN695  SER759  ASP760  ASP761  ALA762  ILE779  LEU786  VAL792 
 PHE793  MET794  SER795  GLU796  ALA797  LYS798  CYS799  TRP800  GLU811  SER814 

> <Gold.Protein.RotatedAtoms>
  152.0391  134.9722  160.0573 H   0  0  0  0  0  0  0  0  0  0  0  0  # atno 6907 bound_to 6896
  152.1167  133.4326  159.4665 H   0  0  0  0  0  0  0  0  0  0  0  0  # atno 6908 bound_to 6896
  150.6846  134.2502  159.4551 H   0  0  0  0  0  0  0  0  0  0  0  0  # atno 6909 bound_to 6896
  145.3391  139.2467  143.3619 H   0  0  0  0  0  0  0  0  0  0  0  0  # atno 7974 bound_to 7965
  154.4566  140.0970  156.6774 H   0  0  0  0  0  0  0  0  0  0  0  0  # atno 8008 bound_to 7997
  155.5120  140.3476  155.4372 H   0  0  0  0  0  0  0  0  0  0  0  0  # atno 8009 bound_to 7997
  156.0789  140.1368  156.9726 H   0  0  0  0  0  0  0  0  0  0  0  0  # atno 8010 bound_to 7997
  139.5139  144.3156  152.0251 H   0  0  0  0  0  0  0  0  0  0  0  0  # atno 10167 bound_to 10162
  156.8174  130.5445  149.5701 H   0  0  0  0  0  0  0  0  0  0  0  0  # atno 10718 bound_to 10713
  153.1609  135.4566  154.9770 H   0  0  0  0  0  0  0  0  0  0  0  0  # atno 10763 bound_to 10752
  154.7897  135.3216  154.7809 H   0  0  0  0  0  0  0  0  0  0  0  0  # atno 10764 bound_to 10752
  153.8299  135.6939  153.4870 H   0  0  0  0  0  0  0  0  0  0  0  0  # atno 10765 bound_to 10752
  140.4826  134.0920  155.7754 H   0  0  0  0  0  0  0  0  0  0  0  0  # atno 11005 bound_to 11000
  146.3014  140.3985  142.8702 LP  0  0  0  0  0  0  0  0  0  0  0  0  # atno 17320 bound_to 7965
  144.8804  140.7392  143.5990 LP  0  0  0  0  0  0  0  0  0  0  0  0  # atno 17321 bound_to 7965
  140.2599  144.4078  150.6189 LP  0  0  0  0  0  0  0  0  0  0  0  0  # atno 17342 bound_to 10162
  140.6165  143.2173  151.6782 LP  0  0  0  0  0  0  0  0  0  0  0  0  # atno 17343 bound_to 10162
  156.1009  130.5968  150.9891 LP  0  0  0  0  0  0  0  0  0  0  0  0  # atno 17370 bound_to 10713
  157.6474  131.0902  150.8123 LP  0  0  0  0  0  0  0  0  0  0  0  0  # atno 17371 bound_to 10713
  141.1524  133.8945  157.2064 LP  0  0  0  0  0  0  0  0  0  0  0  0  # atno 17394 bound_to 11000
  139.9817  135.0096  156.9766 LP  0  0  0  0  0  0  0  0  0  0  0  0  # atno 17395 bound_to 11000

$$$$
