AV-unprocessed.smi:72|AV-procd|sdf|677|dock1
  -GOLD-   2262016583D 1   1.00000     0.00000
 Structure written by MMmdl.
 29 30  0  0  0  0  0  0  0  0  1 V2000
  154.2291  138.1803  154.9092 N   0  0  0  0  0  0  0  0  0  0  0  0
  152.9586  138.3753  154.9021 C   0  0  0  0  0  0  0  0  0  0  0  0
  152.0076  137.5025  154.3525 N   0  0  0  0  0  0  0  0  0  0  0  0
  150.7527  137.8260  154.4175 C   0  0  0  0  0  0  0  0  0  0  0  0
  150.3020  139.0621  155.0423 N   0  0  0  0  0  0  0  0  0  0  0  0
  148.8345  139.4443  155.1262 C   0  0  2  0  0  0  0  0  0  0  0  0
  148.0345  138.3489  154.7806 O   0  0  0  0  0  0  0  0  0  0  0  0
  147.4233  138.5657  153.5114 C   0  0  1  0  0  0  0  0  0  0  0  0
  146.1420  137.7257  153.4017 C   0  0  0  0  0  0  0  0  0  0  0  0
  145.4066  138.1127  152.2606 O   0  0  0  0  0  0  0  0  0  0  0  0
  147.1707  140.0722  153.5450 C   0  0  2  0  0  0  0  0  0  0  0  0
  146.9029  140.6212  152.2682 O   0  0  0  0  0  0  0  0  0  0  0  0
  148.4472  140.6105  154.1851 C   0  0  2  0  0  0  0  0  0  0  0  0
  149.4411  140.9196  153.2192 O   0  0  0  0  0  0  0  0  0  0  0  0
  151.2507  139.9561  155.5950 C   0  0  0  0  0  0  0  0  0  0  0  0
  150.9239  141.0211  156.1184 O   0  0  0  0  0  0  0  0  0  0  0  0
  152.5417  139.5709  155.5024 N   0  0  0  0  0  0  0  0  0  0  0  0
  148.6492  139.6630  156.1793 H   0  0  0  0  0  0  0  0  0  0  0  0
  148.1233  138.3285  152.7079 H   0  0  0  0  0  0  0  0  0  0  0  0
  146.3267  140.2840  154.2036 H   0  0  0  0  0  0  0  0  0  0  0  0
  148.2502  141.5062  154.7750 H   0  0  0  0  0  0  0  0  0  0  0  0
  154.4566  137.3041  154.4624 H   0  0  0  0  0  0  0  0  0  0  0  0
  149.9662  137.1923  154.0083 H   0  0  0  0  0  0  0  0  0  0  0  0
  146.3677  136.6595  153.3659 H   0  0  0  0  0  0  0  0  0  0  0  0
  145.5066  137.8937  154.2718 H   0  0  0  0  0  0  0  0  0  0  0  0
  144.9939  138.9443  152.4372 H   0  0  0  0  0  0  0  0  0  0  0  0
  147.7111  140.6510  151.7793 H   0  0  0  0  0  0  0  0  0  0  0  0
  149.3703  140.3011  152.5083 H   0  0  0  0  0  0  0  0  0  0  0  0
  153.2403  140.1891  155.8878 H   0  0  0  0  0  0  0  0  0  0  0  0
  1  2  2  0  0  0  0
  1 22  1  0  0  0  0
  2 17  1  0  0  0  0
  2  3  1  0  0  0  0
  3  4  2  0  0  0  0
  4  5  1  0  0  0  0
  4 23  1  0  0  0  0
  5  6  1  0  0  0  0
  5 15  1  0  0  0  0
  6 18  1  0  0  0  0
  6 13  1  0  0  0  0
  6  7  1  0  0  0  0
  7  8  1  0  0  0  0
  8 19  1  0  0  0  0
  8  9  1  0  0  0  0
  8 11  1  0  0  0  0
  9 10  1  0  0  0  0
  9 24  1  0  0  0  0
  9 25  1  0  0  0  0
 10 26  1  0  0  0  0
 11 20  1  0  0  0  0
 11 12  1  0  0  0  0
 11 13  1  0  0  0  0
 12 27  1  0  0  0  0
 13 21  1  0  0  0  0
 13 14  1  0  0  0  0
 14 28  1  0  0  0  0
 15 16  2  0  0  0  0
 15 17  1  0  0  0  0
 17 29  1  0  0  0  0
M  END
> <s_m_source_file>
AV-unprocessed.smi

> <i_m_source_file_index>
72

> <i_lp_mmshare_version>
43012

> <i_f3d_flags>
0

> <s_epik_input>
W05IMl1jMW5bY0hdbihjKD1PKW4xKVtDQEBIXTJPW0NASF0oW0NIMl1bT0hdKVtDQEBIXShbT0hdKVtDQEhdMltPSF0=

> <s_epik_cmdline>
J2VwaWtfcHl0aG9uJywgJy1waCcsICc3LjAnLCAnLXRuJywgJzgnLCAnLW1hJywgJzIwMCcsICctbWV0YWxfYmluZGluZycsICctaW1hZScsICc8aW5maWxlLm1hZT4nLCAnLW9tYWUnLCAnPG91dGZpbGUubWFlPic=

> <r_lp_tautomer_probability>
7.17554e-07

> <r_epik_Ionization_Penalty>
0.0066451

> <r_epik_Ionization_Penalty_Charging>
0.00663793

> <r_epik_Ionization_Penalty_Neutral>
7.17052e-06

> <r_epik_State_Penalty>
0.419231

> <r_epik_Charging_Adjusted_Penalty>
0.425868

> <i_epik_Tot_Q>
0

> <i_epik_Tot_abs_Q>
0

> <r_epik_Metal_State_Penalty>
1.44144

> <b_epik_Metal_Only>
0

> <s_epik_Chemistry_Notes>
This compound contains an acetal/aminal-like group ( X-CH(R)-Y where X, Y are N, S, or O) that may be acid/base labile, releasing an aldehyde.

> <s_lp_Force_Field>
OPLS_2005

> <r_lp_Energy>
48.3326

> <b_lp_Chiralities_Consistent>
1

> <s_lp_Variant>
AV-unprocessed.smi:72-15

> <Gold.Version>
5.8.1

> <Gold.Id.Protein>
6NUR|6NUR_protein|mol2

> <Gold.PLP.Fitness>
45.3828

> <Gold.PLP.PLP>
-28.5960

> <Gold.PLP.part.hbond>
-8.4142

> <Gold.PLP.part.metal>
0.0000

> <Gold.PLP.part.buried>
-5.2371

> <Gold.PLP.part.nonpolar>
-17.2840

> <Gold.PLP.part.repulsive>
1.1590

> <Gold.PLP.ligand.clash>
0.0000

> <Gold.PLP.ligand.torsion>
0.2812

> <Gold.PLP.Chemscore.Hbond>
4.7569

> <Gold.PLP.Chemscore.CHOScore>
1.0000

> <Gold.PLP.Chemscore.Metal>
0.0000

> <Gold.Chemscore.Hbonds>
donor molecule, donor type, donor heavy atom, donor atom, acceptor molecule, acceptor atom, score
      L1  H    10    26       P1 10175  1.00
      L1  H    12    27       P1  7957  0.94
      L1  H    14    28       P1  7957  0.60
      P1  H  7989  7998       L1    14  0.12
      P1  H  7997  8010       L1     1  0.14
      P1  H  8011  8017       L1    14  1.00
      P1  H 10752 10763       L1     3  0.82
      L1  C     4    23       P1  7948  1.00

> <Gold.PLP.Chemscore.Internal.Correction>
0.0783

> <Gold.Rescore>
     Score         DG    S(hbond)    S(metal)    S(lipo)     H(rot)  DE(clash)    DE(int)     intcor
      8.97      -9.35       3.51        0.00      21.80       4.06       0.14       0.24       ----

> <Gold.Chemscore.Fitness>
8.9662

> <Gold.Chemscore.DG>
-9.3469

> <Gold.Chemscore.ZeroCoef>
-5.4800

> <Gold.Chemscore.Hbond>
3.5061

> <Gold.Chemscore.Metal>
0.0000

> <Gold.Chemscore.Lipo>
21.7965

> <Gold.Chemscore.Internal_Hbond>
0.0000

> <Gold.Chemscore.DEClash>
0.1388

> <Gold.Chemscore.DEInternal>
0.2419

> <Gold.Chemscore.Rot>
4.0600

> <Gold.Chemscore.Internal.Correction>
   9.000000E+99

> <Gold.Chemscore.Hbonds>
donor molecule, donor type, donor heavy atom, donor atom, acceptor molecule, acceptor atom, score
      L1  H    10    26       P1 10175  0.96
      L1  H    12    27       P1  7957  0.89
      L1  H    14    28       P1  7957  0.58
      P1  H  7989  7998       L1    14  0.02
      P1  H  7997  8010       L1     1  0.01
      P1  H  8011  8017       L1    14  0.26
      P1  H 10752 10763       L1     3  0.38

> <Gold.Chemscore.Hbond.Weighted>
-11.7103

> <Gold.Chemscore.Metal.Weighted>
-0.0000

> <Gold.Chemscore.Lipo.Weighted>
-2.5502

> <Gold.Chemscore.Internal_Hbond.Weighted>
0.0000

> <Gold.Chemscore.DEClash.Weighted>
0.1388

> <Gold.Chemscore.DEInternal.Weighted>
0.2419

> <Gold.Chemscore.Rot.Weighted>
10.3936

> <Gold.Chemscore.Internal.Correction.Weighted>
   9.000000E+99

> <Gold.Protein.RotatedTorsions>
[ 6907 6896 6895 6894 ] final  -42.39 input  -60.11 | X-H torsion
[ 7974 7965 7964 7962 ] final -146.59 input  175.53 | X-H torsion
[ 8008 7997 7996 7995 ] final  106.81 input   59.86 | X-H torsion
[ 10167 10162 10161 10158 ] final  -76.00 input  -65.29 | X-H torsion
[ 10718 10713 10712 10709 ] final  -10.01 input   66.30 | X-H torsion
[ 10763 10752 10751 10750 ] final   39.22 input  -60.55 | X-H torsion
[ 11005 11000 10999 10996 ] final -111.31 input  -57.11 | X-H torsion

> <Gold.Protein.ActiveResidues>
 VAL166  LYS551  ARG553  GLY616  TRP617  ASP618  TYR619  PRO620  LYS621  CYS622 
 ASP623  PHE694  ASN695  SER759  ASP760  ASP761  ALA762  ILE779  LEU786  VAL792 
 PHE793  MET794  SER795  GLU796  ALA797  LYS798  CYS799  TRP800  GLU811  SER814 

> <Gold.Protein.RotatedAtoms>
  150.9558  134.8952  159.7699 H   0  0  0  0  0  0  0  0  0  0  0  0  # atno 6907 bound_to 6896
  152.5137  134.3743  159.9339 H   0  0  0  0  0  0  0  0  0  0  0  0  # atno 6908 bound_to 6896
  151.3757  133.3798  159.2739 H   0  0  0  0  0  0  0  0  0  0  0  0  # atno 6909 bound_to 6896
  144.8149  140.5436  143.5617 H   0  0  0  0  0  0  0  0  0  0  0  0  # atno 7974 bound_to 7965
  156.1773  140.3106  155.9083 H   0  0  0  0  0  0  0  0  0  0  0  0  # atno 8008 bound_to 7997
  155.3459  140.0468  157.3062 H   0  0  0  0  0  0  0  0  0  0  0  0  # atno 8009 bound_to 7997
  154.5304  140.2228  155.8824 H   0  0  0  0  0  0  0  0  0  0  0  0  # atno 8010 bound_to 7997
  140.4894  143.2383  151.7931 H   0  0  0  0  0  0  0  0  0  0  0  0  # atno 10167 bound_to 10162
  156.6797  130.5033  149.5975 H   0  0  0  0  0  0  0  0  0  0  0  0  # atno 10718 bound_to 10713
  152.9974  135.6227  154.2431 H   0  0  0  0  0  0  0  0  0  0  0  0  # atno 10763 bound_to 10752
  154.2171  135.2797  155.2940 H   0  0  0  0  0  0  0  0  0  0  0  0  # atno 10764 bound_to 10752
  154.5559  135.5719  153.7022 H   0  0  0  0  0  0  0  0  0  0  0  0  # atno 10765 bound_to 10752
  141.0741  133.9330  157.2425 H   0  0  0  0  0  0  0  0  0  0  0  0  # atno 11005 bound_to 11000
  145.5237  139.1476  143.3538 LP  0  0  0  0  0  0  0  0  0  0  0  0  # atno 17320 bound_to 7965
  146.2452  140.5378  142.8917 LP  0  0  0  0  0  0  0  0  0  0  0  0  # atno 17321 bound_to 7965
  139.4848  144.4669  151.9473 LP  0  0  0  0  0  0  0  0  0  0  0  0  # atno 17342 bound_to 10162
  140.3755  144.2802  150.5914 LP  0  0  0  0  0  0  0  0  0  0  0  0  # atno 17343 bound_to 10162
  156.1877  130.6539  151.1025 LP  0  0  0  0  0  0  0  0  0  0  0  0  # atno 17370 bound_to 10713
  157.7048  131.0761  150.6703 LP  0  0  0  0  0  0  0  0  0  0  0  0  # atno 17371 bound_to 10713
  139.9554  135.0166  156.9113 LP  0  0  0  0  0  0  0  0  0  0  0  0  # atno 17394 bound_to 11000
  140.5610  134.0535  155.7399 LP  0  0  0  0  0  0  0  0  0  0  0  0  # atno 17395 bound_to 11000

$$$$
