AV-unprocessed.smi:2692|AV-procd|sdf|10394|dock7
  -GOLD-   2272014433D 1   1.00000     0.00000
 Structure written by MMmdl.
 21 21  0  0  0  0  0  0  0  0  4 V2000
  146.2163  139.4109  152.1521 N   0  3  0  0  0  0  0  0  0  0  0  0
  147.0380  140.0997  153.1617 C   0  0  0  0  0  0  0  0  0  0  0  0
  148.2240  139.2311  153.6060 C   0  0  0  0  0  0  0  0  0  0  0  0
  149.2221  140.0079  154.4429 C   0  0  0  0  0  0  0  0  0  0  0  0
  148.9623  141.3427  154.8247 C   0  0  0  0  0  0  0  0  0  0  0  0
  149.8619  142.0177  155.5741 N   0  3  0  0  0  0  0  0  0  0  0  0
  151.0253  141.4719  155.9900 C   0  0  0  0  0  0  0  0  0  0  0  0
  151.3388  140.1433  155.6400 C   0  0  0  0  0  0  0  0  0  0  0  0
  152.5080  139.5787  156.0550 O   0  5  0  0  0  0  0  0  0  0  0  0
  150.4300  139.4037  154.8561 C   0  0  0  0  0  0  0  0  0  0  0  0
  146.6106  139.5653  151.2348 H   0  0  0  0  0  0  0  0  0  0  0  0
  145.2746  139.7756  152.1769 H   0  0  0  0  0  0  0  0  0  0  0  0
  147.3934  141.0412  152.7416 H   0  0  0  0  0  0  0  0  0  0  0  0
  146.4049  140.3462  154.0148 H   0  0  0  0  0  0  0  0  0  0  0  0
  147.8689  138.3806  154.1897 H   0  0  0  0  0  0  0  0  0  0  0  0
  148.7327  138.8167  152.7343 H   0  0  0  0  0  0  0  0  0  0  0  0
  148.0699  141.8892  154.5563 H   0  0  0  0  0  0  0  0  0  0  0  0
  151.6637  142.1088  156.5849 H   0  0  0  0  0  0  0  0  0  0  0  0
  149.6558  142.9811  155.8386 H   0  0  0  0  0  0  0  0  0  0  0  0
  150.6568  138.3845  154.5781 H   0  0  0  0  0  0  0  0  0  0  0  0
  146.1986  138.4202  152.3476 H   0  0  0  0  0  0  0  0  0  0  0  0
  1  2  1  0  0  0  0
  1 11  1  0  0  0  0
  1 12  1  0  0  0  0
  1 21  1  0  0  0  0
  2  3  1  0  0  0  0
  2 13  1  0  0  0  0
  2 14  1  0  0  0  0
  3 15  1  0  0  0  0
  3 16  1  0  0  0  0
  3  4  1  0  0  0  0
  4  5  1  0  0  0  0
  4 10  2  0  0  0  0
  5  6  2  0  0  0  0
  5 17  1  0  0  0  0
  6  7  1  0  0  0  0
  6 19  1  0  0  0  0
  7  8  2  0  0  0  0
  7 18  1  0  0  0  0
  8  9  1  0  0  0  0
  8 10  1  0  0  0  0
 10 20  1  0  0  0  0
M  CHG  1   1   1
M  CHG  1   6   1
M  CHG  1   9  -1
M  END
> <s_m_source_file>
AV-unprocessed.smi

> <i_m_source_file_index>
2692

> <i_lp_mmshare_version>
43012

> <i_f3d_flags>
0

> <s_epik_input>
W05IMl1bQ0gyXVtDSDJdYzFbY0hdbltjSF1jKFtPSF0pW2NIXTE=

> <s_epik_cmdline>
J2VwaWtfcHl0aG9uJywgJy1waCcsICc3LjAnLCAnLXRuJywgJzgnLCAnLW1hJywgJzIwMCcsICctbWV0YWxfYmluZGluZycsICctaW1hZScsICc8aW5maWxlLm1hZT4nLCAnLW9tYWUnLCAnPG91dGZpbGUubWFlPic=

> <r_lp_tautomer_probability>
0.56342

> <r_epik_Ionization_Penalty>
0.0470523

> <r_epik_Ionization_Penalty_Charging>
0.0470523

> <r_epik_Ionization_Penalty_Neutral>
0

> <r_epik_State_Penalty>
0.376149

> <r_epik_Charging_Adjusted_Penalty>
0.423201

> <i_epik_Tot_Q>
1

> <i_epik_Tot_abs_Q>
3

> <r_epik_Metal_State_Penalty>
2.7829

> <b_epik_Metal_Only>
0

> <s_lp_Force_Field>
OPLS_2005

> <r_lp_Energy>
5.09983

> <b_lp_Chiralities_Consistent>
1

> <s_lp_Variant>
AV-unprocessed.smi:2692-1

> <Gold.Version>
5.8.1

> <Gold.Id.Protein>
6NUR|6NUR_protein|mol2

> <Gold.PLP.Fitness>
39.5544

> <Gold.PLP.PLP>
-21.6595

> <Gold.PLP.part.hbond>
-3.0000

> <Gold.PLP.part.metal>
0.0000

> <Gold.PLP.part.buried>
0.7213

> <Gold.PLP.part.nonpolar>
-17.6767

> <Gold.PLP.part.repulsive>
0.2133

> <Gold.PLP.ligand.clash>
0.0000

> <Gold.PLP.ligand.torsion>
0.0526

> <Gold.PLP.Chemscore.Hbond>
6.0000

> <Gold.PLP.Chemscore.CHOScore>
0.0000

> <Gold.PLP.Chemscore.Metal>
0.0000

> <Gold.Chemscore.Hbonds>
donor molecule, donor type, donor heavy atom, donor atom, acceptor molecule, acceptor atom, score
      L1  H     1    12       P1 10175  2.00
      L1  H     6    19       P1  8028  2.00
      P1  H  7997  8010       L1     9  2.00

> <Gold.PLP.Chemscore.Internal.Correction>
0.0002

> <Gold.Rescore>
     Score         DG    S(hbond)    S(metal)    S(lipo)     H(rot)  DE(clash)    DE(int)     intcor
     17.60     -17.65       3.00        0.00      48.25       1.36       0.04       0.01       ----

> <Gold.Chemscore.Fitness>
17.6012

> <Gold.Chemscore.DG>
-17.6513

> <Gold.Chemscore.ZeroCoef>
-5.4800

> <Gold.Chemscore.Hbond>
2.9998

> <Gold.Chemscore.Metal>
0.0000

> <Gold.Chemscore.Lipo>
48.2519

> <Gold.Chemscore.Internal_Hbond>
0.0000

> <Gold.Chemscore.DEClash>
0.0411

> <Gold.Chemscore.DEInternal>
0.0091

> <Gold.Chemscore.Rot>
1.3646

> <Gold.Chemscore.Internal.Correction>
   9.000000E+99

> <Gold.Chemscore.Hbonds>
donor molecule, donor type, donor heavy atom, donor atom, acceptor molecule, acceptor atom, score
      L1  H     1    12       P1 10175  0.93
      L1  H     6    19       P1  8028  0.98
      P1  H  7997  8010       L1     9  0.99

> <Gold.Chemscore.Hbond.Weighted>
-10.0193

> <Gold.Chemscore.Metal.Weighted>
-0.0000

> <Gold.Chemscore.Lipo.Weighted>
-5.6455

> <Gold.Chemscore.Internal_Hbond.Weighted>
0.0000

> <Gold.Chemscore.DEClash.Weighted>
0.0411

> <Gold.Chemscore.DEInternal.Weighted>
0.0091

> <Gold.Chemscore.Rot.Weighted>
3.4934

> <Gold.Chemscore.Internal.Correction.Weighted>
   9.000000E+99

> <Gold.Protein.RotatedTorsions>
[ 6907 6896 6895 6894 ] final  -57.06 input  -60.11 | X-H torsion
[ 7974 7965 7964 7962 ] final  177.12 input  175.53 | X-H torsion
[ 8008 7997 7996 7995 ] final   75.43 input   59.86 | X-H torsion
[ 10167 10162 10161 10158 ] final -142.28 input  -65.29 | X-H torsion
[ 10718 10713 10712 10709 ] final  126.01 input   66.30 | X-H torsion
[ 10763 10752 10751 10750 ] final   36.46 input  -60.55 | X-H torsion
[ 11005 11000 10999 10996 ] final   15.71 input  -57.11 | X-H torsion

> <Gold.Protein.ActiveResidues>
 VAL166  LYS551  ARG553  GLY616  TRP617  ASP618  TYR619  PRO620  LYS621  CYS622 
 ASP623  PHE694  ASN695  SER759  ASP760  ASP761  ALA762  ILE779  LEU786  VAL792 
 PHE793  MET794  SER795  GLU796  ALA797  LYS798  CYS799  TRP800  GLU811  SER814 

> <Gold.Protein.RotatedAtoms>
  150.8117  134.7275  159.6693 H   0  0  0  0  0  0  0  0  0  0  0  0  # atno 6907 bound_to 6896
  152.4237  134.5905  159.9983 H   0  0  0  0  0  0  0  0  0  0  0  0  # atno 6908 bound_to 6896
  151.6113  133.3310  159.3104 H   0  0  0  0  0  0  0  0  0  0  0  0  # atno 6909 bound_to 6896
  144.7174  140.0199  143.6440 H   0  0  0  0  0  0  0  0  0  0  0  0  # atno 7974 bound_to 7965
  155.8128  140.3472  155.5468 H   0  0  0  0  0  0  0  0  0  0  0  0  # atno 8008 bound_to 7997
  155.8423  140.0943  157.1747 H   0  0  0  0  0  0  0  0  0  0  0  0  # atno 8009 bound_to 7997
  154.4005  140.1392  156.3731 H   0  0  0  0  0  0  0  0  0  0  0  0  # atno 8010 bound_to 7997
  139.8103  143.7712  152.2663 H   0  0  0  0  0  0  0  0  0  0  0  0  # atno 10167 bound_to 10162
  157.5455  131.1096  150.8789 H   0  0  0  0  0  0  0  0  0  0  0  0  # atno 10718 bound_to 10713
  153.0076  135.6305  154.1990 H   0  0  0  0  0  0  0  0  0  0  0  0  # atno 10763 bound_to 10752
  154.1733  135.2817  155.3076 H   0  0  0  0  0  0  0  0  0  0  0  0  # atno 10764 bound_to 10752
  154.5892  135.5623  153.7321 H   0  0  0  0  0  0  0  0  0  0  0  0  # atno 10765 bound_to 10752
  140.4553  134.1183  155.7708 H   0  0  0  0  0  0  0  0  0  0  0  0  # atno 11005 bound_to 11000
  146.0189  139.3234  143.0825 LP  0  0  0  0  0  0  0  0  0  0  0  0  # atno 17320 bound_to 7965
  145.8592  140.9485  143.0709 LP  0  0  0  0  0  0  0  0  0  0  0  0  # atno 17321 bound_to 7965
  139.7859  144.7428  151.0023 LP  0  0  0  0  0  0  0  0  0  0  0  0  # atno 17342 bound_to 10162
  140.7818  143.4493  151.0436 LP  0  0  0  0  0  0  0  0  0  0  0  0  # atno 17343 bound_to 10162
  156.9329  130.5356  149.5279 LP  0  0  0  0  0  0  0  0  0  0  0  0  # atno 17370 bound_to 10713
  156.0532  130.5598  150.9034 LP  0  0  0  0  0  0  0  0  0  0  0  0  # atno 17371 bound_to 10713
  141.1646  133.8728  157.1752 LP  0  0  0  0  0  0  0  0  0  0  0  0  # atno 17394 bound_to 11000
  139.9980  135.0039  157.0127 LP  0  0  0  0  0  0  0  0  0  0  0  0  # atno 17395 bound_to 11000

$$$$
