AV-unprocessed.smi:3332|AV-procd|sdf|12830|dock7
  -GOLD-   2272019213D 1   1.00000     0.00000
 Structure written by MMmdl.
 41 42  0  0  0  0  0  0  0  0  1 V2000
  153.8547  141.3693  160.1522 C   0  0  0  0  0  0  0  0  0  0  0  0
  152.6233  142.2751  160.0469 C   0  0  0  0  0  0  0  0  0  0  0  0
  151.7895  141.9654  158.8388 C   0  0  0  0  0  0  0  0  0  0  0  0
  151.3239  140.6621  158.6456 N   0  0  0  0  0  0  0  0  0  0  0  0
  150.5967  140.5316  157.5337 C   0  0  0  0  0  0  0  0  0  0  0  0
  150.0369  139.2264  157.0639 C   0  0  0  0  0  0  0  0  0  0  0  0
  150.2573  138.0598  158.0463 C   0  0  0  0  0  0  0  0  0  0  0  0
  149.0454  137.7425  158.7994 N   0  0  0  0  0  0  0  0  0  0  0  0
  148.5567  136.5093  159.0058 C   0  0  0  0  0  0  0  0  0  0  0  0
  149.0232  135.4989  158.4784 O   0  0  0  0  0  0  0  0  0  0  0  0
  147.3731  136.4082  159.9759 C   0  0  0  0  0  0  0  0  0  0  0  0
  147.6220  135.4922  161.1966 C   0  0  1  0  0  0  0  0  0  0  0  0
  146.5951  135.6380  162.2947 C   0  0  0  0  0  0  0  0  0  0  0  0
  146.0427  134.4786  162.6423 C   0  0  0  0  0  0  0  0  0  0  0  0
  146.5824  133.3231  161.8470 C   0  0  0  0  0  0  0  0  0  0  0  0
  147.5568  133.9833  160.8452 C   0  0  0  0  0  0  0  0  0  0  0  0
  150.4485  142.0298  156.6274 S   0  0  0  0  0  0  0  0  0  0  0  0
  151.4081  142.8347  157.8432 C   0  0  0  0  0  0  0  0  0  0  0  0
  151.7307  144.2869  157.7249 C   0  0  0  0  0  0  0  0  0  0  0  0
  154.4410  141.6126  161.0383 H   0  0  0  0  0  0  0  0  0  0  0  0
  154.5031  141.4825  159.2827 H   0  0  0  0  0  0  0  0  0  0  0  0
  153.5651  140.3203  160.2212 H   0  0  0  0  0  0  0  0  0  0  0  0
  152.0277  142.1762  160.9546 H   0  0  0  0  0  0  0  0  0  0  0  0
  152.9450  143.3170  160.0187 H   0  0  0  0  0  0  0  0  0  0  0  0
  148.9681  139.3562  156.8891 H   0  0  0  0  0  0  0  0  0  0  0  0
  150.4771  138.9850  156.0963 H   0  0  0  0  0  0  0  0  0  0  0  0
  150.5752  137.1712  157.5006 H   0  0  0  0  0  0  0  0  0  0  0  0
  151.0776  138.3083  158.7216 H   0  0  0  0  0  0  0  0  0  0  0  0
  148.5884  138.5124  159.2659 H   0  0  0  0  0  0  0  0  0  0  0  0
  147.1224  137.4117  160.3248 H   0  0  0  0  0  0  0  0  0  0  0  0
  146.5072  136.0493  159.4186 H   0  0  0  0  0  0  0  0  0  0  0  0
  148.5976  135.7170  161.6304 H   0  0  0  0  0  0  0  0  0  0  0  0
  146.3666  136.5907  162.7493 H   0  0  0  0  0  0  0  0  0  0  0  0
  145.2979  134.3510  163.4141 H   0  0  0  0  0  0  0  0  0  0  0  0
  147.0951  132.6240  162.5084 H   0  0  0  0  0  0  0  0  0  0  0  0
  145.7735  132.7959  161.3399 H   0  0  0  0  0  0  0  0  0  0  0  0
  147.1918  133.8342  159.8281 H   0  0  0  0  0  0  0  0  0  0  0  0
  148.5453  133.5255  160.8967 H   0  0  0  0  0  0  0  0  0  0  0  0
  151.4129  144.8271  158.6169 H   0  0  0  0  0  0  0  0  0  0  0  0
  151.2314  144.7346  156.8653 H   0  0  0  0  0  0  0  0  0  0  0  0
  152.8044  144.4341  157.6041 H   0  0  0  0  0  0  0  0  0  0  0  0
  1  2  1  0  0  0  0
  1 20  1  0  0  0  0
  1 21  1  0  0  0  0
  1 22  1  0  0  0  0
  2  3  1  0  0  0  0
  2 23  1  0  0  0  0
  2 24  1  0  0  0  0
  3 18  2  0  0  0  0
  3  4  1  0  0  0  0
  4  5  2  0  0  0  0
  5  6  1  0  0  0  0
  5 17  1  0  0  0  0
  6  7  1  0  0  0  0
  6 25  1  0  0  0  0
  6 26  1  0  0  0  0
  7  8  1  0  0  0  0
  7 27  1  0  0  0  0
  7 28  1  0  0  0  0
  8  9  1  0  0  0  0
  8 29  1  0  0  0  0
  9 10  2  0  0  0  0
  9 11  1  0  0  0  0
 11 12  1  0  0  0  0
 11 30  1  0  0  0  0
 11 31  1  0  0  0  0
 12 16  1  0  0  0  0
 12 13  1  0  0  0  0
 12 32  1  0  0  0  0
 13 14  2  0  0  0  0
 13 33  1  0  0  0  0
 14 15  1  0  0  0  0
 14 34  1  0  0  0  0
 15 16  1  0  0  0  0
 15 35  1  0  0  0  0
 15 36  1  0  0  0  0
 16 37  1  0  0  0  0
 16 38  1  0  0  0  0
 17 18  1  0  0  0  0
 18 19  1  0  0  0  0
 19 39  1  0  0  0  0
 19 40  1  0  0  0  0
 19 41  1  0  0  0  0
M  END
> <s_m_source_file>
AV-unprocessed.smi

> <i_m_source_file_index>
3332

> <i_lp_mmshare_version>
43012

> <i_f3d_flags>
0

> <s_epik_input>
W0NIM11bQ0gyXWMxbmMoc2MxW0NIM10pW0NIMl1bQ0gyXVtOSF1DKD1PKVtDSDJdW0NAQEhdMltDSF09W0NIXVtDSDJdW0NIMl0y

> <s_epik_cmdline>
J2VwaWtfcHl0aG9uJywgJy1waCcsICc3LjAnLCAnLXRuJywgJzgnLCAnLW1hJywgJzIwMCcsICctbWV0YWxfYmluZGluZycsICctaW1hZScsICc8aW5maWxlLm1hZT4nLCAnLW9tYWUnLCAnPG91dGZpbGUubWFlPic=

> <r_epik_Ionization_Penalty>
0.00221844

> <r_epik_Ionization_Penalty_Charging>
0

> <r_epik_Ionization_Penalty_Neutral>
0.00221844

> <r_epik_State_Penalty>
0.00152607

> <r_epik_Charging_Adjusted_Penalty>
0.00152607

> <i_epik_Tot_Q>
0

> <i_epik_Tot_abs_Q>
0

> <r_epik_Metal_State_Penalty>
-0

> <b_epik_Metal_Only>
0

> <s_lp_Force_Field>
OPLS_2005

> <r_lp_Energy>
6.79719

> <b_lp_Chiralities_Consistent>
1

> <s_lp_Variant>
AV-unprocessed.smi:3332-2

> <Gold.Version>
5.8.1

> <Gold.Id.Protein>
6NUR|6NUR_protein|mol2

> <Gold.PLP.Fitness>
44.7248

> <Gold.PLP.PLP>
-42.7390

> <Gold.PLP.part.hbond>
-1.0000

> <Gold.PLP.part.metal>
0.0000

> <Gold.PLP.part.buried>
-6.0889

> <Gold.PLP.part.nonpolar>
-37.2427

> <Gold.PLP.part.repulsive>
0.2391

> <Gold.PLP.ligand.clash>
0.0000

> <Gold.PLP.ligand.torsion>
0.5310

> <Gold.PLP.Chemscore.Hbond>
1.0000

> <Gold.PLP.Chemscore.CHOScore>
0.0000

> <Gold.PLP.Chemscore.Metal>
0.0000

> <Gold.Chemscore.Hbonds>
donor molecule, donor type, donor heavy atom, donor atom, acceptor molecule, acceptor atom, score
      P1  H  6896  6907       L1    10  0.62

> <Gold.PLP.Chemscore.Internal.Correction>
0.0478

> <Gold.Rescore>
     Score         DG    S(hbond)    S(metal)    S(lipo)     H(rot)  DE(clash)    DE(int)     intcor
     18.59     -19.27       1.00        0.00     122.37       1.51       0.17       0.51       ----

> <Gold.Chemscore.Fitness>
18.5874

> <Gold.Chemscore.DG>
-19.2702

> <Gold.Chemscore.ZeroCoef>
-5.4800

> <Gold.Chemscore.Hbond>
0.9999

> <Gold.Chemscore.Metal>
0.0000

> <Gold.Chemscore.Lipo>
122.3659

> <Gold.Chemscore.Internal_Hbond>
0.0000

> <Gold.Chemscore.DEClash>
0.1745

> <Gold.Chemscore.DEInternal>
0.5083

> <Gold.Chemscore.Rot>
1.5103

> <Gold.Chemscore.Internal.Correction>
   9.000000E+99

> <Gold.Chemscore.Hbonds>
donor molecule, donor type, donor heavy atom, donor atom, acceptor molecule, acceptor atom, score
      P1  H  6896  6907       L1    10  0.59

> <Gold.Chemscore.Hbond.Weighted>
-3.3397

> <Gold.Chemscore.Metal.Weighted>
-0.0000

> <Gold.Chemscore.Lipo.Weighted>
-14.3168

> <Gold.Chemscore.Internal_Hbond.Weighted>
0.0000

> <Gold.Chemscore.DEClash.Weighted>
0.1745

> <Gold.Chemscore.DEInternal.Weighted>
0.5083

> <Gold.Chemscore.Rot.Weighted>
3.8664

> <Gold.Chemscore.Internal.Correction.Weighted>
   9.000000E+99

> <Gold.Protein.RotatedTorsions>
[ 6907 6896 6895 6894 ] final  -81.41 input  -60.11 | X-H torsion
[ 7974 7965 7964 7962 ] final -124.68 input  175.53 | X-H torsion
[ 8008 7997 7996 7995 ] final   20.45 input   59.86 | X-H torsion
[ 10167 10162 10161 10158 ] final  -43.87 input  -65.29 | X-H torsion
[ 10718 10713 10712 10709 ] final  108.92 input   66.30 | X-H torsion
[ 10763 10752 10751 10750 ] final  -16.00 input  -60.55 | X-H torsion
[ 11005 11000 10999 10996 ] final -113.05 input  -57.11 | X-H torsion

> <Gold.Protein.ActiveResidues>
 VAL166  LYS551  ARG553  GLY616  TRP617  ASP618  TYR619  PRO620  LYS621  CYS622 
 ASP623  PHE694  ASN695  SER759  ASP760  ASP761  ALA762  ILE779  LEU786  VAL792 
 PHE793  MET794  SER795  GLU796  ALA797  LYS798  CYS799  TRP800  GLU811  SER814 

> <Gold.Protein.RotatedAtoms>
  150.6912  134.3821  159.5038 H   0  0  0  0  0  0  0  0  0  0  0  0  # atno 6907 bound_to 6896
  152.1622  134.8900  160.0550 H   0  0  0  0  0  0  0  0  0  0  0  0  # atno 6908 bound_to 6896
  151.9957  133.3772  159.4199 H   0  0  0  0  0  0  0  0  0  0  0  0  # atno 6909 bound_to 6896
  145.0055  140.7859  143.4470 H   0  0  0  0  0  0  0  0  0  0  0  0  # atno 7974 bound_to 7965
  154.9358  140.3046  155.5145 H   0  0  0  0  0  0  0  0  0  0  0  0  # atno 8008 bound_to 7997
  156.3000  140.2345  156.4359 H   0  0  0  0  0  0  0  0  0  0  0  0  # atno 8009 bound_to 7997
  154.8193  140.0424  157.1388 H   0  0  0  0  0  0  0  0  0  0  0  0  # atno 8010 bound_to 7997
  140.6918  143.2960  151.3414 H   0  0  0  0  0  0  0  0  0  0  0  0  # atno 10167 bound_to 10162
  157.6565  131.0903  150.6376 H   0  0  0  0  0  0  0  0  0  0  0  0  # atno 10718 bound_to 10713
  153.5519  135.7011  153.5587 H   0  0  0  0  0  0  0  0  0  0  0  0  # atno 10763 bound_to 10752
  153.3508  135.3996  155.1644 H   0  0  0  0  0  0  0  0  0  0  0  0  # atno 10764 bound_to 10752
  154.8660  135.3765  154.5030 H   0  0  0  0  0  0  0  0  0  0  0  0  # atno 10765 bound_to 10752
  141.0638  133.9492  157.2618 H   0  0  0  0  0  0  0  0  0  0  0  0  # atno 11005 bound_to 11000
  145.2094  139.2212  143.5151 LP  0  0  0  0  0  0  0  0  0  0  0  0  # atno 17320 bound_to 7965
  146.3460  140.1929  142.8589 LP  0  0  0  0  0  0  0  0  0  0  0  0  # atno 17321 bound_to 7965
  139.6328  144.0687  152.2491 LP  0  0  0  0  0  0  0  0  0  0  0  0  # atno 17342 bound_to 10162
  140.0167  144.6183  150.7601 LP  0  0  0  0  0  0  0  0  0  0  0  0  # atno 17343 bound_to 10162
  156.6682  130.4532  149.5665 LP  0  0  0  0  0  0  0  0  0  0  0  0  # atno 17370 bound_to 10713
  156.2017  130.6624  151.1174 LP  0  0  0  0  0  0  0  0  0  0  0  0  # atno 17371 bound_to 10713
  139.9457  135.0184  156.8844 LP  0  0  0  0  0  0  0  0  0  0  0  0  # atno 17394 bound_to 11000
  140.5815  134.0347  155.7466 LP  0  0  0  0  0  0  0  0  0  0  0  0  # atno 17395 bound_to 11000

$$$$
