#       Name:                AV-unprocessed.smi:2288
#       Creating user name   scv26
#       Creation time:       Fri Mar 27 12:42:27 2020


#       File generated by GOLD software.
#

@<TRIPOS>MOLECULE
AV-unprocessed.smi:2288
    45    46     1
SMALL
NO_CHARGES


@<TRIPOS>ATOM
      1 ****        -1.3328  -0.9894  -5.1139 C.3            1 S1                 0.0000
      2 ****        -1.5094  -1.3250  -3.6475 C.ar           1 S1                 0.0000
      3 ****        -2.1209  -2.5353  -3.2618 C.ar           1 S1                 0.0000
      4 ****        -2.2833  -2.8438  -1.8962 C.ar           1 S1                 0.0000
      5 ****        -2.9440  -4.1457  -1.4922 C.3            1 S1                 0.0000
      6 ****        -1.8321  -1.9375  -0.9145 C.ar           1 S1                 0.0000
      7 ****        -1.2195  -0.7236  -1.2920 C.ar           1 S1                 0.0000
      8 ****        -0.7273   0.2421  -0.2246 C.3            1 S1                 0.0000
      9 ****        -1.1457   1.5642  -0.5000 O.3            1 S1                 0.0000
     10 ****         0.8145   0.2122  -0.1217 C.3            1 S1                 0.0000
     11 ****         1.3000   0.7411   1.1648 N.am           1 S1                 0.0000
     12 ****         1.3145  -0.1603   2.2427 C.2            1 S1                 0.0000
     13 ****         1.7112   0.1945   3.4208 N.2            1 S1                 0.0000
     14 ****         2.1385   1.5061   3.6461 C.2            1 S1                 0.0000
     15 ****         2.5801   1.8165   5.0654 C.3            1 S1                 0.0000
     16 ****         2.1488   2.4283   2.6452 C.2            1 S1                 0.0000
     17 ****         2.6059   3.8698   2.8316 C.3            1 S1                 0.0000
     18 ****         1.7018   2.0382   1.2978 C.2            1 S1                 0.0000
     19 ****         1.6869   2.8230   0.3479 O.2            1 S1                 0.0000
     20 ****        -1.0572  -0.4242  -2.6624 C.ar           1 S1                 0.0000
     21 ****        -1.9358  -1.6428  -5.7452 H              1 S1                 0.0000
     22 ****        -0.2878  -1.1020  -5.4026 H              1 S1                 0.0000
     23 ****        -1.6343   0.0402  -5.3079 H              1 S1                 0.0000
     24 ****        -2.4662  -3.2304  -4.0135 H              1 S1                 0.0000
     25 ****        -2.9214  -4.2861  -0.4111 H              1 S1                 0.0000
     26 ****        -2.4327  -4.9901  -1.9550 H              1 S1                 0.0000
     27 ****        -3.9851  -4.1553  -1.8156 H              1 S1                 0.0000
     28 ****        -1.9553  -2.1749   0.1322 H              1 S1                 0.0000
     29 ****        -1.1714  -0.0495   0.7282 H              1 S1                 0.0000
     30 ****        -2.0904   1.5866  -0.4952 H              1 S1                 0.0000
     31 ****         1.1568  -0.8207  -0.2171 H              1 S1                 0.0000
     32 ****         1.2676   0.7213  -0.9745 H              1 S1                 0.0000
     33 ****         0.9655  -1.1690   2.0144 H              1 S1                 0.0000
     34 ****         1.9613   2.6054   5.4937 H              1 S1                 0.0000
     35 ****         3.6206   2.1418   5.0803 H              1 S1                 0.0000
     36 ****         2.4946   0.9398   5.7086 H              1 S1                 0.0000
     37 ****         3.4630   4.0769   2.1901 H              1 S1                 0.0000
     38 ****         2.8993   4.0987   3.8546 H              1 S1                 0.0000
     39 ****         1.8048   4.5576   2.5590 H              1 S1                 0.0000
     40 ****        -0.5831   0.5001  -2.9598 H              1 S1                 0.0000
     41 ****        -0.8061   1.8455  -1.3975 LP             1 S1                 0.0000
     42 ****        -0.7900   2.1834   0.2001 LP             1 S1                 0.0000
     43 ****         1.7124  -0.4682   4.1696 LP             1 S1                 0.0000
     44 ****         1.3743   2.5147  -0.5505 LP             1 S1                 0.0000
     45 ****         1.9874   3.7682   0.4755 LP             1 S1                 0.0000
@<TRIPOS>BOND
    1    1    2 1     
    2    1   21 1     
    3    1   22 1     
    4    1   23 1     
    5    2   20 ar    
    6    2    3 ar    
    7    3    4 ar    
    8    3   24 1     
    9    4    5 1     
   10    4    6 ar    
   11    5   25 1     
   12    5   26 1     
   13    5   27 1     
   14    6    7 ar    
   15    6   28 1     
   16    7    8 1     
   17    7   20 ar    
   18    8    9 1     
   19    8   10 1     
   20    8   29 1     
   21    9   30 1     
   22   10   11 1     
   23   10   31 1     
   24   10   32 1     
   25   11   18 am    
   26   11   12 1     
   27   12   13 2     
   28   12   33 1     
   29   13   14 1     
   30   14   15 1     
   31   14   16 2     
   32   15   34 1     
   33   15   35 1     
   34   15   36 1     
   35   16   17 1     
   36   16   18 1     
   37   17   37 1     
   38   17   38 1     
   39   17   39 1     
   40   18   19 2     
   41   20   40 1     
   42    9   41 1     
   43    9   42 1     
   44   13   43 1     
   45   19   44 1     
   46   19   45 1     
@<TRIPOS>SUBSTRUCTURE
      1 S1             1
@<TRIPOS>SET
LONE_PAIRS      STATIC     ATOMS    <user>   **** ""
5 41 42 43 44 45
DONOR_HYDROGENS      STATIC     ATOMS    <user>   **** ""
1 30
ATOM$BLUE        STATIC     ATOMS    COLORGROUP SYSTEM
5 41 42 43 44 45
ATOM$RED        STATIC     ATOMS    COLORGROUP SYSTEM
1 30
