AV-unprocessed.smi:1784|AV-procd|sdf|7196|dock6
  -GOLD-   22720 8433D 1   1.00000     0.00000
 Structure written by MMmdl.
 43 45  0  0  0  0  0  0  0  0  1 V2000
  145.1323  137.8306  153.3705 O   0  0  0  0  0  0  0  0  0  0  0  0
  146.2010  137.3672  152.9721 C   0  0  0  0  0  0  0  0  0  0  0  0
  146.3236  136.1418  152.4475 N   0  0  0  0  0  0  0  0  0  0  0  0
  145.2267  135.1961  152.2996 C   0  0  0  0  0  0  0  0  0  0  0  0
  145.2809  134.5198  150.9232 C   0  0  2  0  0  0  0  0  0  0  0  0
  144.0957  133.5988  150.6429 C   0  0  0  0  0  0  0  0  0  0  0  0
  144.6734  132.6743  149.5960 C   0  0  0  0  0  0  0  0  0  0  0  0
  146.1045  132.4913  150.0942 C   0  0  0  0  0  0  0  0  0  0  0  0
  146.4264  133.6771  150.8178 O   0  0  0  0  0  0  0  0  0  0  0  0
  147.3813  138.0087  152.9830 N   0  0  0  0  0  0  0  0  0  0  0  0
  147.6770  139.3190  153.4566 C   0  0  0  0  0  0  0  0  0  0  0  0
  146.7661  140.3987  153.3537 C   0  0  0  0  0  0  0  0  0  0  0  0
  147.1318  141.6560  153.8682 C   0  0  0  0  0  0  0  0  0  0  0  0
  148.3929  141.7887  154.4760 C   0  0  0  0  0  0  0  0  0  0  0  0
  149.2652  140.7674  154.5966 N   0  0  0  0  0  0  0  0  0  0  0  0
  148.9181  139.5538  154.1027 C   0  0  0  0  0  0  0  0  0  0  0  0
  149.8408  138.5022  154.2491 N   0  0  0  0  0  0  0  0  0  0  0  0
  151.1655  138.8823  154.7108 C   0  0  0  0  0  0  0  0  0  0  0  0
  151.8348  137.5745  155.1393 C   0  0  0  0  0  0  0  0  0  0  0  0
  150.6740  136.6161  155.4327 C   0  0  0  0  0  0  0  0  0  0  0  0
  149.4083  137.4174  155.1141 C   0  0  0  0  0  0  0  0  0  0  0  0
  147.2362  135.8370  152.1417 H   0  0  0  0  0  0  0  0  0  0  0  0
  145.2749  134.4476  153.0922 H   0  0  0  0  0  0  0  0  0  0  0  0
  144.2805  135.7276  152.4138 H   0  0  0  0  0  0  0  0  0  0  0  0
  145.3407  135.2712  150.1340 H   0  0  0  0  0  0  0  0  0  0  0  0
  143.8286  133.0305  151.5352 H   0  0  0  0  0  0  0  0  0  0  0  0
  143.2110  134.1358  150.2998 H   0  0  0  0  0  0  0  0  0  0  0  0
  144.1296  131.7338  149.5035 H   0  0  0  0  0  0  0  0  0  0  0  0
  144.6741  133.1677  148.6232 H   0  0  0  0  0  0  0  0  0  0  0  0
  146.1657  131.6432  150.7770 H   0  0  0  0  0  0  0  0  0  0  0  0
  146.8071  132.3200  149.2785 H   0  0  0  0  0  0  0  0  0  0  0  0
  148.1490  137.5317  152.5331 H   0  0  0  0  0  0  0  0  0  0  0  0
  145.7914  140.2840  152.9055 H   0  0  0  0  0  0  0  0  0  0  0  0
  146.4586  142.4977  153.8026 H   0  0  0  0  0  0  0  0  0  0  0  0
  148.7074  142.7385  154.8821 H   0  0  0  0  0  0  0  0  0  0  0  0
  151.7282  139.3827  153.9221 H   0  0  0  0  0  0  0  0  0  0  0  0
  151.0980  139.5628  155.5606 H   0  0  0  0  0  0  0  0  0  0  0  0
  152.4443  137.1784  154.3262 H   0  0  0  0  0  0  0  0  0  0  0  0
  152.4849  137.7186  156.0027 H   0  0  0  0  0  0  0  0  0  0  0  0
  150.7432  135.7392  154.7878 H   0  0  0  0  0  0  0  0  0  0  0  0
  150.6760  136.2692  156.4664 H   0  0  0  0  0  0  0  0  0  0  0  0
  148.9721  137.8113  156.0333 H   0  0  0  0  0  0  0  0  0  0  0  0
  148.6558  136.8000  154.6225 H   0  0  0  0  0  0  0  0  0  0  0  0
  1  2  2  0  0  0  0
  2  3  1  0  0  0  0
  2 10  1  0  0  0  0
  3  4  1  0  0  0  0
  3 22  1  0  0  0  0
  4  5  1  0  0  0  0
  4 23  1  0  0  0  0
  4 24  1  0  0  0  0
  5  9  1  0  0  0  0
  5  6  1  0  0  0  0
  5 25  1  0  0  0  0
  6  7  1  0  0  0  0
  6 26  1  0  0  0  0
  6 27  1  0  0  0  0
  7  8  1  0  0  0  0
  7 28  1  0  0  0  0
  7 29  1  0  0  0  0
  8  9  1  0  0  0  0
  8 30  1  0  0  0  0
  8 31  1  0  0  0  0
 10 11  1  0  0  0  0
 10 32  1  0  0  0  0
 11 16  1  0  0  0  0
 11 12  2  0  0  0  0
 12 13  1  0  0  0  0
 12 33  1  0  0  0  0
 13 14  2  0  0  0  0
 13 34  1  0  0  0  0
 14 15  1  0  0  0  0
 14 35  1  0  0  0  0
 15 16  2  0  0  0  0
 16 17  1  0  0  0  0
 17 21  1  0  0  0  0
 17 18  1  0  0  0  0
 18 19  1  0  0  0  0
 18 36  1  0  0  0  0
 18 37  1  0  0  0  0
 19 20  1  0  0  0  0
 19 38  1  0  0  0  0
 19 39  1  0  0  0  0
 20 21  1  0  0  0  0
 20 40  1  0  0  0  0
 20 41  1  0  0  0  0
 21 42  1  0  0  0  0
 21 43  1  0  0  0  0
M  END
> <s_m_source_file>
AV-unprocessed.smi

> <i_m_source_file_index>
1784

> <i_lp_mmshare_version>
43012

> <i_f3d_flags>
0

> <s_epik_input>
TzFbQ0gyXVtDSDJdW0NIMl1bQ0BIXTFbQ0gyXVtOSF1DKD1PKVtOSF1jMltjSF1bY0hdW2NIXW5jMk4zW0NIMl1bQ0gyXVtDSDJdW0NIMl0z

> <s_epik_cmdline>
J2VwaWtfcHl0aG9uJywgJy1waCcsICc3LjAnLCAnLXRuJywgJzgnLCAnLW1hJywgJzIwMCcsICctbWV0YWxfYmluZGluZycsICctaW1hZScsICc8aW5maWxlLm1hZT4nLCAnLW9tYWUnLCAnPG91dGZpbGUubWFlPic=

> <r_lp_tautomer_probability>
1

> <r_epik_Ionization_Penalty>
0.0982482

> <r_epik_Ionization_Penalty_Charging>
0

> <r_epik_Ionization_Penalty_Neutral>
0.0982482

> <r_epik_State_Penalty>
0.0877864

> <r_epik_Charging_Adjusted_Penalty>
0.0877864

> <i_epik_Tot_Q>
0

> <i_epik_Tot_abs_Q>
0

> <r_epik_Metal_State_Penalty>
0.0752567

> <b_epik_Metal_Only>
0

> <s_lp_Force_Field>
OPLS_2005

> <r_lp_Energy>
47.4963

> <b_lp_Chiralities_Consistent>
1

> <s_lp_Variant>
AV-unprocessed.smi:1784-1

> <Gold.Version>
5.8.1

> <Gold.Id.Protein>
6NUR|6NUR_protein|mol2

> <Gold.PLP.Fitness>
41.7670

> <Gold.PLP.PLP>
-33.7666

> <Gold.PLP.part.hbond>
-2.0000

> <Gold.PLP.part.metal>
0.0000

> <Gold.PLP.part.buried>
-1.5761

> <Gold.PLP.part.nonpolar>
-30.7389

> <Gold.PLP.part.repulsive>
0.8201

> <Gold.PLP.ligand.clash>
0.0000

> <Gold.PLP.ligand.torsion>
0.5102

> <Gold.PLP.Chemscore.Hbond>
1.9920

> <Gold.PLP.Chemscore.CHOScore>
1.0000

> <Gold.PLP.Chemscore.Metal>
0.0000

> <Gold.Chemscore.Hbonds>
donor molecule, donor type, donor heavy atom, donor atom, acceptor molecule, acceptor atom, score
      L1  H     3    22       P1  7948  0.99
      L1  H    10    32       P1  7948  1.00
      L1  C    14    35       P1  8028  1.00

> <Gold.PLP.Chemscore.Internal.Correction>
0.0448

> <Gold.Rescore>
     Score         DG    S(hbond)    S(metal)    S(lipo)     H(rot)  DE(clash)    DE(int)     intcor
     16.92     -18.57       1.96        0.00      86.17       1.38       0.13       1.51       ----

> <Gold.Chemscore.Fitness>
16.9216

> <Gold.Chemscore.DG>
-18.5689

> <Gold.Chemscore.ZeroCoef>
-5.4800

> <Gold.Chemscore.Hbond>
1.9579

> <Gold.Chemscore.Metal>
0.0000

> <Gold.Chemscore.Lipo>
86.1656

> <Gold.Chemscore.Internal_Hbond>
0.0000

> <Gold.Chemscore.DEClash>
0.1344

> <Gold.Chemscore.DEInternal>
1.5130

> <Gold.Chemscore.Rot>
1.3796

> <Gold.Chemscore.Internal.Correction>
   9.000000E+99

> <Gold.Chemscore.Hbonds>
donor molecule, donor type, donor heavy atom, donor atom, acceptor molecule, acceptor atom, score
      L1  H     3    22       P1  7948  0.93
      L1  H    10    32       P1  7948  0.99

> <Gold.Chemscore.Hbond.Weighted>
-6.5392

> <Gold.Chemscore.Metal.Weighted>
-0.0000

> <Gold.Chemscore.Lipo.Weighted>
-10.0814

> <Gold.Chemscore.Internal_Hbond.Weighted>
0.0000

> <Gold.Chemscore.DEClash.Weighted>
0.1344

> <Gold.Chemscore.DEInternal.Weighted>
1.5130

> <Gold.Chemscore.Rot.Weighted>
3.5317

> <Gold.Chemscore.Internal.Correction.Weighted>
   9.000000E+99

> <Gold.Protein.RotatedTorsions>
[ 6907 6896 6895 6894 ] final  115.42 input  -60.11 | X-H torsion
[ 7974 7965 7964 7962 ] final -172.32 input  175.53 | X-H torsion
[ 8008 7997 7996 7995 ] final    8.46 input   59.86 | X-H torsion
[ 10167 10162 10161 10158 ] final -101.55 input  -65.29 | X-H torsion
[ 10718 10713 10712 10709 ] final  113.75 input   66.30 | X-H torsion
[ 10763 10752 10751 10750 ] final  -21.41 input  -60.55 | X-H torsion
[ 11005 11000 10999 10996 ] final -174.56 input  -57.11 | X-H torsion

> <Gold.Protein.ActiveResidues>
 VAL166  LYS551  ARG553  GLY616  TRP617  ASP618  TYR619  PRO620  LYS621  CYS622 
 ASP623  PHE694  ASN695  SER759  ASP760  ASP761  ALA762  ILE779  LEU786  VAL792 
 PHE793  MET794  SER795  GLU796  ALA797  LYS798  CYS799  TRP800  GLU811  SER814 

> <Gold.Protein.RotatedAtoms>
  152.4743  133.8101  159.6998 H   0  0  0  0  0  0  0  0  0  0  0  0  # atno 6907 bound_to 6896
  150.8750  133.7442  159.2956 H   0  0  0  0  0  0  0  0  0  0  0  0  # atno 6908 bound_to 6896
  151.4965  135.1063  159.9869 H   0  0  0  0  0  0  0  0  0  0  0  0  # atno 6909 bound_to 6896
  144.7147  140.1789  143.6360 H   0  0  0  0  0  0  0  0  0  0  0  0  # atno 7974 bound_to 7965
  154.7671  140.2795  155.6167 H   0  0  0  0  0  0  0  0  0  0  0  0  # atno 8008 bound_to 7997
  156.2927  140.2648  156.2391 H   0  0  0  0  0  0  0  0  0  0  0  0  # atno 8009 bound_to 7997
  154.9946  140.0373  157.2324 H   0  0  0  0  0  0  0  0  0  0  0  0  # atno 8010 bound_to 7997
  140.2401  143.3544  152.0809 H   0  0  0  0  0  0  0  0  0  0  0  0  # atno 10167 bound_to 10162
  157.6320  131.0988  150.7086 H   0  0  0  0  0  0  0  0  0  0  0  0  # atno 10718 bound_to 10713
  153.6357  135.6987  153.5259 H   0  0  0  0  0  0  0  0  0  0  0  0  # atno 10763 bound_to 10752
  153.2823  135.4182  155.1089 H   0  0  0  0  0  0  0  0  0  0  0  0  # atno 10764 bound_to 10752
  154.8511  135.3605  154.5900 H   0  0  0  0  0  0  0  0  0  0  0  0  # atno 10765 bound_to 10752
  140.4731  134.6146  157.4890 H   0  0  0  0  0  0  0  0  0  0  0  0  # atno 11005 bound_to 11000
  145.8874  139.2357  143.1569 LP  0  0  0  0  0  0  0  0  0  0  0  0  # atno 17320 bound_to 7965
  145.9936  140.8581  143.0054 LP  0  0  0  0  0  0  0  0  0  0  0  0  # atno 17321 bound_to 7965
  139.5080  144.6842  151.5930 LP  0  0  0  0  0  0  0  0  0  0  0  0  # atno 17342 bound_to 10162
  140.6120  143.9419  150.6460 LP  0  0  0  0  0  0  0  0  0  0  0  0  # atno 17343 bound_to 10162
  156.7424  130.4743  149.5474 LP  0  0  0  0  0  0  0  0  0  0  0  0  # atno 17370 bound_to 10713
  156.1531  130.6323  151.0622 LP  0  0  0  0  0  0  0  0  0  0  0  0  # atno 17371 bound_to 10713
  139.9873  134.7042  155.9752 LP  0  0  0  0  0  0  0  0  0  0  0  0  # atno 17394 bound_to 11000
  141.1567  133.6542  156.4185 LP  0  0  0  0  0  0  0  0  0  0  0  0  # atno 17395 bound_to 11000

$$$$
