AV-unprocessed.smi:576|AV-procd|sdf|2979|dock8
  -GOLD-   2262023493D 1   1.00000     0.00000
 Structure written by MMmdl.
 35 36  0  0  0  0  0  0  0  0  1 V2000
  151.1010  145.0250  159.2161 C   0  0  0  0  0  0  0  0  0  0  0  0
  151.4712  143.5354  159.1948 C   0  0  1  0  0  0  0  0  0  0  0  0
  151.4182  143.0609  157.8159 N   0  0  0  0  0  0  0  0  0  0  0  0
  150.5171  142.1969  157.3239 C   0  0  0  0  0  0  0  0  0  0  0  0
  149.5980  141.7232  157.9933 O   0  0  0  0  0  0  0  0  0  0  0  0
  150.6756  141.8318  155.8413 C   0  0  0  0  0  0  0  0  0  0  0  0
  149.4560  141.2502  155.2558 N   0  0  0  0  0  0  0  0  0  0  0  0
  148.2283  141.8498  155.5992 C   0  0  0  0  0  0  0  0  0  0  0  0
  147.0416  141.4019  155.1462 C   0  0  0  0  0  0  0  0  0  0  0  0
  145.7374  142.1021  155.4954 C   0  0  0  0  0  0  0  0  0  0  0  0
  145.3483  142.9134  154.5116 F   0  0  0  0  0  0  0  0  0  0  0  0
  144.7778  141.1996  155.6939 F   0  0  0  0  0  0  0  0  0  0  0  0
  145.8636  142.8250  156.6088 F   0  0  0  0  0  0  0  0  0  0  0  0
  147.0820  140.2705  154.2403 C   0  0  0  0  0  0  0  0  0  0  0  0
  148.2481  139.6891  153.8967 C   0  0  0  0  0  0  0  0  0  0  0  0
  149.5287  140.1722  154.4182 C   0  0  0  0  0  0  0  0  0  0  0  0
  150.5996  139.6426  154.1198 O   0  0  0  0  0  0  0  0  0  0  0  0
  152.8171  143.3024  159.8611 C   0  0  0  0  0  0  0  0  0  0  0  0
  153.2650  141.9192  160.2717 C   0  0  0  0  0  0  0  0  0  0  0  0
  152.9070  142.9422  161.3252 C   0  0  0  0  0  0  0  0  0  0  0  0
  151.0762  145.4087  160.2364 H   0  0  0  0  0  0  0  0  0  0  0  0
  150.1159  145.1932  158.7795 H   0  0  0  0  0  0  0  0  0  0  0  0
  151.8216  145.6214  158.6550 H   0  0  0  0  0  0  0  0  0  0  0  0
  150.7117  143.0053  159.7731 H   0  0  0  0  0  0  0  0  0  0  0  0
  152.1332  143.4040  157.1909 H   0  0  0  0  0  0  0  0  0  0  0  0
  150.9713  142.7321  155.3011 H   0  0  0  0  0  0  0  0  0  0  0  0
  151.5124  141.1407  155.7224 H   0  0  0  0  0  0  0  0  0  0  0  0
  148.3122  142.6983  156.2627 H   0  0  0  0  0  0  0  0  0  0  0  0
  146.1616  139.8785  153.8335 H   0  0  0  0  0  0  0  0  0  0  0  0
  148.2406  138.8461  153.2214 H   0  0  0  0  0  0  0  0  0  0  0  0
  153.6008  143.9642  159.4960 H   0  0  0  0  0  0  0  0  0  0  0  0
  152.5727  141.0932  160.1219 H   0  0  0  0  0  0  0  0  0  0  0  0
  154.3174  141.6747  160.1419 H   0  0  0  0  0  0  0  0  0  0  0  0
  153.7206  143.3794  161.9003 H   0  0  0  0  0  0  0  0  0  0  0  0
  151.9765  142.7950  161.8701 H   0  0  0  0  0  0  0  0  0  0  0  0
  1  2  1  0  0  0  0
  1 21  1  0  0  0  0
  1 22  1  0  0  0  0
  1 23  1  0  0  0  0
  2  3  1  0  0  0  0
  2 18  1  0  0  0  0
  2 24  1  0  0  0  0
  3  4  1  0  0  0  0
  3 25  1  0  0  0  0
  4  5  2  0  0  0  0
  4  6  1  0  0  0  0
  6  7  1  0  0  0  0
  6 26  1  0  0  0  0
  6 27  1  0  0  0  0
  7 16  1  0  0  0  0
  7  8  1  0  0  0  0
  8  9  2  0  0  0  0
  8 28  1  0  0  0  0
  9 10  1  0  0  0  0
  9 14  1  0  0  0  0
 10 11  1  0  0  0  0
 10 12  1  0  0  0  0
 10 13  1  0  0  0  0
 14 15  2  0  0  0  0
 14 29  1  0  0  0  0
 15 16  1  0  0  0  0
 15 30  1  0  0  0  0
 16 17  2  0  0  0  0
 18 20  1  0  0  0  0
 18 19  1  0  0  0  0
 18 31  1  0  0  0  0
 19 20  1  0  0  0  0
 19 32  1  0  0  0  0
 19 33  1  0  0  0  0
 20 34  1  0  0  0  0
 20 35  1  0  0  0  0
M  END
> <s_m_source_file>
AV-unprocessed.smi

> <i_m_source_file_index>
576

> <i_lp_mmshare_version>
43012

> <i_f3d_flags>
0

> <s_epik_input>
W0NIMl0xW0NIMl1bQ0hdMVtDQEhdKFtDSDNdKVtOSF1DKD1PKVtDSDJdbjJbY0hdYyhDKEYpKEYpRilbY0hdW2NIXWMyPU8=

> <s_epik_cmdline>
J2VwaWtfcHl0aG9uJywgJy1waCcsICc3LjAnLCAnLXRuJywgJzgnLCAnLW1hJywgJzIwMCcsICctbWV0YWxfYmluZGluZycsICctaW1hZScsICc8aW5maWxlLm1hZT4nLCAnLW9tYWUnLCAnPG91dGZpbGUubWFlPic=

> <r_lp_tautomer_probability>
1

> <r_epik_Ionization_Penalty>
3.84201e-08

> <r_epik_Ionization_Penalty_Charging>
1.91184e-08

> <r_epik_Ionization_Penalty_Neutral>
1.93017e-08

> <r_epik_State_Penalty>
-0

> <r_epik_Charging_Adjusted_Penalty>
1.91184e-08

> <i_epik_Tot_Q>
0

> <i_epik_Tot_abs_Q>
0

> <r_epik_Metal_State_Penalty>
-0

> <b_epik_Metal_Only>
0

> <s_lp_Force_Field>
OPLS_2005

> <r_lp_Energy>
24.3329

> <b_lp_Chiralities_Consistent>
1

> <s_lp_Variant>
AV-unprocessed.smi:576-2

> <Gold.Version>
5.8.1

> <Gold.Id.Protein>
6NUR|6NUR_protein|mol2

> <Gold.PLP.Fitness>
44.8609

> <Gold.PLP.PLP>
-41.6192

> <Gold.PLP.part.hbond>
-1.0000

> <Gold.PLP.part.metal>
0.0000

> <Gold.PLP.part.buried>
-2.4513

> <Gold.PLP.part.nonpolar>
-38.7638

> <Gold.PLP.part.repulsive>
0.2734

> <Gold.PLP.ligand.clash>
0.0059

> <Gold.PLP.ligand.torsion>
1.9322

> <Gold.PLP.Chemscore.Hbond>
1.0000

> <Gold.PLP.Chemscore.CHOScore>
0.9961

> <Gold.PLP.Chemscore.Metal>
0.0000

> <Gold.Chemscore.Hbonds>
donor molecule, donor type, donor heavy atom, donor atom, acceptor molecule, acceptor atom, score
      P1  H  7989  7998       L1    17  1.00
      L1  C     8    28       P1  8028  0.91

> <Gold.PLP.Chemscore.Internal.Correction>
1.1237

> <Gold.Rescore>
     Score         DG    S(hbond)    S(metal)    S(lipo)     H(rot)  DE(clash)    DE(int)     intcor
     10.23     -13.95       0.87        0.00      86.06       1.77       0.47       3.24       ----

> <Gold.Chemscore.Fitness>
10.2340

> <Gold.Chemscore.DG>
-13.9500

> <Gold.Chemscore.ZeroCoef>
-5.4800

> <Gold.Chemscore.Hbond>
0.8744

> <Gold.Chemscore.Metal>
0.0000

> <Gold.Chemscore.Lipo>
86.0561

> <Gold.Chemscore.Internal_Hbond>
0.0000

> <Gold.Chemscore.DEClash>
0.4734

> <Gold.Chemscore.DEInternal>
3.2426

> <Gold.Chemscore.Rot>
1.7653

> <Gold.Chemscore.Internal.Correction>
   9.000000E+99

> <Gold.Chemscore.Hbonds>
donor molecule, donor type, donor heavy atom, donor atom, acceptor molecule, acceptor atom, score
      P1  H  7989  7998       L1    17  0.65

> <Gold.Chemscore.Hbond.Weighted>
-2.9206

> <Gold.Chemscore.Metal.Weighted>
-0.0000

> <Gold.Chemscore.Lipo.Weighted>
-10.0686

> <Gold.Chemscore.Internal_Hbond.Weighted>
0.0000

> <Gold.Chemscore.DEClash.Weighted>
0.4734

> <Gold.Chemscore.DEInternal.Weighted>
3.2426

> <Gold.Chemscore.Rot.Weighted>
4.5191

> <Gold.Chemscore.Internal.Correction.Weighted>
   9.000000E+99

> <Gold.Protein.RotatedTorsions>
[ 6907 6896 6895 6894 ] final  -73.15 input  -60.11 | X-H torsion
[ 7974 7965 7964 7962 ] final  -41.02 input  175.53 | X-H torsion
[ 8008 7997 7996 7995 ] final -164.09 input   59.86 | X-H torsion
[ 10167 10162 10161 10158 ] final -127.91 input  -65.29 | X-H torsion
[ 10718 10713 10712 10709 ] final   16.99 input   66.30 | X-H torsion
[ 10763 10752 10751 10750 ] final -126.39 input  -60.55 | X-H torsion
[ 11005 11000 10999 10996 ] final  142.41 input  -57.11 | X-H torsion

> <Gold.Protein.ActiveResidues>
 VAL166  LYS551  ARG553  GLY616  TRP617  ASP618  TYR619  PRO620  LYS621  CYS622 
 ASP623  PHE694  ASN695  SER759  ASP760  ASP761  ALA762  ILE779  LEU786  VAL792 
 PHE793  MET794  SER795  GLU796  ALA797  LYS798  CYS799  TRP800  GLU811  SER814 

> <Gold.Protein.RotatedAtoms>
  150.7141  134.5059  159.5583 H   0  0  0  0  0  0  0  0  0  0  0  0  # atno 6907 bound_to 6896
  152.2646  134.7995  160.0434 H   0  0  0  0  0  0  0  0  0  0  0  0  # atno 6908 bound_to 6896
  151.8696  133.3438  159.3767 H   0  0  0  0  0  0  0  0  0  0  0  0  # atno 6909 bound_to 6896
  146.0250  140.6803  142.9160 H   0  0  0  0  0  0  0  0  0  0  0  0  # atno 7974 bound_to 7965
  155.8307  140.0933  157.1794 H   0  0  0  0  0  0  0  0  0  0  0  0  # atno 8008 bound_to 7997
  154.3980  140.1419  156.3671 H   0  0  0  0  0  0  0  0  0  0  0  0  # atno 8009 bound_to 7997
  155.8169  140.3447  155.5493 H   0  0  0  0  0  0  0  0  0  0  0  0  # atno 8010 bound_to 7997
  139.9559  143.6004  152.2461 H   0  0  0  0  0  0  0  0  0  0  0  0  # atno 10167 bound_to 10162
  157.0757  130.6367  149.5815 H   0  0  0  0  0  0  0  0  0  0  0  0  # atno 10718 bound_to 10713
  154.8745  135.3997  154.3423 H   0  0  0  0  0  0  0  0  0  0  0  0  # atno 10763 bound_to 10752
  153.4220  135.7023  153.6293 H   0  0  0  0  0  0  0  0  0  0  0  0  # atno 10764 bound_to 10752
  153.4951  135.3740  155.2481 H   0  0  0  0  0  0  0  0  0  0  0  0  # atno 10765 bound_to 10752
  140.0475  134.9273  157.0956 H   0  0  0  0  0  0  0  0  0  0  0  0  # atno 11005 bound_to 11000
  144.7006  140.3634  143.7159 LP  0  0  0  0  0  0  0  0  0  0  0  0  # atno 17320 bound_to 7965
  145.7132  139.1690  143.2526 LP  0  0  0  0  0  0  0  0  0  0  0  0  # atno 17321 bound_to 7965
  139.6592  144.7662  151.1996 LP  0  0  0  0  0  0  0  0  0  0  0  0  # atno 17342 bound_to 10162
  140.7568  143.6037  150.8674 LP  0  0  0  0  0  0  0  0  0  0  0  0  # atno 17343 bound_to 10162
  155.9938  130.5000  150.7393 LP  0  0  0  0  0  0  0  0  0  0  0  0  # atno 17370 bound_to 10713
  157.4842  131.0905  151.0502 LP  0  0  0  0  0  0  0  0  0  0  0  0  # atno 17371 bound_to 10713
  140.3971  134.2122  155.7164 LP  0  0  0  0  0  0  0  0  0  0  0  0  # atno 17394 bound_to 11000
  141.1914  133.8196  157.0881 LP  0  0  0  0  0  0  0  0  0  0  0  0  # atno 17395 bound_to 11000

$$$$
