AV-unprocessed.smi:784|AV-procd|sdf|3719|dock4
  -GOLD-   22720 1143D 1   1.00000     0.00000
 Structure written by MMmdl.
 37 38  0  0  0  0  0  0  0  0  2 V2000
  147.1732  139.6655  153.8220 C   0  0  0  0  0  0  0  0  0  0  0  0
  148.5819  139.7864  154.3234 C   0  0  0  0  0  0  0  0  0  0  0  0
  149.4107  138.7748  154.8800 C   0  0  0  0  0  0  0  0  0  0  0  0
  150.5728  139.4321  155.1703 C   0  0  0  0  0  0  0  0  0  0  0  0
  151.8676  138.9938  155.7722 C   0  0  0  0  0  0  0  0  0  0  0  0
  151.7449  138.9594  157.6136 S   0  0  0  0  0  0  0  0  0  0  0  0
  150.3596  139.3434  157.9293 O   0  0  0  0  0  0  0  0  0  0  0  0
  152.1832  137.6188  158.0371 O   0  0  0  0  0  0  0  0  0  0  0  0
  152.8032  140.1248  158.0097 N   0  5  0  0  0  0  0  0  0  0  0  0
  152.3894  141.2051  158.8945 C   0  0  0  0  0  0  0  0  0  0  0  0
  151.8107  142.3492  158.0272 C   0  0  0  0  0  0  0  0  0  0  0  0
  151.1644  143.5333  158.7805 C   0  0  0  0  0  0  0  0  0  0  0  0
  152.0919  144.3247  159.7265 C   0  0  0  0  0  0  0  0  0  0  0  0
  152.3204  143.6034  161.0651 C   0  0  0  0  0  0  0  0  0  0  0  0
  153.3286  142.4299  161.0458 C   0  0  0  0  0  0  0  0  0  0  0  0
  153.6112  141.6953  159.7114 C   0  0  0  0  0  0  0  0  0  0  0  0
  150.4715  140.7393  154.8147 O   0  0  0  0  0  0  0  0  0  0  0  0
  149.1982  140.9557  154.2757 N   0  0  0  0  0  0  0  0  0  0  0  0
  146.9078  138.6233  153.6445 H   0  0  0  0  0  0  0  0  0  0  0  0
  147.0381  140.2052  152.8843 H   0  0  0  0  0  0  0  0  0  0  0  0
  146.4658  140.0698  154.5462 H   0  0  0  0  0  0  0  0  0  0  0  0
  149.1877  137.7321  155.0505 H   0  0  0  0  0  0  0  0  0  0  0  0
  152.1608  138.0067  155.4164 H   0  0  0  0  0  0  0  0  0  0  0  0
  152.6602  139.6928  155.5056 H   0  0  0  0  0  0  0  0  0  0  0  0
  151.6142  140.8705  159.5852 H   0  0  0  0  0  0  0  0  0  0  0  0
  152.5895  142.7357  157.3680 H   0  0  0  0  0  0  0  0  0  0  0  0
  151.0497  141.9339  157.3645 H   0  0  0  0  0  0  0  0  0  0  0  0
  150.7908  144.2278  158.0274 H   0  0  0  0  0  0  0  0  0  0  0  0
  150.2765  143.2006  159.3216 H   0  0  0  0  0  0  0  0  0  0  0  0
  153.0387  144.5660  159.2420 H   0  0  0  0  0  0  0  0  0  0  0  0
  151.6131  145.2809  159.9397 H   0  0  0  0  0  0  0  0  0  0  0  0
  152.6558  144.3288  161.8071 H   0  0  0  0  0  0  0  0  0  0  0  0
  151.3605  143.2425  161.4369 H   0  0  0  0  0  0  0  0  0  0  0  0
  154.2862  142.8093  161.4041 H   0  0  0  0  0  0  0  0  0  0  0  0
  153.0199  141.7028  161.7988 H   0  0  0  0  0  0  0  0  0  0  0  0
  154.2456  140.8437  159.9620 H   0  0  0  0  0  0  0  0  0  0  0  0
  154.2357  142.3273  159.0783 H   0  0  0  0  0  0  0  0  0  0  0  0
  1  2  1  0  0  0  0
  1 19  1  0  0  0  0
  1 20  1  0  0  0  0
  1 21  1  0  0  0  0
  2 18  2  0  0  0  0
  2  3  1  0  0  0  0
  3  4  2  0  0  0  0
  3 22  1  0  0  0  0
  4  5  1  0  0  0  0
  4 17  1  0  0  0  0
  5  6  1  0  0  0  0
  5 23  1  0  0  0  0
  5 24  1  0  0  0  0
  6  7  2  0  0  0  0
  6  8  2  0  0  0  0
  6  9  1  0  0  0  0
  9 10  1  0  0  0  0
 10 16  1  0  0  0  0
 10 11  1  0  0  0  0
 10 25  1  0  0  0  0
 11 12  1  0  0  0  0
 11 26  1  0  0  0  0
 11 27  1  0  0  0  0
 12 13  1  0  0  0  0
 12 28  1  0  0  0  0
 12 29  1  0  0  0  0
 13 14  1  0  0  0  0
 13 30  1  0  0  0  0
 13 31  1  0  0  0  0
 14 15  1  0  0  0  0
 14 32  1  0  0  0  0
 14 33  1  0  0  0  0
 15 16  1  0  0  0  0
 15 34  1  0  0  0  0
 15 35  1  0  0  0  0
 16 36  1  0  0  0  0
 16 37  1  0  0  0  0
 17 18  1  0  0  0  0
M  CHG  1   9  -1
M  END
> <s_m_source_file>
AV-unprocessed.smi

> <i_m_source_file_index>
784

> <i_lp_mmshare_version>
43012

> <i_f3d_flags>
0

> <s_epik_input>
W0NIM11jMVtjSF1jKG9uMSlbQ0gyXVMoPU8pKD1PKVtOSF1bQ0hdMltDSDJdW0NIMl1bQ0gyXVtDSDJdW0NIMl1bQ0gyXTI=

> <s_epik_cmdline>
J2VwaWtfcHl0aG9uJywgJy1waCcsICc3LjAnLCAnLXRuJywgJzgnLCAnLW1hJywgJzIwMCcsICctbWV0YWxfYmluZGluZycsICctaW1hZScsICc8aW5maWxlLm1hZT4nLCAnLW9tYWUnLCAnPG91dGZpbGUubWFlPic=

> <r_lp_tautomer_probability>
1

> <r_epik_Ionization_Penalty>
5.56674

> <r_epik_Ionization_Penalty_Charging>
5.56674

> <r_epik_Ionization_Penalty_Neutral>
9.19761e-10

> <r_epik_State_Penalty>
5.56669

> <r_epik_Charging_Adjusted_Penalty>
11.1334

> <i_epik_Tot_Q>
-1

> <i_epik_Tot_abs_Q>
1

> <r_epik_Metal_State_Penalty>
1.56499

> <b_epik_Metal_Only>
1

> <s_lp_Force_Field>
OPLS_2005

> <r_lp_Energy>
11.8728

> <b_lp_Chiralities_Consistent>
1

> <s_lp_Variant>
AV-unprocessed.smi:784-2

> <Gold.Version>
5.8.1

> <Gold.Id.Protein>
6NUR|6NUR_protein|mol2

> <Gold.PLP.Fitness>
44.9114

> <Gold.PLP.PLP>
-36.6212

> <Gold.PLP.part.hbond>
-3.4690

> <Gold.PLP.part.metal>
0.0000

> <Gold.PLP.part.buried>
0.2148

> <Gold.PLP.part.nonpolar>
-31.7302

> <Gold.PLP.part.repulsive>
0.2969

> <Gold.PLP.ligand.clash>
0.0000

> <Gold.PLP.ligand.torsion>
1.2762

> <Gold.PLP.Chemscore.Hbond>
3.2836

> <Gold.PLP.Chemscore.CHOScore>
0.0000

> <Gold.PLP.Chemscore.Metal>
0.0000

> <Gold.Chemscore.Hbonds>
donor molecule, donor type, donor heavy atom, donor atom, acceptor molecule, acceptor atom, score
      P1  H  7989  7998       L1    17  0.86
      P1  H  7997  8010       L1     9  2.00

> <Gold.PLP.Chemscore.Internal.Correction>
0.9918

> <Gold.Rescore>
     Score         DG    S(hbond)    S(metal)    S(lipo)     H(rot)  DE(clash)    DE(int)     intcor
     17.56     -20.35       1.72        0.00     107.36       1.34       1.64       1.15       ----

> <Gold.Chemscore.Fitness>
17.5649

> <Gold.Chemscore.DG>
-20.3549

> <Gold.Chemscore.ZeroCoef>
-5.4800

> <Gold.Chemscore.Hbond>
1.7203

> <Gold.Chemscore.Metal>
0.0000

> <Gold.Chemscore.Lipo>
107.3576

> <Gold.Chemscore.Internal_Hbond>
0.0000

> <Gold.Chemscore.DEClash>
1.6387

> <Gold.Chemscore.DEInternal>
1.1513

> <Gold.Chemscore.Rot>
1.3405

> <Gold.Chemscore.Internal.Correction>
   9.000000E+99

> <Gold.Chemscore.Hbonds>
donor molecule, donor type, donor heavy atom, donor atom, acceptor molecule, acceptor atom, score
      P1  H  7989  7998       L1    17  0.23
      P1  H  7997  8010       L1     9  0.78

> <Gold.Chemscore.Hbond.Weighted>
-5.7458

> <Gold.Chemscore.Metal.Weighted>
-0.0000

> <Gold.Chemscore.Lipo.Weighted>
-12.5608

> <Gold.Chemscore.Internal_Hbond.Weighted>
0.0000

> <Gold.Chemscore.DEClash.Weighted>
1.6387

> <Gold.Chemscore.DEInternal.Weighted>
1.1513

> <Gold.Chemscore.Rot.Weighted>
3.4318

> <Gold.Chemscore.Internal.Correction.Weighted>
   9.000000E+99

> <Gold.Protein.RotatedTorsions>
[ 6907 6896 6895 6894 ] final -104.73 input  -60.11 | X-H torsion
[ 7974 7965 7964 7962 ] final  -51.54 input  175.53 | X-H torsion
[ 8008 7997 7996 7995 ] final   38.61 input   59.86 | X-H torsion
[ 10167 10162 10161 10158 ] final   24.79 input  -65.29 | X-H torsion
[ 10718 10713 10712 10709 ] final  -88.53 input   66.30 | X-H torsion
[ 10763 10752 10751 10750 ] final   30.70 input  -60.55 | X-H torsion
[ 11005 11000 10999 10996 ] final -159.79 input  -57.11 | X-H torsion

> <Gold.Protein.ActiveResidues>
 VAL166  LYS551  ARG553  GLY616  TRP617  ASP618  TYR619  PRO620  LYS621  CYS622 
 ASP623  PHE694  ASN695  SER759  ASP760  ASP761  ALA762  ILE779  LEU786  VAL792 
 PHE793  MET794  SER795  GLU796  ALA797  LYS798  CYS799  TRP800  GLU811  SER814 

> <Gold.Protein.RotatedAtoms>
  150.7301  134.0234  159.3708 H   0  0  0  0  0  0  0  0  0  0  0  0  # atno 6907 bound_to 6896
  151.8200  135.0652  160.0433 H   0  0  0  0  0  0  0  0  0  0  0  0  # atno 6908 bound_to 6896
  152.3010  133.5620  159.5655 H   0  0  0  0  0  0  0  0  0  0  0  0  # atno 6909 bound_to 6896
  145.9178  140.7860  142.9662 H   0  0  0  0  0  0  0  0  0  0  0  0  # atno 7974 bound_to 7965
  155.2231  140.3332  155.4313 H   0  0  0  0  0  0  0  0  0  0  0  0  # atno 8008 bound_to 7997
  156.2325  140.1857  156.7252 H   0  0  0  0  0  0  0  0  0  0  0  0  # atno 8009 bound_to 7997
  154.6003  140.0624  156.9344 H   0  0  0  0  0  0  0  0  0  0  0  0  # atno 8010 bound_to 7997
  140.5159  144.0083  150.6394 H   0  0  0  0  0  0  0  0  0  0  0  0  # atno 10167 bound_to 10162
  155.9983  130.4839  150.5033 H   0  0  0  0  0  0  0  0  0  0  0  0  # atno 10718 bound_to 10713
  153.0357  135.6457  154.1085 H   0  0  0  0  0  0  0  0  0  0  0  0  # atno 10763 bound_to 10752
  154.0800  135.2874  155.3293 H   0  0  0  0  0  0  0  0  0  0  0  0  # atno 10764 bound_to 10752
  154.6536  135.5417  153.7996 H   0  0  0  0  0  0  0  0  0  0  0  0  # atno 10765 bound_to 10752
  140.6387  134.4575  157.5232 H   0  0  0  0  0  0  0  0  0  0  0  0  # atno 11005 bound_to 11000
  144.6749  140.1928  143.7395 LP  0  0  0  0  0  0  0  0  0  0  0  0  # atno 17320 bound_to 7965
  145.8589  139.2212  143.1728 LP  0  0  0  0  0  0  0  0  0  0  0  0  # atno 17321 bound_to 7965
  140.3418  143.3015  152.0580 LP  0  0  0  0  0  0  0  0  0  0  0  0  # atno 17342 bound_to 10162
  139.4909  144.6437  151.6824 LP  0  0  0  0  0  0  0  0  0  0  0  0  # atno 17343 bound_to 10162
  157.3014  131.0646  151.2065 LP  0  0  0  0  0  0  0  0  0  0  0  0  # atno 17370 bound_to 10713
  157.3043  130.6858  149.6181 LP  0  0  0  0  0  0  0  0  0  0  0  0  # atno 17371 bound_to 10713
  139.9088  134.8389  156.1603 LP  0  0  0  0  0  0  0  0  0  0  0  0  # atno 17394 bound_to 11000
  141.0623  133.6836  156.1976 LP  0  0  0  0  0  0  0  0  0  0  0  0  # atno 17395 bound_to 11000

$$$$
