AV-unprocessed.smi:754|AV-procd|sdf|3608|dock4
  -GOLD-   22720 1 03D 1   1.00000     0.00000
 Structure written by MMmdl.
 37 38  0  0  0  0  0  0  0  0  1 V2000
  147.7114  144.7920  161.0753 C   0  0  0  0  0  0  0  0  0  0  0  0
  149.1965  145.1324  160.9351 C   0  0  0  0  0  0  0  0  0  0  0  0
  149.8962  143.9650  160.5396 O   0  0  0  0  0  0  0  0  0  0  0  0
  151.2952  144.1702  160.4244 C   0  0  1  0  0  0  0  0  0  0  0  0
  152.1526  143.2046  161.2484 C   0  0  0  0  0  0  0  0  0  0  0  0
  153.1039  143.2003  160.0508 C   0  0  1  0  0  0  0  0  0  0  0  0
  153.6988  141.8894  159.8122 N   0  0  0  0  0  0  0  0  0  0  0  0
  154.2631  141.1276  160.7607 C   0  0  0  0  0  0  0  0  0  0  0  0
  154.3416  141.4681  161.9415 O   0  0  0  0  0  0  0  0  0  0  0  0
  154.8323  139.7815  160.3053 C   0  0  0  0  0  0  0  0  0  0  0  0
  153.7781  138.8182  160.0469 N   0  0  0  0  0  0  0  0  0  0  0  0
  153.5337  137.6204  160.5820 C   0  0  0  0  0  0  0  0  0  0  0  0
  152.4489  137.0653  160.0635 N   0  0  0  0  0  0  0  0  0  0  0  0
  152.0172  138.0124  159.1496 N   0  0  0  0  0  0  0  0  0  0  0  0
  152.8019  139.0551  159.1356 N   0  0  0  0  0  0  0  0  0  0  0  0
  151.8961  143.5498  159.1388 C   0  0  0  0  0  0  0  0  0  0  0  0
  151.1107  142.3763  158.5269 C   0  0  0  0  0  0  0  0  0  0  0  0
  152.1815  144.5327  158.0036 C   0  0  0  0  0  0  0  0  0  0  0  0
  147.1371  145.6683  161.3761 H   0  0  0  0  0  0  0  0  0  0  0  0
  147.5580  144.0166  161.8261 H   0  0  0  0  0  0  0  0  0  0  0  0
  147.3026  144.4310  160.1313 H   0  0  0  0  0  0  0  0  0  0  0  0
  149.3296  145.9203  160.1922 H   0  0  0  0  0  0  0  0  0  0  0  0
  149.5837  145.5043  161.8847 H   0  0  0  0  0  0  0  0  0  0  0  0
  151.5895  145.2142  160.5575 H   0  0  0  0  0  0  0  0  0  0  0  0
  152.5687  143.6312  162.1614 H   0  0  0  0  0  0  0  0  0  0  0  0
  151.6653  142.2456  161.4336 H   0  0  0  0  0  0  0  0  0  0  0  0
  153.8330  144.0116  160.1161 H   0  0  0  0  0  0  0  0  0  0  0  0
  153.6768  141.5396  158.8652 H   0  0  0  0  0  0  0  0  0  0  0  0
  155.4359  139.8982  159.4035 H   0  0  0  0  0  0  0  0  0  0  0  0
  155.4864  139.3857  161.0828 H   0  0  0  0  0  0  0  0  0  0  0  0
  154.1433  137.1615  161.3465 H   0  0  0  0  0  0  0  0  0  0  0  0
  151.6769  141.8815  157.7374 H   0  0  0  0  0  0  0  0  0  0  0  0
  150.1710  142.7129  158.0878 H   0  0  0  0  0  0  0  0  0  0  0  0
  150.8606  141.6174  159.2685 H   0  0  0  0  0  0  0  0  0  0  0  0
  152.7664  144.0686  157.2091 H   0  0  0  0  0  0  0  0  0  0  0  0
  152.7459  145.3970  158.3546 H   0  0  0  0  0  0  0  0  0  0  0  0
  151.2596  144.9086  157.5590 H   0  0  0  0  0  0  0  0  0  0  0  0
  1  2  1  0  0  0  0
  1 19  1  0  0  0  0
  1 20  1  0  0  0  0
  1 21  1  0  0  0  0
  2  3  1  0  0  0  0
  2 22  1  0  0  0  0
  2 23  1  0  0  0  0
  3  4  1  0  0  0  0
  4 16  1  0  0  0  0
  4  5  1  0  0  0  0
  4 24  1  0  0  0  0
  5  6  1  0  0  0  0
  5 25  1  0  0  0  0
  5 26  1  0  0  0  0
  6  7  1  0  0  0  0
  6 16  1  0  0  0  0
  6 27  1  0  0  0  0
  7  8  1  0  0  0  0
  7 28  1  0  0  0  0
  8  9  2  0  0  0  0
  8 10  1  0  0  0  0
 10 11  1  0  0  0  0
 10 29  1  0  0  0  0
 10 30  1  0  0  0  0
 11 15  1  0  0  0  0
 11 12  1  0  0  0  0
 12 13  2  0  0  0  0
 12 31  1  0  0  0  0
 13 14  1  0  0  0  0
 14 15  2  0  0  0  0
 16 17  1  0  0  0  0
 16 18  1  0  0  0  0
 17 32  1  0  0  0  0
 17 33  1  0  0  0  0
 17 34  1  0  0  0  0
 18 35  1  0  0  0  0
 18 36  1  0  0  0  0
 18 37  1  0  0  0  0
M  END
> <s_m_source_file>
AV-unprocessed.smi

> <i_m_source_file_index>
754

> <i_lp_mmshare_version>
43012

> <i_f3d_flags>
0

> <s_epik_input>
W0NIM11bQ0gyXU9bQ0BASF0oQzEoW0NIM10pW0NIM10pW0NIMl1bQ0BIXTFbTkhdQyg9TylbQ0gyXW4yW2NIXW5ubjI=

> <s_epik_cmdline>
J2VwaWtfcHl0aG9uJywgJy1waCcsICc3LjAnLCAnLXRuJywgJzgnLCAnLW1hJywgJzIwMCcsICctbWV0YWxfYmluZGluZycsICctaW1hZScsICc8aW5maWxlLm1hZT4nLCAnLW9tYWUnLCAnPG91dGZpbGUubWFlPic=

> <r_lp_tautomer_probability>
1

> <r_epik_Ionization_Penalty>
8.28422e-07

> <r_epik_Ionization_Penalty_Charging>
0

> <r_epik_Ionization_Penalty_Neutral>
8.28422e-07

> <r_epik_State_Penalty>
-0

> <r_epik_Charging_Adjusted_Penalty>
0

> <i_epik_Tot_Q>
0

> <i_epik_Tot_abs_Q>
0

> <r_epik_Metal_State_Penalty>
-0

> <b_epik_Metal_Only>
0

> <s_lp_Force_Field>
OPLS_2005

> <r_lp_Energy>
20.8169

> <b_lp_Chiralities_Consistent>
1

> <s_lp_Variant>
AV-unprocessed.smi:754-2

> <Gold.Version>
5.8.1

> <Gold.Id.Protein>
6NUR|6NUR_protein|mol2

> <Gold.PLP.Fitness>
40.7730

> <Gold.PLP.PLP>
-39.4516

> <Gold.PLP.part.hbond>
-2.9755

> <Gold.PLP.part.metal>
0.0000

> <Gold.PLP.part.buried>
-6.1723

> <Gold.PLP.part.nonpolar>
-31.2054

> <Gold.PLP.part.repulsive>
0.2106

> <Gold.PLP.ligand.clash>
0.0000

> <Gold.PLP.ligand.torsion>
1.1211

> <Gold.PLP.Chemscore.Hbond>
1.0693

> <Gold.PLP.Chemscore.CHOScore>
0.0000

> <Gold.PLP.Chemscore.Metal>
0.0000

> <Gold.Chemscore.Hbonds>
donor molecule, donor type, donor heavy atom, donor atom, acceptor molecule, acceptor atom, score
      P1  H  6896  6907       L1    13  0.99
      P1  H  6933  6944       L1     3  0.08

> <Gold.PLP.Chemscore.Internal.Correction>
0.3557

> <Gold.Rescore>
     Score         DG    S(hbond)    S(metal)    S(lipo)     H(rot)  DE(clash)    DE(int)     intcor
     10.40     -12.97       1.11        0.00      86.08       2.46       0.00       2.57       ----

> <Gold.Chemscore.Fitness>
10.3960

> <Gold.Chemscore.DG>
-12.9672

> <Gold.Chemscore.ZeroCoef>
-5.4800

> <Gold.Chemscore.Hbond>
1.1130

> <Gold.Chemscore.Metal>
0.0000

> <Gold.Chemscore.Lipo>
86.0807

> <Gold.Chemscore.Internal_Hbond>
0.0000

> <Gold.Chemscore.DEClash>
0.0000

> <Gold.Chemscore.DEInternal>
2.5712

> <Gold.Chemscore.Rot>
2.4616

> <Gold.Chemscore.Internal.Correction>
   9.000000E+99

> <Gold.Chemscore.Hbonds>
donor molecule, donor type, donor heavy atom, donor atom, acceptor molecule, acceptor atom, score
      P1  H  6896  6907       L1    13  0.91
      P1  H  6933  6944       L1     3  0.03

> <Gold.Chemscore.Hbond.Weighted>
-3.7174

> <Gold.Chemscore.Metal.Weighted>
-0.0000

> <Gold.Chemscore.Lipo.Weighted>
-10.0714

> <Gold.Chemscore.Internal_Hbond.Weighted>
0.0000

> <Gold.Chemscore.DEClash.Weighted>
0.0000

> <Gold.Chemscore.DEInternal.Weighted>
2.5712

> <Gold.Chemscore.Rot.Weighted>
6.3016

> <Gold.Chemscore.Internal.Correction.Weighted>
   9.000000E+99

> <Gold.Protein.RotatedTorsions>
[ 6907 6896 6895 6894 ] final   10.89 input  -60.11 | X-H torsion
[ 7974 7965 7964 7962 ] final  -45.26 input  175.53 | X-H torsion
[ 8008 7997 7996 7995 ] final  148.19 input   59.86 | X-H torsion
[ 10167 10162 10161 10158 ] final  112.63 input  -65.29 | X-H torsion
[ 10718 10713 10712 10709 ] final -172.02 input   66.30 | X-H torsion
[ 10763 10752 10751 10750 ] final  -57.14 input  -60.55 | X-H torsion
[ 11005 11000 10999 10996 ] final   64.19 input  -57.11 | X-H torsion

> <Gold.Protein.ActiveResidues>
 VAL166  LYS551  ARG553  GLY616  TRP617  ASP618  TYR619  PRO620  LYS621  CYS622 
 ASP623  PHE694  ASN695  SER759  ASP760  ASP761  ALA762  ILE779  LEU786  VAL792 
 PHE793  MET794  SER795  GLU796  ALA797  LYS798  CYS799  TRP800  GLU811  SER814 

> <Gold.Protein.RotatedAtoms>
  151.7455  135.0844  160.0322 H   0  0  0  0  0  0  0  0  0  0  0  0  # atno 6907 bound_to 6896
  152.3451  133.6109  159.5913 H   0  0  0  0  0  0  0  0  0  0  0  0  # atno 6908 bound_to 6896
  150.7504  133.9577  159.3547 H   0  0  0  0  0  0  0  0  0  0  0  0  # atno 6909 bound_to 6896
  145.9838  140.7255  142.9350 H   0  0  0  0  0  0  0  0  0  0  0  0  # atno 7974 bound_to 7965
  156.2800  140.2135  156.5658 H   0  0  0  0  0  0  0  0  0  0  0  0  # atno 8008 bound_to 7997
  154.7176  140.0506  157.0632 H   0  0  0  0  0  0  0  0  0  0  0  0  # atno 8009 bound_to 7997
  155.0522  140.3157  155.4691 H   0  0  0  0  0  0  0  0  0  0  0  0  # atno 8010 bound_to 7997
  139.6521  144.7128  151.2027 H   0  0  0  0  0  0  0  0  0  0  0  0  # atno 10167 bound_to 10162
  156.7494  130.9372  151.3114 H   0  0  0  0  0  0  0  0  0  0  0  0  # atno 10718 bound_to 10713
  154.2178  135.6383  153.5135 H   0  0  0  0  0  0  0  0  0  0  0  0  # atno 10763 bound_to 10752
  152.9975  135.5489  154.6147 H   0  0  0  0  0  0  0  0  0  0  0  0  # atno 10764 bound_to 10752
  154.5599  135.2908  155.0902 H   0  0  0  0  0  0  0  0  0  0  0  0  # atno 10765 bound_to 10752
  139.9975  134.6494  155.9986 H   0  0  0  0  0  0  0  0  0  0  0  0  # atno 11005 bound_to 11000
  144.6869  140.2954  143.7271 LP  0  0  0  0  0  0  0  0  0  0  0  0  # atno 17320 bound_to 7965
  145.7730  139.1864  143.2201 LP  0  0  0  0  0  0  0  0  0  0  0  0  # atno 17321 bound_to 7965
  140.7542  143.6132  150.8585 LP  0  0  0  0  0  0  0  0  0  0  0  0  # atno 17342 bound_to 10162
  139.9781  143.5981  152.2952 LP  0  0  0  0  0  0  0  0  0  0  0  0  # atno 17343 bound_to 10162
  157.6784  130.9116  150.0206 LP  0  0  0  0  0  0  0  0  0  0  0  0  # atno 17370 bound_to 10713
  156.1412  130.3642  149.9580 LP  0  0  0  0  0  0  0  0  0  0  0  0  # atno 17371 bound_to 10713
  141.1616  133.6538  156.4337 LP  0  0  0  0  0  0  0  0  0  0  0  0  # atno 17394 bound_to 11000
  140.4791  134.6682  157.5163 LP  0  0  0  0  0  0  0  0  0  0  0  0  # atno 17395 bound_to 11000

$$$$
