AV-unprocessed.smi:285|AV-procd|sdf|2170|dock10
  -GOLD-   2262021533D 1   1.00000     0.00000
 Structure written by MMmdl.
 31 33  0  0  0  0  0  0  0  0  1 V2000
  148.4556  132.2546  156.7384 N   0  0  0  0  0  0  0  0  0  0  0  0
  147.5497  133.0056  156.0968 C   0  0  0  0  0  0  0  0  0  0  0  0
  147.1949  134.1918  156.6434 N   0  0  0  0  0  0  0  0  0  0  0  0
  146.2901  134.9581  156.0257 C   0  0  0  0  0  0  0  0  0  0  0  0
  145.6381  134.7258  154.8835 N   0  0  0  0  0  0  0  0  0  0  0  0
  145.9987  133.5305  154.3297 C   0  0  0  0  0  0  0  0  0  0  0  0
  146.9454  132.6143  154.8755 C   0  0  0  0  0  0  0  0  0  0  0  0
  147.0634  131.4998  154.0544 N   0  0  0  0  0  0  0  0  0  0  0  0
  146.2276  131.7645  153.0894 C   0  0  0  0  0  0  0  0  0  0  0  0
  145.9782  130.5249  151.6649 Br  0  0  0  0  0  0  0  0  0  0  0  0
  145.5405  132.9554  153.1604 N   0  0  0  0  0  0  0  0  0  0  0  0
  144.5294  133.5170  152.2122 C   0  0  1  0  0  0  0  0  0  0  0  0
  144.9440  134.9054  151.7348 C   0  0  0  0  0  0  0  0  0  0  0  0
  144.3547  134.9062  150.3425 C   0  0  1  0  0  0  0  0  0  0  0  0
  145.0023  135.8559  149.5212 O   0  0  0  0  0  0  0  0  0  0  0  0
  144.6195  133.4647  149.8932 C   0  0  2  0  0  0  0  0  0  0  0  0
  143.6428  132.9746  148.8131 C   0  0  0  0  0  0  0  0  0  0  0  0
  143.5095  133.9467  147.7984 O   0  0  0  0  0  0  0  0  0  0  0  0
  144.4563  132.6947  151.0859 O   0  0  0  0  0  0  0  0  0  0  0  0
  148.7356  131.3645  156.3518 H   0  0  0  0  0  0  0  0  0  0  0  0
  148.8554  132.5790  157.6071 H   0  0  0  0  0  0  0  0  0  0  0  0
  146.0540  135.8906  156.5168 H   0  0  0  0  0  0  0  0  0  0  0  0
  143.5750  133.5044  152.7381 H   0  0  0  0  0  0  0  0  0  0  0  0
  144.5498  135.6848  152.3875 H   0  0  0  0  0  0  0  0  0  0  0  0
  146.0325  134.9802  151.6996 H   0  0  0  0  0  0  0  0  0  0  0  0
  143.2837  135.1102  150.3874 H   0  0  0  0  0  0  0  0  0  0  0  0
  144.4780  136.6422  149.5014 H   0  0  0  0  0  0  0  0  0  0  0  0
  145.6545  133.3741  149.5577 H   0  0  0  0  0  0  0  0  0  0  0  0
  143.9641  132.0225  148.3897 H   0  0  0  0  0  0  0  0  0  0  0  0
  142.6539  132.8193  149.2456 H   0  0  0  0  0  0  0  0  0  0  0  0
  144.3585  134.3279  147.6336 H   0  0  0  0  0  0  0  0  0  0  0  0
  1  2  1  0  0  0  0
  1 20  1  0  0  0  0
  1 21  1  0  0  0  0
  2  7  1  0  0  0  0
  2  3  2  0  0  0  0
  3  4  1  0  0  0  0
  4  5  2  0  0  0  0
  4 22  1  0  0  0  0
  5  6  1  0  0  0  0
  6 11  1  0  0  0  0
  6  7  2  0  0  0  0
  7  8  1  0  0  0  0
  8  9  2  0  0  0  0
  9 10  1  0  0  0  0
  9 11  1  0  0  0  0
 11 12  1  0  0  0  0
 12 19  1  0  0  0  0
 12 13  1  0  0  0  0
 12 23  1  0  0  0  0
 13 14  1  0  0  0  0
 13 24  1  0  0  0  0
 13 25  1  0  0  0  0
 14 15  1  0  0  0  0
 14 16  1  0  0  0  0
 14 26  1  0  0  0  0
 15 27  1  0  0  0  0
 16 17  1  0  0  0  0
 16 19  1  0  0  0  0
 16 28  1  0  0  0  0
 17 18  1  0  0  0  0
 17 29  1  0  0  0  0
 17 30  1  0  0  0  0
 18 31  1  0  0  0  0
M  END
> <s_m_source_file>
AV-unprocessed.smi

> <i_m_source_file_index>
285

> <i_lp_mmshare_version>
43012

> <i_f3d_flags>
0

> <s_epik_input>
bjFbY0hdbmMoW05IMl0pYyhjMTIpbmMoQnIpbjJbQ0BASF0zW0NIMl1bQ0BASF0oW09IXSlbQ0BIXShPMylbQ0gyXVtPSF0=

> <s_epik_cmdline>
J2VwaWtfcHl0aG9uJywgJy1waCcsICc3LjAnLCAnLXRuJywgJzgnLCAnLW1hJywgJzIwMCcsICctbWV0YWxfYmluZGluZycsICctaW1hZScsICc8aW5maWxlLm1hZT4nLCAnLW9tYWUnLCAnPG91dGZpbGUubWFlPic=

> <r_lp_tautomer_probability>
1

> <r_epik_Ionization_Penalty>
0.000103242

> <r_epik_Ionization_Penalty_Charging>
0

> <r_epik_Ionization_Penalty_Neutral>
0.000103242

> <r_epik_State_Penalty>
-0

> <r_epik_Charging_Adjusted_Penalty>
0

> <i_epik_Tot_Q>
0

> <i_epik_Tot_abs_Q>
0

> <r_epik_Metal_State_Penalty>
-0

> <b_epik_Metal_Only>
0

> <s_epik_Chemistry_Notes>
This compound contains an acetal/aminal-like group ( X-CH(R)-Y where X, Y are N, S, or O) that may be acid/base labile, releasing an aldehyde.

> <s_lp_Force_Field>
OPLS_2005

> <r_lp_Energy>
32.6465

> <b_lp_Chiralities_Consistent>
1

> <s_lp_Variant>
AV-unprocessed.smi:285-6

> <Gold.Version>
5.8.1

> <Gold.Id.Protein>
6NUR|6NUR_protein|mol2

> <Gold.PLP.Fitness>
33.2029

> <Gold.PLP.PLP>
-24.5438

> <Gold.PLP.part.hbond>
-5.6167

> <Gold.PLP.part.metal>
0.0000

> <Gold.PLP.part.buried>
-2.6791

> <Gold.PLP.part.nonpolar>
-16.5105

> <Gold.PLP.part.repulsive>
0.2976

> <Gold.PLP.ligand.clash>
0.0000

> <Gold.PLP.ligand.torsion>
0.1747

> <Gold.PLP.Chemscore.Hbond>
3.0000

> <Gold.PLP.Chemscore.CHOScore>
0.0000

> <Gold.PLP.Chemscore.Metal>
0.0000

> <Gold.Chemscore.Hbonds>
donor molecule, donor type, donor heavy atom, donor atom, acceptor molecule, acceptor atom, score
      L1  H    15    27       P1 10171  1.00
      L1  H    18    31       P1  7921  1.00
      P1  H 10192 10197       L1    18  1.00

> <Gold.PLP.Chemscore.Internal.Correction>
0.0086

> <Gold.Rescore>
     Score         DG    S(hbond)    S(metal)    S(lipo)     H(rot)  DE(clash)    DE(int)     intcor
     10.41     -12.47       2.90        0.00      43.91       3.06       0.46       1.59       ----

> <Gold.Chemscore.Fitness>
10.4117

> <Gold.Chemscore.DG>
-12.4671

> <Gold.Chemscore.ZeroCoef>
-5.4800

> <Gold.Chemscore.Hbond>
2.8997

> <Gold.Chemscore.Metal>
0.0000

> <Gold.Chemscore.Lipo>
43.9113

> <Gold.Chemscore.Internal_Hbond>
0.0000

> <Gold.Chemscore.DEClash>
0.4614

> <Gold.Chemscore.DEInternal>
1.5940

> <Gold.Chemscore.Rot>
3.0607

> <Gold.Chemscore.Internal.Correction>
   9.000000E+99

> <Gold.Chemscore.Hbonds>
donor molecule, donor type, donor heavy atom, donor atom, acceptor molecule, acceptor atom, score
      L1  H    15    27       P1 10171  0.93
      L1  H    18    31       P1  7921  1.00
      P1  H 10192 10197       L1    18  0.73

> <Gold.Chemscore.Hbond.Weighted>
-9.6848

> <Gold.Chemscore.Metal.Weighted>
-0.0000

> <Gold.Chemscore.Lipo.Weighted>
-5.1376

> <Gold.Chemscore.Internal_Hbond.Weighted>
0.0000

> <Gold.Chemscore.DEClash.Weighted>
0.4614

> <Gold.Chemscore.DEInternal.Weighted>
1.5940

> <Gold.Chemscore.Rot.Weighted>
7.8354

> <Gold.Chemscore.Internal.Correction.Weighted>
   9.000000E+99

> <Gold.Protein.RotatedTorsions>
[ 6907 6896 6895 6894 ] final   57.82 input  -60.11 | X-H torsion
[ 7974 7965 7964 7962 ] final  -49.10 input  175.53 | X-H torsion
[ 8008 7997 7996 7995 ] final -139.47 input   59.86 | X-H torsion
[ 10167 10162 10161 10158 ] final -116.30 input  -65.29 | X-H torsion
[ 10718 10713 10712 10709 ] final    2.35 input   66.30 | X-H torsion
[ 10763 10752 10751 10750 ] final  -85.22 input  -60.55 | X-H torsion
[ 11005 11000 10999 10996 ] final   10.82 input  -57.11 | X-H torsion

> <Gold.Protein.ActiveResidues>
 VAL166  LYS551  ARG553  GLY616  TRP617  ASP618  TYR619  PRO620  LYS621  CYS622 
 ASP623  PHE694  ASN695  SER759  ASP760  ASP761  ALA762  ILE779  LEU786  VAL792 
 PHE793  MET794  SER795  GLU796  ALA797  LYS798  CYS799  TRP800  GLU811  SER814 

> <Gold.Protein.RotatedAtoms>
  152.3767  134.6653  160.0157 H   0  0  0  0  0  0  0  0  0  0  0  0  # atno 6907 bound_to 6896
  151.6929  133.3305  159.3255 H   0  0  0  0  0  0  0  0  0  0  0  0  # atno 6908 bound_to 6896
  150.7715  134.6618  159.6388 H   0  0  0  0  0  0  0  0  0  0  0  0  # atno 6909 bound_to 6896
  145.9442  140.7634  142.9537 H   0  0  0  0  0  0  0  0  0  0  0  0  # atno 7974 bound_to 7965
  155.4453  140.0535  157.3006 H   0  0  0  0  0  0  0  0  0  0  0  0  # atno 8008 bound_to 7997
  154.4800  140.2077  155.9742 H   0  0  0  0  0  0  0  0  0  0  0  0  # atno 8009 bound_to 7997
  156.1191  140.3191  155.8187 H   0  0  0  0  0  0  0  0  0  0  0  0  # atno 8010 bound_to 7997
  140.0807  143.4791  152.1927 H   0  0  0  0  0  0  0  0  0  0  0  0  # atno 10167 bound_to 10162
  156.8618  130.5589  149.5662 H   0  0  0  0  0  0  0  0  0  0  0  0  # atno 10718 bound_to 10713
  154.6086  135.5493  153.7449 H   0  0  0  0  0  0  0  0  0  0  0  0  # atno 10763 bound_to 10752
  153.0185  135.6384  154.1611 H   0  0  0  0  0  0  0  0  0  0  0  0  # atno 10764 bound_to 10752
  154.1550  135.2900  155.3105 H   0  0  0  0  0  0  0  0  0  0  0  0  # atno 10765 bound_to 10752
  140.5102  134.0660  155.7816 H   0  0  0  0  0  0  0  0  0  0  0  0  # atno 11005 bound_to 11000
  144.6784  140.2329  143.7353 LP  0  0  0  0  0  0  0  0  0  0  0  0  # atno 17320 bound_to 7965
  145.8259  139.2064  143.1911 LP  0  0  0  0  0  0  0  0  0  0  0  0  # atno 17321 bound_to 7965
  139.5781  144.7497  151.3710 LP  0  0  0  0  0  0  0  0  0  0  0  0  # atno 17342 bound_to 10162
  140.7079  143.7466  150.7515 LP  0  0  0  0  0  0  0  0  0  0  0  0  # atno 17343 bound_to 10162
  156.0773  130.5792  150.9497 LP  0  0  0  0  0  0  0  0  0  0  0  0  # atno 17370 bound_to 10713
  157.6246  131.0927  150.8558 LP  0  0  0  0  0  0  0  0  0  0  0  0  # atno 17371 bound_to 10713
  141.1389  133.9172  157.2370 LP  0  0  0  0  0  0  0  0  0  0  0  0  # atno 17394 bound_to 11000
  139.9663  135.0141  156.9396 LP  0  0  0  0  0  0  0  0  0  0  0  0  # atno 17395 bound_to 11000

$$$$
