AV-unprocessed.smi:2446|AV-procd|sdf|9641|dock5
  -GOLD-   2272013273D 1   1.00000     0.00000
 Structure written by MMmdl.
 39 40  0  0  0  0  0  0  0  0  1 V2000
  151.0160  137.3958  155.1448 C   0  0  0  0  0  0  0  0  0  0  0  0
  150.6147  138.8532  155.2948 C   0  0  0  0  0  0  0  0  0  0  0  0
  151.3811  139.7141  156.1093 C   0  0  0  0  0  0  0  0  0  0  0  0
  151.0949  141.0195  156.2915 N   0  0  0  0  0  0  0  0  0  0  0  0
  150.0187  141.5225  155.6529 C   0  0  0  0  0  0  0  0  0  0  0  0
  149.1840  140.7548  154.8175 C   0  0  0  0  0  0  0  0  0  0  0  0
  149.4758  139.3809  154.6390 C   0  0  0  0  0  0  0  0  0  0  0  0
  148.7101  138.5166  153.8071 N   0  0  0  0  0  0  0  0  0  0  0  0
  147.4106  138.5966  153.4593 C   0  0  0  0  0  0  0  0  0  0  0  0
  146.6440  139.4933  153.8033 O   0  0  0  0  0  0  0  0  0  0  0  0
  146.9841  137.5780  152.6904 N   0  0  0  0  0  0  0  0  0  0  0  0
  145.6462  137.3450  152.1347 C   0  0  2  0  0  0  0  0  0  0  0  0
  144.5746  137.6185  153.2070 C   0  0  0  0  0  0  0  0  0  0  0  0
  144.5670  136.5452  154.3086 C   0  0  0  0  0  0  0  0  0  0  0  0
  144.4107  135.1360  153.7170 C   0  0  0  0  0  0  0  0  0  0  0  0
  145.5056  134.8311  152.6734 C   0  0  1  0  0  0  0  0  0  0  0  0
  145.3664  133.4109  152.0875 C   0  0  0  0  0  0  0  0  0  0  0  0
  145.4034  132.4928  153.0536 F   0  0  0  0  0  0  0  0  0  0  0  0
  144.2110  133.2997  151.4321 F   0  0  0  0  0  0  0  0  0  0  0  0
  146.3569  133.1722  151.2279 F   0  0  0  0  0  0  0  0  0  0  0  0
  145.5028  135.9133  151.5700 C   0  0  0  0  0  0  0  0  0  0  0  0
  151.9347  137.1802  155.6911 H   0  0  0  0  0  0  0  0  0  0  0  0
  151.1838  137.1515  154.0955 H   0  0  0  0  0  0  0  0  0  0  0  0
  150.2324  136.7439  155.5315 H   0  0  0  0  0  0  0  0  0  0  0  0
  152.2530  139.3470  156.6305 H   0  0  0  0  0  0  0  0  0  0  0  0
  149.8193  142.5726  155.8065 H   0  0  0  0  0  0  0  0  0  0  0  0
  148.3528  141.2368  154.3269 H   0  0  0  0  0  0  0  0  0  0  0  0
  149.1913  137.6849  153.4982 H   0  0  0  0  0  0  0  0  0  0  0  0
  147.6757  136.8800  152.4576 H   0  0  0  0  0  0  0  0  0  0  0  0
  145.4805  138.0587  151.3260 H   0  0  0  0  0  0  0  0  0  0  0  0
  144.7235  138.6051  153.6477 H   0  0  0  0  0  0  0  0  0  0  0  0
  143.5932  137.6453  152.7318 H   0  0  0  0  0  0  0  0  0  0  0  0
  145.4910  136.5996  154.8854 H   0  0  0  0  0  0  0  0  0  0  0  0
  143.7564  136.7427  155.0105 H   0  0  0  0  0  0  0  0  0  0  0  0
  144.4447  134.4017  154.5223 H   0  0  0  0  0  0  0  0  0  0  0  0
  143.4256  135.0427  153.2580 H   0  0  0  0  0  0  0  0  0  0  0  0
  146.4694  134.8748  153.1829 H   0  0  0  0  0  0  0  0  0  0  0  0
  144.5694  135.8497  151.0094 H   0  0  0  0  0  0  0  0  0  0  0  0
  146.2946  135.7122  150.8487 H   0  0  0  0  0  0  0  0  0  0  0  0
  1  2  1  0  0  0  0
  1 22  1  0  0  0  0
  1 23  1  0  0  0  0
  1 24  1  0  0  0  0
  2  7  1  0  0  0  0
  2  3  2  0  0  0  0
  3  4  1  0  0  0  0
  3 25  1  0  0  0  0
  4  5  2  0  0  0  0
  5  6  1  0  0  0  0
  5 26  1  0  0  0  0
  6  7  2  0  0  0  0
  6 27  1  0  0  0  0
  7  8  1  0  0  0  0
  8  9  1  0  0  0  0
  8 28  1  0  0  0  0
  9 10  2  0  0  0  0
  9 11  1  0  0  0  0
 11 12  1  0  0  0  0
 11 29  1  0  0  0  0
 12 21  1  0  0  0  0
 12 13  1  0  0  0  0
 12 30  1  0  0  0  0
 13 14  1  0  0  0  0
 13 31  1  0  0  0  0
 13 32  1  0  0  0  0
 14 15  1  0  0  0  0
 14 33  1  0  0  0  0
 14 34  1  0  0  0  0
 15 16  1  0  0  0  0
 15 35  1  0  0  0  0
 15 36  1  0  0  0  0
 16 17  1  0  0  0  0
 16 21  1  0  0  0  0
 16 37  1  0  0  0  0
 17 18  1  0  0  0  0
 17 19  1  0  0  0  0
 17 20  1  0  0  0  0
 21 38  1  0  0  0  0
 21 39  1  0  0  0  0
M  END
> <s_m_source_file>
AV-unprocessed.smi

> <i_m_source_file_index>
2446

> <i_lp_mmshare_version>
43012

> <i_f3d_flags>
0

> <s_epik_input>
W0NIM11jMVtjSF1uW2NIXVtjSF1jMVtOSF1DKD1PKVtOSF1bQ0BASF0yW0NIMl1bQ0gyXVtDSDJdW0NAQEhdKEMoRikoRilGKVtDSDJdMg==

> <s_epik_cmdline>
J2VwaWtfcHl0aG9uJywgJy1waCcsICc3LjAnLCAnLXRuJywgJzgnLCAnLW1hJywgJzIwMCcsICctbWV0YWxfYmluZGluZycsICctaW1hZScsICc8aW5maWxlLm1hZT4nLCAnLW9tYWUnLCAnPG91dGZpbGUubWFlPic=

> <r_epik_Ionization_Penalty>
0.20168

> <r_epik_Ionization_Penalty_Charging>
0

> <r_epik_Ionization_Penalty_Neutral>
0.20168

> <r_epik_State_Penalty>
0.191514

> <r_epik_Charging_Adjusted_Penalty>
0.191514

> <i_epik_Tot_Q>
0

> <i_epik_Tot_abs_Q>
0

> <r_epik_Metal_State_Penalty>
0.142371

> <b_epik_Metal_Only>
0

> <s_lp_Force_Field>
OPLS_2005

> <r_lp_Energy>
25.5489

> <b_lp_Chiralities_Consistent>
1

> <s_lp_Variant>
AV-unprocessed.smi:2446-1

> <Gold.Version>
5.8.1

> <Gold.Id.Protein>
6NUR|6NUR_protein|mol2

> <Gold.PLP.Fitness>
45.5735

> <Gold.PLP.PLP>
-37.6726

> <Gold.PLP.part.hbond>
-3.3842

> <Gold.PLP.part.metal>
0.0000

> <Gold.PLP.part.buried>
-2.9271

> <Gold.PLP.part.nonpolar>
-31.7395

> <Gold.PLP.part.repulsive>
0.3106

> <Gold.PLP.ligand.clash>
0.0000

> <Gold.PLP.ligand.torsion>
0.3233

> <Gold.PLP.Chemscore.Hbond>
1.8424

> <Gold.PLP.Chemscore.CHOScore>
1.0000

> <Gold.PLP.Chemscore.Metal>
0.0000

> <Gold.Chemscore.Hbonds>
donor molecule, donor type, donor heavy atom, donor atom, acceptor molecule, acceptor atom, score
      L1  H     8    28       P1  7948  0.47
      L1  H    11    29       P1  7948  1.00
      L1  C     5    26       P1  8028  1.00

> <Gold.PLP.Chemscore.Internal.Correction>
0.0204

> <Gold.Rescore>
     Score         DG    S(hbond)    S(metal)    S(lipo)     H(rot)  DE(clash)    DE(int)     intcor
     13.38     -16.46       1.51        0.00      72.65       1.00       0.08       2.99       ----

> <Gold.Chemscore.Fitness>
13.3848

> <Gold.Chemscore.DG>
-16.4553

> <Gold.Chemscore.ZeroCoef>
-5.4800

> <Gold.Chemscore.Hbond>
1.5077

> <Gold.Chemscore.Metal>
0.0000

> <Gold.Chemscore.Lipo>
72.6466

> <Gold.Chemscore.Internal_Hbond>
0.0000

> <Gold.Chemscore.DEClash>
0.0834

> <Gold.Chemscore.DEInternal>
2.9872

> <Gold.Chemscore.Rot>
1.0000

> <Gold.Chemscore.Internal.Correction>
   9.000000E+99

> <Gold.Chemscore.Hbonds>
donor molecule, donor type, donor heavy atom, donor atom, acceptor molecule, acceptor atom, score
      L1  H     8    28       P1  7948  0.46
      L1  H    11    29       P1  7948  0.94

> <Gold.Chemscore.Hbond.Weighted>
-5.0356

> <Gold.Chemscore.Metal.Weighted>
-0.0000

> <Gold.Chemscore.Lipo.Weighted>
-8.4997

> <Gold.Chemscore.Internal_Hbond.Weighted>
0.0000

> <Gold.Chemscore.DEClash.Weighted>
0.0834

> <Gold.Chemscore.DEInternal.Weighted>
2.9872

> <Gold.Chemscore.Rot.Weighted>
2.5600

> <Gold.Chemscore.Internal.Correction.Weighted>
   9.000000E+99

> <Gold.Protein.RotatedTorsions>
[ 6907 6896 6895 6894 ] final  -46.40 input  -60.11 | X-H torsion
[ 7974 7965 7964 7962 ] final  -76.07 input  175.53 | X-H torsion
[ 8008 7997 7996 7995 ] final -101.34 input   59.86 | X-H torsion
[ 10167 10162 10161 10158 ] final   10.63 input  -65.29 | X-H torsion
[ 10718 10713 10712 10709 ] final  -92.61 input   66.30 | X-H torsion
[ 10763 10752 10751 10750 ] final    3.79 input  -60.55 | X-H torsion
[ 11005 11000 10999 10996 ] final   -8.46 input  -57.11 | X-H torsion

> <Gold.Protein.ActiveResidues>
 VAL166  LYS551  ARG553  GLY616  TRP617  ASP618  TYR619  PRO620  LYS621  CYS622 
 ASP623  PHE694  ASN695  SER759  ASP760  ASP761  ALA762  ILE779  LEU786  VAL792 
 PHE793  MET794  SER795  GLU796  ALA797  LYS798  CYS799  TRP800  GLU811  SER814 

> <Gold.Protein.RotatedAtoms>
  150.9116  134.8533  159.7428 H   0  0  0  0  0  0  0  0  0  0  0  0  # atno 6907 bound_to 6896
  152.4947  134.4350  159.9535 H   0  0  0  0  0  0  0  0  0  0  0  0  # atno 6908 bound_to 6896
  151.4392  133.3609  159.2814 H   0  0  0  0  0  0  0  0  0  0  0  0  # atno 6909 bound_to 6896
  145.6178  140.9371  143.1155 H   0  0  0  0  0  0  0  0  0  0  0  0  # atno 7974 bound_to 7965
  154.8413  140.0435  157.1543 H   0  0  0  0  0  0  0  0  0  0  0  0  # atno 8008 bound_to 7997
  154.9044  140.3005  155.5280 H   0  0  0  0  0  0  0  0  0  0  0  0  # atno 8009 bound_to 7997
  156.2992  140.2370  156.4076 H   0  0  0  0  0  0  0  0  0  0  0  0  # atno 8010 bound_to 7997
  140.6182  143.8261  150.7144 H   0  0  0  0  0  0  0  0  0  0  0  0  # atno 10167 bound_to 10162
  156.0004  130.4994  150.5651 H   0  0  0  0  0  0  0  0  0  0  0  0  # atno 10718 bound_to 10713
  153.2791  135.6939  153.7404 H   0  0  0  0  0  0  0  0  0  0  0  0  # atno 10763 bound_to 10752
  153.6398  135.3395  155.3068 H   0  0  0  0  0  0  0  0  0  0  0  0  # atno 10764 bound_to 10752
  154.8489  135.4429  154.1838 H   0  0  0  0  0  0  0  0  0  0  0  0  # atno 10765 bound_to 10752
  140.7237  133.8807  155.8840 H   0  0  0  0  0  0  0  0  0  0  0  0  # atno 11005 bound_to 11000
  144.7243  139.7925  143.7370 LP  0  0  0  0  0  0  0  0  0  0  0  0  # atno 17320 bound_to 7965
  146.1455  139.4523  143.0082 LP  0  0  0  0  0  0  0  0  0  0  0  0  # atno 17321 bound_to 7965
  140.1845  143.4087  152.1908 LP  0  0  0  0  0  0  0  0  0  0  0  0  # atno 17342 bound_to 10162
  139.5416  144.7262  151.4714 LP  0  0  0  0  0  0  0  0  0  0  0  0  # atno 17343 bound_to 10162
  157.3554  131.0741  151.1679 LP  0  0  0  0  0  0  0  0  0  0  0  0  # atno 17370 bound_to 10713
  157.2482  130.6601  149.5919 LP  0  0  0  0  0  0  0  0  0  0  0  0  # atno 17371 bound_to 10713
  140.9981  134.1188  157.4344 LP  0  0  0  0  0  0  0  0  0  0  0  0  # atno 17394 bound_to 11000
  139.8842  135.0060  156.6353 LP  0  0  0  0  0  0  0  0  0  0  0  0  # atno 17395 bound_to 11000

$$$$
