AV-unprocessed.smi:83|AV-procd|sdf|800|dock6
  -GOLD-   2262017183D 1   1.00000     0.00000
 Structure written by MMmdl.
 56 59  0  0  0  0  0  0  0  0  1 V2000
  148.3349  132.3145  161.3922 C   0  0  0  0  0  0  0  0  0  0  0  0
  146.8783  132.7747  161.4765 C   0  0  0  0  0  0  0  0  0  0  0  0
  145.9853  131.9852  161.1701 O   0  0  0  0  0  0  0  0  0  0  0  0
  146.6228  134.0345  161.8841 N   0  0  0  0  0  0  0  0  0  0  0  0
  147.6584  134.9945  162.2563 C   0  0  0  0  0  0  0  0  0  0  0  0
  146.9074  136.2475  162.7168 C   0  0  0  0  0  0  0  0  0  0  0  0
  145.5620  136.1728  161.9956 C   0  0  1  0  0  0  0  0  0  0  0  0
  145.6698  136.8277  160.5965 C   0  0  0  0  0  0  0  0  0  0  0  0
  146.2908  135.9756  159.5808 N   0  0  0  0  0  0  0  0  0  0  0  0
  147.7449  136.0519  159.4499 C   0  0  0  0  0  0  0  0  0  0  0  0
  145.5637  135.4500  158.5491 C   0  0  0  0  0  0  0  0  0  0  0  0
  144.2721  135.0951  158.7928 N   0  0  0  0  0  0  0  0  0  0  0  0
  143.5174  134.5370  157.8438 C   0  0  0  0  0  0  0  0  0  0  0  0
  143.8462  134.2403  156.5877 N   0  0  0  0  0  0  0  0  0  0  0  0
  145.1315  134.6018  156.3184 C   0  0  0  0  0  0  0  0  0  0  0  0
  146.0497  135.2147  157.2228 C   0  0  0  0  0  0  0  0  0  0  0  0
  147.2527  135.4405  156.5594 N   0  0  0  0  0  0  0  0  0  0  0  0
  147.0664  134.9730  155.3572 C   0  0  0  0  0  0  0  0  0  0  0  0
  145.8183  134.4486  155.1271 N   0  0  0  0  0  0  0  0  0  0  0  0
  145.3425  133.8610  153.8873 C   0  0  0  0  0  0  0  0  0  0  0  0
  146.3341  134.0588  152.7248 C   0  0  2  0  0  0  0  0  0  0  0  0
  146.4796  135.4332  152.4212 O   0  0  0  0  0  0  0  0  0  0  0  0
  145.9431  133.2587  151.4652 C   0  0  2  0  0  0  0  0  0  0  0  0
  144.6080  133.6229  150.8094 C   0  0  0  0  0  0  0  0  0  0  0  0
  144.2914  132.3489  150.0588 C   0  0  0  0  0  0  0  0  0  0  0  0
  144.7796  131.2830  151.0367 C   0  0  0  0  0  0  0  0  0  0  0  0
  145.8951  131.8554  151.7138 O   0  0  0  0  0  0  0  0  0  0  0  0
  145.3046  134.6576  161.9749 C   0  0  0  0  0  0  0  0  0  0  0  0
  148.9233  132.9995  160.7815 H   0  0  0  0  0  0  0  0  0  0  0  0
  148.3995  131.3232  160.9427 H   0  0  0  0  0  0  0  0  0  0  0  0
  148.7800  132.2610  162.3854 H   0  0  0  0  0  0  0  0  0  0  0  0
  148.3096  134.6066  163.0410 H   0  0  0  0  0  0  0  0  0  0  0  0
  148.2730  135.2145  161.3820 H   0  0  0  0  0  0  0  0  0  0  0  0
  146.7435  136.1946  163.7941 H   0  0  0  0  0  0  0  0  0  0  0  0
  147.4581  137.1670  162.5156 H   0  0  0  0  0  0  0  0  0  0  0  0
  144.7904  136.6861  162.5708 H   0  0  0  0  0  0  0  0  0  0  0  0
  144.6601  137.0461  160.2477 H   0  0  0  0  0  0  0  0  0  0  0  0
  146.1353  137.8051  160.6612 H   0  0  0  0  0  0  0  0  0  0  0  0
  148.1660  135.0734  159.2165 H   0  0  0  0  0  0  0  0  0  0  0  0
  148.2043  136.3946  160.3773 H   0  0  0  0  0  0  0  0  0  0  0  0
  148.0251  136.7502  158.6605 H   0  0  0  0  0  0  0  0  0  0  0  0
  142.5075  134.2876  158.1347 H   0  0  0  0  0  0  0  0  0  0  0  0
  147.8391  134.9973  154.6025 H   0  0  0  0  0  0  0  0  0  0  0  0
  145.1730  132.7975  154.0596 H   0  0  0  0  0  0  0  0  0  0  0  0
  144.3715  134.2942  153.6446 H   0  0  0  0  0  0  0  0  0  0  0  0
  147.3159  133.7098  153.0472 H   0  0  0  0  0  0  0  0  0  0  0  0
  147.3185  135.5612  152.0055 H   0  0  0  0  0  0  0  0  0  0  0  0
  146.7263  133.3973  150.7180 H   0  0  0  0  0  0  0  0  0  0  0  0
  143.8311  133.8095  151.5513 H   0  0  0  0  0  0  0  0  0  0  0  0
  144.6770  134.4968  150.1613 H   0  0  0  0  0  0  0  0  0  0  0  0
  143.2349  132.2471  149.8095 H   0  0  0  0  0  0  0  0  0  0  0  0
  144.8685  132.3044  149.1343 H   0  0  0  0  0  0  0  0  0  0  0  0
  144.0059  131.0616  151.7728 H   0  0  0  0  0  0  0  0  0  0  0  0
  145.0496  130.3515  150.5388 H   0  0  0  0  0  0  0  0  0  0  0  0
  144.6259  134.3506  161.1831 H   0  0  0  0  0  0  0  0  0  0  0  0
  144.8504  134.3463  162.9166 H   0  0  0  0  0  0  0  0  0  0  0  0
  1  2  1  0  0  0  0
  1 29  1  0  0  0  0
  1 30  1  0  0  0  0
  1 31  1  0  0  0  0
  2  3  2  0  0  0  0
  2  4  1  0  0  0  0
  4 28  1  0  0  0  0
  4  5  1  0  0  0  0
  5  6  1  0  0  0  0
  5 32  1  0  0  0  0
  5 33  1  0  0  0  0
  6  7  1  0  0  0  0
  6 34  1  0  0  0  0
  6 35  1  0  0  0  0
  7  8  1  0  0  0  0
  7 28  1  0  0  0  0
  7 36  1  0  0  0  0
  8  9  1  0  0  0  0
  8 37  1  0  0  0  0
  8 38  1  0  0  0  0
  9 10  1  0  0  0  0
  9 11  1  0  0  0  0
 10 39  1  0  0  0  0
 10 40  1  0  0  0  0
 10 41  1  0  0  0  0
 11 16  1  0  0  0  0
 11 12  2  0  0  0  0
 12 13  1  0  0  0  0
 13 14  2  0  0  0  0
 13 42  1  0  0  0  0
 14 15  1  0  0  0  0
 15 19  1  0  0  0  0
 15 16  2  0  0  0  0
 16 17  1  0  0  0  0
 17 18  2  0  0  0  0
 18 19  1  0  0  0  0
 18 43  1  0  0  0  0
 19 20  1  0  0  0  0
 20 21  1  0  0  0  0
 20 44  1  0  0  0  0
 20 45  1  0  0  0  0
 21 22  1  0  0  0  0
 21 23  1  0  0  0  0
 21 46  1  0  0  0  0
 22 47  1  0  0  0  0
 23 27  1  0  0  0  0
 23 24  1  0  0  0  0
 23 48  1  0  0  0  0
 24 25  1  0  0  0  0
 24 49  1  0  0  0  0
 24 50  1  0  0  0  0
 25 26  1  0  0  0  0
 25 51  1  0  0  0  0
 25 52  1  0  0  0  0
 26 27  1  0  0  0  0
 26 53  1  0  0  0  0
 26 54  1  0  0  0  0
 28 55  1  0  0  0  0
 28 56  1  0  0  0  0
M  END
> <s_m_source_file>
AV-unprocessed.smi

> <i_m_source_file_index>
83

> <i_lp_mmshare_version>
43012

> <i_f3d_flags>
0

> <s_epik_input>
W0NIM11DKD1PKU4xW0NIMl1bQ0gyXVtDQEhdKFtDSDJdMSlbQ0gyXU4oW0NIM10pYyhuW2NIXW4yKWMoYzIzKW5bY0hdbjNbQ0gyXVtDQEhdKFtPSF0pW0NAQEhdNFtDSDJdW0NIMl1bQ0gyXU80

> <s_epik_cmdline>
J2VwaWtfcHl0aG9uJywgJy1waCcsICc3LjAnLCAnLXRuJywgJzgnLCAnLW1hJywgJzIwMCcsICctbWV0YWxfYmluZGluZycsICctaW1hZScsICc8aW5maWxlLm1hZT4nLCAnLW9tYWUnLCAnPG91dGZpbGUubWFlPic=

> <r_lp_tautomer_probability>
1

> <r_epik_Ionization_Penalty>
0.00109752

> <r_epik_Ionization_Penalty_Charging>
0

> <r_epik_Ionization_Penalty_Neutral>
0.00109752

> <r_epik_State_Penalty>
0.000634803

> <r_epik_Charging_Adjusted_Penalty>
0.000634803

> <i_epik_Tot_Q>
0

> <i_epik_Tot_abs_Q>
0

> <r_epik_Metal_State_Penalty>
-0

> <b_epik_Metal_Only>
0

> <s_lp_Force_Field>
OPLS_2005

> <r_lp_Energy>
57.114

> <b_lp_Chiralities_Consistent>
1

> <s_lp_Variant>
AV-unprocessed.smi:83-1

> <Gold.Version>
5.8.1

> <Gold.Id.Protein>
6NUR|6NUR_protein|mol2

> <Gold.PLP.Fitness>
40.9343

> <Gold.PLP.PLP>
-36.3479

> <Gold.PLP.part.hbond>
-0.8574

> <Gold.PLP.part.metal>
0.0000

> <Gold.PLP.part.buried>
-7.2936

> <Gold.PLP.part.nonpolar>
-28.9703

> <Gold.PLP.part.repulsive>
0.2696

> <Gold.PLP.ligand.clash>
0.0000

> <Gold.PLP.ligand.torsion>
0.8483

> <Gold.PLP.Chemscore.Hbond>
1.0000

> <Gold.PLP.Chemscore.CHOScore>
0.9591

> <Gold.PLP.Chemscore.Metal>
0.0000

> <Gold.Chemscore.Hbonds>
donor molecule, donor type, donor heavy atom, donor atom, acceptor molecule, acceptor atom, score
      L1  H    22    47       P1  7948  1.00
      L1  C    13    42       P1 11000  0.94

> <Gold.PLP.Chemscore.Internal.Correction>
0.4057

> <Gold.Rescore>
     Score         DG    S(hbond)    S(metal)    S(lipo)     H(rot)  DE(clash)    DE(int)     intcor
      8.64     -11.52       0.99        0.00      80.73       2.62       0.00       2.88       ----

> <Gold.Chemscore.Fitness>
8.6407

> <Gold.Chemscore.DG>
-11.5211

> <Gold.Chemscore.ZeroCoef>
-5.4800

> <Gold.Chemscore.Hbond>
0.9850

> <Gold.Chemscore.Metal>
0.0000

> <Gold.Chemscore.Lipo>
80.7343

> <Gold.Chemscore.Internal_Hbond>
0.0000

> <Gold.Chemscore.DEClash>
0.0000

> <Gold.Chemscore.DEInternal>
2.8804

> <Gold.Chemscore.Rot>
2.6152

> <Gold.Chemscore.Internal.Correction>
   9.000000E+99

> <Gold.Chemscore.Hbonds>
donor molecule, donor type, donor heavy atom, donor atom, acceptor molecule, acceptor atom, score
      L1  H    22    47       P1  7948  0.99

> <Gold.Chemscore.Hbond.Weighted>
-3.2901

> <Gold.Chemscore.Metal.Weighted>
-0.0000

> <Gold.Chemscore.Lipo.Weighted>
-9.4459

> <Gold.Chemscore.Internal_Hbond.Weighted>
0.0000

> <Gold.Chemscore.DEClash.Weighted>
0.0000

> <Gold.Chemscore.DEInternal.Weighted>
2.8804

> <Gold.Chemscore.Rot.Weighted>
6.6949

> <Gold.Chemscore.Internal.Correction.Weighted>
   9.000000E+99

> <Gold.Protein.RotatedTorsions>
[ 6907 6896 6895 6894 ] final   75.39 input  -60.11 | X-H torsion
[ 7974 7965 7964 7962 ] final -176.80 input  175.53 | X-H torsion
[ 8008 7997 7996 7995 ] final -154.95 input   59.86 | X-H torsion
[ 10167 10162 10161 10158 ] final  138.09 input  -65.29 | X-H torsion
[ 10718 10713 10712 10709 ] final  -46.69 input   66.30 | X-H torsion
[ 10763 10752 10751 10750 ] final  105.01 input  -60.55 | X-H torsion
[ 11005 11000 10999 10996 ] final   93.02 input  -57.11 | X-H torsion

> <Gold.Protein.ActiveResidues>
 VAL166  LYS551  ARG553  GLY616  TRP617  ASP618  TYR619  PRO620  LYS621  CYS622 
 ASP623  PHE694  ASN695  SER759  ASP760  ASP761  ALA762  ILE779  LEU786  VAL792 
 PHE793  MET794  SER795  GLU796  ALA797  LYS798  CYS799  TRP800  GLU811  SER814 

> <Gold.Protein.RotatedAtoms>
  152.5023  134.4128  159.9454 H   0  0  0  0  0  0  0  0  0  0  0  0  # atno 6907 bound_to 6896
  151.4097  133.3725  159.2750 H   0  0  0  0  0  0  0  0  0  0  0  0  # atno 6908 bound_to 6896
  150.9300  134.8738  159.7604 H   0  0  0  0  0  0  0  0  0  0  0  0  # atno 6909 bound_to 6896
  144.7127  140.1115  143.6411 H   0  0  0  0  0  0  0  0  0  0  0  0  # atno 7974 bound_to 7965
  155.6943  140.0759  157.2435 H   0  0  0  0  0  0  0  0  0  0  0  0  # atno 8008 bound_to 7997
  154.4083  140.1659  156.2173 H   0  0  0  0  0  0  0  0  0  0  0  0  # atno 8009 bound_to 7997
  155.9424  140.3383  155.6341 H   0  0  0  0  0  0  0  0  0  0  0  0  # atno 8010 bound_to 7997
  139.5122  144.6373  151.5663 H   0  0  0  0  0  0  0  0  0  0  0  0  # atno 10167 bound_to 10162
  156.2158  130.4163  149.9056 H   0  0  0  0  0  0  0  0  0  0  0  0  # atno 10718 bound_to 10713
  153.3736  135.3924  155.1806 H   0  0  0  0  0  0  0  0  0  0  0  0  # atno 10763 bound_to 10752
  154.8698  135.3708  154.4946 H   0  0  0  0  0  0  0  0  0  0  0  0  # atno 10764 bound_to 10752
  153.5416  135.7084  153.5694 H   0  0  0  0  0  0  0  0  0  0  0  0  # atno 10765 bound_to 10752
  139.8815  134.8766  156.3657 H   0  0  0  0  0  0  0  0  0  0  0  0  # atno 11005 bound_to 11000
  145.9450  139.2695  143.1246 LP  0  0  0  0  0  0  0  0  0  0  0  0  # atno 17320 bound_to 7965
  145.9383  140.8998  143.0321 LP  0  0  0  0  0  0  0  0  0  0  0  0  # atno 17321 bound_to 7965
  140.6126  143.9407  150.6465 LP  0  0  0  0  0  0  0  0  0  0  0  0  # atno 17342 bound_to 10162
  140.2655  143.3493  152.1285 LP  0  0  0  0  0  0  0  0  0  0  0  0  # atno 17343 bound_to 10162
  156.6719  130.8823  151.3563 LP  0  0  0  0  0  0  0  0  0  0  0  0  # atno 17370 bound_to 10713
  157.7062  130.9388  150.0939 LP  0  0  0  0  0  0  0  0  0  0  0  0  # atno 17371 bound_to 10713
  140.9498  133.7458  156.0257 LP  0  0  0  0  0  0  0  0  0  0  0  0  # atno 17394 bound_to 11000
  140.8119  134.3390  157.5409 LP  0  0  0  0  0  0  0  0  0  0  0  0  # atno 17395 bound_to 11000

$$$$
