AV-unprocessed.smi:1617|AV-procd|sdf|6484|dock4
  -GOLD-   22720 7143D 1   1.00000     0.00000
 Structure written by MMmdl.
 47 49  0  0  0  0  0  0  0  0  1 V2000
  149.5219  135.3924  156.2778 O   0  0  0  0  0  0  0  0  0  0  0  0
  149.4908  135.6849  155.0827 C   0  0  0  0  0  0  0  0  0  0  0  0
  149.9259  136.8408  154.5525 N   0  0  0  0  0  0  0  0  0  0  0  0
  150.4644  137.9744  155.2193 C   0  0  0  0  0  0  0  0  0  0  0  0
  151.5118  138.7770  154.7127 C   0  0  0  0  0  0  0  0  0  0  0  0
  151.9713  139.8656  155.4789 C   0  0  0  0  0  0  0  0  0  0  0  0
  151.3791  140.1290  156.7403 C   0  0  0  0  0  0  0  0  0  0  0  0
  151.7989  141.2015  157.5616 N   0  0  0  0  0  0  0  0  0  0  0  0
  151.0627  142.4621  157.5005 C   0  0  0  0  0  0  0  0  0  0  0  0
  151.8503  143.5866  158.1942 C   0  0  0  0  0  0  0  0  0  0  0  0
  152.1789  143.1972  159.5224 O   0  0  0  0  0  0  0  0  0  0  0  0
  153.0143  142.0455  159.5386 C   0  0  0  0  0  0  0  0  0  0  0  0
  152.2757  140.8562  158.9013 C   0  0  0  0  0  0  0  0  0  0  0  0
  150.3851  139.3455  157.2240 N   0  0  0  0  0  0  0  0  0  0  0  0
  149.9489  138.3028  156.4878 C   0  0  0  0  0  0  0  0  0  0  0  0
  149.0238  134.8616  154.1320 N   0  0  0  0  0  0  0  0  0  0  0  0
  148.4589  133.5300  154.3647 C   0  0  2  0  0  0  0  0  0  0  0  0
  149.4636  132.4927  153.8127 C   0  0  0  0  0  0  0  0  0  0  0  0
  149.3100  131.0910  154.4286 C   0  0  0  0  0  0  0  0  0  0  0  0
  147.9825  130.3848  154.1132 C   0  0  0  0  0  0  0  0  0  0  0  0
  146.7460  131.1188  154.6597 C   0  0  0  0  0  0  0  0  0  0  0  0
  146.3804  132.2642  153.8366 N   0  0  0  0  0  0  0  0  0  0  0  0
  147.1080  133.3717  153.6280 C   0  0  0  0  0  0  0  0  0  0  0  0
  146.7059  134.2433  152.8572 O   0  0  0  0  0  0  0  0  0  0  0  0
  149.9103  136.8999  153.5448 H   0  0  0  0  0  0  0  0  0  0  0  0
  151.9811  138.5760  153.7625 H   0  0  0  0  0  0  0  0  0  0  0  0
  152.7648  140.4755  155.0757 H   0  0  0  0  0  0  0  0  0  0  0  0
  150.8879  142.7512  156.4639 H   0  0  0  0  0  0  0  0  0  0  0  0
  150.0904  142.3340  157.9780 H   0  0  0  0  0  0  0  0  0  0  0  0
  152.7583  143.8255  157.6380 H   0  0  0  0  0  0  0  0  0  0  0  0
  151.2513  144.4966  158.2287 H   0  0  0  0  0  0  0  0  0  0  0  0
  153.9472  142.2512  159.0109 H   0  0  0  0  0  0  0  0  0  0  0  0
  153.2781  141.8128  160.5703 H   0  0  0  0  0  0  0  0  0  0  0  0
  151.4200  140.5745  159.5161 H   0  0  0  0  0  0  0  0  0  0  0  0
  152.9505  140.0006  158.8825 H   0  0  0  0  0  0  0  0  0  0  0  0
  149.1561  137.7148  156.9268 H   0  0  0  0  0  0  0  0  0  0  0  0
  149.0359  135.1860  153.1763 H   0  0  0  0  0  0  0  0  0  0  0  0
  148.3205  133.3853  155.4378 H   0  0  0  0  0  0  0  0  0  0  0  0
  149.4084  132.4350  152.7241 H   0  0  0  0  0  0  0  0  0  0  0  0
  150.4781  132.8275  154.0345 H   0  0  0  0  0  0  0  0  0  0  0  0
  150.1276  130.4642  154.0711 H   0  0  0  0  0  0  0  0  0  0  0  0
  149.4382  131.1553  155.5098 H   0  0  0  0  0  0  0  0  0  0  0  0
  147.8837  130.2299  153.0378 H   0  0  0  0  0  0  0  0  0  0  0  0
  148.0160  129.3888  154.5559 H   0  0  0  0  0  0  0  0  0  0  0  0
  145.8948  130.4376  154.6571 H   0  0  0  0  0  0  0  0  0  0  0  0
  146.8922  131.4225  155.6972 H   0  0  0  0  0  0  0  0  0  0  0  0
  145.4983  132.1981  153.3494 H   0  0  0  0  0  0  0  0  0  0  0  0
  1  2  2  0  0  0  0
  2  3  1  0  0  0  0
  2 16  1  0  0  0  0
  3  4  1  0  0  0  0
  3 25  1  0  0  0  0
  4 15  1  0  0  0  0
  4  5  2  0  0  0  0
  5  6  1  0  0  0  0
  5 26  1  0  0  0  0
  6  7  2  0  0  0  0
  6 27  1  0  0  0  0
  7  8  1  0  0  0  0
  7 14  1  0  0  0  0
  8 13  1  0  0  0  0
  8  9  1  0  0  0  0
  9 10  1  0  0  0  0
  9 28  1  0  0  0  0
  9 29  1  0  0  0  0
 10 11  1  0  0  0  0
 10 30  1  0  0  0  0
 10 31  1  0  0  0  0
 11 12  1  0  0  0  0
 12 13  1  0  0  0  0
 12 32  1  0  0  0  0
 12 33  1  0  0  0  0
 13 34  1  0  0  0  0
 13 35  1  0  0  0  0
 14 15  2  0  0  0  0
 15 36  1  0  0  0  0
 16 17  1  0  0  0  0
 16 37  1  0  0  0  0
 17 23  1  0  0  0  0
 17 18  1  0  0  0  0
 17 38  1  0  0  0  0
 18 19  1  0  0  0  0
 18 39  1  0  0  0  0
 18 40  1  0  0  0  0
 19 20  1  0  0  0  0
 19 41  1  0  0  0  0
 19 42  1  0  0  0  0
 20 21  1  0  0  0  0
 20 43  1  0  0  0  0
 20 44  1  0  0  0  0
 21 22  1  0  0  0  0
 21 45  1  0  0  0  0
 21 46  1  0  0  0  0
 22 23  1  0  0  0  0
 22 47  1  0  0  0  0
 23 24  2  0  0  0  0
M  END
> <s_m_source_file>
AV-unprocessed.smi

> <i_m_source_file_index>
1617

> <i_lp_mmshare_version>
43012

> <i_f3d_flags>
0

> <s_epik_input>
Tz1DMVtOSF1bQ0gyXVtDSDJdW0NIMl1bQ0gyXVtDQEhdMVtOSF1DKD1PKVtOSF1jMltjSF1bY0hdYyhuW2NIXTIpTjNbQ0gyXVtDSDJdT1tDSDJdW0NIMl0z

> <s_epik_cmdline>
J2VwaWtfcHl0aG9uJywgJy1waCcsICc3LjAnLCAnLXRuJywgJzgnLCAnLW1hJywgJzIwMCcsICctbWV0YWxfYmluZGluZycsICctaW1hZScsICc8aW5maWxlLm1hZT4nLCAnLW9tYWUnLCAnPG91dGZpbGUubWFlPic=

> <r_lp_tautomer_probability>
1

> <r_epik_Ionization_Penalty>
0.00171733

> <r_epik_Ionization_Penalty_Charging>
0

> <r_epik_Ionization_Penalty_Neutral>
0.00171733

> <r_epik_State_Penalty>
0.00113787

> <r_epik_Charging_Adjusted_Penalty>
0.00113787

> <i_epik_Tot_Q>
0

> <i_epik_Tot_abs_Q>
0

> <r_epik_Metal_State_Penalty>
-0

> <b_epik_Metal_Only>
0

> <s_lp_Force_Field>
OPLS_2005

> <r_lp_Energy>
27.2722

> <b_lp_Chiralities_Consistent>
1

> <s_lp_Variant>
AV-unprocessed.smi:1617-1

> <Gold.Version>
5.8.1

> <Gold.Id.Protein>
6NUR|6NUR_protein|mol2

> <Gold.PLP.Fitness>
40.2290

> <Gold.PLP.PLP>
-35.4405

> <Gold.PLP.part.hbond>
-2.0000

> <Gold.PLP.part.metal>
0.0000

> <Gold.PLP.part.buried>
-4.1223

> <Gold.PLP.part.nonpolar>
-28.8539

> <Gold.PLP.part.repulsive>
0.1799

> <Gold.PLP.ligand.clash>
0.0000

> <Gold.PLP.ligand.torsion>
0.7064

> <Gold.PLP.Chemscore.Hbond>
1.9120

> <Gold.PLP.Chemscore.CHOScore>
0.0000

> <Gold.PLP.Chemscore.Metal>
0.0000

> <Gold.Chemscore.Hbonds>
donor molecule, donor type, donor heavy atom, donor atom, acceptor molecule, acceptor atom, score
      L1  H     3    25       P1  7948  0.91
      L1  H    16    37       P1  7948  1.00

> <Gold.PLP.Chemscore.Internal.Correction>
0.4653

> <Gold.Rescore>
     Score         DG    S(hbond)    S(metal)    S(lipo)     H(rot)  DE(clash)    DE(int)     intcor
     18.34     -20.34       2.76        0.00      76.06       1.27       0.01       1.99       ----

> <Gold.Chemscore.Fitness>
18.3404

> <Gold.Chemscore.DG>
-20.3396

> <Gold.Chemscore.ZeroCoef>
-5.4800

> <Gold.Chemscore.Hbond>
2.7569

> <Gold.Chemscore.Metal>
0.0000

> <Gold.Chemscore.Lipo>
76.0561

> <Gold.Chemscore.Internal_Hbond>
0.0000

> <Gold.Chemscore.DEClash>
0.0089

> <Gold.Chemscore.DEInternal>
1.9903

> <Gold.Chemscore.Rot>
1.2684

> <Gold.Chemscore.Internal.Correction>
   9.000000E+99

> <Gold.Chemscore.Hbonds>
donor molecule, donor type, donor heavy atom, donor atom, acceptor molecule, acceptor atom, score
      L1  H     3    25       P1  7948  0.29
      L1  H    16    37       P1  7948  0.25

> <Gold.Chemscore.Hbond.Weighted>
-9.2081

> <Gold.Chemscore.Metal.Weighted>
-0.0000

> <Gold.Chemscore.Lipo.Weighted>
-8.8986

> <Gold.Chemscore.Internal_Hbond.Weighted>
0.0000

> <Gold.Chemscore.DEClash.Weighted>
0.0089

> <Gold.Chemscore.DEInternal.Weighted>
1.9903

> <Gold.Chemscore.Rot.Weighted>
3.2471

> <Gold.Chemscore.Internal.Correction.Weighted>
   9.000000E+99

> <Gold.Protein.RotatedTorsions>
[ 6907 6896 6895 6894 ] final   75.84 input  -60.11 | X-H torsion
[ 7974 7965 7964 7962 ] final -119.46 input  175.53 | X-H torsion
[ 8008 7997 7996 7995 ] final -116.63 input   59.86 | X-H torsion
[ 10167 10162 10161 10158 ] final  160.01 input  -65.29 | X-H torsion
[ 10718 10713 10712 10709 ] final  -30.54 input   66.30 | X-H torsion
[ 10763 10752 10751 10750 ] final -115.93 input  -60.55 | X-H torsion
[ 11005 11000 10999 10996 ] final  151.03 input  -57.11 | X-H torsion

> <Gold.Protein.ActiveResidues>
 VAL166  LYS551  ARG553  GLY616  TRP617  ASP618  TYR619  PRO620  LYS621  CYS622 
 ASP623  PHE694  ASN695  SER759  ASP760  ASP761  ALA762  ILE779  LEU786  VAL792 
 PHE793  MET794  SER795  GLU796  ALA797  LYS798  CYS799  TRP800  GLU811  SER814 

> <Gold.Protein.RotatedAtoms>
  152.5045  134.4060  159.9432 H   0  0  0  0  0  0  0  0  0  0  0  0  # atno 6907 bound_to 6896
  151.4026  133.3746  159.2742 H   0  0  0  0  0  0  0  0  0  0  0  0  # atno 6908 bound_to 6896
  150.9350  134.8785  159.7635 H   0  0  0  0  0  0  0  0  0  0  0  0  # atno 6909 bound_to 6896
  145.0623  140.8299  143.4145 H   0  0  0  0  0  0  0  0  0  0  0  0  # atno 7974 bound_to 7965
  155.0708  140.0393  157.2608 H   0  0  0  0  0  0  0  0  0  0  0  0  # atno 8008 bound_to 7997
  154.6984  140.2668  155.6719 H   0  0  0  0  0  0  0  0  0  0  0  0  # atno 8009 bound_to 7997
  156.2752  140.2745  156.1586 H   0  0  0  0  0  0  0  0  0  0  0  0  # atno 8010 bound_to 7997
  139.4836  144.4675  151.8621 H   0  0  0  0  0  0  0  0  0  0  0  0  # atno 10167 bound_to 10162
  156.3985  130.4386  149.7340 H   0  0  0  0  0  0  0  0  0  0  0  0  # atno 10718 bound_to 10713
  154.8500  135.4364  154.1740 H   0  0  0  0  0  0  0  0  0  0  0  0  # atno 10763 bound_to 10752
  153.2847  135.6956  153.7357 H   0  0  0  0  0  0  0  0  0  0  0  0  # atno 10764 bound_to 10752
  153.6548  135.3445  155.3085 H   0  0  0  0  0  0  0  0  0  0  0  0  # atno 10765 bound_to 10752
  140.1183  134.8880  157.2035 H   0  0  0  0  0  0  0  0  0  0  0  0  # atno 11005 bound_to 11000
  145.1393  139.2582  143.5498 LP  0  0  0  0  0  0  0  0  0  0  0  0  # atno 17320 bound_to 7965
  146.3525  140.1066  142.8605 LP  0  0  0  0  0  0  0  0  0  0  0  0  # atno 17321 bound_to 7965
  140.4142  144.2329  150.5888 LP  0  0  0  0  0  0  0  0  0  0  0  0  # atno 17342 bound_to 10162
  140.4937  143.2339  151.8781 LP  0  0  0  0  0  0  0  0  0  0  0  0  # atno 17343 bound_to 10162
  156.4365  130.7840  151.2861 LP  0  0  0  0  0  0  0  0  0  0  0  0  # atno 17370 bound_to 10713
  157.7503  131.0138  150.3438 LP  0  0  0  0  0  0  0  0  0  0  0  0  # atno 17371 bound_to 10713
  140.2999  134.3143  155.7292 LP  0  0  0  0  0  0  0  0  0  0  0  0  # atno 17394 bound_to 11000
  141.2146  133.7585  156.9625 LP  0  0  0  0  0  0  0  0  0  0  0  0  # atno 17395 bound_to 11000

$$$$
