#       Name:                AV-unprocessed.smi:3054
#       Creating user name   scv26
#       Creation time:       Fri Mar 27 17:03:25 2020


#       File generated by GOLD software.
#

@<TRIPOS>MOLECULE
AV-unprocessed.smi:3054
    43    44     1
SMALL
NO_CHARGES


@<TRIPOS>ATOM
      1 ****        -1.1581   3.2426  -2.6730 C.3            1 S1                 0.0000
      2 ****        -1.2895   2.6765  -1.2521 C.3            1 S1                 0.0000
      3 ****        -0.7314   1.2371  -1.1032 C.3            1 S1                 0.0000
      4 ****         0.8124   1.1956  -1.1878 C.3            1 S1                 0.0000
      5 ****         1.3383  -0.1679  -1.1579 N.am           1 S1                 0.0000
      6 ****         1.8560  -0.7820  -0.0846 C.2            1 S1                 0.0000
      7 ****         1.9210  -0.2627   1.0289 O.2            1 S1                 0.0000
      8 ****         2.2741  -2.0220  -0.3846 N.am           1 S1                 0.0000
      9 ****         2.8711  -2.9601   0.4941 C.2            1 S1                 0.0000
     10 ****         3.1960  -2.8227   1.8758 C.2            1 S1                 0.0000
     11 ****         3.7489  -3.9297   2.3504 N.2            1 S1                 0.0000
     12 ****         3.7828  -4.7678   1.2902 N.pl3          1 S1                 0.0000
     13 ****         3.2589  -4.2181   0.1410 C.2            1 S1                 0.0000
     14 ****        -1.2227   0.5402   0.1216 N.4            1 S1                 1.0000
     15 ****        -1.0560   1.2496   1.4157 C.3            1 S1                 0.0000
     16 ****        -2.4521   1.3538   2.0318 C.3            1 S1                 0.0000
     17 ****        -3.1763   0.1401   1.4630 C.3            1 S1                 0.0000
     18 ****        -2.6171   0.0421   0.0444 C.3            1 S1                 0.0000
     19 ****         4.1633  -5.7006   1.3661 H              1 S1                 0.0000
     20 ****        -1.6254   4.2252  -2.7405 H              1 S1                 0.0000
     21 ****        -1.6453   2.5955  -3.4027 H              1 S1                 0.0000
     22 ****        -0.1156   3.3586  -2.9683 H              1 S1                 0.0000
     23 ****        -0.7902   3.3550  -0.5605 H              1 S1                 0.0000
     24 ****        -2.3452   2.7021  -0.9836 H              1 S1                 0.0000
     25 ****        -1.1046   0.6513  -1.9453 H              1 S1                 0.0000
     26 ****         1.1491   1.6404  -2.1233 H              1 S1                 0.0000
     27 ****         1.2555   1.8002  -0.3946 H              1 S1                 0.0000
     28 ****         1.3294  -0.6744  -2.0315 H              1 S1                 0.0000
     29 ****         2.1564  -2.3272  -1.3397 H              1 S1                 0.0000
     30 ****         3.0574  -1.9836   2.5411 H              1 S1                 0.0000
     31 ****         3.2107  -4.7546  -0.7954 H              1 S1                 0.0000
     32 ****        -0.4280   0.6264   2.0526 H              1 S1                 0.0000
     33 ****        -0.5625   2.2175   1.3405 H              1 S1                 0.0000
     34 ****        -2.4342   1.3662   3.1220 H              1 S1                 0.0000
     35 ****        -2.9405   2.2684   1.6923 H              1 S1                 0.0000
     36 ****        -2.9087  -0.7510   2.0327 H              1 S1                 0.0000
     37 ****        -4.2617   0.2426   1.4855 H              1 S1                 0.0000
     38 ****        -3.2154   0.6637  -0.6221 H              1 S1                 0.0000
     39 ****        -2.6487  -0.9765  -0.3432 H              1 S1                 0.0000
     40 ****        -0.6508  -0.2885   0.2042 H              1 S1                 0.0000
     41 ****         1.5767   0.6657   1.1685 LP             1 S1                 0.0000
     42 ****         2.3181  -0.7691   1.7943 LP             1 S1                 0.0000
     43 ****         4.0685  -4.1053   3.2815 LP             1 S1                 0.0000
@<TRIPOS>BOND
    1    1    2 1     
    2    1   20 1     
    3    1   21 1     
    4    1   22 1     
    5    2    3 1     
    6    2   23 1     
    7    2   24 1     
    8    3    4 1     
    9    3   14 1     
   10    3   25 1     
   11    4    5 1     
   12    4   26 1     
   13    4   27 1     
   14    5    6 am    
   15    5   28 1     
   16    6    7 2     
   17    6    8 am    
   18    8    9 1     
   19    8   29 1     
   20    9   13 2     
   21    9   10 1     
   22   10   11 2     
   23   10   30 1     
   24   11   12 1     
   25   12   19 1     
   26   12   13 1     
   27   13   31 1     
   28   14   18 1     
   29   14   15 1     
   30   14   40 1     
   31   15   16 1     
   32   15   32 1     
   33   15   33 1     
   34   16   17 1     
   35   16   34 1     
   36   16   35 1     
   37   17   18 1     
   38   17   36 1     
   39   17   37 1     
   40   18   38 1     
   41   18   39 1     
   42    7   41 1     
   43    7   42 1     
   44   11   43 1     
@<TRIPOS>SUBSTRUCTURE
      1 S1             1
@<TRIPOS>SET
LONE_PAIRS      STATIC     ATOMS    <user>   **** ""
3 41 42 43
DONOR_HYDROGENS      STATIC     ATOMS    <user>   **** ""
4 28 29 19 40
ATOM$BLUE        STATIC     ATOMS    COLORGROUP SYSTEM
3 41 42 43
ATOM$RED        STATIC     ATOMS    COLORGROUP SYSTEM
4 28 29 19 40
