AV-unprocessed.smi:2881|AV-procd|sdf|11067|dock8
  -GOLD-   2272015543D 1   1.00000     0.00000
 Structure written by MMmdl.
 40 42  0  0  0  0  0  0  0  0  1 V2000
  154.6946  134.6126  162.1167 C   0  0  0  0  0  0  0  0  0  0  0  0
  154.5343  136.0412  161.6877 C   0  0  0  0  0  0  0  0  0  0  0  0
  155.1080  137.2064  162.2758 C   0  0  0  0  0  0  0  0  0  0  0  0
  154.6458  138.2370  161.5061 C   0  0  0  0  0  0  0  0  0  0  0  0
  154.8799  139.7108  161.5889 C   0  0  0  0  0  0  0  0  0  0  0  0
  154.5347  140.3949  160.2664 C   0  0  0  0  0  0  0  0  0  0  0  0
  154.8837  139.8868  159.2013 O   0  0  0  0  0  0  0  0  0  0  0  0
  153.8430  141.5424  160.3492 N   0  0  0  0  0  0  0  0  0  0  0  0
  153.4165  142.3616  159.2137 C   0  0  2  0  0  0  0  0  0  0  0  0
  152.7937  143.6823  159.7154 C   0  0  1  0  0  0  0  0  0  0  0  0
  152.7052  144.6756  158.5422 C   0  0  0  0  0  0  0  0  0  0  0  0
  151.5729  144.0791  157.6844 C   0  0  0  0  0  0  0  0  0  0  0  0
  151.1654  142.8222  158.4790 C   0  0  2  0  0  0  0  0  0  0  0  0
  151.3302  143.3064  159.9140 C   0  0  0  0  0  0  0  0  0  0  0  0
  152.2742  141.7490  158.3469 C   0  0  2  0  0  0  0  0  0  0  0  0
  151.8025  140.3307  158.7412 C   0  0  0  0  0  0  0  0  0  0  0  0
  150.7780  139.8927  157.8735 O   0  0  0  0  0  0  0  0  0  0  0  0
  153.8544  137.6643  160.5355 N   0  0  0  0  0  0  0  0  0  0  0  0
  153.7780  136.3245  160.6375 N   0  0  0  0  0  0  0  0  0  0  0  0
  153.3662  138.1679  159.8086 H   0  0  0  0  0  0  0  0  0  0  0  0
  155.3674  134.5313  162.9707 H   0  0  0  0  0  0  0  0  0  0  0  0
  155.1064  134.0039  161.3115 H   0  0  0  0  0  0  0  0  0  0  0  0
  153.7370  134.1800  162.4069 H   0  0  0  0  0  0  0  0  0  0  0  0
  155.7598  137.2750  163.1343 H   0  0  0  0  0  0  0  0  0  0  0  0
  155.9172  139.9162  161.8576 H   0  0  0  0  0  0  0  0  0  0  0  0
  154.2650  140.1403  162.3805 H   0  0  0  0  0  0  0  0  0  0  0  0
  153.5972  141.8806  161.2679 H   0  0  0  0  0  0  0  0  0  0  0  0
  154.2862  142.5836  158.5919 H   0  0  0  0  0  0  0  0  0  0  0  0
  153.2864  144.1005  160.5943 H   0  0  0  0  0  0  0  0  0  0  0  0
  152.4341  145.6715  158.8951 H   0  0  0  0  0  0  0  0  0  0  0  0
  153.6441  144.7603  157.9941 H   0  0  0  0  0  0  0  0  0  0  0  0
  150.7392  144.7788  157.6130 H   0  0  0  0  0  0  0  0  0  0  0  0
  151.8967  143.8444  156.6697 H   0  0  0  0  0  0  0  0  0  0  0  0
  150.1657  142.4661  158.2294 H   0  0  0  0  0  0  0  0  0  0  0  0
  151.1785  142.5253  160.6601 H   0  0  0  0  0  0  0  0  0  0  0  0
  150.6940  144.1588  160.1588 H   0  0  0  0  0  0  0  0  0  0  0  0
  152.6105  141.6998  157.3099 H   0  0  0  0  0  0  0  0  0  0  0  0
  152.6253  139.6195  158.6646 H   0  0  0  0  0  0  0  0  0  0  0  0
  151.4386  140.2996  159.7683 H   0  0  0  0  0  0  0  0  0  0  0  0
  150.4143  140.6451  157.4323 H   0  0  0  0  0  0  0  0  0  0  0  0
  1 21  1  0  0  0  0
  1 22  1  0  0  0  0
  1 23  1  0  0  0  0
  1  2  1  0  0  0  0
  2 19  2  0  0  0  0
  2  3  1  0  0  0  0
  3  4  2  0  0  0  0
  3 24  1  0  0  0  0
  4 18  1  0  0  0  0
  4  5  1  0  0  0  0
  5  6  1  0  0  0  0
  5 25  1  0  0  0  0
  5 26  1  0  0  0  0
  6  7  2  0  0  0  0
  6  8  1  0  0  0  0
  8  9  1  0  0  0  0
  8 27  1  0  0  0  0
  9 15  1  0  0  0  0
  9 10  1  0  0  0  0
  9 28  1  0  0  0  0
 10 14  1  0  0  0  0
 10 11  1  0  0  0  0
 10 29  1  0  0  0  0
 11 12  1  0  0  0  0
 11 30  1  0  0  0  0
 11 31  1  0  0  0  0
 12 13  1  0  0  0  0
 12 32  1  0  0  0  0
 12 33  1  0  0  0  0
 13 14  1  0  0  0  0
 13 15  1  0  0  0  0
 13 34  1  0  0  0  0
 14 35  1  0  0  0  0
 14 36  1  0  0  0  0
 15 16  1  0  0  0  0
 15 37  1  0  0  0  0
 16 17  1  0  0  0  0
 16 38  1  0  0  0  0
 16 39  1  0  0  0  0
 17 40  1  0  0  0  0
 18 19  1  0  0  0  0
 18 20  1  0  0  0  0
M  END
> <s_m_source_file>
AV-unprocessed.smi

> <i_m_source_file_index>
2881

> <i_lp_mmshare_version>
43012

> <i_f3d_flags>
0

> <s_epik_input>
W0NIM11jMVtjSF1jKG5bbkhdMSlbQ0gyXUMoPU8pW05IXVtDQEhdKFtDQEBIXTIzKVtDQEhdKFtDSDJdW09IXSlbQ0BASF0oW0NIMl0zKVtDSDJdW0NIMl0y

> <s_epik_cmdline>
J2VwaWtfcHl0aG9uJywgJy1waCcsICc3LjAnLCAnLXRuJywgJzgnLCAnLW1hJywgJzIwMCcsICctbWV0YWxfYmluZGluZycsICctaW1hZScsICc8aW5maWxlLm1hZT4nLCAnLW9tYWUnLCAnPG91dGZpbGUubWFlPic=

> <r_lp_tautomer_probability>
0.5

> <r_epik_Ionization_Penalty>
0.00013396

> <r_epik_Ionization_Penalty_Charging>
0

> <r_epik_Ionization_Penalty_Neutral>
0.00013396

> <r_epik_State_Penalty>
0.41068

> <r_epik_Charging_Adjusted_Penalty>
0.41068

> <i_epik_Tot_Q>
0

> <i_epik_Tot_abs_Q>
0

> <r_epik_Metal_State_Penalty>
0.41066

> <b_epik_Metal_Only>
0

> <s_lp_Force_Field>
OPLS_2005

> <r_lp_Energy>
49.1739

> <b_lp_Chiralities_Consistent>
1

> <s_lp_Variant>
AV-unprocessed.smi:2881-13

> <Gold.Version>
5.8.1

> <Gold.Id.Protein>
6NUR|6NUR_protein|mol2

> <Gold.PLP.Fitness>
39.8075

> <Gold.PLP.PLP>
-35.3589

> <Gold.PLP.part.hbond>
-1.7930

> <Gold.PLP.part.metal>
0.0000

> <Gold.PLP.part.buried>
-4.6615

> <Gold.PLP.part.nonpolar>
-28.9457

> <Gold.PLP.part.repulsive>
0.0915

> <Gold.PLP.ligand.clash>
0.0000

> <Gold.PLP.ligand.torsion>
0.5550

> <Gold.PLP.Chemscore.Hbond>
1.8450

> <Gold.PLP.Chemscore.CHOScore>
0.0000

> <Gold.PLP.Chemscore.Metal>
0.0000

> <Gold.Chemscore.Hbonds>
donor molecule, donor type, donor heavy atom, donor atom, acceptor molecule, acceptor atom, score
      P1  H  6896  6907       L1    19  0.68
      P1  H  7997  8008       L1     7  1.00

> <Gold.PLP.Chemscore.Internal.Correction>
0.0235

> <Gold.Rescore>
     Score         DG    S(hbond)    S(metal)    S(lipo)     H(rot)  DE(clash)    DE(int)     intcor
     19.07     -19.55       1.91        0.00     115.56       2.28       0.01       0.47       ----

> <Gold.Chemscore.Fitness>
19.0701

> <Gold.Chemscore.DG>
-19.5531

> <Gold.Chemscore.ZeroCoef>
-5.4800

> <Gold.Chemscore.Hbond>
1.9095

> <Gold.Chemscore.Metal>
0.0000

> <Gold.Chemscore.Lipo>
115.5610

> <Gold.Chemscore.Internal_Hbond>
0.0000

> <Gold.Chemscore.DEClash>
0.0089

> <Gold.Chemscore.DEInternal>
0.4741

> <Gold.Chemscore.Rot>
2.2755

> <Gold.Chemscore.Internal.Correction>
   9.000000E+99

> <Gold.Chemscore.Hbonds>
donor molecule, donor type, donor heavy atom, donor atom, acceptor molecule, acceptor atom, score
      P1  H  6896  6907       L1    19  0.64
      P1  H  7997  8008       L1     7  0.97

> <Gold.Chemscore.Hbond.Weighted>
-6.3777

> <Gold.Chemscore.Metal.Weighted>
-0.0000

> <Gold.Chemscore.Lipo.Weighted>
-13.5206

> <Gold.Chemscore.Internal_Hbond.Weighted>
0.0000

> <Gold.Chemscore.DEClash.Weighted>
0.0089

> <Gold.Chemscore.DEInternal.Weighted>
0.4741

> <Gold.Chemscore.Rot.Weighted>
5.8252

> <Gold.Chemscore.Internal.Correction.Weighted>
   9.000000E+99

> <Gold.Protein.RotatedTorsions>
[ 6907 6896 6895 6894 ] final   44.07 input  -60.11 | X-H torsion
[ 7974 7965 7964 7962 ] final   37.70 input  175.53 | X-H torsion
[ 8008 7997 7996 7995 ] final -133.53 input   59.86 | X-H torsion
[ 10167 10162 10161 10158 ] final  111.26 input  -65.29 | X-H torsion
[ 10718 10713 10712 10709 ] final  -96.29 input   66.30 | X-H torsion
[ 10763 10752 10751 10750 ] final  140.87 input  -60.55 | X-H torsion
[ 11005 11000 10999 10996 ] final   13.41 input  -57.11 | X-H torsion

> <Gold.Protein.ActiveResidues>
 VAL166  LYS551  ARG553  GLY616  TRP617  ASP618  TYR619  PRO620  LYS621  CYS622 
 ASP623  PHE694  ASN695  SER759  ASP760  ASP761  ALA762  ILE779  LEU786  VAL792 
 PHE793  MET794  SER795  GLU796  ALA797  LYS798  CYS799  TRP800  GLU811  SER814 

> <Gold.Protein.RotatedAtoms>
  152.2280  134.8349  160.0477 H   0  0  0  0  0  0  0  0  0  0  0  0  # atno 6907 bound_to 6896
  151.9109  133.3556  159.3871 H   0  0  0  0  0  0  0  0  0  0  0  0  # atno 6908 bound_to 6896
  150.7018  134.4659  159.5446 H   0  0  0  0  0  0  0  0  0  0  0  0  # atno 6909 bound_to 6896
  146.1117  139.5862  142.9347 H   0  0  0  0  0  0  0  0  0  0  0  0  # atno 7974 bound_to 7965
  155.3470  140.0475  157.3045 H   0  0  0  0  0  0  0  0  0  0  0  0  # atno 8008 bound_to 7997
  154.5247  140.2237  155.8876 H   0  0  0  0  0  0  0  0  0  0  0  0  # atno 8009 bound_to 7997
  156.1727  140.3092  155.9008 H   0  0  0  0  0  0  0  0  0  0  0  0  # atno 8010 bound_to 7997
  139.6625  144.7128  151.1839 H   0  0  0  0  0  0  0  0  0  0  0  0  # atno 10167 bound_to 10162
  156.0059  130.5145  150.6203 H   0  0  0  0  0  0  0  0  0  0  0  0  # atno 10718 bound_to 10713
  153.9299  135.2991  155.3446 H   0  0  0  0  0  0  0  0  0  0  0  0  # atno 10763 bound_to 10752
  154.7532  135.4970  153.9330 H   0  0  0  0  0  0  0  0  0  0  0  0  # atno 10764 bound_to 10752
  153.1097  135.6756  153.9627 H   0  0  0  0  0  0  0  0  0  0  0  0  # atno 10765 bound_to 10752
  140.4810  134.0935  155.7751 H   0  0  0  0  0  0  0  0  0  0  0  0  # atno 11005 bound_to 11000
  145.5649  141.0400  143.2206 LP  0  0  0  0  0  0  0  0  0  0  0  0  # atno 17320 bound_to 7965
  144.7518  139.7175  143.7270 LP  0  0  0  0  0  0  0  0  0  0  0  0  # atno 17321 bound_to 7965
  140.7586  143.5972  150.8736 LP  0  0  0  0  0  0  0  0  0  0  0  0  # atno 17342 bound_to 10162
  139.9631  143.6141  152.2996 LP  0  0  0  0  0  0  0  0  0  0  0  0  # atno 17343 bound_to 10162
  157.4020  131.0811  151.1300 LP  0  0  0  0  0  0  0  0  0  0  0  0  # atno 17370 bound_to 10713
  157.1958  130.6372  149.5721 LP  0  0  0  0  0  0  0  0  0  0  0  0  # atno 17371 bound_to 10713
  141.1531  133.8933  157.2047 LP  0  0  0  0  0  0  0  0  0  0  0  0  # atno 17394 bound_to 11000
  139.9826  135.0093  156.9786 LP  0  0  0  0  0  0  0  0  0  0  0  0  # atno 17395 bound_to 11000

$$$$
