AV-unprocessed.smi:162|AV-procd|sdf|1378|dock10
  -GOLD-   2262019103D 1   1.00000     0.00000
 Structure written by MMmdl.
 54 57  0  0  0  0  0  0  0  0  1 V2000
  147.2330  142.8701  158.7026 C   0  0  0  0  0  0  0  0  0  0  0  0
  148.0643  141.7971  158.2992 O   0  0  0  0  0  0  0  0  0  0  0  0
  147.6648  141.2313  157.0615 C   0  0  0  0  0  0  0  0  0  0  0  0
  148.6677  140.1382  156.6578 C   0  0  2  0  0  0  0  0  0  0  0  0
  150.1120  140.6253  156.5818 C   0  0  0  0  0  0  0  0  0  0  0  0
  150.7786  139.5120  155.7689 C   0  0  2  0  0  0  0  0  0  0  0  0
  151.9152  139.9511  155.0390 O   0  0  0  0  0  0  0  0  0  0  0  0
  152.8214  138.9086  154.7169 C   0  0  0  0  0  0  0  0  0  0  0  0
  149.6684  139.0441  154.8157 C   0  0  0  0  0  0  0  0  0  0  0  0
  148.4203  139.6009  155.3250 N   0  0  0  0  0  0  0  0  0  0  0  0
  147.3410  138.8040  155.1743 C   0  0  0  0  0  0  0  0  0  0  0  0
  146.7528  138.3497  156.3075 N   0  0  0  0  0  0  0  0  0  0  0  0
  145.6868  137.5475  156.2305 C   0  0  0  0  0  0  0  0  0  0  0  0
  145.0619  137.0901  155.1431 N   0  0  0  0  0  0  0  0  0  0  0  0
  145.6487  137.5532  154.0020 C   0  0  0  0  0  0  0  0  0  0  0  0
  146.7813  138.4115  153.9256 C   0  0  0  0  0  0  0  0  0  0  0  0
  147.0859  138.6766  152.5957 N   0  0  0  0  0  0  0  0  0  0  0  0
  146.1911  138.0040  151.9245 C   0  0  0  0  0  0  0  0  0  0  0  0
  145.2855  137.3045  152.6901 N   0  0  0  0  0  0  0  0  0  0  0  0
  144.1903  136.4763  152.2087 C   0  0  0  0  0  0  0  0  0  0  0  0
  144.6354  135.3343  151.2623 C   0  0  0  0  0  0  0  0  0  0  0  0
  144.7376  135.8754  149.9561 O   0  0  0  0  0  0  0  0  0  0  0  0
  146.0213  134.8006  151.6773 C   0  0  0  0  0  0  0  0  0  0  0  0
  146.4308  133.5583  150.8660 C   0  0  0  0  0  0  0  0  0  0  0  0
  145.4338  132.5507  150.9841 O   0  0  0  0  0  0  0  0  0  0  0  0
  144.1790  132.9529  150.4485 C   0  0  0  0  0  0  0  0  0  0  0  0
  143.6309  134.1612  151.2289 C   0  0  0  0  0  0  0  0  0  0  0  0
  148.6293  139.3373  157.3961 H   0  0  0  0  0  0  0  0  0  0  0  0
  151.0417  138.6823  156.4277 H   0  0  0  0  0  0  0  0  0  0  0  0
  147.5807  143.2626  159.6580 H   0  0  0  0  0  0  0  0  0  0  0  0
  146.2005  142.5419  158.8285 H   0  0  0  0  0  0  0  0  0  0  0  0
  147.2575  143.6826  157.9752 H   0  0  0  0  0  0  0  0  0  0  0  0
  146.6540  140.8244  157.1229 H   0  0  0  0  0  0  0  0  0  0  0  0
  147.6559  142.0167  156.3041 H   0  0  0  0  0  0  0  0  0  0  0  0
  150.1641  141.5710  156.0397 H   0  0  0  0  0  0  0  0  0  0  0  0
  150.5639  140.7678  157.5636 H   0  0  0  0  0  0  0  0  0  0  0  0
  153.6503  139.3146  154.1375 H   0  0  0  0  0  0  0  0  0  0  0  0
  152.3387  138.1367  154.1161 H   0  0  0  0  0  0  0  0  0  0  0  0
  153.2369  138.4468  155.6128 H   0  0  0  0  0  0  0  0  0  0  0  0
  149.8298  139.4431  153.8138 H   0  0  0  0  0  0  0  0  0  0  0  0
  149.6463  137.9559  154.7375 H   0  0  0  0  0  0  0  0  0  0  0  0
  145.2758  137.2262  157.1761 H   0  0  0  0  0  0  0  0  0  0  0  0
  146.1631  138.0030  150.8444 H   0  0  0  0  0  0  0  0  0  0  0  0
  143.6629  136.0706  153.0733 H   0  0  0  0  0  0  0  0  0  0  0  0
  143.4777  137.1255  151.6984 H   0  0  0  0  0  0  0  0  0  0  0  0
  144.5018  136.7899  149.9914 H   0  0  0  0  0  0  0  0  0  0  0  0
  146.7782  135.5797  151.5781 H   0  0  0  0  0  0  0  0  0  0  0  0
  146.0008  134.5286  152.7337 H   0  0  0  0  0  0  0  0  0  0  0  0
  146.5907  133.8072  149.8158 H   0  0  0  0  0  0  0  0  0  0  0  0
  147.3742  133.1625  151.2423 H   0  0  0  0  0  0  0  0  0  0  0  0
  144.2813  133.1844  149.3872 H   0  0  0  0  0  0  0  0  0  0  0  0
  143.4835  132.1168  150.5216 H   0  0  0  0  0  0  0  0  0  0  0  0
  143.4146  133.8453  152.2502 H   0  0  0  0  0  0  0  0  0  0  0  0
  142.6791  134.4736  150.7975 H   0  0  0  0  0  0  0  0  0  0  0  0
  1  2  1  0  0  0  0
  1 30  1  0  0  0  0
  1 31  1  0  0  0  0
  1 32  1  0  0  0  0
  2  3  1  0  0  0  0
  3  4  1  0  0  0  0
  3 33  1  0  0  0  0
  3 34  1  0  0  0  0
  4 28  1  0  0  0  0
  4 10  1  0  0  0  0
  4  5  1  0  0  0  0
  5  6  1  0  0  0  0
  5 35  1  0  0  0  0
  5 36  1  0  0  0  0
  6 29  1  0  0  0  0
  6  7  1  0  0  0  0
  6  9  1  0  0  0  0
  7  8  1  0  0  0  0
  8 37  1  0  0  0  0
  8 38  1  0  0  0  0
  8 39  1  0  0  0  0
  9 10  1  0  0  0  0
  9 40  1  0  0  0  0
  9 41  1  0  0  0  0
 10 11  1  0  0  0  0
 11 16  1  0  0  0  0
 11 12  2  0  0  0  0
 12 13  1  0  0  0  0
 13 14  2  0  0  0  0
 13 42  1  0  0  0  0
 14 15  1  0  0  0  0
 15 19  1  0  0  0  0
 15 16  2  0  0  0  0
 16 17  1  0  0  0  0
 17 18  2  0  0  0  0
 18 19  1  0  0  0  0
 18 43  1  0  0  0  0
 19 20  1  0  0  0  0
 20 21  1  0  0  0  0
 20 44  1  0  0  0  0
 20 45  1  0  0  0  0
 21 27  1  0  0  0  0
 21 22  1  0  0  0  0
 21 23  1  0  0  0  0
 22 46  1  0  0  0  0
 23 24  1  0  0  0  0
 23 47  1  0  0  0  0
 23 48  1  0  0  0  0
 24 25  1  0  0  0  0
 24 49  1  0  0  0  0
 24 50  1  0  0  0  0
 25 26  1  0  0  0  0
 26 27  1  0  0  0  0
 26 51  1  0  0  0  0
 26 52  1  0  0  0  0
 27 53  1  0  0  0  0
 27 54  1  0  0  0  0
M  END
> <s_m_source_file>
AV-unprocessed.smi

> <i_m_source_file_index>
162

> <i_lp_mmshare_version>
43012

> <i_f3d_flags>
0

> <s_epik_input>
W0NIM11PW0NIMl1bQ0BASF0xW0NIMl1bQ0BASF0oT1tDSDNdKVtDSDJdTjFjKG5bY0hdbjIpYyhjMjMpbltjSF1uM1tDSDJdQzQoW09IXSlbQ0gyXVtDSDJdT1tDSDJdW0NIMl00

> <s_epik_cmdline>
J2VwaWtfcHl0aG9uJywgJy1waCcsICc3LjAnLCAnLXRuJywgJzgnLCAnLW1hJywgJzIwMCcsICctbWV0YWxfYmluZGluZycsICctaW1hZScsICc8aW5maWxlLm1hZT4nLCAnLW9tYWUnLCAnPG91dGZpbGUubWFlPic=

> <r_lp_tautomer_probability>
1

> <r_epik_Ionization_Penalty>
0.00660334

> <r_epik_Ionization_Penalty_Charging>
0

> <r_epik_Ionization_Penalty_Neutral>
0.00660334

> <r_epik_State_Penalty>
0.00469459

> <r_epik_Charging_Adjusted_Penalty>
0.00469459

> <i_epik_Tot_Q>
0

> <i_epik_Tot_abs_Q>
0

> <r_epik_Metal_State_Penalty>
-0

> <b_epik_Metal_Only>
0

> <s_lp_Force_Field>
OPLS_2005

> <r_lp_Energy>
44.4659

> <b_lp_Chiralities_Consistent>
1

> <s_lp_Variant>
AV-unprocessed.smi:162-3

> <Gold.Version>
5.8.1

> <Gold.Id.Protein>
6NUR|6NUR_protein|mol2

> <Gold.PLP.Fitness>
41.0650

> <Gold.PLP.PLP>
-34.9251

> <Gold.PLP.part.hbond>
-3.3035

> <Gold.PLP.part.metal>
0.0000

> <Gold.PLP.part.buried>
-5.0863

> <Gold.PLP.part.nonpolar>
-27.0840

> <Gold.PLP.part.repulsive>
0.5895

> <Gold.PLP.ligand.clash>
0.0000

> <Gold.PLP.ligand.torsion>
0.8910

> <Gold.PLP.Chemscore.Hbond>
1.8960

> <Gold.PLP.Chemscore.CHOScore>
0.6855

> <Gold.PLP.Chemscore.Metal>
0.0000

> <Gold.Chemscore.Hbonds>
donor molecule, donor type, donor heavy atom, donor atom, acceptor molecule, acceptor atom, score
      L1  H    22    46       P1 10171  1.00
      P1  H  7989  7998       L1     7  0.90
      L1  C    18    43       P1 10171  0.64

> <Gold.PLP.Chemscore.Internal.Correction>
0.1773

> <Gold.Rescore>
     Score         DG    S(hbond)    S(metal)    S(lipo)     H(rot)  DE(clash)    DE(int)     intcor
     11.05     -12.40       1.73        0.00      72.41       2.86       0.44       0.91       ----

> <Gold.Chemscore.Fitness>
11.0541

> <Gold.Chemscore.DG>
-12.4005

> <Gold.Chemscore.ZeroCoef>
-5.4800

> <Gold.Chemscore.Hbond>
1.7308

> <Gold.Chemscore.Metal>
0.0000

> <Gold.Chemscore.Lipo>
72.4108

> <Gold.Chemscore.Internal_Hbond>
0.0000

> <Gold.Chemscore.DEClash>
0.4362

> <Gold.Chemscore.DEInternal>
0.9102

> <Gold.Chemscore.Rot>
2.8642

> <Gold.Chemscore.Internal.Correction>
   9.000000E+99

> <Gold.Chemscore.Hbonds>
donor molecule, donor type, donor heavy atom, donor atom, acceptor molecule, acceptor atom, score
      L1  H    22    46       P1 10171  1.00
      P1  H  7989  7998       L1     7  0.43

> <Gold.Chemscore.Hbond.Weighted>
-5.7808

> <Gold.Chemscore.Metal.Weighted>
-0.0000

> <Gold.Chemscore.Lipo.Weighted>
-8.4721

> <Gold.Chemscore.Internal_Hbond.Weighted>
0.0000

> <Gold.Chemscore.DEClash.Weighted>
0.4362

> <Gold.Chemscore.DEInternal.Weighted>
0.9102

> <Gold.Chemscore.Rot.Weighted>
7.3324

> <Gold.Chemscore.Internal.Correction.Weighted>
   9.000000E+99

> <Gold.Protein.RotatedTorsions>
[ 6907 6896 6895 6894 ] final   51.33 input  -60.11 | X-H torsion
[ 7974 7965 7964 7962 ] final  -81.25 input  175.53 | X-H torsion
[ 8008 7997 7996 7995 ] final  -15.83 input   59.86 | X-H torsion
[ 10167 10162 10161 10158 ] final  -31.14 input  -65.29 | X-H torsion
[ 10718 10713 10712 10709 ] final    7.48 input   66.30 | X-H torsion
[ 10763 10752 10751 10750 ] final   14.43 input  -60.55 | X-H torsion
[ 11005 11000 10999 10996 ] final   48.79 input  -57.11 | X-H torsion

> <Gold.Protein.ActiveResidues>
 VAL166  LYS551  ARG553  GLY616  TRP617  ASP618  TYR619  PRO620  LYS621  CYS622 
 ASP623  PHE694  ASN695  SER759  ASP760  ASP761  ALA762  ILE779  LEU786  VAL792 
 PHE793  MET794  SER795  GLU796  ALA797  LYS798  CYS799  TRP800  GLU811  SER814 

> <Gold.Protein.RotatedAtoms>
  152.3115  134.7491  160.0335 H   0  0  0  0  0  0  0  0  0  0  0  0  # atno 6907 bound_to 6896
  151.7971  133.3360  159.3524 H   0  0  0  0  0  0  0  0  0  0  0  0  # atno 6908 bound_to 6896
  150.7323  134.5719  159.5939 H   0  0  0  0  0  0  0  0  0  0  0  0  # atno 6909 bound_to 6896
  145.5491  140.9499  143.1509 H   0  0  0  0  0  0  0  0  0  0  0  0  # atno 7974 bound_to 7965
  154.5100  140.2186  155.9175 H   0  0  0  0  0  0  0  0  0  0  0  0  # atno 8008 bound_to 7997
  156.1540  140.3155  155.8662 H   0  0  0  0  0  0  0  0  0  0  0  0  # atno 8009 bound_to 7997
  155.3882  140.0476  157.3032 H   0  0  0  0  0  0  0  0  0  0  0  0  # atno 8010 bound_to 7997
  140.7240  143.3794  151.1629 H   0  0  0  0  0  0  0  0  0  0  0  0  # atno 10167 bound_to 10162
  156.9375  130.5849  149.5651 H   0  0  0  0  0  0  0  0  0  0  0  0  # atno 10718 bound_to 10713
  153.1623  135.6798  153.8725 H   0  0  0  0  0  0  0  0  0  0  0  0  # atno 10763 bound_to 10752
  153.8116  135.3142  155.3402 H   0  0  0  0  0  0  0  0  0  0  0  0  # atno 10764 bound_to 10752
  154.7941  135.4817  154.0209 H   0  0  0  0  0  0  0  0  0  0  0  0  # atno 10765 bound_to 10752
  140.1159  134.4893  155.8637 H   0  0  0  0  0  0  0  0  0  0  0  0  # atno 11005 bound_to 11000
  144.7538  139.7126  143.7262 LP  0  0  0  0  0  0  0  0  0  0  0  0  # atno 17320 bound_to 7965
  146.1929  139.5179  142.9793 LP  0  0  0  0  0  0  0  0  0  0  0  0  # atno 17321 bound_to 7965
  139.7380  143.8969  152.3041 LP  0  0  0  0  0  0  0  0  0  0  0  0  # atno 17342 bound_to 10162
  139.8780  144.7033  150.8910 LP  0  0  0  0  0  0  0  0  0  0  0  0  # atno 17343 bound_to 10162
  156.0419  130.5500  150.8791 LP  0  0  0  0  0  0  0  0  0  0  0  0  # atno 17370 bound_to 10713
  157.5806  131.0946  150.9276 LP  0  0  0  0  0  0  0  0  0  0  0  0  # atno 17371 bound_to 10713
  141.2141  133.6743  156.6796 LP  0  0  0  0  0  0  0  0  0  0  0  0  # atno 17394 bound_to 11000
  140.3028  134.8149  157.4112 LP  0  0  0  0  0  0  0  0  0  0  0  0  # atno 17395 bound_to 11000

$$$$
