#       Name:                AV-unprocessed.smi:2448
#       Creating user name   scv26
#       Creation time:       Fri Mar 27 13:28:58 2020


#       File generated by GOLD software.
#

@<TRIPOS>MOLECULE
AV-unprocessed.smi:2448
    41    42     1
SMALL
NO_CHARGES


@<TRIPOS>ATOM
      1 ****        -2.2336  -0.3674  -0.2199 O.3            1 S1                 0.0000
      2 ****        -1.7837   0.6816   0.6214 C.3            1 S1                 0.0000
      3 ****        -0.2424   0.7102   0.5872 C.3            1 S1                 0.0000
      4 ****         0.3503  -0.5322   1.1316 N.4            1 S1                 1.0000
      5 ****         1.8271  -0.6216   1.0400 C.3            1 S1                 0.0000
      6 ****         2.2564  -1.5088  -0.1509 C.3            1 S1                 0.0000
      7 ****         1.8114  -0.9741  -1.4999 C.ar           1 S1                 0.0000
      8 ****         0.6900  -1.5205  -2.1583 C.ar           1 S1                 0.0000
      9 ****         0.3041  -0.9696  -3.3969 C.ar           1 S1                 0.0000
     10 ****         0.9550   0.0561  -3.9861 N.ar           1 S1                 0.0000
     11 ****         2.0315   0.5699  -3.3535 C.ar           1 S1                 0.0000
     12 ****         2.4992   0.0936  -2.1120 C.ar           1 S1                 0.0000
     13 ****         2.3971  -1.1477   2.3714 C.3            1 S1                 0.0000
     14 ****         2.0224  -0.3450   3.3678 F              1 S1                 0.0000
     15 ****         1.9497  -2.3790   2.6200 F              1 S1                 0.0000
     16 ****         3.7290  -1.1689   2.3279 F              1 S1                 0.0000
     17 ****        -2.3891   1.9917   0.0908 C.3            1 S1                 0.0000
     18 ****        -3.8772   2.0023   0.4548 C.3            1 S1                 0.0000
     19 ****        -4.0555   1.1560   2.0453 S.3            1 S1                 0.0000
     20 ****        -2.3658   0.5008   2.0349 C.3            1 S1                 0.0000
     21 ****        -2.0608  -1.1955   0.2006 H              1 S1                 0.0000
     22 ****         0.0966   0.8690  -0.4365 H              1 S1                 0.0000
     23 ****         0.1273   1.5543   1.1711 H              1 S1                 0.0000
     24 ****         0.0973  -0.5847   2.1083 H              1 S1                 0.0000
     25 ****         2.2323   0.3815   0.8934 H              1 S1                 0.0000
     26 ****         3.3428  -1.6009  -0.1716 H              1 S1                 0.0000
     27 ****         1.8722  -2.5218  -0.0228 H              1 S1                 0.0000
     28 ****         0.1309  -2.3380  -1.7270 H              1 S1                 0.0000
     29 ****        -0.5524  -1.3609  -3.9259 H              1 S1                 0.0000
     30 ****         2.5328   1.3883  -3.8488 H              1 S1                 0.0000
     31 ****         3.3629   0.5424  -1.6433 H              1 S1                 0.0000
     32 ****        -1.9051   2.8383   0.5799 H              1 S1                 0.0000
     33 ****        -2.2352   2.1169  -0.9821 H              1 S1                 0.0000
     34 ****        -4.2818   3.0136   0.5008 H              1 S1                 0.0000
     35 ****        -4.4502   1.4499  -0.2908 H              1 S1                 0.0000
     36 ****        -2.3475  -0.5368   2.3704 H              1 S1                 0.0000
     37 ****        -1.7901   1.0848   2.7542 H              1 S1                 0.0000
     38 ****        -0.0484  -1.3280   0.6543 H              1 S1                 0.0000
     39 ****        -1.7487  -0.3276  -1.0936 LP             1 S1                 0.0000
     40 ****        -3.2161  -0.2711  -0.3793 LP             1 S1                 0.0000
     41 ****         0.6492   0.4240  -4.8642 LP             1 S1                 0.0000
@<TRIPOS>BOND
    1    1    2 1     
    2    1   21 1     
    3    2   20 1     
    4    2    3 1     
    5    2   17 1     
    6    3    4 1     
    7    3   22 1     
    8    3   23 1     
    9    4    5 1     
   10    4   24 1     
   11    4   38 1     
   12    5    6 1     
   13    5   13 1     
   14    5   25 1     
   15    6    7 1     
   16    6   26 1     
   17    6   27 1     
   18    7   12 ar    
   19    7    8 ar    
   20    8    9 ar    
   21    8   28 1     
   22    9   10 ar    
   23    9   29 1     
   24   10   11 ar    
   25   11   12 ar    
   26   11   30 1     
   27   12   31 1     
   28   13   14 1     
   29   13   15 1     
   30   13   16 1     
   31   17   18 1     
   32   17   32 1     
   33   17   33 1     
   34   18   19 1     
   35   18   34 1     
   36   18   35 1     
   37   19   20 1     
   38   20   36 1     
   39   20   37 1     
   40    1   39 1     
   41    1   40 1     
   42   10   41 1     
@<TRIPOS>SUBSTRUCTURE
      1 S1             1
@<TRIPOS>SET
LONE_PAIRS      STATIC     ATOMS    <user>   **** ""
3 39 40 41
DONOR_HYDROGENS      STATIC     ATOMS    <user>   **** ""
3 21 24 38
ATOM$BLUE        STATIC     ATOMS    COLORGROUP SYSTEM
3 39 40 41
ATOM$RED        STATIC     ATOMS    COLORGROUP SYSTEM
3 21 24 38
