AV-unprocessed.smi:1668|AV-procd|sdf|6682|dock3
  -GOLD-   22720 7403D 1   1.00000     0.00000
 Structure written by MMmdl.
 44 46  0  0  0  0  0  0  0  0  1 V2000
  145.6762  143.3589  153.7786 C   0  0  0  0  0  0  0  0  0  0  0  0
  147.0822  143.1817  153.8718 O   0  0  0  0  0  0  0  0  0  0  0  0
  147.5603  141.9165  154.1372 C   0  0  0  0  0  0  0  0  0  0  0  0
  146.8880  140.7218  153.7886 C   0  0  0  0  0  0  0  0  0  0  0  0
  147.4488  139.4702  154.1027 C   0  0  0  0  0  0  0  0  0  0  0  0
  148.6968  139.3785  154.7678 C   0  0  0  0  0  0  0  0  0  0  0  0
  149.2872  138.1782  155.1073 O   0  0  0  0  0  0  0  0  0  0  0  0
  148.5576  136.9788  154.8959 C   0  0  0  0  0  0  0  0  0  0  0  0
  149.3772  140.5728  155.1105 C   0  0  0  0  0  0  0  0  0  0  0  0
  150.7183  140.5153  155.8391 C   0  0  1  0  0  0  0  0  0  0  0  0
  151.7557  140.0435  155.0002 O   0  0  0  0  0  0  0  0  0  0  0  0
  151.1102  141.9078  156.3725 C   0  0  0  0  0  0  0  0  0  0  0  0
  151.7588  141.8271  157.6799 N   0  0  0  0  0  0  0  0  0  0  0  0
  152.4950  140.7933  158.1524 C   0  0  0  0  0  0  0  0  0  0  0  0
  152.7542  139.7537  157.5466 O   0  0  0  0  0  0  0  0  0  0  0  0
  152.8913  141.1017  159.4097 N   0  0  0  0  0  0  0  0  0  0  0  0
  153.6997  140.2789  160.3015 C   0  0  0  0  0  0  0  0  0  0  0  0
  152.3863  142.3614  159.7553 C   0  0  0  0  0  0  0  0  0  0  0  0
  152.5074  143.1116  160.9374 C   0  0  0  0  0  0  0  0  0  0  0  0
  151.8653  144.3720  160.9709 C   0  0  0  0  0  0  0  0  0  0  0  0
  151.1332  144.8451  159.8508 C   0  0  0  0  0  0  0  0  0  0  0  0
  151.0282  144.0683  158.6732 C   0  0  0  0  0  0  0  0  0  0  0  0
  151.6749  142.8200  158.6669 C   0  0  0  0  0  0  0  0  0  0  0  0
  148.7987  141.8245  154.8001 C   0  0  0  0  0  0  0  0  0  0  0  0
  145.4595  144.4035  153.5558 H   0  0  0  0  0  0  0  0  0  0  0  0
  145.1794  143.1122  154.7179 H   0  0  0  0  0  0  0  0  0  0  0  0
  145.2510  142.7561  152.9751 H   0  0  0  0  0  0  0  0  0  0  0  0
  145.9352  140.7373  153.2817 H   0  0  0  0  0  0  0  0  0  0  0  0
  146.8936  138.5887  153.8209 H   0  0  0  0  0  0  0  0  0  0  0  0
  149.1630  136.1312  155.2170 H   0  0  0  0  0  0  0  0  0  0  0  0
  148.3228  136.8350  153.8404 H   0  0  0  0  0  0  0  0  0  0  0  0
  147.6355  136.9647  155.4782 H   0  0  0  0  0  0  0  0  0  0  0  0
  150.6446  139.8080  156.6657 H   0  0  0  0  0  0  0  0  0  0  0  0
  152.3345  139.5027  155.5154 H   0  0  0  0  0  0  0  0  0  0  0  0
  151.7298  142.4447  155.6522 H   0  0  0  0  0  0  0  0  0  0  0  0
  150.2130  142.5156  156.4984 H   0  0  0  0  0  0  0  0  0  0  0  0
  154.5212  140.8633  160.7163 H   0  0  0  0  0  0  0  0  0  0  0  0
  154.1289  139.4183  159.7869 H   0  0  0  0  0  0  0  0  0  0  0  0
  153.0907  139.9105  161.1272 H   0  0  0  0  0  0  0  0  0  0  0  0
  153.0659  142.7443  161.7858 H   0  0  0  0  0  0  0  0  0  0  0  0
  151.9333  144.9815  161.8598 H   0  0  0  0  0  0  0  0  0  0  0  0
  150.6509  145.8102  159.8969 H   0  0  0  0  0  0  0  0  0  0  0  0
  150.4745  144.4245  157.8179 H   0  0  0  0  0  0  0  0  0  0  0  0
  149.3083  142.7363  155.0753 H   0  0  0  0  0  0  0  0  0  0  0  0
  1  2  1  0  0  0  0
  1 25  1  0  0  0  0
  1 26  1  0  0  0  0
  1 27  1  0  0  0  0
  2  3  1  0  0  0  0
  3 24  1  0  0  0  0
  3  4  2  0  0  0  0
  4  5  1  0  0  0  0
  4 28  1  0  0  0  0
  5  6  2  0  0  0  0
  5 29  1  0  0  0  0
  6  7  1  0  0  0  0
  6  9  1  0  0  0  0
  7  8  1  0  0  0  0
  8 30  1  0  0  0  0
  8 31  1  0  0  0  0
  8 32  1  0  0  0  0
  9 10  1  0  0  0  0
  9 24  2  0  0  0  0
 10 11  1  0  0  0  0
 10 12  1  0  0  0  0
 10 33  1  0  0  0  0
 11 34  1  0  0  0  0
 12 13  1  0  0  0  0
 12 35  1  0  0  0  0
 12 36  1  0  0  0  0
 13 23  1  0  0  0  0
 13 14  1  0  0  0  0
 14 15  2  0  0  0  0
 14 16  1  0  0  0  0
 16 17  1  0  0  0  0
 16 18  1  0  0  0  0
 17 37  1  0  0  0  0
 17 38  1  0  0  0  0
 17 39  1  0  0  0  0
 18 23  2  0  0  0  0
 18 19  1  0  0  0  0
 19 20  2  0  0  0  0
 19 40  1  0  0  0  0
 20 21  1  0  0  0  0
 20 41  1  0  0  0  0
 21 22  2  0  0  0  0
 21 42  1  0  0  0  0
 22 23  1  0  0  0  0
 22 43  1  0  0  0  0
 24 44  1  0  0  0  0
M  END
> <s_m_source_file>
AV-unprocessed.smi

> <i_m_source_file_index>
1668

> <i_lp_mmshare_version>
43012

> <i_f3d_flags>
0

> <s_epik_input>
W0NIM11PYzFbY0hdW2NIXWMoT1tDSDNdKWMoW2NIXTEpW0NASF0oW09IXSlbQ0gyXW4oYyg9TyluMltDSDNdKWMoYzIzKVtjSF1bY0hdW2NIXVtjSF0z

> <s_epik_cmdline>
J2VwaWtfcHl0aG9uJywgJy1waCcsICc3LjAnLCAnLXRuJywgJzgnLCAnLW1hJywgJzIwMCcsICctbWV0YWxfYmluZGluZycsICctaW1hZScsICc8aW5maWxlLm1hZT4nLCAnLW9tYWUnLCAnPG91dGZpbGUubWFlPic=

> <r_lp_tautomer_probability>
1

> <r_epik_Ionization_Penalty>
1.34538e-06

> <r_epik_Ionization_Penalty_Charging>
1.76928e-09

> <r_epik_Ionization_Penalty_Neutral>
1.34362e-06

> <r_epik_State_Penalty>
-0

> <r_epik_Charging_Adjusted_Penalty>
1.76928e-09

> <i_epik_Tot_Q>
0

> <i_epik_Tot_abs_Q>
0

> <r_epik_Metal_State_Penalty>
-0

> <b_epik_Metal_Only>
0

> <s_lp_Force_Field>
OPLS_2005

> <r_lp_Energy>
50.494

> <b_lp_Chiralities_Consistent>
1

> <s_lp_Variant>
AV-unprocessed.smi:1668-2

> <Gold.Version>
5.8.1

> <Gold.Id.Protein>
6NUR|6NUR_protein|mol2

> <Gold.PLP.Fitness>
53.0030

> <Gold.PLP.PLP>
-48.8961

> <Gold.PLP.part.hbond>
-3.0742

> <Gold.PLP.part.metal>
0.0000

> <Gold.PLP.part.buried>
-4.7608

> <Gold.PLP.part.nonpolar>
-41.9323

> <Gold.PLP.part.repulsive>
1.7981

> <Gold.PLP.ligand.clash>
0.0000

> <Gold.PLP.ligand.torsion>
1.5004

> <Gold.PLP.Chemscore.Hbond>
2.3560

> <Gold.PLP.Chemscore.CHOScore>
0.0000

> <Gold.PLP.Chemscore.Metal>
0.0000

> <Gold.Chemscore.Hbonds>
donor molecule, donor type, donor heavy atom, donor atom, acceptor molecule, acceptor atom, score
      P1  H  7989  7998       L1    11  0.96
      P1  H  7997  8010       L1    15  1.00
      P1  H  8022  8030       L1     2  0.27

> <Gold.PLP.Chemscore.Internal.Correction>
0.0397

> <Gold.Rescore>
     Score         DG    S(hbond)    S(metal)    S(lipo)     H(rot)  DE(clash)    DE(int)     intcor
     15.90     -20.12       1.65        0.00     127.09       2.24       0.18       4.04       ----

> <Gold.Chemscore.Fitness>
15.9033

> <Gold.Chemscore.DG>
-20.1215

> <Gold.Chemscore.ZeroCoef>
-5.4800

> <Gold.Chemscore.Hbond>
1.6524

> <Gold.Chemscore.Metal>
0.0000

> <Gold.Chemscore.Lipo>
127.0877

> <Gold.Chemscore.Internal_Hbond>
0.0000

> <Gold.Chemscore.DEClash>
0.1752

> <Gold.Chemscore.DEInternal>
4.0430

> <Gold.Chemscore.Rot>
2.2448

> <Gold.Chemscore.Internal.Correction>
   9.000000E+99

> <Gold.Chemscore.Hbonds>
donor molecule, donor type, donor heavy atom, donor atom, acceptor molecule, acceptor atom, score
      P1  H  7989  7998       L1    11  0.65
      P1  H  7997  8010       L1    15  0.34
      P1  H  8022  8030       L1     2  0.26

> <Gold.Chemscore.Hbond.Weighted>
-5.5189

> <Gold.Chemscore.Metal.Weighted>
-0.0000

> <Gold.Chemscore.Lipo.Weighted>
-14.8693

> <Gold.Chemscore.Internal_Hbond.Weighted>
0.0000

> <Gold.Chemscore.DEClash.Weighted>
0.1752

> <Gold.Chemscore.DEInternal.Weighted>
4.0430

> <Gold.Chemscore.Rot.Weighted>
5.7467

> <Gold.Chemscore.Internal.Correction.Weighted>
   9.000000E+99

> <Gold.Protein.RotatedTorsions>
[ 6907 6896 6895 6894 ] final  -14.01 input  -60.11 | X-H torsion
[ 7974 7965 7964 7962 ] final   94.42 input  175.53 | X-H torsion
[ 8008 7997 7996 7995 ] final   36.76 input   59.86 | X-H torsion
[ 10167 10162 10161 10158 ] final  -59.57 input  -65.29 | X-H torsion
[ 10718 10713 10712 10709 ] final  -99.40 input   66.30 | X-H torsion
[ 10763 10752 10751 10750 ] final  138.50 input  -60.55 | X-H torsion
[ 11005 11000 10999 10996 ] final  147.16 input  -57.11 | X-H torsion

> <Gold.Protein.ActiveResidues>
 VAL166  LYS551  ARG553  GLY616  TRP617  ASP618  TYR619  PRO620  LYS621  CYS622 
 ASP623  PHE694  ASN695  SER759  ASP760  ASP761  ALA762  ILE779  LEU786  VAL792 
 PHE793  MET794  SER795  GLU796  ALA797  LYS798  CYS799  TRP800  GLU811  SER814 

> <Gold.Protein.RotatedAtoms>
  151.3460  135.0874  159.9386 H   0  0  0  0  0  0  0  0  0  0  0  0  # atno 6907 bound_to 6896
  152.5199  133.9400  159.7632 H   0  0  0  0  0  0  0  0  0  0  0  0  # atno 6908 bound_to 6896
  150.9766  133.6235  159.2759 H   0  0  0  0  0  0  0  0  0  0  0  0  # atno 6909 bound_to 6896
  145.4659  139.2284  143.2962 H   0  0  0  0  0  0  0  0  0  0  0  0  # atno 7974 bound_to 7965
  155.1927  140.3309  155.4356 H   0  0  0  0  0  0  0  0  0  0  0  0  # atno 8008 bound_to 7997
  156.2436  140.1907  156.6969 H   0  0  0  0  0  0  0  0  0  0  0  0  # atno 8009 bound_to 7997
  154.6195  140.0597  156.9582 H   0  0  0  0  0  0  0  0  0  0  0  0  # atno 8010 bound_to 7997
  140.6127  143.2392  151.5672 H   0  0  0  0  0  0  0  0  0  0  0  0  # atno 10167 bound_to 10162
  156.0133  130.5281  150.6665 H   0  0  0  0  0  0  0  0  0  0  0  0  # atno 10718 bound_to 10713
  153.8906  135.3033  155.3447 H   0  0  0  0  0  0  0  0  0  0  0  0  # atno 10763 bound_to 10752
  154.7718  135.4882  153.9667 H   0  0  0  0  0  0  0  0  0  0  0  0  # atno 10764 bound_to 10752
  153.1300  135.6801  153.9293 H   0  0  0  0  0  0  0  0  0  0  0  0  # atno 10765 bound_to 10752
  140.0853  134.9073  157.1566 H   0  0  0  0  0  0  0  0  0  0  0  0  # atno 11005 bound_to 11000
  146.2425  140.5432  142.8928 LP  0  0  0  0  0  0  0  0  0  0  0  0  # atno 17320 bound_to 7965
  144.7975  140.6150  143.6500 LP  0  0  0  0  0  0  0  0  0  0  0  0  # atno 17321 bound_to 7965
  139.5373  144.2744  152.1279 LP  0  0  0  0  0  0  0  0  0  0  0  0  # atno 17342 bound_to 10162
  140.1946  144.4718  150.6461 LP  0  0  0  0  0  0  0  0  0  0  0  0  # atno 17343 bound_to 10162
  157.4396  131.0859  151.0956 LP  0  0  0  0  0  0  0  0  0  0  0  0  # atno 17370 bound_to 10713
  157.1504  130.6182  149.5581 LP  0  0  0  0  0  0  0  0  0  0  0  0  # atno 17371 bound_to 10713
  140.3429  134.2684  155.7209 LP  0  0  0  0  0  0  0  0  0  0  0  0  # atno 17394 bound_to 11000
  141.2060  133.7844  157.0199 LP  0  0  0  0  0  0  0  0  0  0  0  0  # atno 17395 bound_to 11000

$$$$
