AV-unprocessed.smi:2862|AV-procd|sdf|11010|dock9
  -GOLD-   2272015473D 1   1.00000     0.00000
 Structure written by MMmdl.
 52 54  0  0  0  0  0  0  0  0  1 V2000
  145.8627  136.4167  150.3592 C   0  0  0  0  0  0  0  0  0  0  0  0
  145.3656  135.9570  151.7386 C   0  0  2  0  0  0  0  0  0  0  0  0
  146.2336  136.4824  152.7842 N   0  0  0  0  0  0  0  0  0  0  0  0
  145.8704  137.2963  153.7905 C   0  0  0  0  0  0  0  0  0  0  0  0
  144.7338  137.7530  153.9036 O   0  0  0  0  0  0  0  0  0  0  0  0
  146.9323  137.6503  154.8487 C   0  0  0  0  0  0  0  0  0  0  0  0
  147.4781  139.0163  154.7311 N   0  0  0  0  0  0  0  0  0  0  0  0
  146.8959  139.8515  153.7561 C   0  0  0  0  0  0  0  0  0  0  0  0
  147.3482  141.0917  153.5159 C   0  0  0  0  0  0  0  0  0  0  0  0
  148.4734  141.5698  154.2810 C   0  0  0  0  0  0  0  0  0  0  0  0
  149.0498  140.7713  155.2073 C   0  0  0  0  0  0  0  0  0  0  0  0
  150.1755  141.2195  156.0339 C   0  0  0  0  0  0  0  0  0  0  0  0
  151.3482  141.0900  155.6780 O   0  0  0  0  0  0  0  0  0  0  0  0
  149.8425  141.7690  157.2378 N   0  0  0  0  0  0  0  0  0  0  0  0
  148.5029  142.3041  157.5387 C   0  0  0  0  0  0  0  0  0  0  0  0
  150.8379  142.0346  158.2998 C   0  0  1  0  0  0  0  0  0  0  0  0
  151.5399  140.7435  158.7666 C   0  0  0  0  0  0  0  0  0  0  0  0
  151.8486  143.1230  157.9629 C   0  0  0  0  0  0  0  0  0  0  0  0
  152.9055  143.5375  158.9583 C   0  0  0  0  0  0  0  0  0  0  0  0
  151.7769  144.4836  158.6123 C   0  0  0  0  0  0  0  0  0  0  0  0
  148.5314  139.4192  155.5100 C   0  0  0  0  0  0  0  0  0  0  0  0
  149.0113  138.6690  156.3646 O   0  0  0  0  0  0  0  0  0  0  0  0
  145.2624  134.4449  151.8021 C   0  0  0  0  0  0  0  0  0  0  0  0
  146.2187  133.5593  151.0409 C   0  0  0  0  0  0  0  0  0  0  0  0
  144.7680  133.6487  150.6191 C   0  0  0  0  0  0  0  0  0  0  0  0
  145.2097  136.0503  149.5667 H   0  0  0  0  0  0  0  0  0  0  0  0
  146.8689  136.0484  150.1571 H   0  0  0  0  0  0  0  0  0  0  0  0
  145.8853  137.5046  150.2869 H   0  0  0  0  0  0  0  0  0  0  0  0
  144.3621  136.3589  151.8906 H   0  0  0  0  0  0  0  0  0  0  0  0
  147.1916  136.1640  152.7690 H   0  0  0  0  0  0  0  0  0  0  0  0
  146.4878  137.5010  155.8336 H   0  0  0  0  0  0  0  0  0  0  0  0
  147.7389  136.9172  154.7918 H   0  0  0  0  0  0  0  0  0  0  0  0
  146.0677  139.4183  153.2141 H   0  0  0  0  0  0  0  0  0  0  0  0
  146.8884  141.7124  152.7610 H   0  0  0  0  0  0  0  0  0  0  0  0
  148.8461  142.5690  154.1057 H   0  0  0  0  0  0  0  0  0  0  0  0
  147.9784  142.6524  156.6477 H   0  0  0  0  0  0  0  0  0  0  0  0
  148.5476  143.1680  158.2027 H   0  0  0  0  0  0  0  0  0  0  0  0
  147.8911  141.5445  158.0257 H   0  0  0  0  0  0  0  0  0  0  0  0
  150.3000  142.3813  159.1837 H   0  0  0  0  0  0  0  0  0  0  0  0
  152.1364  140.9312  159.6597 H   0  0  0  0  0  0  0  0  0  0  0  0
  152.2135  140.3385  158.0118 H   0  0  0  0  0  0  0  0  0  0  0  0
  150.8133  139.9701  159.0174 H   0  0  0  0  0  0  0  0  0  0  0  0
  152.1774  143.1148  156.9258 H   0  0  0  0  0  0  0  0  0  0  0  0
  152.8874  143.0738  159.9426 H   0  0  0  0  0  0  0  0  0  0  0  0
  153.8950  143.7710  158.5706 H   0  0  0  0  0  0  0  0  0  0  0  0
  152.0125  145.3461  157.9924 H   0  0  0  0  0  0  0  0  0  0  0  0
  151.0107  144.6475  159.3671 H   0  0  0  0  0  0  0  0  0  0  0  0
  144.9536  134.0730  152.7777 H   0  0  0  0  0  0  0  0  0  0  0  0
  146.9570  134.0391  150.4011 H   0  0  0  0  0  0  0  0  0  0  0  0
  146.5468  132.6420  151.5255 H   0  0  0  0  0  0  0  0  0  0  0  0
  144.1271  132.7937  150.8251 H   0  0  0  0  0  0  0  0  0  0  0  0
  144.5431  134.1902  149.7023 H   0  0  0  0  0  0  0  0  0  0  0  0
  1  2  1  0  0  0  0
  1 26  1  0  0  0  0
  1 27  1  0  0  0  0
  1 28  1  0  0  0  0
  2  3  1  0  0  0  0
  2 23  1  0  0  0  0
  2 29  1  0  0  0  0
  3  4  1  0  0  0  0
  3 30  1  0  0  0  0
  4  5  2  0  0  0  0
  4  6  1  0  0  0  0
  6  7  1  0  0  0  0
  6 31  1  0  0  0  0
  6 32  1  0  0  0  0
  7 21  1  0  0  0  0
  7  8  1  0  0  0  0
  8  9  2  0  0  0  0
  8 33  1  0  0  0  0
  9 10  1  0  0  0  0
  9 34  1  0  0  0  0
 10 11  2  0  0  0  0
 10 35  1  0  0  0  0
 11 12  1  0  0  0  0
 11 21  1  0  0  0  0
 12 13  2  0  0  0  0
 12 14  1  0  0  0  0
 14 15  1  0  0  0  0
 14 16  1  0  0  0  0
 15 36  1  0  0  0  0
 15 37  1  0  0  0  0
 15 38  1  0  0  0  0
 16 17  1  0  0  0  0
 16 18  1  0  0  0  0
 16 39  1  0  0  0  0
 17 40  1  0  0  0  0
 17 41  1  0  0  0  0
 17 42  1  0  0  0  0
 18 20  1  0  0  0  0
 18 19  1  0  0  0  0
 18 43  1  0  0  0  0
 19 20  1  0  0  0  0
 19 44  1  0  0  0  0
 19 45  1  0  0  0  0
 20 46  1  0  0  0  0
 20 47  1  0  0  0  0
 21 22  2  0  0  0  0
 23 25  1  0  0  0  0
 23 24  1  0  0  0  0
 23 48  1  0  0  0  0
 24 25  1  0  0  0  0
 24 49  1  0  0  0  0
 24 50  1  0  0  0  0
 25 51  1  0  0  0  0
 25 52  1  0  0  0  0
M  END
> <s_m_source_file>
AV-unprocessed.smi

> <i_m_source_file_index>
2862

> <i_lp_mmshare_version>
43012

> <i_f3d_flags>
0

> <s_epik_input>
W0NIMl0xW0NIMl1bQ0hdMVtDQEhdKFtDSDNdKVtOSF1DKD1PKVtDSDJdbjJbY0hdW2NIXVtjSF1jKGMyPU8pQyg9TylOKFtDSDNdKVtDQEhdKFtDSDNdKVtDSF0zW0NIMl1bQ0gyXTM=

> <s_epik_cmdline>
J2VwaWtfcHl0aG9uJywgJy1waCcsICc3LjAnLCAnLXRuJywgJzgnLCAnLW1hJywgJzIwMCcsICctbWV0YWxfYmluZGluZycsICctaW1hZScsICc8aW5maWxlLm1hZT4nLCAnLW9tYWUnLCAnPG91dGZpbGUubWFlPic=

> <r_lp_tautomer_probability>
1

> <r_epik_Ionization_Penalty>
4.00841e-08

> <r_epik_Ionization_Penalty_Charging>
2.07773e-08

> <r_epik_Ionization_Penalty_Neutral>
1.93069e-08

> <r_epik_State_Penalty>
-0

> <r_epik_Charging_Adjusted_Penalty>
2.07773e-08

> <i_epik_Tot_Q>
0

> <i_epik_Tot_abs_Q>
0

> <r_epik_Metal_State_Penalty>
-0

> <b_epik_Metal_Only>
0

> <s_lp_Force_Field>
OPLS_2005

> <r_lp_Energy>
59.7867

> <b_lp_Chiralities_Consistent>
1

> <s_lp_Variant>
AV-unprocessed.smi:2862-3

> <Gold.Version>
5.8.1

> <Gold.Id.Protein>
6NUR|6NUR_protein|mol2

> <Gold.PLP.Fitness>
45.2028

> <Gold.PLP.PLP>
-40.2474

> <Gold.PLP.part.hbond>
-2.0000

> <Gold.PLP.part.metal>
0.0000

> <Gold.PLP.part.buried>
0.1542

> <Gold.PLP.part.nonpolar>
-37.7709

> <Gold.PLP.part.repulsive>
0.1963

> <Gold.PLP.ligand.clash>
0.0000

> <Gold.PLP.ligand.torsion>
3.2179

> <Gold.PLP.Chemscore.Hbond>
1.4680

> <Gold.PLP.Chemscore.CHOScore>
0.8819

> <Gold.PLP.Chemscore.Metal>
0.0000

> <Gold.Chemscore.Hbonds>
donor molecule, donor type, donor heavy atom, donor atom, acceptor molecule, acceptor atom, score
      L1  H     3    30       P1  7948  0.93
      P1  H  7989  7998       L1    13  0.35
      L1  C     8    33       P1 10175  0.55

> <Gold.PLP.Chemscore.Internal.Correction>
4.3415

> <Gold.Rescore>
     Score         DG    S(hbond)    S(metal)    S(lipo)     H(rot)  DE(clash)    DE(int)     intcor
     13.90     -19.00       1.51        0.00     110.57       1.73       1.45       3.66       ----

> <Gold.Chemscore.Fitness>
13.8991

> <Gold.Chemscore.DG>
-19.0025

> <Gold.Chemscore.ZeroCoef>
-5.4800

> <Gold.Chemscore.Hbond>
1.5050

> <Gold.Chemscore.Metal>
0.0000

> <Gold.Chemscore.Lipo>
110.5719

> <Gold.Chemscore.Internal_Hbond>
0.0000

> <Gold.Chemscore.DEClash>
1.4450

> <Gold.Chemscore.DEInternal>
3.6583

> <Gold.Chemscore.Rot>
1.7348

> <Gold.Chemscore.Internal.Correction>
   9.000000E+99

> <Gold.Chemscore.Hbonds>
donor molecule, donor type, donor heavy atom, donor atom, acceptor molecule, acceptor atom, score
      L1  H     3    30       P1  7948  0.89
      P1  H  7989  7998       L1    13  0.32

> <Gold.Chemscore.Hbond.Weighted>
-5.0268

> <Gold.Chemscore.Metal.Weighted>
-0.0000

> <Gold.Chemscore.Lipo.Weighted>
-12.9369

> <Gold.Chemscore.Internal_Hbond.Weighted>
0.0000

> <Gold.Chemscore.DEClash.Weighted>
1.4450

> <Gold.Chemscore.DEInternal.Weighted>
3.6583

> <Gold.Chemscore.Rot.Weighted>
4.4412

> <Gold.Chemscore.Internal.Correction.Weighted>
   9.000000E+99

> <Gold.Protein.RotatedTorsions>
[ 6907 6896 6895 6894 ] final   78.77 input  -60.11 | X-H torsion
[ 7974 7965 7964 7962 ] final -122.02 input  175.53 | X-H torsion
[ 8008 7997 7996 7995 ] final  150.40 input   59.86 | X-H torsion
[ 10167 10162 10161 10158 ] final  -44.86 input  -65.29 | X-H torsion
[ 10718 10713 10712 10709 ] final -120.81 input   66.30 | X-H torsion
[ 10763 10752 10751 10750 ] final   62.10 input  -60.55 | X-H torsion
[ 11005 11000 10999 10996 ] final   85.49 input  -57.11 | X-H torsion

> <Gold.Protein.ActiveResidues>
 VAL166  LYS551  ARG553  GLY616  TRP617  ASP618  TYR619  PRO620  LYS621  CYS622 
 ASP623  PHE694  ASN695  SER759  ASP760  ASP761  ALA762  ILE779  LEU786  VAL792 
 PHE793  MET794  SER795  GLU796  ALA797  LYS798  CYS799  TRP800  GLU811  SER814 

> <Gold.Protein.RotatedAtoms>
  152.5173  134.3613  159.9285 H   0  0  0  0  0  0  0  0  0  0  0  0  # atno 6907 bound_to 6896
  151.3565  133.3899  159.2693 H   0  0  0  0  0  0  0  0  0  0  0  0  # atno 6908 bound_to 6896
  150.9686  134.9081  159.7832 H   0  0  0  0  0  0  0  0  0  0  0  0  # atno 6909 bound_to 6896
  145.0340  140.8090  143.4307 H   0  0  0  0  0  0  0  0  0  0  0  0  # atno 7974 bound_to 7965
  156.2717  140.2076  156.6011 H   0  0  0  0  0  0  0  0  0  0  0  0  # atno 8008 bound_to 7997
  154.6906  140.0530  157.0383 H   0  0  0  0  0  0  0  0  0  0  0  0  # atno 8009 bound_to 7997
  155.0872  140.3193  155.4587 H   0  0  0  0  0  0  0  0  0  0  0  0  # atno 8010 bound_to 7997
  140.6881  143.2909  151.3555 H   0  0  0  0  0  0  0  0  0  0  0  0  # atno 10167 bound_to 10162
  156.1287  130.6379  150.9586 H   0  0  0  0  0  0  0  0  0  0  0  0  # atno 10718 bound_to 10713
  152.9972  135.5477  154.6140 H   0  0  0  0  0  0  0  0  0  0  0  0  # atno 10763 bound_to 10752
  154.5454  135.2823  155.1059 H   0  0  0  0  0  0  0  0  0  0  0  0  # atno 10764 bound_to 10752
  154.2320  135.6432  153.5231 H   0  0  0  0  0  0  0  0  0  0  0  0  # atno 10765 bound_to 10752
  139.8970  134.8290  156.2589 H   0  0  0  0  0  0  0  0  0  0  0  0  # atno 11005 bound_to 11000
  145.1734  139.2391  143.5330 LP  0  0  0  0  0  0  0  0  0  0  0  0  # atno 17320 bound_to 7965
  146.3502  140.1490  142.8593 LP  0  0  0  0  0  0  0  0  0  0  0  0  # atno 17321 bound_to 7965
  139.6257  144.0819  152.2432 LP  0  0  0  0  0  0  0  0  0  0  0  0  # atno 17342 bound_to 10162
  140.0278  144.6104  150.7513 LP  0  0  0  0  0  0  0  0  0  0  0  0  # atno 17343 bound_to 10162
  157.6467  131.0903  150.8138 LP  0  0  0  0  0  0  0  0  0  0  0  0  # atno 17370 bound_to 10713
  156.8225  130.4989  149.5341 LP  0  0  0  0  0  0  0  0  0  0  0  0  # atno 17371 bound_to 10713
  141.0175  133.7060  156.1213 LP  0  0  0  0  0  0  0  0  0  0  0  0  # atno 17394 bound_to 11000
  140.7280  134.4285  157.5568 LP  0  0  0  0  0  0  0  0  0  0  0  0  # atno 17395 bound_to 11000

$$$$
