AV-unprocessed.smi:1794|AV-procd|sdf|7235|dock7
  -GOLD-   22720 8483D 1   1.00000     0.00000
 Structure written by MMmdl.
 56 58  0  0  0  0  0  0  0  0  3 V2000
  149.5211  134.6318  156.9431 C   0  0  0  0  0  0  0  0  0  0  0  0
  149.3748  134.2142  155.4589 C   0  0  0  0  0  0  0  0  0  0  0  0
  148.0000  134.7235  154.9483 C   0  0  0  0  0  0  0  0  0  0  0  0
  150.4812  134.8997  154.6031 C   0  0  0  0  0  0  0  0  0  0  0  0
  150.2918  136.3410  154.4615 N   0  0  0  0  0  0  0  0  0  0  0  0
  150.7484  137.2528  155.3292 C   0  0  0  0  0  0  0  0  0  0  0  0
  151.3954  136.9666  156.3361 O   0  0  0  0  0  0  0  0  0  0  0  0
  150.3892  138.4951  154.9653 N   0  0  0  0  0  0  0  0  0  0  0  0
  150.6191  139.7133  155.6650 C   0  0  0  0  0  0  0  0  0  0  0  0
  151.6619  139.8288  156.6199 C   0  0  0  0  0  0  0  0  0  0  0  0
  151.8494  141.0396  157.3130 C   0  0  0  0  0  0  0  0  0  0  0  0
  150.9939  142.1198  157.0376 C   0  0  0  0  0  0  0  0  0  0  0  0
  150.0246  141.9853  156.1090 N   0  3  0  0  0  0  0  0  0  0  0  0
  149.8032  140.8510  155.3988 C   0  0  0  0  0  0  0  0  0  0  0  0
  148.7564  140.8604  154.4489 N   0  0  0  0  0  0  0  0  0  0  0  0
  147.7423  139.8126  154.4554 C   0  0  0  0  0  0  0  0  0  0  0  0
  146.6277  140.3376  153.5546 C   0  0  0  0  0  0  0  0  0  0  0  0
  146.6540  141.8359  153.8414 C   0  0  0  0  0  0  0  0  0  0  0  0
  148.1370  142.1323  154.0897 C   0  0  0  0  0  0  0  0  0  0  0  0
  149.4838  132.7160  155.2968 N   0  3  0  0  0  0  0  0  0  0  0  0
  149.2067  132.1978  153.9251 C   0  0  0  0  0  0  0  0  0  0  0  0
  149.1739  130.6613  153.9151 C   0  0  0  0  0  0  0  0  0  0  0  0
  150.4164  130.1601  154.3838 O   0  0  0  0  0  0  0  0  0  0  0  0
  150.6635  130.5560  155.7242 C   0  0  0  0  0  0  0  0  0  0  0  0
  150.7348  132.0902  155.8162 C   0  0  0  0  0  0  0  0  0  0  0  0
  149.3342  135.6977  157.0775 H   0  0  0  0  0  0  0  0  0  0  0  0
  150.5236  134.4405  157.3260 H   0  0  0  0  0  0  0  0  0  0  0  0
  148.8135  134.1068  157.5845 H   0  0  0  0  0  0  0  0  0  0  0  0
  147.9369  135.8117  154.9427 H   0  0  0  0  0  0  0  0  0  0  0  0
  147.1768  134.3938  155.5821 H   0  0  0  0  0  0  0  0  0  0  0  0
  147.8022  134.3846  153.9307 H   0  0  0  0  0  0  0  0  0  0  0  0
  151.4671  134.7623  155.0446 H   0  0  0  0  0  0  0  0  0  0  0  0
  150.5170  134.4494  153.6094 H   0  0  0  0  0  0  0  0  0  0  0  0
  149.7679  136.6584  153.6591 H   0  0  0  0  0  0  0  0  0  0  0  0
  149.7810  138.5631  154.1627 H   0  0  0  0  0  0  0  0  0  0  0  0
  152.3269  139.0049  156.8299 H   0  0  0  0  0  0  0  0  0  0  0  0
  152.6366  141.1359  158.0466 H   0  0  0  0  0  0  0  0  0  0  0  0
  151.0589  143.0835  157.5219 H   0  0  0  0  0  0  0  0  0  0  0  0
  148.1443  138.8661  154.0930 H   0  0  0  0  0  0  0  0  0  0  0  0
  147.3565  139.6604  155.4642 H   0  0  0  0  0  0  0  0  0  0  0  0
  146.8753  140.1551  152.5080 H   0  0  0  0  0  0  0  0  0  0  0  0
  145.6606  139.8780  153.7605 H   0  0  0  0  0  0  0  0  0  0  0  0
  146.2318  142.4323  153.0321 H   0  0  0  0  0  0  0  0  0  0  0  0
  146.0814  142.0448  154.7463 H   0  0  0  0  0  0  0  0  0  0  0  0
  148.2659  142.8868  154.8667 H   0  0  0  0  0  0  0  0  0  0  0  0
  148.5999  142.5032  153.1748 H   0  0  0  0  0  0  0  0  0  0  0  0
  148.2531  132.5530  153.5422 H   0  0  0  0  0  0  0  0  0  0  0  0
  149.9767  132.5373  153.2316 H   0  0  0  0  0  0  0  0  0  0  0  0
  148.3539  130.2815  154.5266 H   0  0  0  0  0  0  0  0  0  0  0  0
  149.0098  130.2969  152.9008 H   0  0  0  0  0  0  0  0  0  0  0  0
  149.8862  130.1626  156.3816 H   0  0  0  0  0  0  0  0  0  0  0  0
  151.6063  130.1176  156.0517 H   0  0  0  0  0  0  0  0  0  0  0  0
  151.5965  132.4542  155.2561 H   0  0  0  0  0  0  0  0  0  0  0  0
  150.9021  132.3329  156.8638 H   0  0  0  0  0  0  0  0  0  0  0  0
  148.7488  132.3413  155.8800 H   0  0  0  0  0  0  0  0  0  0  0  0
  149.4263  142.7908  155.9249 H   0  0  0  0  0  0  0  0  0  0  0  0
  1  2  1  0  0  0  0
  1 26  1  0  0  0  0
  1 27  1  0  0  0  0
  1 28  1  0  0  0  0
  2  3  1  0  0  0  0
  2  4  1  0  0  0  0
  2 20  1  0  0  0  0
  3 29  1  0  0  0  0
  3 30  1  0  0  0  0
  3 31  1  0  0  0  0
  4  5  1  0  0  0  0
  4 32  1  0  0  0  0
  4 33  1  0  0  0  0
  5  6  1  0  0  0  0
  5 34  1  0  0  0  0
  6  7  2  0  0  0  0
  6  8  1  0  0  0  0
  8  9  1  0  0  0  0
  8 35  1  0  0  0  0
  9 14  1  0  0  0  0
  9 10  2  0  0  0  0
 10 11  1  0  0  0  0
 10 36  1  0  0  0  0
 11 12  2  0  0  0  0
 11 37  1  0  0  0  0
 12 13  1  0  0  0  0
 12 38  1  0  0  0  0
 13 14  2  0  0  0  0
 13 56  1  0  0  0  0
 14 15  1  0  0  0  0
 15 19  1  0  0  0  0
 15 16  1  0  0  0  0
 16 17  1  0  0  0  0
 16 39  1  0  0  0  0
 16 40  1  0  0  0  0
 17 18  1  0  0  0  0
 17 41  1  0  0  0  0
 17 42  1  0  0  0  0
 18 19  1  0  0  0  0
 18 43  1  0  0  0  0
 18 44  1  0  0  0  0
 19 45  1  0  0  0  0
 19 46  1  0  0  0  0
 20 25  1  0  0  0  0
 20 21  1  0  0  0  0
 20 55  1  0  0  0  0
 21 22  1  0  0  0  0
 21 47  1  0  0  0  0
 21 48  1  0  0  0  0
 22 23  1  0  0  0  0
 22 49  1  0  0  0  0
 22 50  1  0  0  0  0
 23 24  1  0  0  0  0
 24 25  1  0  0  0  0
 24 51  1  0  0  0  0
 24 52  1  0  0  0  0
 25 53  1  0  0  0  0
 25 54  1  0  0  0  0
M  CHG  1  13   1
M  CHG  1  20   1
M  END
> <s_m_source_file>
AV-unprocessed.smi

> <i_m_source_file_index>
1794

> <i_lp_mmshare_version>
43012

> <i_f3d_flags>
0

> <s_epik_input>
W0NIMl0xW0NIMl1PW0NIMl1bQ0gyXU4xQyhbQ0gzXSkoW0NIM10pW0NIMl1bTkhdQyg9TylbTkhdYzJbY0hdW2NIXVtjSF1uYzJOM1tDSDJdW0NIMl1bQ0gyXVtDSDJdMw==

> <s_epik_cmdline>
J2VwaWtfcHl0aG9uJywgJy1waCcsICc3LjAnLCAnLXRuJywgJzgnLCAnLW1hJywgJzIwMCcsICctbWV0YWxfYmluZGluZycsICctaW1hZScsICc8aW5maWxlLm1hZT4nLCAnLW9tYWUnLCAnPG91dGZpbGUubWFlPic=

> <r_lp_tautomer_probability>
0.999994

> <r_epik_Ionization_Penalty>
1.80144

> <r_epik_Ionization_Penalty_Charging>
1.80142

> <r_epik_Ionization_Penalty_Neutral>
2.02981e-05

> <r_epik_State_Penalty>
1.84115

> <r_epik_Charging_Adjusted_Penalty>
3.64257

> <i_epik_Tot_Q>
2

> <i_epik_Tot_abs_Q>
2

> <r_epik_Metal_State_Penalty>
1.92426

> <b_epik_Metal_Only>
0

> <s_lp_Force_Field>
OPLS_2005

> <r_lp_Energy>
63.0658

> <b_lp_Chiralities_Consistent>
1

> <s_lp_Variant>
AV-unprocessed.smi:1794-4

> <Gold.Version>
5.8.1

> <Gold.Id.Protein>
6NUR|6NUR_protein|mol2

> <Gold.PLP.Fitness>
41.7817

> <Gold.PLP.PLP>
-33.6606

> <Gold.PLP.part.hbond>
-2.7220

> <Gold.PLP.part.metal>
0.0000

> <Gold.PLP.part.buried>
-3.6310

> <Gold.PLP.part.nonpolar>
-28.8363

> <Gold.PLP.part.repulsive>
0.4384

> <Gold.PLP.ligand.clash>
0.0000

> <Gold.PLP.ligand.torsion>
0.6186

> <Gold.PLP.Chemscore.Hbond>
2.9600

> <Gold.PLP.Chemscore.CHOScore>
0.0000

> <Gold.PLP.Chemscore.Metal>
0.0000

> <Gold.Chemscore.Hbonds>
donor molecule, donor type, donor heavy atom, donor atom, acceptor molecule, acceptor atom, score
      L1  H     5    34       P1  7948  0.94
      L1  H    13    56       P1  8028  2.00

> <Gold.PLP.Chemscore.Internal.Correction>
0.4783

> <Gold.Rescore>
     Score         DG    S(hbond)    S(metal)    S(lipo)     H(rot)  DE(clash)    DE(int)     intcor
     13.44     -16.78       1.55        0.00      88.19       1.64       0.37       2.98       ----

> <Gold.Chemscore.Fitness>
13.4391

> <Gold.Chemscore.DG>
-16.7844

> <Gold.Chemscore.ZeroCoef>
-5.4800

> <Gold.Chemscore.Hbond>
1.5483

> <Gold.Chemscore.Metal>
0.0000

> <Gold.Chemscore.Lipo>
88.1930

> <Gold.Chemscore.Internal_Hbond>
0.0000

> <Gold.Chemscore.DEClash>
0.3687

> <Gold.Chemscore.DEInternal>
2.9766

> <Gold.Chemscore.Rot>
1.6350

> <Gold.Chemscore.Internal.Correction>
   9.000000E+99

> <Gold.Chemscore.Hbonds>
donor molecule, donor type, donor heavy atom, donor atom, acceptor molecule, acceptor atom, score
      L1  H     5    34       P1  7948  0.45
      L1  H    13    56       P1  8028  0.94

> <Gold.Chemscore.Hbond.Weighted>
-5.1714

> <Gold.Chemscore.Metal.Weighted>
-0.0000

> <Gold.Chemscore.Lipo.Weighted>
-10.3186

> <Gold.Chemscore.Internal_Hbond.Weighted>
0.0000

> <Gold.Chemscore.DEClash.Weighted>
0.3687

> <Gold.Chemscore.DEInternal.Weighted>
2.9766

> <Gold.Chemscore.Rot.Weighted>
4.1856

> <Gold.Chemscore.Internal.Correction.Weighted>
   9.000000E+99

> <Gold.Protein.RotatedTorsions>
[ 6907 6896 6895 6894 ] final  160.81 input  -60.11 | X-H torsion
[ 7974 7965 7964 7962 ] final   23.45 input  175.53 | X-H torsion
[ 8008 7997 7996 7995 ] final  -71.21 input   59.86 | X-H torsion
[ 10167 10162 10161 10158 ] final   12.06 input  -65.29 | X-H torsion
[ 10718 10713 10712 10709 ] final    8.28 input   66.30 | X-H torsion
[ 10763 10752 10751 10750 ] final  120.97 input  -60.55 | X-H torsion
[ 11005 11000 10999 10996 ] final  105.33 input  -57.11 | X-H torsion

> <Gold.Protein.ActiveResidues>
 VAL166  LYS551  ARG553  GLY616  TRP617  ASP618  TYR619  PRO620  LYS621  CYS622 
 ASP623  PHE694  ASN695  SER759  ASP760  ASP761  ALA762  ILE779  LEU786  VAL792 
 PHE793  MET794  SER795  GLU796  ALA797  LYS798  CYS799  TRP800  GLU811  SER814 

> <Gold.Protein.RotatedAtoms>
  151.9650  133.3707  159.4049 H   0  0  0  0  0  0  0  0  0  0  0  0  # atno 6907 bound_to 6896
  150.6958  134.4200  159.5210 H   0  0  0  0  0  0  0  0  0  0  0  0  # atno 6908 bound_to 6896
  152.1895  134.8684  160.0569 H   0  0  0  0  0  0  0  0  0  0  0  0  # atno 6909 bound_to 6896
  146.1984  139.7743  142.8780 H   0  0  0  0  0  0  0  0  0  0  0  0  # atno 7974 bound_to 7965
  154.5070  140.0820  156.7914 H   0  0  0  0  0  0  0  0  0  0  0  0  # atno 8008 bound_to 7997
  155.3871  140.3430  155.4231 H   0  0  0  0  0  0  0  0  0  0  0  0  # atno 8009 bound_to 7997
  156.1528  140.1563  156.8730 H   0  0  0  0  0  0  0  0  0  0  0  0  # atno 8010 bound_to 7997
  140.6092  143.8443  150.7047 H   0  0  0  0  0  0  0  0  0  0  0  0  # atno 10167 bound_to 10162
  156.9493  130.5891  149.5656 H   0  0  0  0  0  0  0  0  0  0  0  0  # atno 10718 bound_to 10713
  153.6068  135.3438  155.2965 H   0  0  0  0  0  0  0  0  0  0  0  0  # atno 10763 bound_to 10752
  154.8626  135.4240  154.2353 H   0  0  0  0  0  0  0  0  0  0  0  0  # atno 10764 bound_to 10752
  153.3194  135.7037  153.7116 H   0  0  0  0  0  0  0  0  0  0  0  0  # atno 10765 bound_to 10752
  139.8801  134.9332  156.5497 H   0  0  0  0  0  0  0  0  0  0  0  0  # atno 11005 bound_to 11000
  145.3568  141.0318  143.3307 LP  0  0  0  0  0  0  0  0  0  0  0  0  # atno 17320 bound_to 7965
  144.8629  139.5151  143.6804 LP  0  0  0  0  0  0  0  0  0  0  0  0  # atno 17321 bound_to 7965
  140.2008  143.3961  152.1793 LP  0  0  0  0  0  0  0  0  0  0  0  0  # atno 17342 bound_to 10162
  139.5348  144.7198  151.4931 LP  0  0  0  0  0  0  0  0  0  0  0  0  # atno 17343 bound_to 10162
  156.0369  130.5456  150.8677 LP  0  0  0  0  0  0  0  0  0  0  0  0  # atno 17370 bound_to 10713
  157.5732  131.0946  150.9385 LP  0  0  0  0  0  0  0  0  0  0  0  0  # atno 17371 bound_to 10713
  140.8249  133.8324  155.8930 LP  0  0  0  0  0  0  0  0  0  0  0  0  # atno 17394 bound_to 11000
  140.9383  134.1933  157.4815 LP  0  0  0  0  0  0  0  0  0  0  0  0  # atno 17395 bound_to 11000

$$$$
