#       Name:                AV-unprocessed.smi:1230
#       Creating user name   scv26
#       Creation time:       Fri Mar 27 04:23:19 2020


#       File generated by GOLD software.
#

@<TRIPOS>MOLECULE
AV-unprocessed.smi:1230
    46    47     1
SMALL
NO_CHARGES


@<TRIPOS>ATOM
      1 ****        -3.2518   0.3810   1.1154 C.3            1 S1                 0.0000
      2 ****        -2.8686   0.9804  -0.2477 C.3            1 S1                 0.0000
      3 ****        -3.4844   2.3840  -0.4159 C.3            1 S1                 0.0000
      4 ****        -3.1120   3.0128  -1.7670 C.3            1 S1                 0.0000
      5 ****        -1.5889   3.0670  -1.9477 C.3            1 S1                 0.0000
      6 ****        -0.9657   1.6718  -1.7942 C.3            1 S1                 0.0000
      7 ****        -1.3357   1.0292  -0.4403 C.3            1 S1                 0.0000
      8 ****        -0.8478  -0.3065  -0.3994 O.3            1 S1                 0.0000
      9 ****         0.5112  -0.4235  -0.0077 C.3            1 S1                 0.0000
     10 ****         0.8897  -1.9122  -0.0052 C.3            1 S1                 0.0000
     11 ****         2.2365  -2.1466   0.4520 N.am           1 S1                 0.0000
     12 ****         2.5236  -2.5296   1.7534 C.2            1 S1                 0.0000
     13 ****         3.7871  -2.7335   2.1955 C.2            1 S1                 0.0000
     14 ****         4.0667  -3.1252   3.5375 C.1            1 S1                 0.0000
     15 ****         4.2685  -3.4410   4.6324 N.1            1 S1                 0.0000
     16 ****         4.9299  -2.5526   1.3018 C.2            1 S1                 0.0000
     17 ****         6.1103  -2.7150   1.6051 O.2            1 S1                 0.0000
     18 ****         4.5893  -2.1584   0.0037 N.am           1 S1                 0.0000
     19 ****         3.2926  -1.9410  -0.4669 C.2            1 S1                 0.0000
     20 ****         3.1147  -1.5843  -1.6318 O.2            1 S1                 0.0000
     21 ****         5.3466  -2.0153  -0.6489 H              1 S1                 0.0000
     22 ****        -2.8452   0.9720   1.9367 H              1 S1                 0.0000
     23 ****        -2.8771  -0.6372   1.2218 H              1 S1                 0.0000
     24 ****        -4.3347   0.3434   1.2370 H              1 S1                 0.0000
     25 ****        -3.2874   0.3368  -1.0229 H              1 S1                 0.0000
     26 ****        -4.5700   2.3276  -0.3292 H              1 S1                 0.0000
     27 ****        -3.1447   3.0346   0.3913 H              1 S1                 0.0000
     28 ****        -3.5575   2.4331  -2.5764 H              1 S1                 0.0000
     29 ****        -3.5309   4.0169  -1.8378 H              1 S1                 0.0000
     30 ****        -1.3452   3.4775  -2.9280 H              1 S1                 0.0000
     31 ****        -1.1556   3.7450  -1.2113 H              1 S1                 0.0000
     32 ****        -1.3082   1.0311  -2.6079 H              1 S1                 0.0000
     33 ****         0.1159   1.7503  -1.8999 H              1 S1                 0.0000
     34 ****        -0.9048   1.6152   0.3740 H              1 S1                 0.0000
     35 ****         1.1561   0.1325  -0.6878 H              1 S1                 0.0000
     36 ****         0.6461  -0.0043   0.9906 H              1 S1                 0.0000
     37 ****         0.2377  -2.4738   0.6655 H              1 S1                 0.0000
     38 ****         0.7865  -2.3734  -0.9899 H              1 S1                 0.0000
     39 ****         1.7087  -2.6700   2.4497 H              1 S1                 0.0000
     40 ****        -0.9453  -0.7029  -1.3123 LP             1 S1                 0.0000
     41 ****        -1.4059  -0.8233   0.2498 LP             1 S1                 0.0000
     42 ****         4.4428  -3.7139   5.5785 LP             1 S1                 0.0000
     43 ****         6.3539  -2.9951   2.5336 LP             1 S1                 0.0000
     44 ****         6.8266  -2.5669   0.9233 LP             1 S1                 0.0000
     45 ****         2.1871  -1.4253  -1.9699 LP             1 S1                 0.0000
     46 ****         3.8977  -1.4536  -2.2398 LP             1 S1                 0.0000
@<TRIPOS>BOND
    1    1    2 1     
    2    1   22 1     
    3    1   23 1     
    4    1   24 1     
    5    2    7 1     
    6    2    3 1     
    7    2   25 1     
    8    3    4 1     
    9    3   26 1     
   10    3   27 1     
   11    4    5 1     
   12    4   28 1     
   13    4   29 1     
   14    5    6 1     
   15    5   30 1     
   16    5   31 1     
   17    6    7 1     
   18    6   32 1     
   19    6   33 1     
   20    7    8 1     
   21    7   34 1     
   22    8    9 1     
   23    9   10 1     
   24    9   35 1     
   25    9   36 1     
   26   10   11 1     
   27   10   37 1     
   28   10   38 1     
   29   11   19 1     
   30   11   12 1     
   31   12   13 2     
   32   12   39 1     
   33   13   14 1     
   34   13   16 1     
   35   14   15 3     
   36   16   17 2     
   37   16   18 1     
   38   18   21 1     
   39   18   19 1     
   40   19   20 2     
   41    8   40 1     
   42    8   41 1     
   43   15   42 1     
   44   17   43 1     
   45   17   44 1     
   46   20   45 1     
   47   20   46 1     
@<TRIPOS>SUBSTRUCTURE
      1 S1             1
@<TRIPOS>SET
LONE_PAIRS      STATIC     ATOMS    <user>   **** ""
7 40 41 42 43 44 45 46
DONOR_HYDROGENS      STATIC     ATOMS    <user>   **** ""
1 21
ATOM$BLUE        STATIC     ATOMS    COLORGROUP SYSTEM
7 40 41 42 43 44 45 46
ATOM$RED        STATIC     ATOMS    COLORGROUP SYSTEM
1 21
