AV-unprocessed.smi:1813|AV-procd|sdf|7343|dock4
  -GOLD-   22720 9 03D 1   1.00000     0.00000
 Structure written by MMmdl.
 38 39  0  0  0  0  0  0  0  0  2 V2000
  145.9288  135.0853  154.0639 C   0  0  0  0  0  0  0  0  0  0  0  0
  146.6276  136.2651  153.5789 N   0  0  0  0  0  0  0  0  0  0  0  0
  146.2365  137.5258  153.8149 C   0  0  0  0  0  0  0  0  0  0  0  0
  145.2325  137.8126  154.4662 O   0  0  0  0  0  0  0  0  0  0  0  0
  147.1084  138.6369  153.2182 C   0  0  0  0  0  0  0  0  0  0  0  0
  147.6652  139.5871  154.2088 N   0  0  0  0  0  0  0  0  0  0  0  0
  147.9570  140.9043  153.6230 C   0  0  0  0  0  0  0  0  0  0  0  0
  148.4648  141.8763  154.7027 C   0  0  0  0  0  0  0  0  0  0  0  0
  149.7183  141.3297  155.3993 C   0  0  0  0  0  0  0  0  0  0  0  0
  150.1077  142.2185  156.4907 N   0  0  0  0  0  0  0  0  0  0  0  0
  150.9499  141.9190  157.4901 C   0  0  0  0  0  0  0  0  0  0  0  0
  151.4708  140.8023  157.5433 O   0  0  0  0  0  0  0  0  0  0  0  0
  151.1359  142.9327  158.3660 N   0  5  0  0  0  0  0  0  0  0  0  0
  151.8740  142.7392  159.4712 C   0  0  0  0  0  0  0  0  0  0  0  0
  151.6550  143.3926  160.6181 N   0  0  0  0  0  0  0  0  0  0  0  0
  152.5443  143.0421  161.6355 C   0  0  0  0  0  0  0  0  0  0  0  0
  153.4688  142.1072  161.2515 C   0  0  0  0  0  0  0  0  0  0  0  0
  153.2474  141.6355  159.5907 S   0  0  0  0  0  0  0  0  0  0  0  0
  149.4199  139.9147  155.9205 C   0  0  0  0  0  0  0  0  0  0  0  0
  148.8810  139.0138  154.7961 C   0  0  0  0  0  0  0  0  0  0  0  0
  146.4478  134.1850  153.7355 H   0  0  0  0  0  0  0  0  0  0  0  0
  144.9091  135.0517  153.6784 H   0  0  0  0  0  0  0  0  0  0  0  0
  145.8902  135.0782  155.1541 H   0  0  0  0  0  0  0  0  0  0  0  0
  147.4686  136.1185  153.0391 H   0  0  0  0  0  0  0  0  0  0  0  0
  147.9245  138.1516  152.6809 H   0  0  0  0  0  0  0  0  0  0  0  0
  146.5275  139.1822  152.4719 H   0  0  0  0  0  0  0  0  0  0  0  0
  148.6950  140.8061  152.8248 H   0  0  0  0  0  0  0  0  0  0  0  0
  147.0638  141.3383  153.1740 H   0  0  0  0  0  0  0  0  0  0  0  0
  148.6820  142.8457  154.2526 H   0  0  0  0  0  0  0  0  0  0  0  0
  147.6745  142.0465  155.4359 H   0  0  0  0  0  0  0  0  0  0  0  0
  150.5256  141.2811  154.6660 H   0  0  0  0  0  0  0  0  0  0  0  0
  149.7038  143.1437  156.4903 H   0  0  0  0  0  0  0  0  0  0  0  0
  152.4469  143.5105  162.6035 H   0  0  0  0  0  0  0  0  0  0  0  0
  154.2618  141.6702  161.8390 H   0  0  0  0  0  0  0  0  0  0  0  0
  150.3220  139.4713  156.3436 H   0  0  0  0  0  0  0  0  0  0  0  0
  148.6902  139.9613  156.7305 H   0  0  0  0  0  0  0  0  0  0  0  0
  148.6623  138.0289  155.2109 H   0  0  0  0  0  0  0  0  0  0  0  0
  149.6441  138.8720  154.0285 H   0  0  0  0  0  0  0  0  0  0  0  0
  1  2  1  0  0  0  0
  1 21  1  0  0  0  0
  1 22  1  0  0  0  0
  1 23  1  0  0  0  0
  2  3  1  0  0  0  0
  2 24  1  0  0  0  0
  3  4  2  0  0  0  0
  3  5  1  0  0  0  0
  5  6  1  0  0  0  0
  5 25  1  0  0  0  0
  5 26  1  0  0  0  0
  6 20  1  0  0  0  0
  6  7  1  0  0  0  0
  7  8  1  0  0  0  0
  7 27  1  0  0  0  0
  7 28  1  0  0  0  0
  8  9  1  0  0  0  0
  8 29  1  0  0  0  0
  8 30  1  0  0  0  0
  9 10  1  0  0  0  0
  9 19  1  0  0  0  0
  9 31  1  0  0  0  0
 10 11  1  0  0  0  0
 10 32  1  0  0  0  0
 11 12  2  0  0  0  0
 11 13  1  0  0  0  0
 13 14  1  0  0  0  0
 14 18  1  0  0  0  0
 14 15  2  0  0  0  0
 15 16  1  0  0  0  0
 16 17  2  0  0  0  0
 16 33  1  0  0  0  0
 17 18  1  0  0  0  0
 17 34  1  0  0  0  0
 19 20  1  0  0  0  0
 19 35  1  0  0  0  0
 19 36  1  0  0  0  0
 20 37  1  0  0  0  0
 20 38  1  0  0  0  0
M  CHG  1  13  -1
M  END
> <s_m_source_file>
AV-unprocessed.smi

> <i_m_source_file_index>
1813

> <i_lp_mmshare_version>
43012

> <i_f3d_flags>
0

> <s_epik_input>
W0NIM11bTkhdQyg9TylbQ0gyXU4xW0NIMl1bQ0gyXVtDSF0oW0NIMl1bQ0gyXTEpW05IXUMoPU8pW05IXWMybltjSF1bY0hdczI=

> <s_epik_cmdline>
J2VwaWtfcHl0aG9uJywgJy1waCcsICc3LjAnLCAnLXRuJywgJzgnLCAnLW1hJywgJzIwMCcsICctbWV0YWxfYmluZGluZycsICctaW1hZScsICc8aW5maWxlLm1hZT4nLCAnLW9tYWUnLCAnPG91dGZpbGUubWFlPic=

> <r_lp_tautomer_probability>
0.999

> <r_epik_Ionization_Penalty>
7.12803

> <r_epik_Ionization_Penalty_Charging>
5.8513

> <r_epik_Ionization_Penalty_Neutral>
1.27674

> <r_epik_State_Penalty>
5.99796

> <r_epik_Charging_Adjusted_Penalty>
11.8493

> <i_epik_Tot_Q>
-1

> <i_epik_Tot_abs_Q>
1

> <r_epik_Metal_State_Penalty>
1.97283

> <b_epik_Metal_Only>
1

> <s_lp_Force_Field>
OPLS_2005

> <r_lp_Energy>
7.89498

> <b_lp_Chiralities_Consistent>
1

> <s_lp_Variant>
AV-unprocessed.smi:1813-4

> <Gold.Version>
5.8.1

> <Gold.Id.Protein>
6NUR|6NUR_protein|mol2

> <Gold.PLP.Fitness>
38.1071

> <Gold.PLP.PLP>
-33.4531

> <Gold.PLP.part.hbond>
-2.5000

> <Gold.PLP.part.metal>
0.0000

> <Gold.PLP.part.buried>
-3.2764

> <Gold.PLP.part.nonpolar>
-28.7658

> <Gold.PLP.part.repulsive>
0.5149

> <Gold.PLP.ligand.clash>
0.0000

> <Gold.PLP.ligand.torsion>
0.6834

> <Gold.PLP.Chemscore.Hbond>
1.9920

> <Gold.PLP.Chemscore.CHOScore>
0.0000

> <Gold.PLP.Chemscore.Metal>
0.0000

> <Gold.Chemscore.Hbonds>
donor molecule, donor type, donor heavy atom, donor atom, acceptor molecule, acceptor atom, score
      L1  H     2    24       P1  7948  1.00
      L1  H    10    32       P1  8028  1.00

> <Gold.PLP.Chemscore.Internal.Correction>
0.0449

> <Gold.Rescore>
     Score         DG    S(hbond)    S(metal)    S(lipo)     H(rot)  DE(clash)    DE(int)     intcor
     12.54     -16.23       1.94        0.00      74.30       1.73       0.15       3.53       ----

> <Gold.Chemscore.Fitness>
12.5416

> <Gold.Chemscore.DG>
-16.2289

> <Gold.Chemscore.ZeroCoef>
-5.4800

> <Gold.Chemscore.Hbond>
1.9445

> <Gold.Chemscore.Metal>
0.0000

> <Gold.Chemscore.Lipo>
74.3025

> <Gold.Chemscore.Internal_Hbond>
0.0000

> <Gold.Chemscore.DEClash>
0.1538

> <Gold.Chemscore.DEInternal>
3.5335

> <Gold.Chemscore.Rot>
1.7341

> <Gold.Chemscore.Internal.Correction>
   9.000000E+99

> <Gold.Chemscore.Hbonds>
donor molecule, donor type, donor heavy atom, donor atom, acceptor molecule, acceptor atom, score
      L1  H     2    24       P1  7948  1.00
      L1  H    10    32       P1  8028  0.97

> <Gold.Chemscore.Hbond.Weighted>
-6.4948

> <Gold.Chemscore.Metal.Weighted>
-0.0000

> <Gold.Chemscore.Lipo.Weighted>
-8.6934

> <Gold.Chemscore.Internal_Hbond.Weighted>
0.0000

> <Gold.Chemscore.DEClash.Weighted>
0.1538

> <Gold.Chemscore.DEInternal.Weighted>
3.5335

> <Gold.Chemscore.Rot.Weighted>
4.4392

> <Gold.Chemscore.Internal.Correction.Weighted>
   9.000000E+99

> <Gold.Protein.RotatedTorsions>
[ 6907 6896 6895 6894 ] final  -50.61 input  -60.11 | X-H torsion
[ 7974 7965 7964 7962 ] final   95.04 input  175.53 | X-H torsion
[ 8008 7997 7996 7995 ] final   60.36 input   59.86 | X-H torsion
[ 10167 10162 10161 10158 ] final  -33.74 input  -65.29 | X-H torsion
[ 10718 10713 10712 10709 ] final   97.69 input   66.30 | X-H torsion
[ 10763 10752 10751 10750 ] final -113.55 input  -60.55 | X-H torsion
[ 11005 11000 10999 10996 ] final  139.96 input  -57.11 | X-H torsion

> <Gold.Protein.ActiveResidues>
 VAL166  LYS551  ARG553  GLY616  TRP617  ASP618  TYR619  PRO620  LYS621  CYS622 
 ASP623  PHE694  ASN695  SER759  ASP760  ASP761  ALA762  ILE779  LEU786  VAL792 
 PHE793  MET794  SER795  GLU796  ALA797  LYS798  CYS799  TRP800  GLU811  SER814 

> <Gold.Protein.RotatedAtoms>
  150.8690  134.8060  159.7140 H   0  0  0  0  0  0  0  0  0  0  0  0  # atno 6907 bound_to 6896
  152.4702  134.4976  159.9725 H   0  0  0  0  0  0  0  0  0  0  0  0  # atno 6908 bound_to 6896
  151.5068  133.3454  159.2914 H   0  0  0  0  0  0  0  0  0  0  0  0  # atno 6909 bound_to 6896
  145.4575  139.2289  143.3005 H   0  0  0  0  0  0  0  0  0  0  0  0  # atno 7974 bound_to 7965
  155.5810  140.3491  155.4540 H   0  0  0  0  0  0  0  0  0  0  0  0  # atno 8008 bound_to 7997
  156.0373  140.1288  157.0219 H   0  0  0  0  0  0  0  0  0  0  0  0  # atno 8009 bound_to 7997
  154.4377  140.1031  156.6171 H   0  0  0  0  0  0  0  0  0  0  0  0  # atno 8010 bound_to 7997
  140.7199  143.3598  151.1985 H   0  0  0  0  0  0  0  0  0  0  0  0  # atno 10167 bound_to 10162
  157.6908  131.0617  150.4682 H   0  0  0  0  0  0  0  0  0  0  0  0  # atno 10718 bound_to 10713
  154.8401  135.4450  154.1366 H   0  0  0  0  0  0  0  0  0  0  0  0  # atno 10763 bound_to 10752
  153.2562  135.6931  153.7632 H   0  0  0  0  0  0  0  0  0  0  0  0  # atno 10764 bound_to 10752
  153.6926  135.3385  155.3181 H   0  0  0  0  0  0  0  0  0  0  0  0  # atno 10765 bound_to 10752
  140.0292  134.9360  157.0629 H   0  0  0  0  0  0  0  0  0  0  0  0  # atno 11005 bound_to 11000
  146.2469  140.5341  142.8910 LP  0  0  0  0  0  0  0  0  0  0  0  0  # atno 17320 bound_to 7965
  144.8023  140.6235  143.6470 LP  0  0  0  0  0  0  0  0  0  0  0  0  # atno 17321 bound_to 7965
  139.7148  143.9319  152.2962 LP  0  0  0  0  0  0  0  0  0  0  0  0  # atno 17342 bound_to 10162
  139.9056  144.6887  150.8618 LP  0  0  0  0  0  0  0  0  0  0  0  0  # atno 17343 bound_to 10162
  156.5021  130.4119  149.6347 LP  0  0  0  0  0  0  0  0  0  0  0  0  # atno 17370 bound_to 10713
  156.3318  130.7335  151.2266 LP  0  0  0  0  0  0  0  0  0  0  0  0  # atno 17371 bound_to 10713
  140.4254  134.1836  155.7166 LP  0  0  0  0  0  0  0  0  0  0  0  0  # atno 17394 bound_to 11000
  141.1821  133.8392  157.1221 LP  0  0  0  0  0  0  0  0  0  0  0  0  # atno 17395 bound_to 11000

$$$$
