AV-unprocessed.smi:2269|AV-procd|sdf|9153|dock1
  -GOLD-   2272012363D 1   1.00000     0.00000
 Structure written by MMmdl.
 41 42  0  0  0  0  0  0  0  0  1 V2000
  151.8225  144.3424  160.5542 C   0  0  0  0  0  0  0  0  0  0  0  0
  151.7712  143.2966  159.4543 C   0  0  0  0  0  0  0  0  0  0  0  0
  151.0842  143.6720  158.2959 N   0  0  0  0  0  0  0  0  0  0  0  0
  150.9911  142.8460  157.3056 C   0  0  0  0  0  0  0  0  0  0  0  0
  151.5674  141.5668  157.3559 N   0  0  0  0  0  0  0  0  0  0  0  0
  151.3849  140.7224  156.1650 C   0  0  0  0  0  0  0  0  0  0  0  0
  150.0310  140.9884  155.4668 C   0  0  1  0  0  0  0  0  0  0  0  0
  149.9897  140.2603  154.2562 O   0  0  0  0  0  0  0  0  0  0  0  0
  148.8434  140.5226  156.3211 C   0  0  0  0  0  0  0  0  0  0  0  0
  147.6854  140.4966  155.4995 O   0  0  0  0  0  0  0  0  0  0  0  0
  147.4237  141.7182  154.8250 C   0  0  0  0  0  0  0  0  0  0  0  0
  146.6461  142.7139  155.6733 C   0  0  0  0  0  0  0  0  0  0  0  0
  146.5947  142.5381  157.0730 C   0  0  0  0  0  0  0  0  0  0  0  0
  145.8808  143.4448  157.8795 C   0  0  0  0  0  0  0  0  0  0  0  0
  145.2106  144.5329  157.2905 C   0  0  0  0  0  0  0  0  0  0  0  0
  145.2532  144.7116  155.8947 C   0  0  0  0  0  0  0  0  0  0  0  0
  145.9660  143.8064  155.0828 C   0  0  0  0  0  0  0  0  0  0  0  0
  145.9862  144.0586  153.3722 Cl  0  0  0  0  0  0  0  0  0  0  0  0
  152.2464  141.1166  158.4507 C   0  0  0  0  0  0  0  0  0  0  0  0
  152.7338  139.9852  158.4899 O   0  0  0  0  0  0  0  0  0  0  0  0
  152.3471  142.0687  159.5686 C   0  0  0  0  0  0  0  0  0  0  0  0
  153.1056  141.6043  160.8059 C   0  0  0  0  0  0  0  0  0  0  0  0
  151.3505  143.9656  161.4620 H   0  0  0  0  0  0  0  0  0  0  0  0
  151.3008  145.2541  160.2603 H   0  0  0  0  0  0  0  0  0  0  0  0
  152.8554  144.6078  160.7811 H   0  0  0  0  0  0  0  0  0  0  0  0
  150.4623  143.0874  156.3817 H   0  0  0  0  0  0  0  0  0  0  0  0
  152.2114  140.8193  155.4573 H   0  0  0  0  0  0  0  0  0  0  0  0
  151.4375  139.6788  156.4799 H   0  0  0  0  0  0  0  0  0  0  0  0
  149.9030  142.0470  155.2363 H   0  0  0  0  0  0  0  0  0  0  0  0
  149.0944  140.0096  154.0867 H   0  0  0  0  0  0  0  0  0  0  0  0
  149.0215  139.5184  156.7091 H   0  0  0  0  0  0  0  0  0  0  0  0
  148.7134  141.1867  157.1771 H   0  0  0  0  0  0  0  0  0  0  0  0
  148.3801  142.1711  154.5627 H   0  0  0  0  0  0  0  0  0  0  0  0
  146.9104  141.5234  153.8821 H   0  0  0  0  0  0  0  0  0  0  0  0
  147.1065  141.7070  157.5356 H   0  0  0  0  0  0  0  0  0  0  0  0
  145.8477  143.3052  158.9501 H   0  0  0  0  0  0  0  0  0  0  0  0
  144.6626  145.2291  157.9082 H   0  0  0  0  0  0  0  0  0  0  0  0
  144.7351  145.5461  155.4459 H   0  0  0  0  0  0  0  0  0  0  0  0
  154.1345  141.3552  160.5442 H   0  0  0  0  0  0  0  0  0  0  0  0
  152.6368  140.7117  161.2209 H   0  0  0  0  0  0  0  0  0  0  0  0
  153.1401  142.3533  161.5954 H   0  0  0  0  0  0  0  0  0  0  0  0
  1  2  1  0  0  0  0
  1 23  1  0  0  0  0
  1 24  1  0  0  0  0
  1 25  1  0  0  0  0
  2 21  2  0  0  0  0
  2  3  1  0  0  0  0
  3  4  2  0  0  0  0
  4  5  1  0  0  0  0
  4 26  1  0  0  0  0
  5  6  1  0  0  0  0
  5 19  1  0  0  0  0
  6  7  1  0  0  0  0
  6 27  1  0  0  0  0
  6 28  1  0  0  0  0
  7  8  1  0  0  0  0
  7  9  1  0  0  0  0
  7 29  1  0  0  0  0
  8 30  1  0  0  0  0
  9 10  1  0  0  0  0
  9 31  1  0  0  0  0
  9 32  1  0  0  0  0
 10 11  1  0  0  0  0
 11 12  1  0  0  0  0
 11 33  1  0  0  0  0
 11 34  1  0  0  0  0
 12 17  1  0  0  0  0
 12 13  2  0  0  0  0
 13 14  1  0  0  0  0
 13 35  1  0  0  0  0
 14 15  2  0  0  0  0
 14 36  1  0  0  0  0
 15 16  1  0  0  0  0
 15 37  1  0  0  0  0
 16 17  2  0  0  0  0
 16 38  1  0  0  0  0
 17 18  1  0  0  0  0
 19 20  2  0  0  0  0
 19 21  1  0  0  0  0
 21 22  1  0  0  0  0
 22 39  1  0  0  0  0
 22 40  1  0  0  0  0
 22 41  1  0  0  0  0
M  END
> <s_m_source_file>
AV-unprocessed.smi

> <i_m_source_file_index>
2269

> <i_lp_mmshare_version>
43012

> <i_f3d_flags>
0

> <s_epik_input>
W0NIM11jMW5bY0hdbihjKD1PKWMxW0NIM10pW0NIMl1bQ0BIXShbT0hdKVtDSDJdT1tDSDJdYzJbY0hdW2NIXVtjSF1bY0hdYzJDbA==

> <s_epik_cmdline>
J2VwaWtfcHl0aG9uJywgJy1waCcsICc3LjAnLCAnLXRuJywgJzgnLCAnLW1hJywgJzIwMCcsICctbWV0YWxfYmluZGluZycsICctaW1hZScsICc8aW5maWxlLm1hZT4nLCAnLW9tYWUnLCAnPG91dGZpbGUubWFlPic=

> <r_lp_tautomer_probability>
1

> <r_epik_Ionization_Penalty>
5.36022e-05

> <r_epik_Ionization_Penalty_Charging>
1.17753e-07

> <r_epik_Ionization_Penalty_Neutral>
5.34845e-05

> <r_epik_State_Penalty>
-0

> <r_epik_Charging_Adjusted_Penalty>
1.17753e-07

> <i_epik_Tot_Q>
0

> <i_epik_Tot_abs_Q>
0

> <r_epik_Metal_State_Penalty>
-0

> <b_epik_Metal_Only>
0

> <s_lp_Force_Field>
OPLS_2005

> <r_lp_Energy>
21.6364

> <b_lp_Chiralities_Consistent>
1

> <s_lp_Variant>
AV-unprocessed.smi:2269-2

> <Gold.Version>
5.8.1

> <Gold.Id.Protein>
6NUR|6NUR_protein|mol2

> <Gold.PLP.Fitness>
48.0420

> <Gold.PLP.PLP>
-40.7567

> <Gold.PLP.part.hbond>
-2.4165

> <Gold.PLP.part.metal>
0.0000

> <Gold.PLP.part.buried>
-6.3702

> <Gold.PLP.part.nonpolar>
-30.9898

> <Gold.PLP.part.repulsive>
0.1474

> <Gold.PLP.ligand.clash>
0.0000

> <Gold.PLP.ligand.torsion>
0.8733

> <Gold.PLP.Chemscore.Hbond>
1.9520

> <Gold.PLP.Chemscore.CHOScore>
1.0000

> <Gold.PLP.Chemscore.Metal>
0.0000

> <Gold.Chemscore.Hbonds>
donor molecule, donor type, donor heavy atom, donor atom, acceptor molecule, acceptor atom, score
      P1  H  7989  7998       L1     8  0.87
      P1  H  7997  8009       L1    20  0.18
      L1  C     4    26       P1  8028  1.00

> <Gold.PLP.Chemscore.Internal.Correction>
0.1759

> <Gold.Rescore>
     Score         DG    S(hbond)    S(metal)    S(lipo)     H(rot)  DE(clash)    DE(int)     intcor
     10.92     -13.57       1.25        0.00      88.58       2.52       0.57       2.08       ----

> <Gold.Chemscore.Fitness>
10.9191

> <Gold.Chemscore.DG>
-13.5735

> <Gold.Chemscore.ZeroCoef>
-5.4800

> <Gold.Chemscore.Hbond>
1.2487

> <Gold.Chemscore.Metal>
0.0000

> <Gold.Chemscore.Lipo>
88.5818

> <Gold.Chemscore.Internal_Hbond>
0.0000

> <Gold.Chemscore.DEClash>
0.5714

> <Gold.Chemscore.DEInternal>
2.0830

> <Gold.Chemscore.Rot>
2.5162

> <Gold.Chemscore.Internal.Correction>
   9.000000E+99

> <Gold.Chemscore.Hbonds>
donor molecule, donor type, donor heavy atom, donor atom, acceptor molecule, acceptor atom, score
      P1  H  7989  7998       L1     8  0.19
      P1  H  7997  8009       L1    20  0.09

> <Gold.Chemscore.Hbond.Weighted>
-4.1708

> <Gold.Chemscore.Metal.Weighted>
-0.0000

> <Gold.Chemscore.Lipo.Weighted>
-10.3641

> <Gold.Chemscore.Internal_Hbond.Weighted>
0.0000

> <Gold.Chemscore.DEClash.Weighted>
0.5714

> <Gold.Chemscore.DEInternal.Weighted>
2.0830

> <Gold.Chemscore.Rot.Weighted>
6.4414

> <Gold.Chemscore.Internal.Correction.Weighted>
   9.000000E+99

> <Gold.Protein.RotatedTorsions>
[ 6907 6896 6895 6894 ] final -164.67 input  -60.11 | X-H torsion
[ 7974 7965 7964 7962 ] final  -54.72 input  175.53 | X-H torsion
[ 8008 7997 7996 7995 ] final  156.24 input   59.86 | X-H torsion
[ 10167 10162 10161 10158 ] final   70.91 input  -65.29 | X-H torsion
[ 10718 10713 10712 10709 ] final    7.21 input   66.30 | X-H torsion
[ 10763 10752 10751 10750 ] final  -89.76 input  -60.55 | X-H torsion
[ 11005 11000 10999 10996 ] final  -33.67 input  -57.11 | X-H torsion

> <Gold.Protein.ActiveResidues>
 VAL166  LYS551  ARG553  GLY616  TRP617  ASP618  TYR619  PRO620  LYS621  CYS622 
 ASP623  PHE694  ASN695  SER759  ASP760  ASP761  ALA762  ILE779  LEU786  VAL792 
 PHE793  MET794  SER795  GLU796  ALA797  LYS798  CYS799  TRP800  GLU811  SER814 

> <Gold.Protein.RotatedAtoms>
  151.4155  133.3714  159.2749 H   0  0  0  0  0  0  0  0  0  0  0  0  # atno 6907 bound_to 6896
  150.9332  134.8747  159.7575 H   0  0  0  0  0  0  0  0  0  0  0  0  # atno 6908 bound_to 6896
  152.5037  134.4101  159.9498 H   0  0  0  0  0  0  0  0  0  0  0  0  # atno 6909 bound_to 6896
  145.8823  140.8135  142.9833 H   0  0  0  0  0  0  0  0  0  0  0  0  # atno 7974 bound_to 7965
  156.2433  140.1917  156.6925 H   0  0  0  0  0  0  0  0  0  0  0  0  # atno 8008 bound_to 7997
  154.6241  140.0604  156.9678 H   0  0  0  0  0  0  0  0  0  0  0  0  # atno 8009 bound_to 7997
  155.1815  140.3277  155.4377 H   0  0  0  0  0  0  0  0  0  0  0  0  # atno 8010 bound_to 7997
  140.0518  144.5305  150.7357 H   0  0  0  0  0  0  0  0  0  0  0  0  # atno 10167 bound_to 10162
  156.9336  130.5835  149.5650 H   0  0  0  0  0  0  0  0  0  0  0  0  # atno 10718 bound_to 10713
  154.6586  135.5329  153.7990 H   0  0  0  0  0  0  0  0  0  0  0  0  # atno 10763 bound_to 10752
  153.0428  135.6500  154.0906 H   0  0  0  0  0  0  0  0  0  0  0  0  # atno 10764 bound_to 10752
  154.0817  135.2946  155.3269 H   0  0  0  0  0  0  0  0  0  0  0  0  # atno 10765 bound_to 10752
  140.9653  133.7140  156.1436 H   0  0  0  0  0  0  0  0  0  0  0  0  # atno 11005 bound_to 11000
  144.6727  140.1403  143.7437 LP  0  0  0  0  0  0  0  0  0  0  0  0  # atno 17320 bound_to 7965
  145.9008  139.2429  143.1494 LP  0  0  0  0  0  0  0  0  0  0  0  0  # atno 17321 bound_to 7965
  140.7213  143.2591  151.4269 LP  0  0  0  0  0  0  0  0  0  0  0  0  # atno 17342 bound_to 10162
  139.5948  144.1421  152.2131 LP  0  0  0  0  0  0  0  0  0  0  0  0  # atno 17343 bound_to 10162
  156.0436  130.5515  150.8829 LP  0  0  0  0  0  0  0  0  0  0  0  0  # atno 17370 bound_to 10713
  157.5831  131.0946  150.9240 LP  0  0  0  0  0  0  0  0  0  0  0  0  # atno 17371 bound_to 10713
  140.7408  134.4152  157.5555 LP  0  0  0  0  0  0  0  0  0  0  0  0  # atno 17394 bound_to 11000
  139.8892  134.8835  156.2431 LP  0  0  0  0  0  0  0  0  0  0  0  0  # atno 17395 bound_to 11000

$$$$
