AV-unprocessed.smi:1718|AV-procd|sdf|6929|dock3
  -GOLD-   22720 8143D 1   1.00000     0.00000
 Structure written by MMmdl.
 39 40  0  0  0  0  0  0  0  0  2 V2000
  149.6664  133.9380  154.4464 C   0  0  0  0  0  0  0  0  0  0  0  0
  150.1286  135.0382  155.4135 C   0  0  1  0  0  0  0  0  0  0  0  0
  149.5371  136.2623  154.9873 O   0  0  0  0  0  0  0  0  0  0  0  0
  150.3635  137.4140  155.1125 C   0  0  0  0  0  0  0  0  0  0  0  0
  149.6617  138.5992  154.4400 C   0  0  1  0  0  0  0  0  0  0  0  0
  148.2647  138.8885  154.9888 C   0  0  0  0  0  0  0  0  0  0  0  0
  148.1149  140.3603  154.6804 C   0  0  0  0  0  0  0  0  0  0  0  0
  149.5236  140.8771  154.9552 C   0  0  0  0  0  0  0  0  0  0  0  0
  150.4034  139.7995  154.6446 O   0  0  0  0  0  0  0  0  0  0  0  0
  149.7118  134.7250  156.8596 C   0  0  0  0  0  0  0  0  0  0  0  0
  149.8215  133.5751  157.2851 O   0  0  0  0  0  0  0  0  0  0  0  0
  149.2446  135.7739  157.5646 N   0  0  0  0  0  0  0  0  0  0  0  0
  148.7364  135.8134  158.8737 C   0  0  0  0  0  0  0  0  0  0  0  0
  148.1838  134.7519  159.5235 C   0  0  0  0  0  0  0  0  0  0  0  0
  147.6557  134.8553  160.8780 C   0  0  0  0  0  0  0  0  0  0  0  0
  147.1294  133.6718  161.6705 C   0  0  0  0  0  0  0  0  0  0  0  0
  148.1010  132.7945  161.9241 F   0  0  0  0  0  0  0  0  0  0  0  0
  146.6328  134.0894  162.8339 F   0  0  0  0  0  0  0  0  0  0  0  0
  146.1593  133.0445  161.0053 F   0  0  0  0  0  0  0  0  0  0  0  0
  147.7905  136.1284  161.3971 C   0  0  0  0  0  0  0  0  0  0  0  0
  148.2950  137.2369  160.8122 N   0  5  0  0  0  0  0  0  0  0  0  0
  148.7872  137.1282  159.5457 C   0  0  0  0  0  0  0  0  0  0  0  0
  149.2683  138.0964  158.9561 O   0  0  0  0  0  0  0  0  0  0  0  0
  150.0690  132.9654  154.7314 H   0  0  0  0  0  0  0  0  0  0  0  0
  150.0045  134.1490  153.4318 H   0  0  0  0  0  0  0  0  0  0  0  0
  148.5792  133.8570  154.4199 H   0  0  0  0  0  0  0  0  0  0  0  0
  151.2155  135.1178  155.3465 H   0  0  0  0  0  0  0  0  0  0  0  0
  150.5747  137.6529  156.1553 H   0  0  0  0  0  0  0  0  0  0  0  0
  151.3198  137.2255  154.6227 H   0  0  0  0  0  0  0  0  0  0  0  0
  149.6022  138.4357  153.3628 H   0  0  0  0  0  0  0  0  0  0  0  0
  147.4915  138.2723  154.5291 H   0  0  0  0  0  0  0  0  0  0  0  0
  148.2314  138.7293  156.0676 H   0  0  0  0  0  0  0  0  0  0  0  0
  147.8602  140.4991  153.6286 H   0  0  0  0  0  0  0  0  0  0  0  0
  147.3538  140.8523  155.2862 H   0  0  0  0  0  0  0  0  0  0  0  0
  149.7615  141.7673  154.3726 H   0  0  0  0  0  0  0  0  0  0  0  0
  149.6383  141.1225  156.0118 H   0  0  0  0  0  0  0  0  0  0  0  0
  149.2878  136.6739  157.1085 H   0  0  0  0  0  0  0  0  0  0  0  0
  148.0970  133.7925  159.0403 H   0  0  0  0  0  0  0  0  0  0  0  0
  147.4457  136.2775  162.4426 H   0  0  0  0  0  0  0  0  0  0  0  0
  1  2  1  0  0  0  0
  1 24  1  0  0  0  0
  1 25  1  0  0  0  0
  1 26  1  0  0  0  0
  2  3  1  0  0  0  0
  2 10  1  0  0  0  0
  2 27  1  0  0  0  0
  3  4  1  0  0  0  0
  4  5  1  0  0  0  0
  4 28  1  0  0  0  0
  4 29  1  0  0  0  0
  5  9  1  0  0  0  0
  5  6  1  0  0  0  0
  5 30  1  0  0  0  0
  6  7  1  0  0  0  0
  6 31  1  0  0  0  0
  6 32  1  0  0  0  0
  7  8  1  0  0  0  0
  7 33  1  0  0  0  0
  7 34  1  0  0  0  0
  8  9  1  0  0  0  0
  8 35  1  0  0  0  0
  8 36  1  0  0  0  0
 10 11  2  0  0  0  0
 10 12  1  0  0  0  0
 12 13  1  0  0  0  0
 12 37  1  0  0  0  0
 13 22  1  0  0  0  0
 13 14  2  0  0  0  0
 14 15  1  0  0  0  0
 14 38  1  0  0  0  0
 15 16  1  0  0  0  0
 15 20  2  0  0  0  0
 16 17  1  0  0  0  0
 16 18  1  0  0  0  0
 16 19  1  0  0  0  0
 20 21  1  0  0  0  0
 20 39  1  0  0  0  0
 21 22  1  0  0  0  0
 22 23  2  0  0  0  0
M  CHG  1  21  -1
M  END
> <s_m_source_file>
AV-unprocessed.smi

> <i_m_source_file_index>
1718

> <i_lp_mmshare_version>
43012

> <i_f3d_flags>
0

> <s_epik_input>
TzFbQ0gyXVtDSDJdW0NIMl1bQ0BIXTFbQ0gyXU9bQ0BASF0oW0NIM10pQyg9TylbTkhdYzJbY0hdYyhDKEYpKEYpRilbY0hdW25IXWMyPU8=

> <s_epik_cmdline>
J2VwaWtfcHl0aG9uJywgJy1waCcsICc3LjAnLCAnLXRuJywgJzgnLCAnLW1hJywgJzIwMCcsICctbWV0YWxfYmluZGluZycsICctaW1hZScsICc8aW5maWxlLm1hZT4nLCAnLW9tYWUnLCAnPG91dGZpbGUubWFlPic=

> <r_epik_Ionization_Penalty>
2.5466

> <r_epik_Ionization_Penalty_Charging>
0.0575837

> <r_epik_Ionization_Penalty_Neutral>
2.48901

> <r_epik_State_Penalty>
2.6532

> <r_epik_Charging_Adjusted_Penalty>
2.71078

> <i_epik_Tot_Q>
-1

> <i_epik_Tot_abs_Q>
1

> <r_epik_Metal_State_Penalty>
0.516196

> <b_epik_Metal_Only>
0

> <s_lp_Force_Field>
OPLS_2005

> <r_lp_Energy>
35.9934

> <b_lp_Chiralities_Consistent>
1

> <s_lp_Variant>
AV-unprocessed.smi:1718-8

> <Gold.Version>
5.8.1

> <Gold.Id.Protein>
6NUR|6NUR_protein|mol2

> <Gold.PLP.Fitness>
47.3655

> <Gold.PLP.PLP>
-34.1421

> <Gold.PLP.part.hbond>
-4.6787

> <Gold.PLP.part.metal>
0.0000

> <Gold.PLP.part.buried>
-5.9727

> <Gold.PLP.part.nonpolar>
-25.8960

> <Gold.PLP.part.repulsive>
0.3127

> <Gold.PLP.ligand.clash>
0.0019

> <Gold.PLP.ligand.torsion>
1.3238

> <Gold.PLP.Chemscore.Hbond>
5.2473

> <Gold.PLP.Chemscore.CHOScore>
0.0000

> <Gold.PLP.Chemscore.Metal>
0.0000

> <Gold.Chemscore.Hbonds>
donor molecule, donor type, donor heavy atom, donor atom, acceptor molecule, acceptor atom, score
      P1  H  6896  6907       L1    11  0.50
      P1  H  6931  6943       L1    21  1.73
      P1  H  6934  6947       L1    21  1.01
      P1  H  7989  7998       L1     9  0.80

> <Gold.PLP.Chemscore.Internal.Correction>
0.1310

> <Gold.Rescore>
     Score         DG    S(hbond)    S(metal)    S(lipo)     H(rot)  DE(clash)    DE(int)     intcor
     13.21     -15.84       2.27        0.00      64.18       1.85       0.42       2.21       ----

> <Gold.Chemscore.Fitness>
13.2097

> <Gold.Chemscore.DG>
-15.8409

> <Gold.Chemscore.ZeroCoef>
-5.4800

> <Gold.Chemscore.Hbond>
2.2684

> <Gold.Chemscore.Metal>
0.0000

> <Gold.Chemscore.Lipo>
64.1777

> <Gold.Chemscore.Internal_Hbond>
0.0000

> <Gold.Chemscore.DEClash>
0.4216

> <Gold.Chemscore.DEInternal>
2.2096

> <Gold.Chemscore.Rot>
1.8455

> <Gold.Chemscore.Internal.Correction>
   9.000000E+99

> <Gold.Chemscore.Hbonds>
donor molecule, donor type, donor heavy atom, donor atom, acceptor molecule, acceptor atom, score
      P1  H  6896  6907       L1    11  0.34
      P1  H  6931  6943       L1    21  0.70
      P1  H  6934  6947       L1    21  0.31
      P1  H  7989  7998       L1     9  0.11

> <Gold.Chemscore.Hbond.Weighted>
-7.5766

> <Gold.Chemscore.Metal.Weighted>
-0.0000

> <Gold.Chemscore.Lipo.Weighted>
-7.5088

> <Gold.Chemscore.Internal_Hbond.Weighted>
0.0000

> <Gold.Chemscore.DEClash.Weighted>
0.4216

> <Gold.Chemscore.DEInternal.Weighted>
2.2096

> <Gold.Chemscore.Rot.Weighted>
4.7245

> <Gold.Chemscore.Internal.Correction.Weighted>
   9.000000E+99

> <Gold.Protein.RotatedTorsions>
[ 6907 6896 6895 6894 ] final -133.15 input  -60.11 | X-H torsion
[ 7974 7965 7964 7962 ] final  157.93 input  175.53 | X-H torsion
[ 8008 7997 7996 7995 ] final  150.80 input   59.86 | X-H torsion
[ 10167 10162 10161 10158 ] final  -86.25 input  -65.29 | X-H torsion
[ 10718 10713 10712 10709 ] final  -56.65 input   66.30 | X-H torsion
[ 10763 10752 10751 10750 ] final -170.76 input  -60.55 | X-H torsion
[ 11005 11000 10999 10996 ] final  -21.48 input  -57.11 | X-H torsion

> <Gold.Protein.ActiveResidues>
 VAL166  LYS551  ARG553  GLY616  TRP617  ASP618  TYR619  PRO620  LYS621  CYS622 
 ASP623  PHE694  ASN695  SER759  ASP760  ASP761  ALA762  ILE779  LEU786  VAL792 
 PHE793  MET794  SER795  GLU796  ALA797  LYS798  CYS799  TRP800  GLU811  SER814 

> <Gold.Protein.RotatedAtoms>
  150.9706  133.6348  159.2738 H   0  0  0  0  0  0  0  0  0  0  0  0  # atno 6907 bound_to 6896
  151.3638  135.0908  159.9453 H   0  0  0  0  0  0  0  0  0  0  0  0  # atno 6908 bound_to 6896
  152.5181  133.9274  159.7618 H   0  0  0  0  0  0  0  0  0  0  0  0  # atno 6909 bound_to 6896
  144.7875  139.7408  143.6235 H   0  0  0  0  0  0  0  0  0  0  0  0  # atno 7974 bound_to 7965
  156.2700  140.2065  156.6075 H   0  0  0  0  0  0  0  0  0  0  0  0  # atno 8008 bound_to 7997
  154.6858  140.0535  157.0336 H   0  0  0  0  0  0  0  0  0  0  0  0  # atno 8009 bound_to 7997
  155.0936  140.3199  155.4569 H   0  0  0  0  0  0  0  0  0  0  0  0  # atno 8010 bound_to 7997
  140.3960  143.2683  151.9204 H   0  0  0  0  0  0  0  0  0  0  0  0  # atno 10167 bound_to 10162
  156.1272  130.4162  150.0334 H   0  0  0  0  0  0  0  0  0  0  0  0  # atno 10718 bound_to 10713
  154.6380  135.2895  155.0138 H   0  0  0  0  0  0  0  0  0  0  0  0  # atno 10763 bound_to 10752
  154.1275  135.6538  153.4919 H   0  0  0  0  0  0  0  0  0  0  0  0  # atno 10764 bound_to 10752
  153.0312  135.5302  154.7234 H   0  0  0  0  0  0  0  0  0  0  0  0  # atno 10765 bound_to 10752
  140.8565  133.7819  156.0025 H   0  0  0  0  0  0  0  0  0  0  0  0  # atno 11005 bound_to 11000
  146.2113  139.5471  142.9679 LP  0  0  0  0  0  0  0  0  0  0  0  0  # atno 17320 bound_to 7965
  145.5883  141.0373  143.2084 LP  0  0  0  0  0  0  0  0  0  0  0  0  # atno 17321 bound_to 7965
  139.4786  144.5681  151.8132 LP  0  0  0  0  0  0  0  0  0  0  0  0  # atno 17342 bound_to 10162
  140.4790  144.1477  150.5929 LP  0  0  0  0  0  0  0  0  0  0  0  0  # atno 17343 bound_to 10162
  156.8256  130.9374  151.3639 LP  0  0  0  0  0  0  0  0  0  0  0  0  # atno 17370 bound_to 10713
  157.6453  130.8839  149.9526 LP  0  0  0  0  0  0  0  0  0  0  0  0  # atno 17371 bound_to 10713
  140.8731  134.2702  157.5181 LP  0  0  0  0  0  0  0  0  0  0  0  0  # atno 17394 bound_to 11000
  139.8705  134.9577  156.4278 LP  0  0  0  0  0  0  0  0  0  0  0  0  # atno 17395 bound_to 11000

$$$$
