AV-unprocessed.smi:3323|AV-procd|sdf|12780|dock4
  -GOLD-   2272019123D 1   1.00000     0.00000
 Structure written by MMmdl.
 37 38  0  0  0  0  0  0  0  0  1 V2000
  147.4254  132.0212  153.0526 C   0  0  0  0  0  0  0  0  0  0  0  0
  146.3124  132.9393  152.5362 C   0  0  1  0  0  0  0  0  0  0  0  0
  146.7534  133.7429  151.2969 C   0  0  0  0  0  0  0  0  0  0  0  0
  145.6042  134.6094  150.7435 C   0  0  2  0  0  0  0  0  0  0  0  0
  145.2680  135.8500  151.6045 C   0  0  0  0  0  0  0  0  0  0  0  0
  146.4635  136.5781  152.0209 N   0  0  0  0  0  0  0  0  0  0  0  0
  146.4774  137.7809  152.6138 C   0  0  0  0  0  0  0  0  0  0  0  0
  145.4596  138.4140  152.8933 O   0  0  0  0  0  0  0  0  0  0  0  0
  147.7349  138.1758  152.8772 N   0  0  0  0  0  0  0  0  0  0  0  0
  148.1756  139.3810  153.4880 C   0  0  0  0  0  0  0  0  0  0  0  0
  147.4054  140.5671  153.5616 C   0  0  0  0  0  0  0  0  0  0  0  0
  147.9644  141.7032  154.1782 C   0  0  0  0  0  0  0  0  0  0  0  0
  149.2731  141.6153  154.6911 C   0  0  0  0  0  0  0  0  0  0  0  0
  150.0233  140.4960  154.6160 N   0  0  0  0  0  0  0  0  0  0  0  0
  149.4813  139.4111  154.0228 C   0  0  0  0  0  0  0  0  0  0  0  0
  144.3775  133.7049  150.5315 C   0  0  0  0  0  0  0  0  0  0  0  0
  144.0523  132.8837  151.7924 C   0  0  0  0  0  0  0  0  0  0  0  0
  145.1911  132.1298  152.1940 O   0  0  0  0  0  0  0  0  0  0  0  0
  148.3050  132.5972  153.3414 H   0  0  0  0  0  0  0  0  0  0  0  0
  147.7305  131.3018  152.2923 H   0  0  0  0  0  0  0  0  0  0  0  0
  147.0933  131.4612  153.9271 H   0  0  0  0  0  0  0  0  0  0  0  0
  146.0309  133.6181  153.3422 H   0  0  0  0  0  0  0  0  0  0  0  0
  147.6295  134.3490  151.5255 H   0  0  0  0  0  0  0  0  0  0  0  0
  147.0719  133.0454  150.5210 H   0  0  0  0  0  0  0  0  0  0  0  0
  145.9108  134.9806  149.7645 H   0  0  0  0  0  0  0  0  0  0  0  0
  144.6609  136.5409  151.0192 H   0  0  0  0  0  0  0  0  0  0  0  0
  144.6576  135.5800  152.4666 H   0  0  0  0  0  0  0  0  0  0  0  0
  147.3499  136.1300  151.8398 H   0  0  0  0  0  0  0  0  0  0  0  0
  148.4624  137.5092  152.6643 H   0  0  0  0  0  0  0  0  0  0  0  0
  146.4109  140.6341  153.1489 H   0  0  0  0  0  0  0  0  0  0  0  0
  147.4035  142.6233  154.2518 H   0  0  0  0  0  0  0  0  0  0  0  0
  149.7315  142.4685  155.1689 H   0  0  0  0  0  0  0  0  0  0  0  0
  150.1116  138.5348  153.9788 H   0  0  0  0  0  0  0  0  0  0  0  0
  143.5114  134.2950  150.2301 H   0  0  0  0  0  0  0  0  0  0  0  0
  144.5781  133.0175  149.7089 H   0  0  0  0  0  0  0  0  0  0  0  0
  143.7214  133.5258  152.6095 H   0  0  0  0  0  0  0  0  0  0  0  0
  143.2335  132.1945  151.5853 H   0  0  0  0  0  0  0  0  0  0  0  0
  1  2  1  0  0  0  0
  1 19  1  0  0  0  0
  1 20  1  0  0  0  0
  1 21  1  0  0  0  0
  2 18  1  0  0  0  0
  2  3  1  0  0  0  0
  2 22  1  0  0  0  0
  3  4  1  0  0  0  0
  3 23  1  0  0  0  0
  3 24  1  0  0  0  0
  4  5  1  0  0  0  0
  4 16  1  0  0  0  0
  4 25  1  0  0  0  0
  5  6  1  0  0  0  0
  5 26  1  0  0  0  0
  5 27  1  0  0  0  0
  6  7  1  0  0  0  0
  6 28  1  0  0  0  0
  7  8  2  0  0  0  0
  7  9  1  0  0  0  0
  9 10  1  0  0  0  0
  9 29  1  0  0  0  0
 10 15  1  0  0  0  0
 10 11  2  0  0  0  0
 11 12  1  0  0  0  0
 11 30  1  0  0  0  0
 12 13  2  0  0  0  0
 12 31  1  0  0  0  0
 13 14  1  0  0  0  0
 13 32  1  0  0  0  0
 14 15  2  0  0  0  0
 15 33  1  0  0  0  0
 16 17  1  0  0  0  0
 16 34  1  0  0  0  0
 16 35  1  0  0  0  0
 17 18  1  0  0  0  0
 17 36  1  0  0  0  0
 17 37  1  0  0  0  0
M  END
> <s_m_source_file>
AV-unprocessed.smi

> <i_m_source_file_index>
3323

> <i_lp_mmshare_version>
43012

> <i_f3d_flags>
0

> <s_epik_input>
W0NIM11bQ0BASF0xW0NIMl1bQ0BIXShbQ0gyXVtDSDJdTzEpW0NIMl1bTkhdQyg9TylbTkhdYzJbY0hdW2NIXVtjSF1uW2NIXTI=

> <s_epik_cmdline>
J2VwaWtfcHl0aG9uJywgJy1waCcsICc3LjAnLCAnLXRuJywgJzgnLCAnLW1hJywgJzIwMCcsICctbWV0YWxfYmluZGluZycsICctaW1hZScsICc8aW5maWxlLm1hZT4nLCAnLW9tYWUnLCAnPG91dGZpbGUubWFlPic=

> <r_epik_Ionization_Penalty>
0.00485293

> <r_epik_Ionization_Penalty_Charging>
0

> <r_epik_Ionization_Penalty_Neutral>
0.00485293

> <r_epik_State_Penalty>
0.00349083

> <r_epik_Charging_Adjusted_Penalty>
0.00349083

> <i_epik_Tot_Q>
0

> <i_epik_Tot_abs_Q>
0

> <r_epik_Metal_State_Penalty>
-0

> <b_epik_Metal_Only>
0

> <s_lp_Force_Field>
OPLS_2005

> <r_lp_Energy>
13.6237

> <b_lp_Chiralities_Consistent>
1

> <s_lp_Variant>
AV-unprocessed.smi:3323-4

> <Gold.Version>
5.8.1

> <Gold.Id.Protein>
6NUR|6NUR_protein|mol2

> <Gold.PLP.Fitness>
40.1006

> <Gold.PLP.PLP>
-28.8495

> <Gold.PLP.part.hbond>
-3.6407

> <Gold.PLP.part.metal>
0.0000

> <Gold.PLP.part.buried>
1.6453

> <Gold.PLP.part.nonpolar>
-29.9933

> <Gold.PLP.part.repulsive>
3.3556

> <Gold.PLP.ligand.clash>
0.0000

> <Gold.PLP.ligand.torsion>
0.2089

> <Gold.PLP.Chemscore.Hbond>
2.8880

> <Gold.PLP.Chemscore.CHOScore>
1.0000

> <Gold.PLP.Chemscore.Metal>
0.0000

> <Gold.Chemscore.Hbonds>
donor molecule, donor type, donor heavy atom, donor atom, acceptor molecule, acceptor atom, score
      L1  H     6    28       P1  7948  0.98
      L1  H     9    29       P1  7948  0.99
      P1  H  7989  7998       L1    14  0.90
      L1  C    13    32       P1  8028  1.00

> <Gold.PLP.Chemscore.Internal.Correction>
0.0048

> <Gold.Rescore>
     Score         DG    S(hbond)    S(metal)    S(lipo)     H(rot)  DE(clash)    DE(int)     intcor
     15.35     -18.09       2.16        0.00      72.98       1.23       1.36       1.38       ----

> <Gold.Chemscore.Fitness>
15.3529

> <Gold.Chemscore.DG>
-18.0898

> <Gold.Chemscore.ZeroCoef>
-5.4800

> <Gold.Chemscore.Hbond>
2.1594

> <Gold.Chemscore.Metal>
0.0000

> <Gold.Chemscore.Lipo>
72.9847

> <Gold.Chemscore.Internal_Hbond>
0.0000

> <Gold.Chemscore.DEClash>
1.3557

> <Gold.Chemscore.DEInternal>
1.3811

> <Gold.Chemscore.Rot>
1.2273

> <Gold.Chemscore.Internal.Correction>
   9.000000E+99

> <Gold.Chemscore.Hbonds>
donor molecule, donor type, donor heavy atom, donor atom, acceptor molecule, acceptor atom, score
      L1  H     6    28       P1  7948  0.91
      L1  H     9    29       P1  7948  0.91
      P1  H  7989  7998       L1    14  0.22

> <Gold.Chemscore.Hbond.Weighted>
-7.2124

> <Gold.Chemscore.Metal.Weighted>
-0.0000

> <Gold.Chemscore.Lipo.Weighted>
-8.5392

> <Gold.Chemscore.Internal_Hbond.Weighted>
0.0000

> <Gold.Chemscore.DEClash.Weighted>
1.3557

> <Gold.Chemscore.DEInternal.Weighted>
1.3811

> <Gold.Chemscore.Rot.Weighted>
3.1418

> <Gold.Chemscore.Internal.Correction.Weighted>
   9.000000E+99

> <Gold.Protein.RotatedTorsions>
[ 6907 6896 6895 6894 ] final   54.80 input  -60.11 | X-H torsion
[ 7974 7965 7964 7962 ] final   33.13 input  175.53 | X-H torsion
[ 8008 7997 7996 7995 ] final -140.90 input   59.86 | X-H torsion
[ 10167 10162 10161 10158 ] final -103.80 input  -65.29 | X-H torsion
[ 10718 10713 10712 10709 ] final   97.36 input   66.30 | X-H torsion
[ 10763 10752 10751 10750 ] final  161.95 input  -60.55 | X-H torsion
[ 11005 11000 10999 10996 ] final   18.33 input  -57.11 | X-H torsion

> <Gold.Protein.ActiveResidues>
 VAL166  LYS551  ARG553  GLY616  TRP617  ASP618  TYR619  PRO620  LYS621  CYS622 
 ASP623  PHE694  ASN695  SER759  ASP760  ASP761  ALA762  ILE779  LEU786  VAL792 
 PHE793  MET794  SER795  GLU796  ALA797  LYS798  CYS799  TRP800  GLU811  SER814 

> <Gold.Protein.RotatedAtoms>
  152.3475  134.7051  160.0245 H   0  0  0  0  0  0  0  0  0  0  0  0  # atno 6907 bound_to 6896
  151.7416  133.3317  159.3375 H   0  0  0  0  0  0  0  0  0  0  0  0  # atno 6908 bound_to 6896
  150.7518  134.6206  159.6178 H   0  0  0  0  0  0  0  0  0  0  0  0  # atno 6909 bound_to 6896
  146.1441  139.6436  142.9143 H   0  0  0  0  0  0  0  0  0  0  0  0  # atno 7974 bound_to 7965
  155.4689  140.0551  157.2982 H   0  0  0  0  0  0  0  0  0  0  0  0  # atno 8008 bound_to 7997
  154.4706  140.2039  155.9957 H   0  0  0  0  0  0  0  0  0  0  0  0  # atno 8009 bound_to 7997
  156.1050  140.3213  155.7998 H   0  0  0  0  0  0  0  0  0  0  0  0  # atno 8010 bound_to 7997
  140.2161  143.3710  152.1009 H   0  0  0  0  0  0  0  0  0  0  0  0  # atno 10167 bound_to 10162
  157.6913  131.0607  150.4633 H   0  0  0  0  0  0  0  0  0  0  0  0  # atno 10718 bound_to 10713
  154.2708  135.2766  155.2739 H   0  0  0  0  0  0  0  0  0  0  0  0  # atno 10763 bound_to 10752
  154.5303  135.5731  153.6756 H   0  0  0  0  0  0  0  0  0  0  0  0  # atno 10764 bound_to 10752
  152.9945  135.6226  154.2863 H   0  0  0  0  0  0  0  0  0  0  0  0  # atno 10765 bound_to 10752
  140.4260  134.1470  155.7676 H   0  0  0  0  0  0  0  0  0  0  0  0  # atno 11005 bound_to 11000
  145.4979  141.0438  143.2556 LP  0  0  0  0  0  0  0  0  0  0  0  0  # atno 17320 bound_to 7965
  144.7825  139.6495  143.7148 LP  0  0  0  0  0  0  0  0  0  0  0  0  # atno 17321 bound_to 7965
  139.5161  144.6973  151.5594 LP  0  0  0  0  0  0  0  0  0  0  0  0  # atno 17342 bound_to 10162
  140.6289  143.9115  150.6588 LP  0  0  0  0  0  0  0  0  0  0  0  0  # atno 17343 bound_to 10162
  156.4975  130.4109  149.6371 LP  0  0  0  0  0  0  0  0  0  0  0  0  # atno 17370 bound_to 10713
  156.3359  130.7356  151.2293 LP  0  0  0  0  0  0  0  0  0  0  0  0  # atno 17371 bound_to 10713
  141.1765  133.8503  157.1403 LP  0  0  0  0  0  0  0  0  0  0  0  0  # atno 17394 bound_to 11000
  140.0167  134.9964  157.0508 LP  0  0  0  0  0  0  0  0  0  0  0  0  # atno 17395 bound_to 11000

$$$$
