AV-unprocessed.smi:3052|AV-procd|sdf|11635|dock3
  -GOLD-   2272017 23D 1   1.00000     0.00000
 Structure written by MMmdl.
 41 43  0  0  0  0  0  0  0  0  1 V2000
  150.3896  135.1124  155.6739 C   0  0  0  0  0  0  0  0  0  0  0  0
  150.0613  133.6978  155.2846 C   0  0  0  0  0  0  0  0  0  0  0  0
  150.6791  132.7010  155.9008 N   0  0  0  0  0  0  0  0  0  0  0  0
  150.2297  131.5155  155.2993 O   0  0  0  0  0  0  0  0  0  0  0  0
  149.3455  131.8267  154.3161 C   0  0  0  0  0  0  0  0  0  0  0  0
  148.7633  130.6831  153.5517 C   0  0  0  0  0  0  0  0  0  0  0  0
  147.8516  129.6851  154.2209 C   0  0  0  0  0  0  0  0  0  0  0  0
  149.2292  129.2616  153.7601 C   0  0  0  0  0  0  0  0  0  0  0  0
  149.1793  133.1809  154.2909 C   0  0  0  0  0  0  0  0  0  0  0  0
  148.3384  133.8763  153.3868 N   0  0  0  0  0  0  0  0  0  0  0  0
  147.1330  133.4864  152.9467 C   0  0  0  0  0  0  0  0  0  0  0  0
  146.5770  132.4374  153.2696 O   0  0  0  0  0  0  0  0  0  0  0  0
  146.6230  134.3809  152.0844 N   0  0  0  0  0  0  0  0  0  0  0  0
  145.3486  134.3265  151.3553 C   0  0  1  0  0  0  0  0  0  0  0  0
  144.2438  134.2379  152.4370 C   0  0  0  0  0  0  0  0  0  0  0  0
  145.1488  135.6324  150.5384 C   0  0  0  0  0  0  0  0  0  0  0  0
  145.2546  136.7965  151.3360 O   0  0  0  0  0  0  0  0  0  0  0  0
  145.2946  133.1401  150.3769 C   0  0  0  0  0  0  0  0  0  0  0  0
  144.0294  132.6526  149.7080 C   0  0  0  0  0  0  0  0  0  0  0  0
  144.7419  131.7765  150.7210 C   0  0  0  0  0  0  0  0  0  0  0  0
  150.3215  135.7836  154.8179 H   0  0  0  0  0  0  0  0  0  0  0  0
  151.4029  135.1928  156.0687 H   0  0  0  0  0  0  0  0  0  0  0  0
  149.7069  135.4758  156.4418 H   0  0  0  0  0  0  0  0  0  0  0  0
  148.5169  130.9808  152.5343 H   0  0  0  0  0  0  0  0  0  0  0  0
  147.6904  129.7858  155.2925 H   0  0  0  0  0  0  0  0  0  0  0  0
  146.9968  129.3254  153.6518 H   0  0  0  0  0  0  0  0  0  0  0  0
  149.2910  128.6209  152.8829 H   0  0  0  0  0  0  0  0  0  0  0  0
  149.9704  129.0676  154.5326 H   0  0  0  0  0  0  0  0  0  0  0  0
  148.7372  134.6944  152.9502 H   0  0  0  0  0  0  0  0  0  0  0  0
  147.1883  135.1958  151.8969 H   0  0  0  0  0  0  0  0  0  0  0  0
  143.2435  134.2834  152.0073 H   0  0  0  0  0  0  0  0  0  0  0  0
  144.3140  135.0641  153.1455 H   0  0  0  0  0  0  0  0  0  0  0  0
  144.3162  133.3252  153.0271 H   0  0  0  0  0  0  0  0  0  0  0  0
  145.8692  135.7068  149.7236 H   0  0  0  0  0  0  0  0  0  0  0  0
  144.1633  135.6335  150.0713 H   0  0  0  0  0  0  0  0  0  0  0  0
  144.6809  137.4572  150.9791 H   0  0  0  0  0  0  0  0  0  0  0  0
  146.1617  133.1133  149.7201 H   0  0  0  0  0  0  0  0  0  0  0  0
  143.0728  133.0755  150.0029 H   0  0  0  0  0  0  0  0  0  0  0  0
  144.0993  132.3638  148.6613 H   0  0  0  0  0  0  0  0  0  0  0  0
  145.2821  130.9116  150.3419 H   0  0  0  0  0  0  0  0  0  0  0  0
  144.2591  131.6281  151.6832 H   0  0  0  0  0  0  0  0  0  0  0  0
  1  2  1  0  0  0  0
  1 21  1  0  0  0  0
  1 22  1  0  0  0  0
  1 23  1  0  0  0  0
  2  9  1  0  0  0  0
  2  3  2  0  0  0  0
  3  4  1  0  0  0  0
  4  5  1  0  0  0  0
  5  6  1  0  0  0  0
  5  9  2  0  0  0  0
  6  8  1  0  0  0  0
  6  7  1  0  0  0  0
  6 24  1  0  0  0  0
  7  8  1  0  0  0  0
  7 25  1  0  0  0  0
  7 26  1  0  0  0  0
  8 27  1  0  0  0  0
  8 28  1  0  0  0  0
  9 10  1  0  0  0  0
 10 11  1  0  0  0  0
 10 29  1  0  0  0  0
 11 12  2  0  0  0  0
 11 13  1  0  0  0  0
 13 14  1  0  0  0  0
 13 30  1  0  0  0  0
 14 15  1  0  0  0  0
 14 16  1  0  0  0  0
 14 18  1  0  0  0  0
 15 31  1  0  0  0  0
 15 32  1  0  0  0  0
 15 33  1  0  0  0  0
 16 17  1  0  0  0  0
 16 34  1  0  0  0  0
 16 35  1  0  0  0  0
 17 36  1  0  0  0  0
 18 20  1  0  0  0  0
 18 19  1  0  0  0  0
 18 37  1  0  0  0  0
 19 20  1  0  0  0  0
 19 38  1  0  0  0  0
 19 39  1  0  0  0  0
 20 40  1  0  0  0  0
 20 41  1  0  0  0  0
M  END
> <s_m_source_file>
AV-unprocessed.smi

> <i_m_source_file_index>
3052

> <i_lp_mmshare_version>
43012

> <i_f3d_flags>
0

> <s_epik_input>
W0NIM11jMW5vYyhbQ0hdMltDSDJdW0NIMl0yKWMxW05IXUMoPU8pW05IXVtDQEBdKFtDSDNdKShbQ0gyXVtPSF0pW0NIXTNbQ0gyXVtDSDJdMw==

> <s_epik_cmdline>
J2VwaWtfcHl0aG9uJywgJy1waCcsICc3LjAnLCAnLXRuJywgJzgnLCAnLW1hJywgJzIwMCcsICctbWV0YWxfYmluZGluZycsICctaW1hZScsICc8aW5maWxlLm1hZT4nLCAnLW9tYWUnLCAnPG91dGZpbGUubWFlPic=

> <r_lp_tautomer_probability>
1

> <r_epik_Ionization_Penalty>
3.5887e-05

> <r_epik_Ionization_Penalty_Charging>
0

> <r_epik_Ionization_Penalty_Neutral>
3.5887e-05

> <r_epik_State_Penalty>
-0

> <r_epik_Charging_Adjusted_Penalty>
0

> <i_epik_Tot_Q>
0

> <i_epik_Tot_abs_Q>
0

> <r_epik_Metal_State_Penalty>
-0

> <b_epik_Metal_Only>
0

> <s_lp_Force_Field>
OPLS_2005

> <r_lp_Energy>
30.0106

> <b_lp_Chiralities_Consistent>
1

> <s_lp_Variant>
AV-unprocessed.smi:3052-1

> <Gold.Version>
5.8.1

> <Gold.Id.Protein>
6NUR|6NUR_protein|mol2

> <Gold.PLP.Fitness>
44.8862

> <Gold.PLP.PLP>
-36.5004

> <Gold.PLP.part.hbond>
-3.0000

> <Gold.PLP.part.metal>
0.0000

> <Gold.PLP.part.buried>
-5.8484

> <Gold.PLP.part.nonpolar>
-27.6941

> <Gold.PLP.part.repulsive>
0.1391

> <Gold.PLP.ligand.clash>
0.0000

> <Gold.PLP.ligand.torsion>
1.1232

> <Gold.PLP.Chemscore.Hbond>
2.8913

> <Gold.PLP.Chemscore.CHOScore>
0.0000

> <Gold.PLP.Chemscore.Metal>
0.0000

> <Gold.Chemscore.Hbonds>
donor molecule, donor type, donor heavy atom, donor atom, acceptor molecule, acceptor atom, score
      L1  H    10    29       P1  7948  0.85
      L1  H    13    30       P1  7948  1.00
      L1  H    17    36       P1 10171  1.00

> <Gold.PLP.Chemscore.Internal.Correction>
1.9585

> <Gold.Rescore>
     Score         DG    S(hbond)    S(metal)    S(lipo)     H(rot)  DE(clash)    DE(int)     intcor
     14.35     -17.49       2.55        0.00      77.02       2.16       0.03       3.10       ----

> <Gold.Chemscore.Fitness>
14.3541

> <Gold.Chemscore.DG>
-17.4894

> <Gold.Chemscore.ZeroCoef>
-5.4800

> <Gold.Chemscore.Hbond>
2.5508

> <Gold.Chemscore.Metal>
0.0000

> <Gold.Chemscore.Lipo>
77.0197

> <Gold.Chemscore.Internal_Hbond>
0.0000

> <Gold.Chemscore.DEClash>
0.0328

> <Gold.Chemscore.DEInternal>
3.1025

> <Gold.Chemscore.Rot>
2.1569

> <Gold.Chemscore.Internal.Correction>
   9.000000E+99

> <Gold.Chemscore.Hbonds>
donor molecule, donor type, donor heavy atom, donor atom, acceptor molecule, acceptor atom, score
      L1  H    10    29       P1  7948  0.15
      L1  H    13    30       P1  7948  0.91
      L1  H    17    36       P1 10171  1.00

> <Gold.Chemscore.Hbond.Weighted>
-8.5198

> <Gold.Chemscore.Metal.Weighted>
-0.0000

> <Gold.Chemscore.Lipo.Weighted>
-9.0113

> <Gold.Chemscore.Internal_Hbond.Weighted>
0.0000

> <Gold.Chemscore.DEClash.Weighted>
0.0328

> <Gold.Chemscore.DEInternal.Weighted>
3.1025

> <Gold.Chemscore.Rot.Weighted>
5.5218

> <Gold.Chemscore.Internal.Correction.Weighted>
   9.000000E+99

> <Gold.Protein.RotatedTorsions>
[ 6907 6896 6895 6894 ] final -141.75 input  -60.11 | X-H torsion
[ 7974 7965 7964 7962 ] final  -90.96 input  175.53 | X-H torsion
[ 8008 7997 7996 7995 ] final  167.09 input   59.86 | X-H torsion
[ 10167 10162 10161 10158 ] final   51.37 input  -65.29 | X-H torsion
[ 10718 10713 10712 10709 ] final  162.82 input   66.30 | X-H torsion
[ 10763 10752 10751 10750 ] final  -71.30 input  -60.55 | X-H torsion
[ 11005 11000 10999 10996 ] final  -76.55 input  -57.11 | X-H torsion

> <Gold.Protein.ActiveResidues>
 VAL166  LYS551  ARG553  GLY616  TRP617  ASP618  TYR619  PRO620  LYS621  CYS622 
 ASP623  PHE694  ASN695  SER759  ASP760  ASP761  ALA762  ILE779  LEU786  VAL792 
 PHE793  MET794  SER795  GLU796  ALA797  LYS798  CYS799  TRP800  GLU811  SER814 

> <Gold.Protein.RotatedAtoms>
  151.0780  133.5413  159.2622 H   0  0  0  0  0  0  0  0  0  0  0  0  # atno 6907 bound_to 6896
  151.2327  135.0559  159.9004 H   0  0  0  0  0  0  0  0  0  0  0  0  # atno 6908 bound_to 6896
  152.5420  134.0566  159.8187 H   0  0  0  0  0  0  0  0  0  0  0  0  # atno 6909 bound_to 6896
  145.4195  140.9550  143.2189 H   0  0  0  0  0  0  0  0  0  0  0  0  # atno 7974 bound_to 7965
  156.1663  140.1626  156.8525 H   0  0  0  0  0  0  0  0  0  0  0  0  # atno 8008 bound_to 7997
  154.5211  140.0778  156.8209 H   0  0  0  0  0  0  0  0  0  0  0  0  # atno 8009 bound_to 7997
  155.3604  140.3395  155.4243 H   0  0  0  0  0  0  0  0  0  0  0  0  # atno 8010 bound_to 7997
  140.2627  144.3355  150.6313 H   0  0  0  0  0  0  0  0  0  0  0  0  # atno 10167 bound_to 10162
  157.1172  131.0483  151.2431 H   0  0  0  0  0  0  0  0  0  0  0  0  # atno 10718 bound_to 10713
  154.4298  135.5966  153.6061 H   0  0  0  0  0  0  0  0  0  0  0  0  # atno 10763 bound_to 10752
  152.9798  135.5972  154.3853 H   0  0  0  0  0  0  0  0  0  0  0  0  # atno 10764 bound_to 10752
  154.3690  135.2841  155.2256 H   0  0  0  0  0  0  0  0  0  0  0  0  # atno 10765 bound_to 10752
  141.1654  133.6988  156.7686 H   0  0  0  0  0  0  0  0  0  0  0  0  # atno 11005 bound_to 11000
  144.8254  139.5718  143.6968 LP  0  0  0  0  0  0  0  0  0  0  0  0  # atno 17320 bound_to 7965
  146.2663  139.6529  142.9327 LP  0  0  0  0  0  0  0  0  0  0  0  0  # atno 17321 bound_to 7965
  140.5953  143.2167  151.7175 LP  0  0  0  0  0  0  0  0  0  0  0  0  # atno 17342 bound_to 10162
  139.5012  144.3876  152.0312 LP  0  0  0  0  0  0  0  0  0  0  0  0  # atno 17343 bound_to 10162
  157.4508  130.7597  149.7149 LP  0  0  0  0  0  0  0  0  0  0  0  0  # atno 17370 bound_to 10713
  155.9837  130.3998  150.3351 LP  0  0  0  0  0  0  0  0  0  0  0  0  # atno 17371 bound_to 10713
  140.2481  134.8562  157.3640 LP  0  0  0  0  0  0  0  0  0  0  0  0  # atno 17394 bound_to 11000
  140.1730  134.4585  155.7819 LP  0  0  0  0  0  0  0  0  0  0  0  0  # atno 17395 bound_to 11000

$$$$
