AV-unprocessed.smi:1321|AV-procd|sdf|5462|dock5
  -GOLD-   22720 5 33D 1   1.00000     0.00000
 Structure written by MMmdl.
 43 44  0  0  0  0  0  0  0  0  1 V2000
  146.8832  134.5147  161.8075 C   0  0  0  0  0  0  0  0  0  0  0  0
  146.8767  136.0592  161.8975 C   0  0  0  0  0  0  0  0  0  0  0  0
  145.4314  136.5323  162.1611 C   0  0  0  0  0  0  0  0  0  0  0  0
  147.7741  136.5035  163.0699 C   0  0  0  0  0  0  0  0  0  0  0  0
  147.4001  136.7288  160.6041 C   0  0  0  0  0  0  0  0  0  0  0  0
  146.6911  137.5439  160.0126 O   0  0  0  0  0  0  0  0  0  0  0  0
  148.6328  136.4042  160.1780 N   0  0  0  0  0  0  0  0  0  0  0  0
  149.3370  137.0013  159.0486 C   0  0  0  0  0  0  0  0  0  0  0  0
  149.4734  136.0258  157.8867 C   0  0  0  0  0  0  0  0  0  0  0  0
  148.8827  134.7480  157.9871 C   0  0  0  0  0  0  0  0  0  0  0  0
  149.0351  133.8338  156.9292 C   0  0  0  0  0  0  0  0  0  0  0  0
  149.7794  134.2345  155.8050 C   0  0  0  0  0  0  0  0  0  0  0  0
  150.3511  135.4511  155.6937 N   0  0  0  0  0  0  0  0  0  0  0  0
  150.2077  136.3358  156.7108 C   0  0  0  0  0  0  0  0  0  0  0  0
  150.8013  137.6000  156.5534 N   0  0  0  0  0  0  0  0  0  0  0  0
  151.7612  137.9916  157.5798 C   0  0  0  0  0  0  0  0  0  0  0  0
  152.1864  139.4545  157.3675 C   0  0  0  0  0  0  0  0  0  0  0  0
  152.7061  139.6132  156.0501 O   0  0  0  0  0  0  0  0  0  0  0  0
  151.7393  139.3000  155.0511 C   0  0  0  0  0  0  0  0  0  0  0  0
  151.2926  137.8353  155.2021 C   0  0  0  0  0  0  0  0  0  0  0  0
  146.4762  134.0678  162.7151 H   0  0  0  0  0  0  0  0  0  0  0  0
  147.8918  134.1178  161.6832 H   0  0  0  0  0  0  0  0  0  0  0  0
  146.2763  134.1570  160.9742 H   0  0  0  0  0  0  0  0  0  0  0  0
  144.7704  136.2770  161.3318 H   0  0  0  0  0  0  0  0  0  0  0  0
  145.3761  137.6120  162.3072 H   0  0  0  0  0  0  0  0  0  0  0  0
  145.0222  136.0676  163.0586 H   0  0  0  0  0  0  0  0  0  0  0  0
  147.4387  136.0659  164.0108 H   0  0  0  0  0  0  0  0  0  0  0  0
  147.7686  137.5869  163.1973 H   0  0  0  0  0  0  0  0  0  0  0  0
  148.8099  136.1961  162.9177 H   0  0  0  0  0  0  0  0  0  0  0  0
  149.1447  135.7197  160.7152 H   0  0  0  0  0  0  0  0  0  0  0  0
  148.7676  137.8727  158.7242 H   0  0  0  0  0  0  0  0  0  0  0  0
  150.3176  137.3836  159.3336 H   0  0  0  0  0  0  0  0  0  0  0  0
  148.3235  134.4663  158.8672 H   0  0  0  0  0  0  0  0  0  0  0  0
  148.5953  132.8490  156.9794 H   0  0  0  0  0  0  0  0  0  0  0  0
  149.9199  133.5605  154.9729 H   0  0  0  0  0  0  0  0  0  0  0  0
  151.3158  137.8690  158.5678 H   0  0  0  0  0  0  0  0  0  0  0  0
  152.6388  137.3454  157.5346 H   0  0  0  0  0  0  0  0  0  0  0  0
  151.3459  140.1322  157.5223 H   0  0  0  0  0  0  0  0  0  0  0  0
  152.9552  139.7309  158.0890 H   0  0  0  0  0  0  0  0  0  0  0  0
  150.8879  139.9778  155.1290 H   0  0  0  0  0  0  0  0  0  0  0  0
  152.1809  139.4585  154.0672 H   0  0  0  0  0  0  0  0  0  0  0  0
  152.1315  137.1670  155.0025 H   0  0  0  0  0  0  0  0  0  0  0  0
  150.5179  137.6037  154.4705 H   0  0  0  0  0  0  0  0  0  0  0  0
  1  2  1  0  0  0  0
  1 21  1  0  0  0  0
  1 22  1  0  0  0  0
  1 23  1  0  0  0  0
  2  3  1  0  0  0  0
  2  4  1  0  0  0  0
  2  5  1  0  0  0  0
  3 24  1  0  0  0  0
  3 25  1  0  0  0  0
  3 26  1  0  0  0  0
  4 27  1  0  0  0  0
  4 28  1  0  0  0  0
  4 29  1  0  0  0  0
  5  6  2  0  0  0  0
  5  7  1  0  0  0  0
  7  8  1  0  0  0  0
  7 30  1  0  0  0  0
  8  9  1  0  0  0  0
  8 31  1  0  0  0  0
  8 32  1  0  0  0  0
  9 14  1  0  0  0  0
  9 10  2  0  0  0  0
 10 11  1  0  0  0  0
 10 33  1  0  0  0  0
 11 12  2  0  0  0  0
 11 34  1  0  0  0  0
 12 13  1  0  0  0  0
 12 35  1  0  0  0  0
 13 14  2  0  0  0  0
 14 15  1  0  0  0  0
 15 20  1  0  0  0  0
 15 16  1  0  0  0  0
 16 17  1  0  0  0  0
 16 36  1  0  0  0  0
 16 37  1  0  0  0  0
 17 18  1  0  0  0  0
 17 38  1  0  0  0  0
 17 39  1  0  0  0  0
 18 19  1  0  0  0  0
 19 20  1  0  0  0  0
 19 40  1  0  0  0  0
 19 41  1  0  0  0  0
 20 42  1  0  0  0  0
 20 43  1  0  0  0  0
M  END
> <s_m_source_file>
AV-unprocessed.smi

> <i_m_source_file_index>
1321

> <i_lp_mmshare_version>
43012

> <i_f3d_flags>
0

> <s_epik_input>
W0NIM11DKFtDSDNdKShbQ0gzXSlDKD1PKVtOSF1bQ0gyXWMxW2NIXVtjSF1bY0hdbmMxTjJbQ0gyXVtDSDJdT1tDSDJdW0NIMl0y

> <s_epik_cmdline>
J2VwaWtfcHl0aG9uJywgJy1waCcsICc3LjAnLCAnLXRuJywgJzgnLCAnLW1hJywgJzIwMCcsICctbWV0YWxfYmluZGluZycsICctaW1hZScsICc8aW5maWxlLm1hZT4nLCAnLW9tYWUnLCAnPG91dGZpbGUubWFlPic=

> <r_lp_tautomer_probability>
1

> <r_epik_Ionization_Penalty>
0.0052234

> <r_epik_Ionization_Penalty_Charging>
0

> <r_epik_Ionization_Penalty_Neutral>
0.0052234

> <r_epik_State_Penalty>
0.0038086

> <r_epik_Charging_Adjusted_Penalty>
0.0038086

> <i_epik_Tot_Q>
0

> <i_epik_Tot_abs_Q>
0

> <r_epik_Metal_State_Penalty>
-0

> <b_epik_Metal_Only>
0

> <s_lp_Force_Field>
OPLS_2005

> <r_lp_Energy>
23.2048

> <b_lp_Chiralities_Consistent>
1

> <s_lp_Variant>
AV-unprocessed.smi:1321-1

> <Gold.Version>
5.8.1

> <Gold.Id.Protein>
6NUR|6NUR_protein|mol2

> <Gold.PLP.Fitness>
35.1243

> <Gold.PLP.PLP>
-29.3539

> <Gold.PLP.part.hbond>
-2.0000

> <Gold.PLP.part.metal>
0.0000

> <Gold.PLP.part.buried>
-4.5019

> <Gold.PLP.part.nonpolar>
-23.4067

> <Gold.PLP.part.repulsive>
0.2965

> <Gold.PLP.ligand.clash>
0.0000

> <Gold.PLP.ligand.torsion>
0.2050

> <Gold.PLP.Chemscore.Hbond>
2.0000

> <Gold.PLP.Chemscore.CHOScore>
0.0000

> <Gold.PLP.Chemscore.Metal>
0.0000

> <Gold.Chemscore.Hbonds>
donor molecule, donor type, donor heavy atom, donor atom, acceptor molecule, acceptor atom, score
      P1  H  6934  6947       L1     6  0.95
      P1  H  7997  8008       L1    18  1.00

> <Gold.PLP.Chemscore.Internal.Correction>
0.1804

> <Gold.Rescore>
     Score         DG    S(hbond)    S(metal)    S(lipo)     H(rot)  DE(clash)    DE(int)     intcor
     16.26     -16.55       1.91        0.00      73.25       1.52       0.02       0.27       ----

> <Gold.Chemscore.Fitness>
16.2578

> <Gold.Chemscore.DG>
-16.5526

> <Gold.Chemscore.ZeroCoef>
-5.4800

> <Gold.Chemscore.Hbond>
1.9120

> <Gold.Chemscore.Metal>
0.0000

> <Gold.Chemscore.Lipo>
73.2540

> <Gold.Chemscore.Internal_Hbond>
0.0000

> <Gold.Chemscore.DEClash>
0.0215

> <Gold.Chemscore.DEInternal>
0.2732

> <Gold.Chemscore.Rot>
1.5173

> <Gold.Chemscore.Internal.Correction>
   9.000000E+99

> <Gold.Chemscore.Hbonds>
donor molecule, donor type, donor heavy atom, donor atom, acceptor molecule, acceptor atom, score
      P1  H  6934  6947       L1     6  0.21
      P1  H  7997  8008       L1    18  0.45

> <Gold.Chemscore.Hbond.Weighted>
-6.3861

> <Gold.Chemscore.Metal.Weighted>
-0.0000

> <Gold.Chemscore.Lipo.Weighted>
-8.5707

> <Gold.Chemscore.Internal_Hbond.Weighted>
0.0000

> <Gold.Chemscore.DEClash.Weighted>
0.0215

> <Gold.Chemscore.DEInternal.Weighted>
0.2732

> <Gold.Chemscore.Rot.Weighted>
3.8843

> <Gold.Chemscore.Internal.Correction.Weighted>
   9.000000E+99

> <Gold.Protein.RotatedTorsions>
[ 6907 6896 6895 6894 ] final   -0.95 input  -60.11 | X-H torsion
[ 7974 7965 7964 7962 ] final -170.69 input  175.53 | X-H torsion
[ 8008 7997 7996 7995 ] final  -40.26 input   59.86 | X-H torsion
[ 10167 10162 10161 10158 ] final -163.41 input  -65.29 | X-H torsion
[ 10718 10713 10712 10709 ] final -174.58 input   66.30 | X-H torsion
[ 10763 10752 10751 10750 ] final  -30.44 input  -60.55 | X-H torsion
[ 11005 11000 10999 10996 ] final -110.46 input  -57.11 | X-H torsion

> <Gold.Protein.ActiveResidues>
 VAL166  LYS551  ARG553  GLY616  TRP617  ASP618  TYR619  PRO620  LYS621  CYS622 
 ASP623  PHE694  ASN695  SER759  ASP760  ASP761  ALA762  ILE779  LEU786  VAL792 
 PHE793  MET794  SER795  GLU796  ALA797  LYS798  CYS799  TRP800  GLU811  SER814 

> <Gold.Protein.RotatedAtoms>
  151.5539  135.1067  159.9956 H   0  0  0  0  0  0  0  0  0  0  0  0  # atno 6907 bound_to 6896
  152.4478  133.7566  159.6734 H   0  0  0  0  0  0  0  0  0  0  0  0  # atno 6908 bound_to 6896
  150.8398  133.7886  159.3089 H   0  0  0  0  0  0  0  0  0  0  0  0  # atno 6909 bound_to 6896
  144.7166  140.2034  143.6335 H   0  0  0  0  0  0  0  0  0  0  0  0  # atno 7974 bound_to 7965
  154.4014  140.1530  156.2998 H   0  0  0  0  0  0  0  0  0  0  0  0  # atno 8008 bound_to 7997
  155.8711  140.3449  155.5800 H   0  0  0  0  0  0  0  0  0  0  0  0  # atno 8009 bound_to 7997
  155.7773  140.0838  157.2068 H   0  0  0  0  0  0  0  0  0  0  0  0  # atno 8010 bound_to 7997
  139.6322  144.0417  152.2025 H   0  0  0  0  0  0  0  0  0  0  0  0  # atno 10167 bound_to 10162
  156.7872  130.9505  151.3120 H   0  0  0  0  0  0  0  0  0  0  0  0  # atno 10718 bound_to 10713
  153.7811  135.6905  153.4888 H   0  0  0  0  0  0  0  0  0  0  0  0  # atno 10763 bound_to 10752
  153.1811  135.4506  155.0028 H   0  0  0  0  0  0  0  0  0  0  0  0  # atno 10764 bound_to 10752
  154.8081  135.3365  154.7313 H   0  0  0  0  0  0  0  0  0  0  0  0  # atno 10765 bound_to 10752
  141.0790  133.9252  157.2328 H   0  0  0  0  0  0  0  0  0  0  0  0  # atno 11005 bound_to 11000
  145.8659  139.2246  143.1689 LP  0  0  0  0  0  0  0  0  0  0  0  0  # atno 17320 bound_to 7965
  146.0130  140.8418  142.9961 LP  0  0  0  0  0  0  0  0  0  0  0  0  # atno 17321 bound_to 7965
  140.0086  144.6241  150.7667 LP  0  0  0  0  0  0  0  0  0  0  0  0  # atno 17342 bound_to 10162
  140.7445  143.2862  151.3456 LP  0  0  0  0  0  0  0  0  0  0  0  0  # atno 17343 bound_to 10162
  157.6618  130.8972  149.9846 LP  0  0  0  0  0  0  0  0  0  0  0  0  # atno 17370 bound_to 10713
  156.1181  130.3647  149.9933 LP  0  0  0  0  0  0  0  0  0  0  0  0  # atno 17371 bound_to 10713
  139.9603  135.0156  156.9243 LP  0  0  0  0  0  0  0  0  0  0  0  0  # atno 17394 bound_to 11000
  140.5510  134.0627  155.7369 LP  0  0  0  0  0  0  0  0  0  0  0  0  # atno 17395 bound_to 11000

$$$$
