AV-unprocessed.smi:3247|AV-procd|sdf|12412|dock5
  -GOLD-   2272018293D 1   1.00000     0.00000
 Structure written by MMmdl.
 35 36  0  0  0  0  0  0  0  0  1 V2000
  154.9728  139.9825  159.2757 O   0  0  0  0  0  0  0  0  0  0  0  0
  154.5699  140.3813  160.3682 C   0  0  0  0  0  0  0  0  0  0  0  0
  153.3133  141.2444  160.4530 C   0  0  0  0  0  0  0  0  0  0  0  0
  153.4629  142.3564  159.5820 O   0  0  0  0  0  0  0  0  0  0  0  0
  152.3100  143.1819  159.5048 C   0  0  0  0  0  0  0  0  0  0  0  0
  152.5038  144.2707  158.4513 C   0  0  0  0  0  0  0  0  0  0  0  0
  151.4888  145.3548  158.8258 C   0  0  0  0  0  0  0  0  0  0  0  0
  151.2454  145.2077  160.3365 C   0  0  0  0  0  0  0  0  0  0  0  0
  152.0453  143.9785  160.7863 C   0  0  0  0  0  0  0  0  0  0  0  0
  155.1871  140.1109  161.5286 N   0  0  0  0  0  0  0  0  0  0  0  0
  156.3994  139.3129  161.6709 C   0  0  0  0  0  0  0  0  0  0  0  0
  156.4216  138.5411  163.0011 C   0  0  0  0  0  0  0  0  0  0  0  0
  155.3372  137.5091  163.0747 C   0  0  0  0  0  0  0  0  0  0  0  0
  154.4619  137.3081  164.1152 C   0  0  0  0  0  0  0  0  0  0  0  0
  153.3585  135.9954  163.7988 S   0  0  0  0  0  0  0  0  0  0  0  0
  154.1457  135.7716  162.2457 C   0  0  0  0  0  0  0  0  0  0  0  0
  155.1467  136.6206  162.0105 N   0  0  0  0  0  0  0  0  0  0  0  0
  152.4480  140.6449  160.1663 H   0  0  0  0  0  0  0  0  0  0  0  0
  153.1656  141.5741  161.4823 H   0  0  0  0  0  0  0  0  0  0  0  0
  151.4308  142.5901  159.2427 H   0  0  0  0  0  0  0  0  0  0  0  0
  153.5130  144.6788  158.5256 H   0  0  0  0  0  0  0  0  0  0  0  0
  152.3702  143.9010  157.4345 H   0  0  0  0  0  0  0  0  0  0  0  0
  151.8471  146.3502  158.5618 H   0  0  0  0  0  0  0  0  0  0  0  0
  150.5548  145.1906  158.2870 H   0  0  0  0  0  0  0  0  0  0  0  0
  151.5565  146.0977  160.8845 H   0  0  0  0  0  0  0  0  0  0  0  0
  150.1816  145.0620  160.5286 H   0  0  0  0  0  0  0  0  0  0  0  0
  151.5207  143.3957  161.5439 H   0  0  0  0  0  0  0  0  0  0  0  0
  152.9934  144.3031  161.2175 H   0  0  0  0  0  0  0  0  0  0  0  0
  154.7803  140.4796  162.3762 H   0  0  0  0  0  0  0  0  0  0  0  0
  156.4393  138.6141  160.8349 H   0  0  0  0  0  0  0  0  0  0  0  0
  157.2800  139.9518  161.5848 H   0  0  0  0  0  0  0  0  0  0  0  0
  157.3928  138.0627  163.1324 H   0  0  0  0  0  0  0  0  0  0  0  0
  156.3215  139.2425  163.8305 H   0  0  0  0  0  0  0  0  0  0  0  0
  154.4012  137.8508  165.0470 H   0  0  0  0  0  0  0  0  0  0  0  0
  153.8746  135.0235  161.5154 H   0  0  0  0  0  0  0  0  0  0  0  0
  1  2  2  0  0  0  0
  2  3  1  0  0  0  0
  2 10  1  0  0  0  0
  3  4  1  0  0  0  0
  3 18  1  0  0  0  0
  3 19  1  0  0  0  0
  4  5  1  0  0  0  0
  5  9  1  0  0  0  0
  5  6  1  0  0  0  0
  5 20  1  0  0  0  0
  6  7  1  0  0  0  0
  6 21  1  0  0  0  0
  6 22  1  0  0  0  0
  7  8  1  0  0  0  0
  7 23  1  0  0  0  0
  7 24  1  0  0  0  0
  8  9  1  0  0  0  0
  8 25  1  0  0  0  0
  8 26  1  0  0  0  0
  9 27  1  0  0  0  0
  9 28  1  0  0  0  0
 10 11  1  0  0  0  0
 10 29  1  0  0  0  0
 11 12  1  0  0  0  0
 11 30  1  0  0  0  0
 11 31  1  0  0  0  0
 12 13  1  0  0  0  0
 12 32  1  0  0  0  0
 12 33  1  0  0  0  0
 13 17  1  0  0  0  0
 13 14  2  0  0  0  0
 14 15  1  0  0  0  0
 14 34  1  0  0  0  0
 15 16  1  0  0  0  0
 16 17  2  0  0  0  0
 16 35  1  0  0  0  0
M  END
> <s_m_source_file>
AV-unprocessed.smi

> <i_m_source_file_index>
3247

> <i_lp_mmshare_version>
43012

> <i_f3d_flags>
0

> <s_epik_input>
W0NIMl0xW0NIMl1bQ0gyXVtDSDJdW0NIXTFPW0NIMl1DKD1PKVtOSF1bQ0gyXVtDSDJdYzJbY0hdc1tjSF1uMg==

> <s_epik_cmdline>
J2VwaWtfcHl0aG9uJywgJy1waCcsICc3LjAnLCAnLXRuJywgJzgnLCAnLW1hJywgJzIwMCcsICctbWV0YWxfYmluZGluZycsICctaW1hZScsICc8aW5maWxlLm1hZT4nLCAnLW9tYWUnLCAnPG91dGZpbGUubWFlPic=

> <r_lp_tautomer_probability>
1

> <r_epik_Ionization_Penalty>
0.00018119

> <r_epik_Ionization_Penalty_Charging>
0

> <r_epik_Ionization_Penalty_Neutral>
0.00018119

> <r_epik_State_Penalty>
-0

> <r_epik_Charging_Adjusted_Penalty>
0

> <i_epik_Tot_Q>
0

> <i_epik_Tot_abs_Q>
0

> <r_epik_Metal_State_Penalty>
-0

> <b_epik_Metal_Only>
0

> <s_lp_Force_Field>
OPLS_2005

> <r_lp_Energy>
17.1434

> <b_lp_Chiralities_Consistent>
1

> <s_lp_Variant>
AV-unprocessed.smi:3247-1

> <Gold.Version>
5.8.1

> <Gold.Id.Protein>
6NUR|6NUR_protein|mol2

> <Gold.PLP.Fitness>
42.5881

> <Gold.PLP.PLP>
-40.3247

> <Gold.PLP.part.hbond>
-1.6089

> <Gold.PLP.part.metal>
0.0000

> <Gold.PLP.part.buried>
-4.5460

> <Gold.PLP.part.nonpolar>
-34.1012

> <Gold.PLP.part.repulsive>
0.0000

> <Gold.PLP.ligand.clash>
0.0000

> <Gold.PLP.ligand.torsion>
0.3879

> <Gold.PLP.Chemscore.Hbond>
1.0000

> <Gold.PLP.Chemscore.CHOScore>
0.0000

> <Gold.PLP.Chemscore.Metal>
0.0000

> <Gold.Chemscore.Hbonds>
donor molecule, donor type, donor heavy atom, donor atom, acceptor molecule, acceptor atom, score
      P1  H  7997  8009       L1     1  1.00

> <Gold.PLP.Chemscore.Internal.Correction>
0.0391

> <Gold.Rescore>
     Score         DG    S(hbond)    S(metal)    S(lipo)     H(rot)  DE(clash)    DE(int)     intcor
     16.96     -17.32       0.97        0.00     112.61       1.78       0.04       0.31       ----

> <Gold.Chemscore.Fitness>
16.9595

> <Gold.Chemscore.DG>
-17.3161

> <Gold.Chemscore.ZeroCoef>
-5.4800

> <Gold.Chemscore.Hbond>
0.9651

> <Gold.Chemscore.Metal>
0.0000

> <Gold.Chemscore.Lipo>
112.6123

> <Gold.Chemscore.Internal_Hbond>
0.0000

> <Gold.Chemscore.DEClash>
0.0450

> <Gold.Chemscore.DEInternal>
0.3116

> <Gold.Chemscore.Rot>
1.7824

> <Gold.Chemscore.Internal.Correction>
   9.000000E+99

> <Gold.Chemscore.Hbonds>
donor molecule, donor type, donor heavy atom, donor atom, acceptor molecule, acceptor atom, score
      P1  H  7997  8009       L1     1  0.96

> <Gold.Chemscore.Hbond.Weighted>
-3.2233

> <Gold.Chemscore.Metal.Weighted>
-0.0000

> <Gold.Chemscore.Lipo.Weighted>
-13.1756

> <Gold.Chemscore.Internal_Hbond.Weighted>
0.0000

> <Gold.Chemscore.DEClash.Weighted>
0.0450

> <Gold.Chemscore.DEInternal.Weighted>
0.3116

> <Gold.Chemscore.Rot.Weighted>
4.5629

> <Gold.Chemscore.Internal.Correction.Weighted>
   9.000000E+99

> <Gold.Protein.RotatedTorsions>
[ 6907 6896 6895 6894 ] final  -22.63 input  -60.11 | X-H torsion
[ 7974 7965 7964 7962 ] final   57.63 input  175.53 | X-H torsion
[ 8008 7997 7996 7995 ] final  108.27 input   59.86 | X-H torsion
[ 10167 10162 10161 10158 ] final   25.42 input  -65.29 | X-H torsion
[ 10718 10713 10712 10709 ] final -133.94 input   66.30 | X-H torsion
[ 10763 10752 10751 10750 ] final  -60.86 input  -60.55 | X-H torsion
[ 11005 11000 10999 10996 ] final    0.65 input  -57.11 | X-H torsion

> <Gold.Protein.ActiveResidues>
 VAL166  LYS551  ARG553  GLY616  TRP617  ASP618  TYR619  PRO620  LYS621  CYS622 
 ASP623  PHE694  ASN695  SER759  ASP760  ASP761  ALA762  ILE779  LEU786  VAL792 
 PHE793  MET794  SER795  GLU796  ALA797  LYS798  CYS799  TRP800  GLU811  SER814 

> <Gold.Protein.RotatedAtoms>
  151.2158  135.0499  159.8929 H   0  0  0  0  0  0  0  0  0  0  0  0  # atno 6907 bound_to 6896
  152.5420  134.0695  159.8198 H   0  0  0  0  0  0  0  0  0  0  0  0  # atno 6908 bound_to 6896
  151.0854  133.5309  159.2650 H   0  0  0  0  0  0  0  0  0  0  0  0  # atno 6909 bound_to 6896
  145.9270  139.3776  143.0444 H   0  0  0  0  0  0  0  0  0  0  0  0  # atno 7974 bound_to 7965
  156.1889  140.3079  155.9294 H   0  0  0  0  0  0  0  0  0  0  0  0  # atno 8008 bound_to 7997
  155.3217  140.0456  157.3056 H   0  0  0  0  0  0  0  0  0  0  0  0  # atno 8009 bound_to 7997
  154.5429  140.2267  155.8621 H   0  0  0  0  0  0  0  0  0  0  0  0  # atno 8010 bound_to 7997
  140.5108  144.0164  150.6372 H   0  0  0  0  0  0  0  0  0  0  0  0  # atno 10167 bound_to 10162
  156.2502  130.7149  151.1045 H   0  0  0  0  0  0  0  0  0  0  0  0  # atno 10718 bound_to 10713
  154.2757  135.6281  153.5327 H   0  0  0  0  0  0  0  0  0  0  0  0  # atno 10763 bound_to 10752
  152.9873  135.5621  154.5550 H   0  0  0  0  0  0  0  0  0  0  0  0  # atno 10764 bound_to 10752
  154.5130  135.2878  155.1302 H   0  0  0  0  0  0  0  0  0  0  0  0  # atno 10765 bound_to 10752
  140.6242  133.9633  155.8240 H   0  0  0  0  0  0  0  0  0  0  0  0  # atno 11005 bound_to 11000
  145.8475  140.9547  143.0767 LP  0  0  0  0  0  0  0  0  0  0  0  0  # atno 17320 bound_to 7965
  144.6760  140.0365  143.7481 LP  0  0  0  0  0  0  0  0  0  0  0  0  # atno 17321 bound_to 7965
  140.3486  143.2977  152.0512 LP  0  0  0  0  0  0  0  0  0  0  0  0  # atno 17342 bound_to 10162
  139.4895  144.6391  151.6915 LP  0  0  0  0  0  0  0  0  0  0  0  0  # atno 17343 bound_to 10162
  157.7211  131.0680  150.6130 LP  0  0  0  0  0  0  0  0  0  0  0  0  # atno 17370 bound_to 10713
  156.6209  130.4405  149.5822 LP  0  0  0  0  0  0  0  0  0  0  0  0  # atno 17371 bound_to 10713
  141.0721  134.0190  157.3511 LP  0  0  0  0  0  0  0  0  0  0  0  0  # atno 17394 bound_to 11000
  139.9141  135.0194  156.7811 LP  0  0  0  0  0  0  0  0  0  0  0  0  # atno 17395 bound_to 11000

$$$$
