AV-unprocessed.smi:2975|AV-procd|sdf|11356|dock7
  -GOLD-   2272016273D 1   1.00000     0.00000
 Structure written by MMmdl.
 39 41  0  0  0  0  0  0  0  0  1 V2000
  147.0706  141.3556  153.4803 C   0  0  0  0  0  0  0  0  0  0  0  0
  148.0382  141.9299  154.5249 C   0  0  1  0  0  0  0  0  0  0  0  0
  147.3071  142.2382  155.6933 O   0  0  0  0  0  0  0  0  0  0  0  0
  149.1777  140.9908  154.8111 C   0  0  0  0  0  0  0  0  0  0  0  0
  149.3773  139.9037  154.0616 N   0  0  0  0  0  0  0  0  0  0  0  0
  150.4975  139.3358  154.6320 C   0  0  0  0  0  0  0  0  0  0  0  0
  151.2140  138.1689  154.2826 C   0  0  0  0  0  0  0  0  0  0  0  0
  152.3487  137.7797  155.0238 C   0  0  0  0  0  0  0  0  0  0  0  0
  152.7816  138.5499  156.1224 C   0  0  0  0  0  0  0  0  0  0  0  0
  152.0803  139.7151  156.4877 C   0  0  0  0  0  0  0  0  0  0  0  0
  150.9479  140.0998  155.7443 C   0  0  0  0  0  0  0  0  0  0  0  0
  150.0528  141.1621  155.8386 N   0  0  0  0  0  0  0  0  0  0  0  0
  150.0968  142.2054  156.8555 C   0  0  0  0  0  0  0  0  0  0  0  0
  151.5320  142.6032  157.2278 C   0  0  0  0  0  0  0  0  0  0  0  0
  151.5130  143.6572  158.1810 O   0  0  0  0  0  0  0  0  0  0  0  0
  151.8995  143.3723  159.4740 C   0  0  0  0  0  0  0  0  0  0  0  0
  152.5280  142.1623  159.8656 C   0  0  0  0  0  0  0  0  0  0  0  0
  152.9000  141.9519  161.2076 C   0  0  0  0  0  0  0  0  0  0  0  0
  152.6478  142.9418  162.1745 C   0  0  0  0  0  0  0  0  0  0  0  0
  152.0224  144.1441  161.7970 C   0  0  0  0  0  0  0  0  0  0  0  0
  151.6508  144.3563  160.4553 C   0  0  0  0  0  0  0  0  0  0  0  0
  151.0407  145.5152  160.1109 F   0  0  0  0  0  0  0  0  0  0  0  0
  147.5934  141.1136  152.5551 H   0  0  0  0  0  0  0  0  0  0  0  0
  146.2828  142.0698  153.2392 H   0  0  0  0  0  0  0  0  0  0  0  0
  146.5931  140.4418  153.8356 H   0  0  0  0  0  0  0  0  0  0  0  0
  148.4162  142.8739  154.1395 H   0  0  0  0  0  0  0  0  0  0  0  0
  147.6358  143.0535  156.0403 H   0  0  0  0  0  0  0  0  0  0  0  0
  150.8902  137.5731  153.4423 H   0  0  0  0  0  0  0  0  0  0  0  0
  152.8894  136.8862  154.7478 H   0  0  0  0  0  0  0  0  0  0  0  0
  153.6521  138.2454  156.6847 H   0  0  0  0  0  0  0  0  0  0  0  0
  152.4104  140.3062  157.3288 H   0  0  0  0  0  0  0  0  0  0  0  0
  149.5154  143.0691  156.5356 H   0  0  0  0  0  0  0  0  0  0  0  0
  149.5894  141.8292  157.7442 H   0  0  0  0  0  0  0  0  0  0  0  0
  152.0453  141.7379  157.6499 H   0  0  0  0  0  0  0  0  0  0  0  0
  152.0696  142.9064  156.3279 H   0  0  0  0  0  0  0  0  0  0  0  0
  152.7408  141.3790  159.1544 H   0  0  0  0  0  0  0  0  0  0  0  0
  153.3813  141.0286  161.4951 H   0  0  0  0  0  0  0  0  0  0  0  0
  152.9331  142.7794  163.2035 H   0  0  0  0  0  0  0  0  0  0  0  0
  151.8256  144.9052  162.5377 H   0  0  0  0  0  0  0  0  0  0  0  0
  1  2  1  0  0  0  0
  1 23  1  0  0  0  0
  1 24  1  0  0  0  0
  1 25  1  0  0  0  0
  2  3  1  0  0  0  0
  2  4  1  0  0  0  0
  2 26  1  0  0  0  0
  3 27  1  0  0  0  0
  4 12  1  0  0  0  0
  4  5  2  0  0  0  0
  5  6  1  0  0  0  0
  6 11  2  0  0  0  0
  6  7  1  0  0  0  0
  7  8  2  0  0  0  0
  7 28  1  0  0  0  0
  8  9  1  0  0  0  0
  8 29  1  0  0  0  0
  9 10  2  0  0  0  0
  9 30  1  0  0  0  0
 10 11  1  0  0  0  0
 10 31  1  0  0  0  0
 11 12  1  0  0  0  0
 12 13  1  0  0  0  0
 13 14  1  0  0  0  0
 13 32  1  0  0  0  0
 13 33  1  0  0  0  0
 14 15  1  0  0  0  0
 14 34  1  0  0  0  0
 14 35  1  0  0  0  0
 15 16  1  0  0  0  0
 16 21  1  0  0  0  0
 16 17  2  0  0  0  0
 17 18  1  0  0  0  0
 17 36  1  0  0  0  0
 18 19  2  0  0  0  0
 18 37  1  0  0  0  0
 19 20  1  0  0  0  0
 19 38  1  0  0  0  0
 20 21  2  0  0  0  0
 20 39  1  0  0  0  0
 21 22  1  0  0  0  0
M  END
> <s_m_source_file>
AV-unprocessed.smi

> <i_m_source_file_index>
2975

> <i_lp_mmshare_version>
43012

> <i_f3d_flags>
0

> <s_epik_input>
W2NIXTFbY0hdW2NIXVtjSF1jKGMxMiluKGMobjIpW0NASF0oW0NIM10pW09IXSlbQ0gyXVtDSDJdT2MzW2NIXVtjSF1bY0hdW2NIXWMzRg==

> <s_epik_cmdline>
J2VwaWtfcHl0aG9uJywgJy1waCcsICc3LjAnLCAnLXRuJywgJzgnLCAnLW1hJywgJzIwMCcsICctbWV0YWxfYmluZGluZycsICctaW1hZScsICc8aW5maWxlLm1hZT4nLCAnLW9tYWUnLCAnPG91dGZpbGUubWFlPic=

> <r_lp_tautomer_probability>
1

> <r_epik_Ionization_Penalty>
0.0404035

> <r_epik_Ionization_Penalty_Charging>
0

> <r_epik_Ionization_Penalty_Neutral>
0.0404035

> <r_epik_State_Penalty>
0.0340039

> <r_epik_Charging_Adjusted_Penalty>
0.0340039

> <i_epik_Tot_Q>
0

> <i_epik_Tot_abs_Q>
0

> <r_epik_Metal_State_Penalty>
3.49976e-05

> <b_epik_Metal_Only>
0

> <s_lp_Force_Field>
OPLS_2005

> <r_lp_Energy>
14.7518

> <b_lp_Chiralities_Consistent>
1

> <s_lp_Variant>
AV-unprocessed.smi:2975-2

> <Gold.Version>
5.8.1

> <Gold.Id.Protein>
6NUR|6NUR_protein|mol2

> <Gold.PLP.Fitness>
54.9912

> <Gold.PLP.PLP>
-54.1384

> <Gold.PLP.part.hbond>
-1.0000

> <Gold.PLP.part.metal>
0.0000

> <Gold.PLP.part.buried>
-3.1201

> <Gold.PLP.part.nonpolar>
-50.9414

> <Gold.PLP.part.repulsive>
1.8130

> <Gold.PLP.ligand.clash>
0.0000

> <Gold.PLP.ligand.torsion>
1.0212

> <Gold.PLP.Chemscore.Hbond>
0.9440

> <Gold.PLP.Chemscore.CHOScore>
0.0000

> <Gold.PLP.Chemscore.Metal>
0.0000

> <Gold.Chemscore.Hbonds>
donor molecule, donor type, donor heavy atom, donor atom, acceptor molecule, acceptor atom, score
      L1  H     3    27       P1  8028  0.71

> <Gold.PLP.Chemscore.Internal.Correction>
0.0633

> <Gold.Rescore>
     Score         DG    S(hbond)    S(metal)    S(lipo)     H(rot)  DE(clash)    DE(int)     intcor
     13.87     -16.81       0.15        0.00     140.88       2.21       1.50       1.45       ----

> <Gold.Chemscore.Fitness>
13.8664

> <Gold.Chemscore.DG>
-16.8093

> <Gold.Chemscore.ZeroCoef>
-5.4800

> <Gold.Chemscore.Hbond>
0.1477

> <Gold.Chemscore.Metal>
0.0000

> <Gold.Chemscore.Lipo>
140.8840

> <Gold.Chemscore.Internal_Hbond>
0.0000

> <Gold.Chemscore.DEClash>
1.4953

> <Gold.Chemscore.DEInternal>
1.4477

> <Gold.Chemscore.Rot>
2.2060

> <Gold.Chemscore.Internal.Correction>
   9.000000E+99

> <Gold.Chemscore.Hbonds>
donor molecule, donor type, donor heavy atom, donor atom, acceptor molecule, acceptor atom, score
      L1  H     3    27       P1  8028  0.13

> <Gold.Chemscore.Hbond.Weighted>
-0.4932

> <Gold.Chemscore.Metal.Weighted>
-0.0000

> <Gold.Chemscore.Lipo.Weighted>
-16.4834

> <Gold.Chemscore.Internal_Hbond.Weighted>
0.0000

> <Gold.Chemscore.DEClash.Weighted>
1.4953

> <Gold.Chemscore.DEInternal.Weighted>
1.4477

> <Gold.Chemscore.Rot.Weighted>
5.6473

> <Gold.Chemscore.Internal.Correction.Weighted>
   9.000000E+99

> <Gold.Protein.RotatedTorsions>
[ 6907 6896 6895 6894 ] final  -29.08 input  -60.11 | X-H torsion
[ 7974 7965 7964 7962 ] final -139.18 input  175.53 | X-H torsion
[ 8008 7997 7996 7995 ] final  -53.70 input   59.86 | X-H torsion
[ 10167 10162 10161 10158 ] final -162.86 input  -65.29 | X-H torsion
[ 10718 10713 10712 10709 ] final  -21.38 input   66.30 | X-H torsion
[ 10763 10752 10751 10750 ] final -164.89 input  -60.55 | X-H torsion
[ 11005 11000 10999 10996 ] final  127.55 input  -57.11 | X-H torsion

> <Gold.Protein.ActiveResidues>
 VAL166  LYS551  ARG553  GLY616  TRP617  ASP618  TYR619  PRO620  LYS621  CYS622 
 ASP623  PHE694  ASN695  SER759  ASP760  ASP761  ALA762  ILE779  LEU786  VAL792 
 PHE793  MET794  SER795  GLU796  ALA797  LYS798  CYS799  TRP800  GLU811  SER814 

> <Gold.Protein.RotatedAtoms>
  151.1240  135.0095  159.8551 H   0  0  0  0  0  0  0  0  0  0  0  0  # atno 6907 bound_to 6896
  152.5449  134.1688  159.8598 H   0  0  0  0  0  0  0  0  0  0  0  0  # atno 6908 bound_to 6896
  151.1749  133.4716  159.2627 H   0  0  0  0  0  0  0  0  0  0  0  0  # atno 6909 bound_to 6896
  144.8698  140.6349  143.5274 H   0  0  0  0  0  0  0  0  0  0  0  0  # atno 7974 bound_to 7965
  154.4140  140.1194  156.5195 H   0  0  0  0  0  0  0  0  0  0  0  0  # atno 8008 bound_to 7997
  155.6717  140.3496  155.4801 H   0  0  0  0  0  0  0  0  0  0  0  0  # atno 8009 bound_to 7997
  155.9627  140.1126  157.0871 H   0  0  0  0  0  0  0  0  0  0  0  0  # atno 8010 bound_to 7997
  139.6362  144.0346  152.2056 H   0  0  0  0  0  0  0  0  0  0  0  0  # atno 10167 bound_to 10162
  156.5190  130.4628  149.6607 H   0  0  0  0  0  0  0  0  0  0  0  0  # atno 10718 bound_to 10713
  154.6985  135.2983  154.9377 H   0  0  0  0  0  0  0  0  0  0  0  0  # atno 10763 bound_to 10752
  154.0317  135.6669  153.4785 H   0  0  0  0  0  0  0  0  0  0  0  0  # atno 10764 bound_to 10752
  153.0663  135.5086  154.8115 H   0  0  0  0  0  0  0  0  0  0  0  0  # atno 10765 bound_to 10752
  139.9514  134.9621  156.8872 H   0  0  0  0  0  0  0  0  0  0  0  0  # atno 11005 bound_to 11000
  145.4152  139.1573  143.4104 LP  0  0  0  0  0  0  0  0  0  0  0  0  # atno 17320 bound_to 7965
  146.2922  140.4259  142.8735 LP  0  0  0  0  0  0  0  0  0  0  0  0  # atno 17321 bound_to 7965
  140.0024  144.6284  150.7718 LP  0  0  0  0  0  0  0  0  0  0  0  0  # atno 17342 bound_to 10162
  140.7466  143.2894  151.3373 LP  0  0  0  0  0  0  0  0  0  0  0  0  # atno 17343 bound_to 10162
  156.3167  130.7258  151.2162 LP  0  0  0  0  0  0  0  0  0  0  0  0  # atno 17370 bound_to 10713
  157.7439  131.0466  150.4904 LP  0  0  0  0  0  0  0  0  0  0  0  0  # atno 17371 bound_to 10713
  140.5711  134.0442  155.7431 LP  0  0  0  0  0  0  0  0  0  0  0  0  # atno 17394 bound_to 11000
  141.1177  133.9513  157.2791 LP  0  0  0  0  0  0  0  0  0  0  0  0  # atno 17395 bound_to 11000

$$$$
