AV-unprocessed.smi:1240|AV-procd|sdf|5213|dock4
  -GOLD-   22720 4303D 1   1.00000     0.00000
 Structure written by MMmdl.
 48 50  0  0  0  0  0  0  0  0  4 V2000
  146.6555  131.9229  154.0033 O   0  0  0  0  0  0  0  0  0  0  0  0
  147.4162  131.8083  153.0355 C   0  0  0  0  0  0  0  0  0  0  0  0
  148.7462  131.5268  153.0531 N   0  5  0  0  0  0  0  0  0  0  0  0
  149.3716  130.5084  153.8968 C   0  0  0  0  0  0  0  0  0  0  0  0
  150.4256  131.1476  154.8692 C   0  0  2  0  0  0  0  0  0  0  0  0
  151.4999  130.1327  155.3754 C   0  0  1  0  0  0  0  0  0  0  0  0
  152.2575  129.3525  154.3039 C   0  0  0  0  0  0  0  0  0  0  0  0
  153.4963  128.8729  155.0525 C   0  0  0  0  0  0  0  0  0  0  0  0
  153.7569  129.8599  156.0433 O   0  0  0  0  0  0  0  0  0  0  0  0
  152.6874  130.7966  156.0856 C   0  0  0  0  0  0  0  0  0  0  0  0
  149.8594  131.8941  156.0507 N   0  3  0  0  0  0  0  0  0  0  0  0
  149.8098  131.1565  157.3399 C   0  0  0  0  0  0  0  0  0  0  0  0
  148.8951  131.8984  158.3276 C   0  0  0  0  0  0  0  0  0  0  0  0
  149.3593  133.2325  158.5030 O   0  0  0  0  0  0  0  0  0  0  0  0
  149.3412  133.9740  157.2881 C   0  0  0  0  0  0  0  0  0  0  0  0
  150.2717  133.3102  156.2601 C   0  0  0  0  0  0  0  0  0  0  0  0
  146.9561  131.9989  151.7861 N   0  0  0  0  0  0  0  0  0  0  0  0
  145.6264  132.2533  151.3552 C   0  0  0  0  0  0  0  0  0  0  0  0
  144.7482  132.8816  152.2654 C   0  0  0  0  0  0  0  0  0  0  0  0
  143.4281  133.1736  151.8669 C   0  0  0  0  0  0  0  0  0  0  0  0
  143.0184  132.8643  150.6176 N   0  3  0  0  0  0  0  0  0  0  0  0
  143.8275  132.2801  149.7076 C   0  0  0  0  0  0  0  0  0  0  0  0
  145.1577  131.9632  150.0490 C   0  0  0  0  0  0  0  0  0  0  0  0
  148.6451  129.9471  154.4857 H   0  0  0  0  0  0  0  0  0  0  0  0
  149.8706  129.7647  153.2762 H   0  0  0  0  0  0  0  0  0  0  0  0
  150.9819  131.8836  154.2864 H   0  0  0  0  0  0  0  0  0  0  0  0
  151.0539  129.4163  156.0686 H   0  0  0  0  0  0  0  0  0  0  0  0
  151.6887  128.5229  153.8827 H   0  0  0  0  0  0  0  0  0  0  0  0
  152.5492  130.0135  153.4862 H   0  0  0  0  0  0  0  0  0  0  0  0
  153.2952  127.9253  155.5534 H   0  0  0  0  0  0  0  0  0  0  0  0
  154.3525  128.7328  154.3924 H   0  0  0  0  0  0  0  0  0  0  0  0
  153.0003  131.6969  155.5545 H   0  0  0  0  0  0  0  0  0  0  0  0
  152.4579  131.0767  157.1141 H   0  0  0  0  0  0  0  0  0  0  0  0
  149.4356  130.1447  157.1821 H   0  0  0  0  0  0  0  0  0  0  0  0
  150.8069  131.0702  157.7716 H   0  0  0  0  0  0  0  0  0  0  0  0
  147.8627  131.9035  157.9738 H   0  0  0  0  0  0  0  0  0  0  0  0
  148.8981  131.3934  159.2935 H   0  0  0  0  0  0  0  0  0  0  0  0
  148.3219  134.0403  156.9040 H   0  0  0  0  0  0  0  0  0  0  0  0
  149.6713  134.9928  157.4911 H   0  0  0  0  0  0  0  0  0  0  0  0
  151.2993  133.3593  156.6235 H   0  0  0  0  0  0  0  0  0  0  0  0
  150.2321  133.8630  155.3218 H   0  0  0  0  0  0  0  0  0  0  0  0
  147.6591  132.0062  151.0619 H   0  0  0  0  0  0  0  0  0  0  0  0
  145.0795  133.1320  153.2629 H   0  0  0  0  0  0  0  0  0  0  0  0
  142.6943  133.6446  152.5043 H   0  0  0  0  0  0  0  0  0  0  0  0
  143.3927  132.0913  148.7371 H   0  0  0  0  0  0  0  0  0  0  0  0
  145.7994  131.5174  149.3039 H   0  0  0  0  0  0  0  0  0  0  0  0
  148.8840  131.9674  155.8020 H   0  0  0  0  0  0  0  0  0  0  0  0
  142.0598  133.0865  150.3482 H   0  0  0  0  0  0  0  0  0  0  0  0
  1  2  2  0  0  0  0
  2  3  1  0  0  0  0
  2 17  1  0  0  0  0
  3  4  1  0  0  0  0
  4  5  1  0  0  0  0
  4 24  1  0  0  0  0
  4 25  1  0  0  0  0
  5  6  1  0  0  0  0
  5 11  1  0  0  0  0
  5 26  1  0  0  0  0
  6 10  1  0  0  0  0
  6  7  1  0  0  0  0
  6 27  1  0  0  0  0
  7  8  1  0  0  0  0
  7 28  1  0  0  0  0
  7 29  1  0  0  0  0
  8  9  1  0  0  0  0
  8 30  1  0  0  0  0
  8 31  1  0  0  0  0
  9 10  1  0  0  0  0
 10 32  1  0  0  0  0
 10 33  1  0  0  0  0
 11 16  1  0  0  0  0
 11 12  1  0  0  0  0
 11 47  1  0  0  0  0
 12 13  1  0  0  0  0
 12 34  1  0  0  0  0
 12 35  1  0  0  0  0
 13 14  1  0  0  0  0
 13 36  1  0  0  0  0
 13 37  1  0  0  0  0
 14 15  1  0  0  0  0
 15 16  1  0  0  0  0
 15 38  1  0  0  0  0
 15 39  1  0  0  0  0
 16 40  1  0  0  0  0
 16 41  1  0  0  0  0
 17 18  1  0  0  0  0
 17 42  1  0  0  0  0
 18 23  1  0  0  0  0
 18 19  2  0  0  0  0
 19 20  1  0  0  0  0
 19 43  1  0  0  0  0
 20 21  2  0  0  0  0
 20 44  1  0  0  0  0
 21 22  1  0  0  0  0
 21 48  1  0  0  0  0
 22 23  2  0  0  0  0
 22 45  1  0  0  0  0
 23 46  1  0  0  0  0
M  CHG  1   3  -1
M  CHG  1  11   1
M  CHG  1  21   1
M  END
> <s_m_source_file>
AV-unprocessed.smi

> <i_m_source_file_index>
1240

> <i_lp_mmshare_version>
43012

> <i_f3d_flags>
0

> <s_epik_input>
W2NIXTFbY0hdbltjSF1bY0hdYzFbTkhdQyg9TylbTkhdW0NIMl1bQ0BIXShbQ0BASF0yW0NIMl1bQ0gyXU9bQ0gyXTIpTjNbQ0gyXVtDSDJdT1tDSDJdW0NIMl0z

> <s_epik_cmdline>
J2VwaWtfcHl0aG9uJywgJy1waCcsICc3LjAnLCAnLXRuJywgJzgnLCAnLW1hJywgJzIwMCcsICctbWV0YWxfYmluZGluZycsICctaW1hZScsICc8aW5maWxlLm1hZT4nLCAnLW9tYWUnLCAnPG91dGZpbGUubWFlPic=

> <r_epik_Ionization_Penalty>
8.41087

> <r_epik_Ionization_Penalty_Charging>
8.41087

> <r_epik_Ionization_Penalty_Neutral>
3.12936e-06

> <r_epik_State_Penalty>
8.81894

> <r_epik_Charging_Adjusted_Penalty>
17.2298

> <i_epik_Tot_Q>
1

> <i_epik_Tot_abs_Q>
3

> <r_epik_Metal_State_Penalty>
4.82983

> <b_epik_Metal_Only>
1

> <s_lp_Force_Field>
OPLS_2005

> <r_lp_Energy>
48.3521

> <b_lp_Chiralities_Consistent>
1

> <s_lp_Variant>
AV-unprocessed.smi:1240-19

> <Gold.Version>
5.8.1

> <Gold.Id.Protein>
6NUR|6NUR_protein|mol2

> <Gold.PLP.Fitness>
43.6169

> <Gold.PLP.PLP>
-35.1553

> <Gold.PLP.part.hbond>
-3.0000

> <Gold.PLP.part.metal>
0.0000

> <Gold.PLP.part.buried>
-6.5934

> <Gold.PLP.part.nonpolar>
-27.3184

> <Gold.PLP.part.repulsive>
0.9754

> <Gold.PLP.ligand.clash>
0.0000

> <Gold.PLP.ligand.torsion>
1.8495

> <Gold.PLP.Chemscore.Hbond>
3.8480

> <Gold.PLP.Chemscore.CHOScore>
0.0000

> <Gold.PLP.Chemscore.Metal>
0.0000

> <Gold.Chemscore.Hbonds>
donor molecule, donor type, donor heavy atom, donor atom, acceptor molecule, acceptor atom, score
      L1  H    17    42       P1 10747  0.82
      L1  H    21    48       P1 10186  1.73
      P1  H  6896  6907       L1    14  1.00

> <Gold.PLP.Chemscore.Internal.Correction>
0.6165

> <Gold.Rescore>
     Score         DG    S(hbond)    S(metal)    S(lipo)     H(rot)  DE(clash)    DE(int)     intcor
     16.75     -20.22       2.81        0.00      83.06       1.70       0.01       3.46       ----

> <Gold.Chemscore.Fitness>
16.7521

> <Gold.Chemscore.DG>
-20.2201

> <Gold.Chemscore.ZeroCoef>
-5.4800

> <Gold.Chemscore.Hbond>
2.8084

> <Gold.Chemscore.Metal>
0.0000

> <Gold.Chemscore.Lipo>
83.0569

> <Gold.Chemscore.Internal_Hbond>
0.0000

> <Gold.Chemscore.DEClash>
0.0127

> <Gold.Chemscore.DEInternal>
3.4553

> <Gold.Chemscore.Rot>
1.7021

> <Gold.Chemscore.Internal.Correction>
   9.000000E+99

> <Gold.Chemscore.Hbonds>
donor molecule, donor type, donor heavy atom, donor atom, acceptor molecule, acceptor atom, score
      L1  H    17    42       P1 10747  0.81
      L1  H    21    48       P1 10186  0.85
      P1  H  6896  6907       L1    14  0.35

> <Gold.Chemscore.Hbond.Weighted>
-9.3799

> <Gold.Chemscore.Metal.Weighted>
-0.0000

> <Gold.Chemscore.Lipo.Weighted>
-9.7177

> <Gold.Chemscore.Internal_Hbond.Weighted>
0.0000

> <Gold.Chemscore.DEClash.Weighted>
0.0127

> <Gold.Chemscore.DEInternal.Weighted>
3.4553

> <Gold.Chemscore.Rot.Weighted>
4.3575

> <Gold.Chemscore.Internal.Correction.Weighted>
   9.000000E+99

> <Gold.Protein.RotatedTorsions>
[ 6907 6896 6895 6894 ] final -114.03 input  -60.11 | X-H torsion
[ 7974 7965 7964 7962 ] final -116.96 input  175.53 | X-H torsion
[ 8008 7997 7996 7995 ] final -167.91 input   59.86 | X-H torsion
[ 10167 10162 10161 10158 ] final  -75.32 input  -65.29 | X-H torsion
[ 10718 10713 10712 10709 ] final   47.44 input   66.30 | X-H torsion
[ 10763 10752 10751 10750 ] final   52.05 input  -60.55 | X-H torsion
[ 11005 11000 10999 10996 ] final   66.09 input  -57.11 | X-H torsion

> <Gold.Protein.ActiveResidues>
 VAL166  LYS551  ARG553  GLY616  TRP617  ASP618  TYR619  PRO620  LYS621  CYS622 
 ASP623  PHE694  ASN695  SER759  ASP760  ASP761  ALA762  ILE779  LEU786  VAL792 
 PHE793  MET794  SER795  GLU796  ALA797  LYS798  CYS799  TRP800  GLU811  SER814 

> <Gold.Protein.RotatedAtoms>
  150.7872  133.8860  159.3299 H   0  0  0  0  0  0  0  0  0  0  0  0  # atno 6907 bound_to 6896
  151.6708  135.0974  160.0207 H   0  0  0  0  0  0  0  0  0  0  0  0  # atno 6908 bound_to 6896
  152.3938  133.6678  159.6295 H   0  0  0  0  0  0  0  0  0  0  0  0  # atno 6909 bound_to 6896
  145.0907  140.8488  143.3984 H   0  0  0  0  0  0  0  0  0  0  0  0  # atno 7974 bound_to 7965
  155.8842  140.1014  157.1464 H   0  0  0  0  0  0  0  0  0  0  0  0  # atno 8008 bound_to 7997
  154.4008  140.1323  156.4298 H   0  0  0  0  0  0  0  0  0  0  0  0  # atno 8009 bound_to 7997
  155.7608  140.3463  155.5199 H   0  0  0  0  0  0  0  0  0  0  0  0  # atno 8010 bound_to 7997
  140.4952  143.2372  151.7842 H   0  0  0  0  0  0  0  0  0  0  0  0  # atno 10167 bound_to 10162
  157.4585  130.8181  149.7861 H   0  0  0  0  0  0  0  0  0  0  0  0  # atno 10718 bound_to 10713
  152.9787  135.5825  154.4515 H   0  0  0  0  0  0  0  0  0  0  0  0  # atno 10763 bound_to 10752
  154.4103  135.2770  155.2043 H   0  0  0  0  0  0  0  0  0  0  0  0  # atno 10764 bound_to 10752
  154.3836  135.6141  153.5858 H   0  0  0  0  0  0  0  0  0  0  0  0  # atno 10765 bound_to 10752
  139.9853  134.6677  156.0187 H   0  0  0  0  0  0  0  0  0  0  0  0  # atno 11005 bound_to 11000
  145.1069  139.2783  143.5657 LP  0  0  0  0  0  0  0  0  0  0  0  0  # atno 17320 bound_to 7965
  146.3531  140.0654  142.8626 LP  0  0  0  0  0  0  0  0  0  0  0  0  # atno 17321 bound_to 7965
  139.4860  144.4596  151.9557 LP  0  0  0  0  0  0  0  0  0  0  0  0  # atno 17342 bound_to 10162
  140.3683  144.2887  150.5923 LP  0  0  0  0  0  0  0  0  0  0  0  0  # atno 17343 bound_to 10162
  156.0018  130.3876  150.2578 LP  0  0  0  0  0  0  0  0  0  0  0  0  # atno 17370 bound_to 10713
  157.0754  131.0128  151.3175 LP  0  0  0  0  0  0  0  0  0  0  0  0  # atno 17371 bound_to 10713
  141.1519  133.6547  156.4041 LP  0  0  0  0  0  0  0  0  0  0  0  0  # atno 17394 bound_to 11000
  140.5014  134.6482  157.5250 LP  0  0  0  0  0  0  0  0  0  0  0  0  # atno 17395 bound_to 11000

$$$$
