#       Name:                AV-unprocessed.smi:1965
#       Creating user name   scv26
#       Creation time:       Fri Mar 27 10:10:47 2020


#       File generated by GOLD software.
#

@<TRIPOS>MOLECULE
AV-unprocessed.smi:1965
    40    42     1
SMALL
NO_CHARGES


@<TRIPOS>ATOM
      1 ****        -1.9735  -2.3772   0.0035 O.2            1 S1                 0.0000
      2 ****        -0.8063  -2.3711   0.3905 C.2            1 S1                 0.0000
      3 ****        -0.0681  -3.5016   0.3944 N.am           1 S1                 0.0000
      4 ****        -0.3808  -4.8384   0.0102 C.2            1 S1                 0.0000
      5 ****        -1.5675  -5.2545  -0.4509 N.2            1 S1                 0.0000
      6 ****        -1.5730  -6.6217  -0.7392 C.2            1 S1                 0.0000
      7 ****        -0.3739  -7.2393  -0.4876 C.2            1 S1                 0.0000
      8 ****         0.8158  -6.1216   0.1235 S.3            1 S1                 0.0000
      9 ****        -0.1942  -1.2579   0.8258 N.am           1 S1                 0.0000
     10 ****        -0.7932   0.0708   0.8940 C.3            1 S1                 0.0000
     11 ****        -0.1729   0.9493   1.9950 C.3            1 S1                 0.0000
     12 ****        -0.1053   2.3682   1.3965 C.3            1 S1                 0.0000
     13 ****        -0.7609   2.2681   0.0788 N.4            1 S1                 1.0000
     14 ****        -0.3875   3.2755  -0.9380 C.3            1 S1                 0.0000
     15 ****        -1.2357   3.0557  -2.2066 C.3            1 S1                 0.0000
     16 ****        -1.1396   1.6025  -2.7139 C.3            1 S1                 0.0000
     17 ****        -1.4474   0.5976  -1.5871 C.3            1 S1                 0.0000
     18 ****        -0.5431   0.8869  -0.3767 C.3            1 S1                 0.0000
     19 ****         0.8690  -3.3838   0.7516 H              1 S1                 0.0000
     20 ****        -2.4761  -7.0752  -1.1206 H              1 S1                 0.0000
     21 ****        -0.1193  -8.2799  -0.6240 H              1 S1                 0.0000
     22 ****         0.7664  -1.3426   1.1278 H              1 S1                 0.0000
     23 ****        -1.8677  -0.0004   1.0766 H              1 S1                 0.0000
     24 ****        -0.7745   0.9204   2.9042 H              1 S1                 0.0000
     25 ****         0.8313   0.6123   2.2569 H              1 S1                 0.0000
     26 ****        -0.6052   3.1085   2.0217 H              1 S1                 0.0000
     27 ****         0.9353   2.6735   1.2758 H              1 S1                 0.0000
     28 ****        -0.5561   4.2770  -0.5410 H              1 S1                 0.0000
     29 ****         0.6756   3.1936  -1.1697 H              1 S1                 0.0000
     30 ****        -2.2784   3.2905  -1.9879 H              1 S1                 0.0000
     31 ****        -0.9232   3.7468  -2.9899 H              1 S1                 0.0000
     32 ****        -1.8226   1.4502  -3.5502 H              1 S1                 0.0000
     33 ****        -0.1354   1.4192  -3.0981 H              1 S1                 0.0000
     34 ****        -2.4971   0.6704  -1.2995 H              1 S1                 0.0000
     35 ****        -1.2901  -0.4197  -1.9458 H              1 S1                 0.0000
     36 ****         0.5037   0.7789  -0.6713 H              1 S1                 0.0000
     37 ****        -1.7531   2.3596   0.2440 H              1 S1                 0.0000
     38 ****        -2.3902  -3.2286  -0.3150 LP             1 S1                 0.0000
     39 ****        -2.5060  -1.5307   0.0073 LP             1 S1                 0.0000
     40 ****        -2.3586  -4.6555  -0.5746 LP             1 S1                 0.0000
@<TRIPOS>BOND
    1    1    2 2     
    2    2    3 am    
    3    2    9 am    
    4    3    4 1     
    5    3   19 1     
    6    4    8 1     
    7    4    5 2     
    8    5    6 1     
    9    6    7 2     
   10    6   20 1     
   11    7    8 1     
   12    7   21 1     
   13    9   10 1     
   14    9   22 1     
   15   10   18 1     
   16   10   11 1     
   17   10   23 1     
   18   11   12 1     
   19   11   24 1     
   20   11   25 1     
   21   12   13 1     
   22   12   26 1     
   23   12   27 1     
   24   13   18 1     
   25   13   14 1     
   26   13   37 1     
   27   14   15 1     
   28   14   28 1     
   29   14   29 1     
   30   15   16 1     
   31   15   30 1     
   32   15   31 1     
   33   16   17 1     
   34   16   32 1     
   35   16   33 1     
   36   17   18 1     
   37   17   34 1     
   38   17   35 1     
   39   18   36 1     
   40    1   38 1     
   41    1   39 1     
   42    5   40 1     
@<TRIPOS>SUBSTRUCTURE
      1 S1             1
@<TRIPOS>SET
LONE_PAIRS      STATIC     ATOMS    <user>   **** ""
3 38 39 40
DONOR_HYDROGENS      STATIC     ATOMS    <user>   **** ""
3 19 22 37
ATOM$BLUE        STATIC     ATOMS    COLORGROUP SYSTEM
3 38 39 40
ATOM$RED        STATIC     ATOMS    COLORGROUP SYSTEM
3 19 22 37
