AV-unprocessed.smi:1648|AV-procd|sdf|6630|dock4
  -GOLD-   22720 7333D 1   1.00000     0.00000
 Structure written by MMmdl.
 42 42  0  0  0  0  0  0  0  0  2 V2000
  148.5503  141.2675  154.6837 C   0  0  0  0  0  0  0  0  0  0  0  0
  149.9050  141.2651  155.3944 C   0  0  0  0  0  0  0  0  0  0  0  0
  150.3215  142.3043  155.9004 O   0  0  0  0  0  0  0  0  0  0  0  0
  150.6150  140.1252  155.4559 N   0  0  0  0  0  0  0  0  0  0  0  0
  151.9218  139.9263  156.0877 C   0  0  1  0  0  0  0  0  0  0  0  0
  151.7398  140.1730  157.5960 C   0  0  0  0  0  0  0  0  0  0  0  0
  150.7314  139.7682  158.1766 O   0  0  0  0  0  0  0  0  0  0  0  0
  152.7198  140.8533  158.2118 N   0  0  0  0  0  0  0  0  0  0  0  0
  152.7341  141.2376  159.6225 C   0  0  1  0  0  0  0  0  0  0  0  0
  153.6943  140.3093  160.3776 C   0  0  0  0  0  0  0  0  0  0  0  0
  153.1400  142.7187  159.7925 C   0  0  0  0  0  0  0  0  0  0  0  0
  152.1120  143.6574  159.3265 N   0  0  0  0  0  0  0  0  0  0  0  0
  151.5097  144.6561  160.0483 C   0  0  0  0  0  0  0  0  0  0  0  0
  150.6114  145.2600  159.2067 C   0  0  0  0  0  0  0  0  0  0  0  0
  150.7110  144.6129  158.0044 N   0  3  0  0  0  0  0  0  0  0  0  0
  151.6306  143.6457  158.0764 C   0  0  0  0  0  0  0  0  0  0  0  0
  152.3874  138.4615  155.8398 C   0  0  0  0  0  0  0  0  0  0  0  0
  152.4108  138.0859  154.3435 C   0  0  0  0  0  0  0  0  0  0  0  0
  151.5115  137.4464  156.6003 C   0  0  0  0  0  0  0  0  0  0  0  0
  148.6356  140.8875  153.6663 H   0  0  0  0  0  0  0  0  0  0  0  0
  148.1465  142.2791  154.6302 H   0  0  0  0  0  0  0  0  0  0  0  0
  147.8358  140.6490  155.2276 H   0  0  0  0  0  0  0  0  0  0  0  0
  150.1834  139.2975  155.0702 H   0  0  0  0  0  0  0  0  0  0  0  0
  152.6653  140.6106  155.6751 H   0  0  0  0  0  0  0  0  0  0  0  0
  153.5147  141.1368  157.6569 H   0  0  0  0  0  0  0  0  0  0  0  0
  151.7418  141.0910  160.0530 H   0  0  0  0  0  0  0  0  0  0  0  0
  153.7062  140.5407  161.4431 H   0  0  0  0  0  0  0  0  0  0  0  0
  154.7152  140.4041  160.0055 H   0  0  0  0  0  0  0  0  0  0  0  0
  153.3967  139.2654  160.2722 H   0  0  0  0  0  0  0  0  0  0  0  0
  153.3179  142.9414  160.8453 H   0  0  0  0  0  0  0  0  0  0  0  0
  154.0718  142.9285  159.2645 H   0  0  0  0  0  0  0  0  0  0  0  0
  151.7513  144.8509  161.0832 H   0  0  0  0  0  0  0  0  0  0  0  0
  149.9274  146.0803  159.3692 H   0  0  0  0  0  0  0  0  0  0  0  0
  151.9185  142.9812  157.2820 H   0  0  0  0  0  0  0  0  0  0  0  0
  153.4051  138.3481  156.2178 H   0  0  0  0  0  0  0  0  0  0  0  0
  151.4273  138.2128  153.8899 H   0  0  0  0  0  0  0  0  0  0  0  0
  152.7054  137.0451  154.2062 H   0  0  0  0  0  0  0  0  0  0  0  0
  153.1200  138.6898  153.7771 H   0  0  0  0  0  0  0  0  0  0  0  0
  150.4672  137.5204  156.2957 H   0  0  0  0  0  0  0  0  0  0  0  0
  151.5550  137.5966  157.6791 H   0  0  0  0  0  0  0  0  0  0  0  0
  151.8397  136.4242  156.4097 H   0  0  0  0  0  0  0  0  0  0  0  0
  150.1693  144.8339  157.1781 H   0  0  0  0  0  0  0  0  0  0  0  0
  1  2  1  0  0  0  0
  1 20  1  0  0  0  0
  1 21  1  0  0  0  0
  1 22  1  0  0  0  0
  2  3  2  0  0  0  0
  2  4  1  0  0  0  0
  4  5  1  0  0  0  0
  4 23  1  0  0  0  0
  5  6  1  0  0  0  0
  5 17  1  0  0  0  0
  5 24  1  0  0  0  0
  6  7  2  0  0  0  0
  6  8  1  0  0  0  0
  8  9  1  0  0  0  0
  8 25  1  0  0  0  0
  9 10  1  0  0  0  0
  9 11  1  0  0  0  0
  9 26  1  0  0  0  0
 10 27  1  0  0  0  0
 10 28  1  0  0  0  0
 10 29  1  0  0  0  0
 11 12  1  0  0  0  0
 11 30  1  0  0  0  0
 11 31  1  0  0  0  0
 12 16  1  0  0  0  0
 12 13  1  0  0  0  0
 13 14  2  0  0  0  0
 13 32  1  0  0  0  0
 14 15  1  0  0  0  0
 14 33  1  0  0  0  0
 15 16  2  0  0  0  0
 15 42  1  0  0  0  0
 16 34  1  0  0  0  0
 17 18  1  0  0  0  0
 17 19  1  0  0  0  0
 17 35  1  0  0  0  0
 18 36  1  0  0  0  0
 18 37  1  0  0  0  0
 18 38  1  0  0  0  0
 19 39  1  0  0  0  0
 19 40  1  0  0  0  0
 19 41  1  0  0  0  0
M  CHG  1  15   1
M  END
> <s_m_source_file>
AV-unprocessed.smi

> <i_m_source_file_index>
1648

> <i_lp_mmshare_version>
43012

> <i_f3d_flags>
0

> <s_epik_input>
W0NIM11DKD1PKVtOSF1bQ0BASF0oW0NIXShbQ0gzXSlbQ0gzXSlDKD1PKVtOSF1bQ0BIXShbQ0gzXSlbQ0gyXW4xW2NIXVtjSF1uW2NIXTE=

> <s_epik_cmdline>
J2VwaWtfcHl0aG9uJywgJy1waCcsICc3LjAnLCAnLXRuJywgJzgnLCAnLW1hJywgJzIwMCcsICctbWV0YWxfYmluZGluZycsICctaW1hZScsICc8aW5maWxlLm1hZT4nLCAnLW9tYWUnLCAnPG91dGZpbGUubWFlPic=

> <r_lp_tautomer_probability>
1

> <r_epik_Ionization_Penalty>
0.251562

> <r_epik_Ionization_Penalty_Charging>
0

> <r_epik_Ionization_Penalty_Neutral>
0.251562

> <r_epik_State_Penalty>
0.242926

> <r_epik_Charging_Adjusted_Penalty>
0.242926

> <i_epik_Tot_Q>
1

> <i_epik_Tot_abs_Q>
1

> <r_epik_Metal_State_Penalty>
0.53388

> <b_epik_Metal_Only>
0

> <s_lp_Force_Field>
OPLS_2005

> <r_lp_Energy>
9.97271

> <b_lp_Chiralities_Consistent>
1

> <s_lp_Variant>
AV-unprocessed.smi:1648-4

> <Gold.Version>
5.8.1

> <Gold.Id.Protein>
6NUR|6NUR_protein|mol2

> <Gold.PLP.Fitness>
43.2430

> <Gold.PLP.PLP>
-38.8769

> <Gold.PLP.part.hbond>
-1.2658

> <Gold.PLP.part.metal>
0.0000

> <Gold.PLP.part.buried>
-4.8707

> <Gold.PLP.part.nonpolar>
-35.5306

> <Gold.PLP.part.repulsive>
2.5365

> <Gold.PLP.ligand.clash>
0.0000

> <Gold.PLP.ligand.torsion>
0.8497

> <Gold.PLP.Chemscore.Hbond>
2.0000

> <Gold.PLP.Chemscore.CHOScore>
0.0000

> <Gold.PLP.Chemscore.Metal>
0.0000

> <Gold.Chemscore.Hbonds>
donor molecule, donor type, donor heavy atom, donor atom, acceptor molecule, acceptor atom, score
      L1  H    15    42       P1  8028  1.90

> <Gold.PLP.Chemscore.Internal.Correction>
0.0655

> <Gold.Rescore>
     Score         DG    S(hbond)    S(metal)    S(lipo)     H(rot)  DE(clash)    DE(int)     intcor
      5.68     -11.22       0.79        0.00      83.74       2.61       1.03       4.51       ----

> <Gold.Chemscore.Fitness>
5.6786

> <Gold.Chemscore.DG>
-11.2189

> <Gold.Chemscore.ZeroCoef>
-5.4800

> <Gold.Chemscore.Hbond>
0.7879

> <Gold.Chemscore.Metal>
0.0000

> <Gold.Chemscore.Lipo>
83.7423

> <Gold.Chemscore.Internal_Hbond>
0.0000

> <Gold.Chemscore.DEClash>
1.0327

> <Gold.Chemscore.DEInternal>
4.5076

> <Gold.Chemscore.Rot>
2.6135

> <Gold.Chemscore.Internal.Correction>
   9.000000E+99

> <Gold.Chemscore.Hbonds>
donor molecule, donor type, donor heavy atom, donor atom, acceptor molecule, acceptor atom, score
      L1  H    15    42       P1  8028  0.21

> <Gold.Chemscore.Hbond.Weighted>
-2.6317

> <Gold.Chemscore.Metal.Weighted>
-0.0000

> <Gold.Chemscore.Lipo.Weighted>
-9.7978

> <Gold.Chemscore.Internal_Hbond.Weighted>
0.0000

> <Gold.Chemscore.DEClash.Weighted>
1.0327

> <Gold.Chemscore.DEInternal.Weighted>
4.5076

> <Gold.Chemscore.Rot.Weighted>
6.6906

> <Gold.Chemscore.Internal.Correction.Weighted>
   9.000000E+99

> <Gold.Protein.RotatedTorsions>
[ 6907 6896 6895 6894 ] final  -87.10 input  -60.11 | X-H torsion
[ 7974 7965 7964 7962 ] final  132.67 input  175.53 | X-H torsion
[ 8008 7997 7996 7995 ] final  -64.15 input   59.86 | X-H torsion
[ 10167 10162 10161 10158 ] final  -62.93 input  -65.29 | X-H torsion
[ 10718 10713 10712 10709 ] final -113.82 input   66.30 | X-H torsion
[ 10763 10752 10751 10750 ] final  161.06 input  -60.55 | X-H torsion
[ 11005 11000 10999 10996 ] final -142.14 input  -57.11 | X-H torsion

> <Gold.Protein.ActiveResidues>
 VAL166  LYS551  ARG553  GLY616  TRP617  ASP618  TYR619  PRO620  LYS621  CYS622 
 ASP623  PHE694  ASN695  SER759  ASP760  ASP761  ALA762  ILE779  LEU786  VAL792 
 PHE793  MET794  SER795  GLU796  ALA797  LYS798  CYS799  TRP800  GLU811  SER814 

> <Gold.Protein.RotatedAtoms>
  150.6866  134.2948  159.4681 H   0  0  0  0  0  0  0  0  0  0  0  0  # atno 6907 bound_to 6896
  152.0849  134.9443  160.0582 H   0  0  0  0  0  0  0  0  0  0  0  0  # atno 6908 bound_to 6896
  152.0782  133.4105  159.4526 H   0  0  0  0  0  0  0  0  0  0  0  0  # atno 6909 bound_to 6896
  144.9944  139.4374  143.5323 H   0  0  0  0  0  0  0  0  0  0  0  0  # atno 7974 bound_to 7965
  154.4595  140.0960  156.6852 H   0  0  0  0  0  0  0  0  0  0  0  0  # atno 8008 bound_to 7997
  155.5038  140.3474  155.4357 H   0  0  0  0  0  0  0  0  0  0  0  0  # atno 8009 bound_to 7997
  156.0842  140.1381  156.9663 H   0  0  0  0  0  0  0  0  0  0  0  0  # atno 8010 bound_to 7997
  140.5906  143.2341  151.6148 H   0  0  0  0  0  0  0  0  0  0  0  0  # atno 10167 bound_to 10162
  156.0790  130.5993  150.8693 H   0  0  0  0  0  0  0  0  0  0  0  0  # atno 10718 bound_to 10713
  154.2571  135.2769  155.2793 H   0  0  0  0  0  0  0  0  0  0  0  0  # atno 10763 bound_to 10752
  154.5416  135.5701  153.6847 H   0  0  0  0  0  0  0  0  0  0  0  0  # atno 10764 bound_to 10752
  152.9969  135.6252  154.2720 H   0  0  0  0  0  0  0  0  0  0  0  0  # atno 10765 bound_to 10752
  140.8255  134.2580  157.4881 H   0  0  0  0  0  0  0  0  0  0  0  0  # atno 11005 bound_to 11000
  146.3438  139.9295  142.8755 LP  0  0  0  0  0  0  0  0  0  0  0  0  # atno 17320 bound_to 7965
  145.2240  140.9947  143.4029 LP  0  0  0  0  0  0  0  0  0  0  0  0  # atno 17321 bound_to 7965
  139.5225  144.3161  152.0951 LP  0  0  0  0  0  0  0  0  0  0  0  0  # atno 17342 bound_to 10162
  140.2325  144.4353  150.6294 LP  0  0  0  0  0  0  0  0  0  0  0  0  # atno 17343 bound_to 10162
  157.5899  131.0944  150.9135 LP  0  0  0  0  0  0  0  0  0  0  0  0  # atno 17370 bound_to 10713
  156.9313  130.5351  149.5279 LP  0  0  0  0  0  0  0  0  0  0  0  0  # atno 17371 bound_to 10713
  139.8706  134.9558  156.4218 LP  0  0  0  0  0  0  0  0  0  0  0  0  # atno 17394 bound_to 11000
  140.9054  133.7750  155.9728 LP  0  0  0  0  0  0  0  0  0  0  0  0  # atno 17395 bound_to 11000

$$$$
