#       Name:                AV-unprocessed.smi:249
#       Creating user name   scv26
#       Creation time:       Thu Mar 26 20:59:41 2020


#       File generated by GOLD software.
#

@<TRIPOS>MOLECULE
AV-unprocessed.smi:249
    71    74     1
SMALL
NO_CHARGES


@<TRIPOS>ATOM
      1 ****        -3.7140  -5.9974  -1.9470 C.3            1 S1                 0.0000
      2 ****        -4.3928  -4.6246  -2.0639 C.3            1 S1                 0.0000
      3 ****        -3.5805  -3.5155  -1.4953 N.4            1 S1                 1.0000
      4 ****        -4.1030  -2.1794  -1.8894 C.3            1 S1                 0.0000
      5 ****        -3.1238  -1.0586  -1.5079 C.3            1 S1                 0.0000
      6 ****        -2.7940  -1.1054  -0.0031 C.3            1 S1                 0.0000
      7 ****        -1.9245  -0.0089   0.4480 N.pl3          1 S1                 0.0000
      8 ****        -2.5021   1.3291   0.5249 C.3            1 S1                 0.0000
      9 ****        -0.5771  -0.0168   0.2624 C.ar           1 S1                 0.0000
     10 ****        -0.0356  -0.6435  -0.8147 N.ar           1 S1                 0.0000
     11 ****         1.2861  -0.6397  -1.0096 C.ar           1 S1                 0.0000
     12 ****         2.2363  -0.0714  -0.2664 N.ar           1 S1                 0.0000
     13 ****         1.7022   0.5678   0.8126 C.ar           1 S1                 0.0000
     14 ****         0.3209   0.6416   1.1503 C.ar           1 S1                 0.0000
     15 ****         0.1623   1.3618   2.3285 N.2            1 S1                 0.0000
     16 ****         1.3772   1.7001   2.6636 C.2            1 S1                 0.0000
     17 ****         2.3619   1.2834   1.7965 N.pl3          1 S1                 0.0000
     18 ****         3.7897   1.5145   1.9291 C.3            1 S1                 0.0000
     19 ****         4.4257   2.3593   0.7892 C.3            1 S1                 0.0000
     20 ****         5.9631   2.3769   0.9702 C.3            1 S1                 0.0000
     21 ****         6.5112   1.0804   0.8473 O.3            1 S1                 0.0000
     22 ****         3.8461   3.8032   0.6988 C.3            1 S1                 0.0000
     23 ****         4.5502   4.7194  -0.2920 C.3            1 S1                 0.0000
     24 ****         3.5239   5.8219  -0.5038 C.3            1 S1                 0.0000
     25 ****         2.2788   5.1435  -0.5156 O.3            1 S1                 0.0000
     26 ****         2.3965   3.9131   0.1928 C.3            1 S1                 0.0000
     27 ****        -2.2926  -2.5124   0.3911 C.3            1 S1                 0.0000
     28 ****        -3.2818  -3.6182  -0.0321 C.3            1 S1                 0.0000
     29 ****        -4.5420  -3.6520   0.8594 C.3            1 S1                 0.0000
     30 ****        -4.2770  -6.7491  -2.5004 H              1 S1                 0.0000
     31 ****        -3.6571  -6.3385  -0.9136 H              1 S1                 0.0000
     32 ****        -2.7034  -5.9758  -2.3556 H              1 S1                 0.0000
     33 ****        -4.5490  -4.4255  -3.1248 H              1 S1                 0.0000
     34 ****        -5.3859  -4.6468  -1.6148 H              1 S1                 0.0000
     35 ****        -4.2598  -2.1514  -2.9684 H              1 S1                 0.0000
     36 ****        -5.0778  -2.0067  -1.4326 H              1 S1                 0.0000
     37 ****        -2.2215  -1.1626  -2.1093 H              1 S1                 0.0000
     38 ****        -3.5579  -0.0937  -1.7713 H              1 S1                 0.0000
     39 ****        -3.7324  -0.9514   0.5305 H              1 S1                 0.0000
     40 ****        -2.4385   1.7126   1.5433 H              1 S1                 0.0000
     41 ****        -3.5549   1.3236   0.2412 H              1 S1                 0.0000
     42 ****        -1.9835   2.0234  -0.1381 H              1 S1                 0.0000
     43 ****         1.6318  -1.1647  -1.8878 H              1 S1                 0.0000
     44 ****         1.5876   2.2778   3.5520 H              1 S1                 0.0000
     45 ****         3.9754   1.9930   2.8915 H              1 S1                 0.0000
     46 ****         4.2593   0.5322   1.9850 H              1 S1                 0.0000
     47 ****         4.2258   1.8660  -0.1630 H              1 S1                 0.0000
     48 ****         6.4495   2.9875   0.2108 H              1 S1                 0.0000
     49 ****         6.2351   2.7942   1.9403 H              1 S1                 0.0000
     50 ****         7.4493   1.1391   0.9459 H              1 S1                 0.0000
     51 ****         3.9056   4.2725   1.6824 H              1 S1                 0.0000
     52 ****         5.4976   5.1112   0.0791 H              1 S1                 0.0000
     53 ****         4.7363   4.1974  -1.2319 H              1 S1                 0.0000
     54 ****         3.5385   6.5239   0.3308 H              1 S1                 0.0000
     55 ****         3.6867   6.3804  -1.4258 H              1 S1                 0.0000
     56 ****         2.1540   3.1058  -0.4989 H              1 S1                 0.0000
     57 ****         1.6756   3.8880   1.0089 H              1 S1                 0.0000
     58 ****        -1.3334  -2.7277  -0.0777 H              1 S1                 0.0000
     59 ****        -2.1175  -2.5588   1.4667 H              1 S1                 0.0000
     60 ****        -2.7567  -4.5584   0.1329 H              1 S1                 0.0000
     61 ****        -4.2645  -3.7095   1.9122 H              1 S1                 0.0000
     62 ****        -5.1612  -4.5244   0.6522 H              1 S1                 0.0000
     63 ****        -5.1640  -2.7660   0.7381 H              1 S1                 0.0000
     64 ****        -2.6831  -3.5876  -1.9533 H              1 S1                 0.0000
     65 ****        -0.6315  -1.1117  -1.4672 LP             1 S1                 0.0000
     66 ****         3.2139  -0.1093  -0.4737 LP             1 S1                 0.0000
     67 ****        -0.6886   1.5726   2.8096 LP             1 S1                 0.0000
     68 ****         6.2899   0.7049  -0.0527 LP             1 S1                 0.0000
     69 ****         6.1343   0.4865   1.5580 LP             1 S1                 0.0000
     70 ****         2.0098   4.9586  -1.4608 LP             1 S1                 0.0000
     71 ****         1.5848   5.7145  -0.0772 LP             1 S1                 0.0000
@<TRIPOS>BOND
    1    1    2 1     
    2    1   30 1     
    3    1   31 1     
    4    1   32 1     
    5    2    3 1     
    6    2   33 1     
    7    2   34 1     
    8    3   28 1     
    9    3    4 1     
   10    3   64 1     
   11    4    5 1     
   12    4   35 1     
   13    4   36 1     
   14    5    6 1     
   15    5   37 1     
   16    5   38 1     
   17    6    7 1     
   18    6   27 1     
   19    6   39 1     
   20    7    8 1     
   21    7    9 1     
   22    8   40 1     
   23    8   41 1     
   24    8   42 1     
   25    9   14 ar    
   26    9   10 ar    
   27   10   11 ar    
   28   11   12 ar    
   29   11   43 1     
   30   12   13 ar    
   31   13   17 1     
   32   13   14 ar    
   33   14   15 1     
   34   15   16 2     
   35   16   17 1     
   36   16   44 1     
   37   17   18 1     
   38   18   19 1     
   39   18   45 1     
   40   18   46 1     
   41   19   20 1     
   42   19   22 1     
   43   19   47 1     
   44   20   21 1     
   45   20   48 1     
   46   20   49 1     
   47   21   50 1     
   48   22   26 1     
   49   22   23 1     
   50   22   51 1     
   51   23   24 1     
   52   23   52 1     
   53   23   53 1     
   54   24   25 1     
   55   24   54 1     
   56   24   55 1     
   57   25   26 1     
   58   26   56 1     
   59   26   57 1     
   60   27   28 1     
   61   27   58 1     
   62   27   59 1     
   63   28   29 1     
   64   28   60 1     
   65   29   61 1     
   66   29   62 1     
   67   29   63 1     
   68   10   65 1     
   69   12   66 1     
   70   15   67 1     
   71   21   68 1     
   72   21   69 1     
   73   25   70 1     
   74   25   71 1     
@<TRIPOS>SUBSTRUCTURE
      1 S1             1
@<TRIPOS>SET
LONE_PAIRS      STATIC     ATOMS    <user>   **** ""
7 65 66 67 68 69 70 71
DONOR_HYDROGENS      STATIC     ATOMS    <user>   **** ""
2 64 50
ATOM$BLUE        STATIC     ATOMS    COLORGROUP SYSTEM
7 65 66 67 68 69 70 71
ATOM$RED        STATIC     ATOMS    COLORGROUP SYSTEM
2 64 50
