AV-unprocessed.smi:2639|AV-procd|sdf|10266|dock6
  -GOLD-   2272014273D 1   1.00000     0.00000
 Structure written by MMmdl.
 44 45  0  0  0  0  0  0  0  0  2 V2000
  144.2063  135.6497  152.9873 C   0  0  0  0  0  0  0  0  0  0  0  0
  145.2223  135.6918  151.8171 C   0  0  1  0  0  0  0  0  0  0  0  0
  144.4839  136.1883  150.5387 C   0  0  0  0  0  0  0  0  0  0  0  0
  145.3747  136.4695  149.4780 O   0  0  0  0  0  0  0  0  0  0  0  0
  146.3151  136.6229  152.1410 N   0  0  0  0  0  0  0  0  0  0  0  0
  146.2637  137.7850  152.8138 C   0  0  0  0  0  0  0  0  0  0  0  0
  145.2351  138.2610  153.2923 O   0  0  0  0  0  0  0  0  0  0  0  0
  147.4847  138.3397  152.9061 N   0  0  0  0  0  0  0  0  0  0  0  0
  147.8540  139.5714  153.5121 C   0  0  0  0  0  0  0  0  0  0  0  0
  146.9376  140.6432  153.4264 C   0  0  0  0  0  0  0  0  0  0  0  0
  147.2547  141.8792  154.0258 C   0  0  0  0  0  0  0  0  0  0  0  0
  148.4238  142.0268  154.6850 N   0  3  0  0  0  0  0  0  0  0  0  0
  149.3238  141.0275  154.8073 C   0  0  0  0  0  0  0  0  0  0  0  0
  149.0621  139.7691  154.2284 C   0  0  0  0  0  0  0  0  0  0  0  0
  145.8641  134.2749  151.6009 C   0  0  0  0  0  0  0  0  0  0  0  0
  144.8829  133.2341  150.9953 C   0  0  0  0  0  0  0  0  0  0  0  0
  145.5553  131.8748  150.7450 C   0  0  0  0  0  0  0  0  0  0  0  0
  146.1789  131.3149  152.0292 C   0  0  0  0  0  0  0  0  0  0  0  0
  147.1680  132.3197  152.6317 C   0  0  0  0  0  0  0  0  0  0  0  0
  146.4987  133.6796  152.8872 C   0  0  0  0  0  0  0  0  0  0  0  0
  143.4988  134.8287  152.8663 H   0  0  0  0  0  0  0  0  0  0  0  0
  143.6184  136.5656  153.0495 H   0  0  0  0  0  0  0  0  0  0  0  0
  144.6945  135.5258  153.9536 H   0  0  0  0  0  0  0  0  0  0  0  0
  143.7764  135.4422  150.1774 H   0  0  0  0  0  0  0  0  0  0  0  0
  143.8953  137.0826  150.7429 H   0  0  0  0  0  0  0  0  0  0  0  0
  145.5551  135.6649  149.0163 H   0  0  0  0  0  0  0  0  0  0  0  0
  147.2239  136.3380  151.8065 H   0  0  0  0  0  0  0  0  0  0  0  0
  148.2488  137.7886  152.5435 H   0  0  0  0  0  0  0  0  0  0  0  0
  146.0008  140.5246  152.9011 H   0  0  0  0  0  0  0  0  0  0  0  0
  146.6116  142.7471  153.9996 H   0  0  0  0  0  0  0  0  0  0  0  0
  150.2183  141.2598  155.3667 H   0  0  0  0  0  0  0  0  0  0  0  0
  149.7861  138.9789  154.3563 H   0  0  0  0  0  0  0  0  0  0  0  0
  146.6709  134.3897  150.8756 H   0  0  0  0  0  0  0  0  0  0  0  0
  144.0272  133.0895  151.6555 H   0  0  0  0  0  0  0  0  0  0  0  0
  144.4826  133.5866  150.0459 H   0  0  0  0  0  0  0  0  0  0  0  0
  144.8257  131.1678  150.3491 H   0  0  0  0  0  0  0  0  0  0  0  0
  146.3260  131.9835  149.9807 H   0  0  0  0  0  0  0  0  0  0  0  0
  145.3943  131.0908  152.7530 H   0  0  0  0  0  0  0  0  0  0  0  0
  146.6860  130.3729  151.8180 H   0  0  0  0  0  0  0  0  0  0  0  0
  147.5750  131.9258  153.5633 H   0  0  0  0  0  0  0  0  0  0  0  0
  148.0143  132.4508  151.9560 H   0  0  0  0  0  0  0  0  0  0  0  0
  147.2552  134.3502  153.2922 H   0  0  0  0  0  0  0  0  0  0  0  0
  145.7423  133.5644  153.6642 H   0  0  0  0  0  0  0  0  0  0  0  0
  148.6337  142.9292  155.1128 H   0  0  0  0  0  0  0  0  0  0  0  0
  1  2  1  0  0  0  0
  1 21  1  0  0  0  0
  1 22  1  0  0  0  0
  1 23  1  0  0  0  0
  2  3  1  0  0  0  0
  2  5  1  0  0  0  0
  2 15  1  0  0  0  0
  3  4  1  0  0  0  0
  3 24  1  0  0  0  0
  3 25  1  0  0  0  0
  4 26  1  0  0  0  0
  5  6  1  0  0  0  0
  5 27  1  0  0  0  0
  6  7  2  0  0  0  0
  6  8  1  0  0  0  0
  8  9  1  0  0  0  0
  8 28  1  0  0  0  0
  9 14  1  0  0  0  0
  9 10  2  0  0  0  0
 10 11  1  0  0  0  0
 10 29  1  0  0  0  0
 11 12  2  0  0  0  0
 11 30  1  0  0  0  0
 12 13  1  0  0  0  0
 12 44  1  0  0  0  0
 13 14  2  0  0  0  0
 13 31  1  0  0  0  0
 14 32  1  0  0  0  0
 15 20  1  0  0  0  0
 15 16  1  0  0  0  0
 15 33  1  0  0  0  0
 16 17  1  0  0  0  0
 16 34  1  0  0  0  0
 16 35  1  0  0  0  0
 17 18  1  0  0  0  0
 17 36  1  0  0  0  0
 17 37  1  0  0  0  0
 18 19  1  0  0  0  0
 18 38  1  0  0  0  0
 18 39  1  0  0  0  0
 19 20  1  0  0  0  0
 19 40  1  0  0  0  0
 19 41  1  0  0  0  0
 20 42  1  0  0  0  0
 20 43  1  0  0  0  0
M  CHG  1  12   1
M  END
> <s_m_source_file>
AV-unprocessed.smi

> <i_m_source_file_index>
2639

> <i_lp_mmshare_version>
43012

> <i_f3d_flags>
0

> <s_epik_input>
W0NIMl0xW0NIMl1bQ0gyXVtDSDJdW0NIMl1bQ0hdMVtDQF0oW0NIM10pKFtDSDJdW09IXSlbTkhdQyg9TylbTkhdYzJbY0hdW2NIXW5bY0hdW2NIXTI=

> <s_epik_cmdline>
J2VwaWtfcHl0aG9uJywgJy1waCcsICc3LjAnLCAnLXRuJywgJzgnLCAnLW1hJywgJzIwMCcsICctbWV0YWxfYmluZGluZycsICctaW1hZScsICc8aW5maWxlLm1hZT4nLCAnLW9tYWUnLCAnPG91dGZpbGUubWFlPic=

> <r_epik_Ionization_Penalty>
1.0096

> <r_epik_Ionization_Penalty_Charging>
1.00958

> <r_epik_Ionization_Penalty_Neutral>
2.00022e-05

> <r_epik_State_Penalty>
1.05889

> <r_epik_Charging_Adjusted_Penalty>
2.06847

> <i_epik_Tot_Q>
1

> <i_epik_Tot_abs_Q>
1

> <r_epik_Metal_State_Penalty>
1.15945

> <b_epik_Metal_Only>
0

> <s_lp_Force_Field>
OPLS_2005

> <r_lp_Energy>
30.6605

> <b_lp_Chiralities_Consistent>
1

> <s_lp_Variant>
AV-unprocessed.smi:2639-3

> <Gold.Version>
5.8.1

> <Gold.Id.Protein>
6NUR|6NUR_protein|mol2

> <Gold.PLP.Fitness>
46.4696

> <Gold.PLP.PLP>
-33.2912

> <Gold.PLP.part.hbond>
-5.3408

> <Gold.PLP.part.metal>
0.0000

> <Gold.PLP.part.buried>
-1.0155

> <Gold.PLP.part.nonpolar>
-30.3383

> <Gold.PLP.part.repulsive>
2.1810

> <Gold.PLP.ligand.clash>
0.0000

> <Gold.PLP.ligand.torsion>
0.9346

> <Gold.PLP.Chemscore.Hbond>
5.0000

> <Gold.PLP.Chemscore.CHOScore>
0.0000

> <Gold.PLP.Chemscore.Metal>
0.0000

> <Gold.Chemscore.Hbonds>
donor molecule, donor type, donor heavy atom, donor atom, acceptor molecule, acceptor atom, score
      L1  H     4    26       P1  7921  0.99
      L1  H     5    27       P1  7948  1.00
      L1  H     8    28       P1  7948  1.00
      L1  H    12    44       P1  8028  2.00

> <Gold.PLP.Chemscore.Internal.Correction>
0.0476

> <Gold.Rescore>
     Score         DG    S(hbond)    S(metal)    S(lipo)     H(rot)  DE(clash)    DE(int)     intcor
     17.35     -23.59       3.93        0.00      86.78       2.02       2.73       3.51       ----

> <Gold.Chemscore.Fitness>
17.3471

> <Gold.Chemscore.DG>
-23.5893

> <Gold.Chemscore.ZeroCoef>
-5.4800

> <Gold.Chemscore.Hbond>
3.9276

> <Gold.Chemscore.Metal>
0.0000

> <Gold.Chemscore.Lipo>
86.7795

> <Gold.Chemscore.Internal_Hbond>
0.0000

> <Gold.Chemscore.DEClash>
2.7317

> <Gold.Chemscore.DEInternal>
3.5105

> <Gold.Chemscore.Rot>
2.0165

> <Gold.Chemscore.Internal.Correction>
   9.000000E+99

> <Gold.Chemscore.Hbonds>
donor molecule, donor type, donor heavy atom, donor atom, acceptor molecule, acceptor atom, score
      L1  H     4    26       P1  7921  0.94
      L1  H     5    27       P1  7948  0.99
      L1  H     8    28       P1  7948  0.97
      L1  H    12    44       P1  8028  1.00

> <Gold.Chemscore.Hbond.Weighted>
-13.1183

> <Gold.Chemscore.Metal.Weighted>
-0.0000

> <Gold.Chemscore.Lipo.Weighted>
-10.1532

> <Gold.Chemscore.Internal_Hbond.Weighted>
0.0000

> <Gold.Chemscore.DEClash.Weighted>
2.7317

> <Gold.Chemscore.DEInternal.Weighted>
3.5105

> <Gold.Chemscore.Rot.Weighted>
5.1622

> <Gold.Chemscore.Internal.Correction.Weighted>
   9.000000E+99

> <Gold.Protein.RotatedTorsions>
[ 6907 6896 6895 6894 ] final   -5.90 input  -60.11 | X-H torsion
[ 7974 7965 7964 7962 ] final -154.90 input  175.53 | X-H torsion
[ 8008 7997 7996 7995 ] final   66.46 input   59.86 | X-H torsion
[ 10167 10162 10161 10158 ] final  -89.85 input  -65.29 | X-H torsion
[ 10718 10713 10712 10709 ] final  177.93 input   66.30 | X-H torsion
[ 10763 10752 10751 10750 ] final   11.25 input  -60.55 | X-H torsion
[ 11005 11000 10999 10996 ] final  123.09 input  -57.11 | X-H torsion

> <Gold.Protein.ActiveResidues>
 VAL166  LYS551  ARG553  GLY616  TRP617  ASP618  TYR619  PRO620  LYS621  CYS622 
 ASP623  PHE694  ASN695  SER759  ASP760  ASP761  ALA762  ILE779  LEU786  VAL792 
 PHE793  MET794  SER795  GLU796  ALA797  LYS798  CYS799  TRP800  GLU811  SER814 

> <Gold.Protein.RotatedAtoms>
  151.4742  135.1048  159.9759 H   0  0  0  0  0  0  0  0  0  0  0  0  # atno 6907 bound_to 6896
  152.4804  133.8237  159.7078 H   0  0  0  0  0  0  0  0  0  0  0  0  # atno 6908 bound_to 6896
  150.8872  133.7230  159.2941 H   0  0  0  0  0  0  0  0  0  0  0  0  # atno 6909 bound_to 6896
  144.7666  140.4323  143.5937 H   0  0  0  0  0  0  0  0  0  0  0  0  # atno 7974 bound_to 7965
  155.6777  140.3496  155.4843 H   0  0  0  0  0  0  0  0  0  0  0  0  # atno 8008 bound_to 7997
  155.9633  140.1141  157.0899 H   0  0  0  0  0  0  0  0  0  0  0  0  # atno 8009 bound_to 7997
  154.4148  140.1171  156.5195 H   0  0  0  0  0  0  0  0  0  0  0  0  # atno 8010 bound_to 7997
  140.3608  143.2843  151.9617 H   0  0  0  0  0  0  0  0  0  0  0  0  # atno 10167 bound_to 10162
  156.8981  130.9869  151.3040 H   0  0  0  0  0  0  0  0  0  0  0  0  # atno 10718 bound_to 10713
  153.1946  135.6847  153.8309 H   0  0  0  0  0  0  0  0  0  0  0  0  # atno 10763 bound_to 10752
  153.7596  135.3212  155.3336 H   0  0  0  0  0  0  0  0  0  0  0  0  # atno 10764 bound_to 10752
  154.8137  135.4700  154.0684 H   0  0  0  0  0  0  0  0  0  0  0  0  # atno 10765 bound_to 10752
  139.9297  134.9641  156.8207 H   0  0  0  0  0  0  0  0  0  0  0  0  # atno 11005 bound_to 11000
  145.6451  139.1556  143.2893 LP  0  0  0  0  0  0  0  0  0  0  0  0  # atno 17320 bound_to 7965
  146.1779  140.6544  142.9203 LP  0  0  0  0  0  0  0  0  0  0  0  0  # atno 17321 bound_to 7965
  139.4814  144.5994  151.7632 LP  0  0  0  0  0  0  0  0  0  0  0  0  # atno 17342 bound_to 10162
  140.5129  144.0997  150.6000 LP  0  0  0  0  0  0  0  0  0  0  0  0  # atno 17343 bound_to 10162
  157.6043  130.8535  149.8851 LP  0  0  0  0  0  0  0  0  0  0  0  0  # atno 17370 bound_to 10713
  156.0596  130.3702  150.1013 LP  0  0  0  0  0  0  0  0  0  0  0  0  # atno 17371 bound_to 10713
  140.6236  133.9970  155.7630 LP  0  0  0  0  0  0  0  0  0  0  0  0  # atno 17394 bound_to 11000
  141.0878  133.9964  157.3286 LP  0  0  0  0  0  0  0  0  0  0  0  0  # atno 17395 bound_to 11000

$$$$
