#       Name:                AV-unprocessed.smi:3143
#       Creating user name   scv26
#       Creation time:       Fri Mar 27 17:37:25 2020


#       File generated by GOLD software.
#

@<TRIPOS>MOLECULE
AV-unprocessed.smi:3143
    41    42     1
SMALL
NO_CHARGES


@<TRIPOS>ATOM
      1 ****        -0.7562  -1.1367  -2.8588 C.3            1 S1                 0.0000
      2 ****        -0.3756  -0.5678  -1.4827 C.3            1 S1                 0.0000
      3 ****         1.0862  -0.6996  -1.2818 N.4            1 S1                 1.0000
      4 ****         1.6532   0.1694  -0.2288 C.3            1 S1                 0.0000
      5 ****         3.1686  -0.0431  -0.0984 C.3            1 S1                 0.0000
      6 ****         3.7560   0.8333   0.8973 N.pl3          1 S1                 0.0000
      7 ****         4.6690   1.8507   0.7136 C.2            1 S1                 0.0000
      8 ****         4.9361   2.3835   1.9422 C.2            1 S1                 0.0000
      9 ****         4.1342   1.6106   2.8278 C.2            1 S1                 0.0000
     10 ****         3.4318   0.6812   2.1996 N.2            1 S1                 0.0000
     11 ****        -1.1669  -1.2936  -0.3758 C.2            1 S1                 0.0000
     12 ****        -0.7015  -2.3286   0.1040 O.2            1 S1                 0.0000
     13 ****        -2.3520  -0.7892   0.0306 N.am           1 S1                 0.0000
     14 ****        -3.1671  -1.4056   1.0765 C.3            1 S1                 0.0000
     15 ****        -4.2610  -0.3898   1.4050 C.3            1 S1                 0.0000
     16 ****        -4.4042   0.4250   0.1278 C.3            1 S1                 0.0000
     17 ****        -3.0001   0.4206  -0.4769 C.3            1 S1                 0.0000
     18 ****        -1.8257  -1.0424  -3.0501 H              1 S1                 0.0000
     19 ****        -0.4979  -2.1934  -2.9412 H              1 S1                 0.0000
     20 ****        -0.2366  -0.6068  -3.6575 H              1 S1                 0.0000
     21 ****        -0.6044   0.4979  -1.4810 H              1 S1                 0.0000
     22 ****         1.2914  -1.6641  -1.0611 H              1 S1                 0.0000
     23 ****         1.4441   1.2117  -0.4732 H              1 S1                 0.0000
     24 ****         1.1632  -0.0426   0.7222 H              1 S1                 0.0000
     25 ****         3.3884  -1.0752   0.1784 H              1 S1                 0.0000
     26 ****         3.6603   0.1412  -1.0546 H              1 S1                 0.0000
     27 ****         5.0485   2.1096  -0.2641 H              1 S1                 0.0000
     28 ****         5.6049   3.1993   2.1737 H              1 S1                 0.0000
     29 ****         4.0435   1.6958   3.9007 H              1 S1                 0.0000
     30 ****        -3.6050  -2.3265   0.6888 H              1 S1                 0.0000
     31 ****        -2.5814  -1.6556   1.9625 H              1 S1                 0.0000
     32 ****        -5.1950  -0.8589   1.7160 H              1 S1                 0.0000
     33 ****        -3.9262   0.2587   2.2158 H              1 S1                 0.0000
     34 ****        -5.0963  -0.0774  -0.5494 H              1 S1                 0.0000
     35 ****        -4.7844   1.4311   0.3074 H              1 S1                 0.0000
     36 ****        -2.4404   1.2933  -0.1370 H              1 S1                 0.0000
     37 ****        -3.0459   0.4453  -1.5661 H              1 S1                 0.0000
     38 ****         1.5433  -0.4630  -2.1506 H              1 S1                 0.0000
     39 ****         2.8020   0.0154   2.5996 LP             1 S1                 0.0000
     40 ****         0.1738  -2.6828  -0.2253 LP             1 S1                 0.0000
     41 ****        -1.1990  -2.8143   0.8227 LP             1 S1                 0.0000
@<TRIPOS>BOND
    1    1    2 1     
    2    1   18 1     
    3    1   19 1     
    4    1   20 1     
    5    2    3 1     
    6    2   11 1     
    7    2   21 1     
    8    3    4 1     
    9    3   22 1     
   10    3   38 1     
   11    4    5 1     
   12    4   23 1     
   13    4   24 1     
   14    5    6 1     
   15    5   25 1     
   16    5   26 1     
   17    6   10 1     
   18    6    7 1     
   19    7    8 2     
   20    7   27 1     
   21    8    9 1     
   22    8   28 1     
   23    9   10 2     
   24    9   29 1     
   25   11   12 2     
   26   11   13 am    
   27   13   17 1     
   28   13   14 1     
   29   14   15 1     
   30   14   30 1     
   31   14   31 1     
   32   15   16 1     
   33   15   32 1     
   34   15   33 1     
   35   16   17 1     
   36   16   34 1     
   37   16   35 1     
   38   17   36 1     
   39   17   37 1     
   40   10   39 1     
   41   12   40 1     
   42   12   41 1     
@<TRIPOS>SUBSTRUCTURE
      1 S1             1
@<TRIPOS>SET
LONE_PAIRS      STATIC     ATOMS    <user>   **** ""
3 39 40 41
DONOR_HYDROGENS      STATIC     ATOMS    <user>   **** ""
2 22 38
ATOM$BLUE        STATIC     ATOMS    COLORGROUP SYSTEM
3 39 40 41
ATOM$RED        STATIC     ATOMS    COLORGROUP SYSTEM
2 22 38
