AV-unprocessed.smi:102|AV-procd|sdf|963|dock9
  -GOLD-   2262017503D 1   1.00000     0.00000
 Structure written by MMmdl.
 43 44  0  0  0  0  0  0  0  0  2 V2000
  154.9194  139.7661  162.6588 C   0  0  0  0  0  0  0  0  0  0  0  0
  154.0905  140.4077  161.5541 C   0  0  0  0  0  0  0  0  0  0  0  0
  153.6335  141.5450  161.6690 O   0  0  0  0  0  0  0  0  0  0  0  0
  153.9343  139.5967  160.4987 O   0  0  0  0  0  0  0  0  0  0  0  0
  153.5655  140.1358  159.2388 C   0  0  0  0  0  0  0  0  0  0  0  0
  152.1127  140.6398  159.2591 C   0  0  2  0  0  0  0  0  0  0  0  0
  151.2138  139.5317  159.2713 O   0  0  0  0  0  0  0  0  0  0  0  0
  150.3951  139.5489  158.1378 C   0  0  2  0  0  0  0  0  0  0  0  0
  150.3177  138.1574  157.5534 N   0  0  0  0  0  0  0  0  0  0  0  0
  150.6043  137.9313  156.2179 C   0  0  0  0  0  0  0  0  0  0  0  0
  150.5006  136.7001  155.6782 C   0  0  0  0  0  0  0  0  0  0  0  0
  150.7838  136.5142  154.3774 F   0  0  0  0  0  0  0  0  0  0  0  0
  150.0782  135.5779  156.5138 C   0  0  0  0  0  0  0  0  0  0  0  0
  149.9850  134.4568  156.0164 O   0  0  0  0  0  0  0  0  0  0  0  0
  149.8020  135.8294  157.8263 N   0  5  0  0  0  0  0  0  0  0  0  0
  149.9005  137.0756  158.3758 C   0  0  0  0  0  0  0  0  0  0  0  0
  149.6397  137.3114  159.5554 O   0  0  0  0  0  0  0  0  0  0  0  0
  151.0243  140.5176  157.1356 C   0  0  1  0  0  0  0  0  0  0  0  0
  150.0388  141.1156  156.3032 O   0  0  0  0  0  0  0  0  0  0  0  0
  149.9904  140.8177  154.9959 C   0  0  0  0  0  0  0  0  0  0  0  0
  148.8514  141.5324  154.2818 C   0  0  0  0  0  0  0  0  0  0  0  0
  150.7563  140.0642  154.3946 O   0  0  0  0  0  0  0  0  0  0  0  0
  151.7300  141.5078  158.0512 C   0  0  1  0  0  0  0  0  0  0  0  0
  150.8343  142.5366  158.4652 O   0  0  0  0  0  0  0  0  0  0  0  0
  151.2873  143.5928  159.1621 C   0  0  0  0  0  0  0  0  0  0  0  0
  150.1589  144.4927  159.6478 C   0  0  0  0  0  0  0  0  0  0  0  0
  152.4657  143.8454  159.4129 O   0  0  0  0  0  0  0  0  0  0  0  0
  154.6076  138.7333  162.8179 H   0  0  0  0  0  0  0  0  0  0  0  0
  154.7941  140.3114  163.5946 H   0  0  0  0  0  0  0  0  0  0  0  0
  155.9763  139.7730  162.3914 H   0  0  0  0  0  0  0  0  0  0  0  0
  154.2320  140.9554  158.9663 H   0  0  0  0  0  0  0  0  0  0  0  0
  153.6776  139.3610  158.4794 H   0  0  0  0  0  0  0  0  0  0  0  0
  151.9721  141.1935  160.1882 H   0  0  0  0  0  0  0  0  0  0  0  0
  149.3875  139.8276  158.4512 H   0  0  0  0  0  0  0  0  0  0  0  0
  150.9180  138.7455  155.5842 H   0  0  0  0  0  0  0  0  0  0  0  0
  151.7593  139.9634  156.5495 H   0  0  0  0  0  0  0  0  0  0  0  0
  147.8993  141.2926  154.7559 H   0  0  0  0  0  0  0  0  0  0  0  0
  148.8029  141.2281  153.2360 H   0  0  0  0  0  0  0  0  0  0  0  0
  148.9974  142.6119  154.3227 H   0  0  0  0  0  0  0  0  0  0  0  0
  152.6004  141.9386  157.5535 H   0  0  0  0  0  0  0  0  0  0  0  0
  149.5272  144.7918  158.8114 H   0  0  0  0  0  0  0  0  0  0  0  0
  150.5597  145.3911  160.1176 H   0  0  0  0  0  0  0  0  0  0  0  0
  149.5431  143.9662  160.3771 H   0  0  0  0  0  0  0  0  0  0  0  0
  1  2  1  0  0  0  0
  1 28  1  0  0  0  0
  1 29  1  0  0  0  0
  1 30  1  0  0  0  0
  2  3  2  0  0  0  0
  2  4  1  0  0  0  0
  4  5  1  0  0  0  0
  5  6  1  0  0  0  0
  5 31  1  0  0  0  0
  5 32  1  0  0  0  0
  6 23  1  0  0  0  0
  6  7  1  0  0  0  0
  6 33  1  0  0  0  0
  7  8  1  0  0  0  0
  8  9  1  0  0  0  0
  8 18  1  0  0  0  0
  8 34  1  0  0  0  0
  9 16  1  0  0  0  0
  9 10  1  0  0  0  0
 10 11  2  0  0  0  0
 10 35  1  0  0  0  0
 11 12  1  0  0  0  0
 11 13  1  0  0  0  0
 13 14  2  0  0  0  0
 13 15  1  0  0  0  0
 15 16  1  0  0  0  0
 16 17  2  0  0  0  0
 18 19  1  0  0  0  0
 18 23  1  0  0  0  0
 18 36  1  0  0  0  0
 19 20  1  0  0  0  0
 20 21  1  0  0  0  0
 20 22  2  0  0  0  0
 21 37  1  0  0  0  0
 21 38  1  0  0  0  0
 21 39  1  0  0  0  0
 23 24  1  0  0  0  0
 23 40  1  0  0  0  0
 24 25  1  0  0  0  0
 25 26  1  0  0  0  0
 25 27  2  0  0  0  0
 26 41  1  0  0  0  0
 26 42  1  0  0  0  0
 26 43  1  0  0  0  0
M  CHG  1  15  -1
M  END
> <s_m_source_file>
AV-unprocessed.smi

> <i_m_source_file_index>
102

> <i_lp_mmshare_version>
43012

> <i_f3d_flags>
0

> <s_epik_input>
W0NIM11DKD1PKU9bQ0gyXVtDQEBIXTFPW0NASF0oW0NAQEhdKE9DKD1PKVtDSDNdKVtDQEhdMU9DKD1PKVtDSDNdKW4yW2NIXWMoRiljKD1PKVtuSF1jMj1P

> <s_epik_cmdline>
J2VwaWtfcHl0aG9uJywgJy1waCcsICc3LjAnLCAnLXRuJywgJzgnLCAnLW1hJywgJzIwMCcsICctbWV0YWxfYmluZGluZycsICctaW1hZScsICc8aW5maWxlLm1hZT4nLCAnLW9tYWUnLCAnPG91dGZpbGUubWFlPic=

> <r_epik_Ionization_Penalty>
1.40304

> <r_epik_Ionization_Penalty_Charging>
1.43915e-08

> <r_epik_Ionization_Penalty_Neutral>
1.40304

> <r_epik_State_Penalty>
1.48536

> <r_epik_Charging_Adjusted_Penalty>
1.48536

> <i_epik_Tot_Q>
-1

> <i_epik_Tot_abs_Q>
1

> <r_epik_Metal_State_Penalty>
0.00663881

> <b_epik_Metal_Only>
0

> <s_epik_Chemistry_Notes>
This compound has an ester and may undergo hydrolysis at high or low pH. This compound contains an acetal/aminal-like group ( X-CH(R)-Y where X, Y are N, S, or O) that may be acid/base labile, releasing an aldehyde.

> <s_lp_Force_Field>
OPLS_2005

> <r_lp_Energy>
27.0192

> <b_lp_Chiralities_Consistent>
1

> <s_lp_Variant>
AV-unprocessed.smi:102-19

> <Gold.Version>
5.8.1

> <Gold.Id.Protein>
6NUR|6NUR_protein|mol2

> <Gold.PLP.Fitness>
43.3673

> <Gold.PLP.PLP>
-36.6619

> <Gold.PLP.part.hbond>
-3.7401

> <Gold.PLP.part.metal>
0.0000

> <Gold.PLP.part.buried>
-5.7195

> <Gold.PLP.part.nonpolar>
-27.3222

> <Gold.PLP.part.repulsive>
0.2318

> <Gold.PLP.ligand.clash>
0.0000

> <Gold.PLP.ligand.torsion>
1.2739

> <Gold.PLP.Chemscore.Hbond>
3.0491

> <Gold.PLP.Chemscore.CHOScore>
0.0000

> <Gold.PLP.Chemscore.Metal>
0.0000

> <Gold.Chemscore.Hbonds>
donor molecule, donor type, donor heavy atom, donor atom, acceptor molecule, acceptor atom, score
      P1  H  6896  6909       L1    15  0.55
      P1  H  7989  7998       L1    22  0.89

> <Gold.PLP.Chemscore.Internal.Correction>
0.1059

> <Gold.Rescore>
     Score         DG    S(hbond)    S(metal)    S(lipo)     H(rot)  DE(clash)    DE(int)     intcor
      3.91      -7.81       1.78        0.00      56.50       4.00       0.02       3.88       ----

> <Gold.Chemscore.Fitness>
3.9145

> <Gold.Chemscore.DG>
-7.8144

> <Gold.Chemscore.ZeroCoef>
-5.4800

> <Gold.Chemscore.Hbond>
1.7817

> <Gold.Chemscore.Metal>
0.0000

> <Gold.Chemscore.Lipo>
56.5034

> <Gold.Chemscore.Internal_Hbond>
0.0000

> <Gold.Chemscore.DEClash>
0.0210

> <Gold.Chemscore.DEInternal>
3.8789

> <Gold.Chemscore.Rot>
3.9951

> <Gold.Chemscore.Internal.Correction>
   9.000000E+99

> <Gold.Chemscore.Hbonds>
donor molecule, donor type, donor heavy atom, donor atom, acceptor molecule, acceptor atom, score
      P1  H  6896  6909       L1    15  0.05
      P1  H  7989  7998       L1    22  0.61

> <Gold.Chemscore.Hbond.Weighted>
-5.9509

> <Gold.Chemscore.Metal.Weighted>
-0.0000

> <Gold.Chemscore.Lipo.Weighted>
-6.6109

> <Gold.Chemscore.Internal_Hbond.Weighted>
0.0000

> <Gold.Chemscore.DEClash.Weighted>
0.0210

> <Gold.Chemscore.DEInternal.Weighted>
3.8789

> <Gold.Chemscore.Rot.Weighted>
10.2274

> <Gold.Chemscore.Internal.Correction.Weighted>
   9.000000E+99

> <Gold.Protein.RotatedTorsions>
[ 6907 6896 6895 6894 ] final   56.29 input  -60.11 | X-H torsion
[ 7974 7965 7964 7962 ] final   48.11 input  175.53 | X-H torsion
[ 8008 7997 7996 7995 ] final  107.55 input   59.86 | X-H torsion
[ 10167 10162 10161 10158 ] final  -97.54 input  -65.29 | X-H torsion
[ 10718 10713 10712 10709 ] final  -56.81 input   66.30 | X-H torsion
[ 10763 10752 10751 10750 ] final  -56.89 input  -60.55 | X-H torsion
[ 11005 11000 10999 10996 ] final  -28.23 input  -57.11 | X-H torsion

> <Gold.Protein.ActiveResidues>
 VAL166  LYS551  ARG553  GLY616  TRP617  ASP618  TYR619  PRO620  LYS621  CYS622 
 ASP623  PHE694  ASN695  SER759  ASP760  ASP761  ALA762  ILE779  LEU786  VAL792 
 PHE793  MET794  SER795  GLU796  ALA797  LYS798  CYS799  TRP800  GLU811  SER814 

> <Gold.Protein.RotatedAtoms>
  152.3621  134.6857  160.0203 H   0  0  0  0  0  0  0  0  0  0  0  0  # atno 6907 bound_to 6896
  151.7176  133.3308  159.3315 H   0  0  0  0  0  0  0  0  0  0  0  0  # atno 6908 bound_to 6896
  150.7612  134.6411  159.6282 H   0  0  0  0  0  0  0  0  0  0  0  0  # atno 6909 bound_to 6896
  146.0234  139.4678  142.9882 H   0  0  0  0  0  0  0  0  0  0  0  0  # atno 7974 bound_to 7965
  156.1833  140.3093  155.9190 H   0  0  0  0  0  0  0  0  0  0  0  0  # atno 8008 bound_to 7997
  155.3336  140.0462  157.3060 H   0  0  0  0  0  0  0  0  0  0  0  0  # atno 8009 bound_to 7997
  154.5367  140.2248  155.8720 H   0  0  0  0  0  0  0  0  0  0  0  0  # atno 8010 bound_to 7997
  140.2823  143.3274  152.0428 H   0  0  0  0  0  0  0  0  0  0  0  0  # atno 10167 bound_to 10162
  156.1259  130.4162  150.0355 H   0  0  0  0  0  0  0  0  0  0  0  0  # atno 10718 bound_to 10713
  154.2138  135.6390  153.5123 H   0  0  0  0  0  0  0  0  0  0  0  0  # atno 10763 bound_to 10752
  152.9984  135.5480  154.6186 H   0  0  0  0  0  0  0  0  0  0  0  0  # atno 10764 bound_to 10752
  154.5630  135.2910  155.0875 H   0  0  0  0  0  0  0  0  0  0  0  0  # atno 10765 bound_to 10752
  140.9190  133.7411  156.0775 H   0  0  0  0  0  0  0  0  0  0  0  0  # atno 11005 bound_to 11000
  145.7156  141.0092  143.1430 LP  0  0  0  0  0  0  0  0  0  0  0  0  # atno 17320 bound_to 7965
  144.6999  139.8809  143.7447 LP  0  0  0  0  0  0  0  0  0  0  0  0  # atno 17321 bound_to 7965
  139.4959  144.6583  151.6523 LP  0  0  0  0  0  0  0  0  0  0  0  0  # atno 17342 bound_to 10162
  140.5801  143.9961  150.6263 LP  0  0  0  0  0  0  0  0  0  0  0  0  # atno 17343 bound_to 10162
  156.8281  130.9382  151.3638 LP  0  0  0  0  0  0  0  0  0  0  0  0  # atno 17370 bound_to 10713
  157.6441  130.8829  149.9504 LP  0  0  0  0  0  0  0  0  0  0  0  0  # atno 17371 bound_to 10713
  140.8012  134.3506  157.5439 LP  0  0  0  0  0  0  0  0  0  0  0  0  # atno 17394 bound_to 11000
  139.8771  134.9199  156.3238 LP  0  0  0  0  0  0  0  0  0  0  0  0  # atno 17395 bound_to 11000

$$$$
