AV-unprocessed.smi:2889|AV-procd|sdf|11111|dock7
  -GOLD-   2272015573D 1   1.00000     0.00000
 Structure written by MMmdl.
 36 37  0  0  0  0  0  0  0  0  1 V2000
  152.4659  139.1698  159.1158 C   0  0  0  0  0  0  0  0  0  0  0  0
  152.2169  140.3987  157.8053 S   0  0  0  0  0  0  0  0  0  0  0  0
  151.6993  141.8535  158.7720 C   0  0  1  0  0  0  0  0  0  0  0  0
  152.8135  142.2311  159.7663 C   0  0  0  0  0  0  0  0  0  0  0  0
  152.4547  143.4808  160.5843 C   0  0  0  0  0  0  0  0  0  0  0  0
  152.1387  144.6677  159.6638 C   0  0  0  0  0  0  0  0  0  0  0  0
  151.0139  144.3154  158.6802 C   0  0  0  0  0  0  0  0  0  0  0  0
  151.3494  143.0544  157.8606 C   0  0  2  0  0  0  0  0  0  0  0  0
  150.2074  142.7290  157.0041 N   0  0  0  0  0  0  0  0  0  0  0  0
  148.9198  141.7863  157.6588 S   0  0  0  0  0  0  0  0  0  0  0  0
  149.4585  140.4573  157.9886 O   0  0  0  0  0  0  0  0  0  0  0  0
  148.2751  142.6059  158.6959 O   0  0  0  0  0  0  0  0  0  0  0  0
  147.7760  141.6346  156.2192 C   0  0  0  0  0  0  0  0  0  0  0  0
  148.1091  140.4045  155.4209 C   0  0  0  0  0  0  0  0  0  0  0  0
  148.5028  140.3139  154.0567 C   0  0  0  0  0  0  0  0  0  0  0  0
  148.6775  138.9741  153.8631 C   0  0  0  0  0  0  0  0  0  0  0  0
  148.4091  138.2906  155.0038 O   0  0  0  0  0  0  0  0  0  0  0  0
  148.0454  139.2122  155.9922 N   0  0  0  0  0  0  0  0  0  0  0  0
  152.8268  138.2360  158.6850 H   0  0  0  0  0  0  0  0  0  0  0  0
  151.5348  138.9637  159.6421 H   0  0  0  0  0  0  0  0  0  0  0  0
  153.2037  139.5234  159.8360 H   0  0  0  0  0  0  0  0  0  0  0  0
  150.8183  141.5752  159.3522 H   0  0  0  0  0  0  0  0  0  0  0  0
  153.0081  141.3969  160.4410 H   0  0  0  0  0  0  0  0  0  0  0  0
  153.7430  142.4112  159.2242 H   0  0  0  0  0  0  0  0  0  0  0  0
  151.5945  143.2691  161.2204 H   0  0  0  0  0  0  0  0  0  0  0  0
  153.2781  143.7370  161.2515 H   0  0  0  0  0  0  0  0  0  0  0  0
  151.8544  145.5357  160.2595 H   0  0  0  0  0  0  0  0  0  0  0  0
  153.0341  144.9518  159.1096 H   0  0  0  0  0  0  0  0  0  0  0  0
  150.0878  144.1585  159.2353 H   0  0  0  0  0  0  0  0  0  0  0  0
  150.8327  145.1592  158.0131 H   0  0  0  0  0  0  0  0  0  0  0  0
  152.2141  143.2658  157.2295 H   0  0  0  0  0  0  0  0  0  0  0  0
  149.8487  143.5668  156.5470 H   0  0  0  0  0  0  0  0  0  0  0  0
  146.7592  141.5802  156.6091 H   0  0  0  0  0  0  0  0  0  0  0  0
  147.8473  142.5388  155.6154 H   0  0  0  0  0  0  0  0  0  0  0  0
  148.6417  141.1069  153.3371 H   0  0  0  0  0  0  0  0  0  0  0  0
  148.9745  138.3792  153.0119 H   0  0  0  0  0  0  0  0  0  0  0  0
  1  2  1  0  0  0  0
  1 19  1  0  0  0  0
  1 20  1  0  0  0  0
  1 21  1  0  0  0  0
  2  3  1  0  0  0  0
  3  8  1  0  0  0  0
  3  4  1  0  0  0  0
  3 22  1  0  0  0  0
  4  5  1  0  0  0  0
  4 23  1  0  0  0  0
  4 24  1  0  0  0  0
  5  6  1  0  0  0  0
  5 25  1  0  0  0  0
  5 26  1  0  0  0  0
  6  7  1  0  0  0  0
  6 27  1  0  0  0  0
  6 28  1  0  0  0  0
  7  8  1  0  0  0  0
  7 29  1  0  0  0  0
  7 30  1  0  0  0  0
  8  9  1  0  0  0  0
  8 31  1  0  0  0  0
  9 10  1  0  0  0  0
  9 32  1  0  0  0  0
 10 11  2  0  0  0  0
 10 12  2  0  0  0  0
 10 13  1  0  0  0  0
 13 14  1  0  0  0  0
 13 33  1  0  0  0  0
 13 34  1  0  0  0  0
 14 18  2  0  0  0  0
 14 15  1  0  0  0  0
 15 16  2  0  0  0  0
 15 35  1  0  0  0  0
 16 17  1  0  0  0  0
 16 36  1  0  0  0  0
 17 18  1  0  0  0  0
M  END
> <s_m_source_file>
AV-unprocessed.smi

> <i_m_source_file_index>
2889

> <i_lp_mmshare_version>
43012

> <i_f3d_flags>
0

> <s_epik_input>
W0NIM11TW0NAQEhdMVtDSDJdW0NIMl1bQ0gyXVtDSDJdW0NASF0xW05IXVMoPU8pKD1PKVtDSDJdYzJbY0hdW2NIXW9uMg==

> <s_epik_cmdline>
J2VwaWtfcHl0aG9uJywgJy1waCcsICc3LjAnLCAnLXRuJywgJzgnLCAnLW1hJywgJzIwMCcsICctbWV0YWxfYmluZGluZycsICctaW1hZScsICc8aW5maWxlLm1hZT4nLCAnLW9tYWUnLCAnPG91dGZpbGUubWFlPic=

> <r_lp_tautomer_probability>
1

> <r_epik_Ionization_Penalty>
0.000229547

> <r_epik_Ionization_Penalty_Charging>
0

> <r_epik_Ionization_Penalty_Neutral>
0.000229547

> <r_epik_State_Penalty>
-0

> <r_epik_Charging_Adjusted_Penalty>
0

> <i_epik_Tot_Q>
0

> <i_epik_Tot_abs_Q>
0

> <r_epik_Metal_State_Penalty>
0.145979

> <b_epik_Metal_Only>
0

> <s_lp_Force_Field>
OPLS_2005

> <r_lp_Energy>
3.91212

> <b_lp_Chiralities_Consistent>
1

> <s_lp_Variant>
AV-unprocessed.smi:2889-4

> <Gold.Version>
5.8.1

> <Gold.Id.Protein>
6NUR|6NUR_protein|mol2

> <Gold.PLP.Fitness>
37.8277

> <Gold.PLP.PLP>
-31.3259

> <Gold.PLP.part.hbond>
-1.6639

> <Gold.PLP.part.metal>
0.0000

> <Gold.PLP.part.buried>
-3.8062

> <Gold.PLP.part.nonpolar>
-25.8866

> <Gold.PLP.part.repulsive>
0.2095

> <Gold.PLP.ligand.clash>
0.0000

> <Gold.PLP.ligand.torsion>
0.8020

> <Gold.PLP.Chemscore.Hbond>
1.0000

> <Gold.PLP.Chemscore.CHOScore>
1.6471

> <Gold.PLP.Chemscore.Metal>
0.0000

> <Gold.Chemscore.Hbonds>
donor molecule, donor type, donor heavy atom, donor atom, acceptor molecule, acceptor atom, score
      L1  H     9    32       P1  8028  1.00
      L1  C    16    36       P1  7948  1.00
      L1  C    16    36       P1  7957  0.52

> <Gold.PLP.Chemscore.Internal.Correction>
0.1643

> <Gold.Rescore>
     Score         DG    S(hbond)    S(metal)    S(lipo)     H(rot)  DE(clash)    DE(int)     intcor
     10.85     -15.37       1.00        0.00      95.49       1.81       0.12       4.40       ----

> <Gold.Chemscore.Fitness>
10.8459

> <Gold.Chemscore.DG>
-15.3656

> <Gold.Chemscore.ZeroCoef>
-5.4800

> <Gold.Chemscore.Hbond>
0.9988

> <Gold.Chemscore.Metal>
0.0000

> <Gold.Chemscore.Lipo>
95.4918

> <Gold.Chemscore.Internal_Hbond>
0.0000

> <Gold.Chemscore.DEClash>
0.1219

> <Gold.Chemscore.DEInternal>
4.3978

> <Gold.Chemscore.Rot>
1.8058

> <Gold.Chemscore.Internal.Correction>
   9.000000E+99

> <Gold.Chemscore.Hbonds>
donor molecule, donor type, donor heavy atom, donor atom, acceptor molecule, acceptor atom, score
      L1  H     9    32       P1  8028  1.00

> <Gold.Chemscore.Hbond.Weighted>
-3.3359

> <Gold.Chemscore.Metal.Weighted>
-0.0000

> <Gold.Chemscore.Lipo.Weighted>
-11.1725

> <Gold.Chemscore.Internal_Hbond.Weighted>
0.0000

> <Gold.Chemscore.DEClash.Weighted>
0.1219

> <Gold.Chemscore.DEInternal.Weighted>
4.3978

> <Gold.Chemscore.Rot.Weighted>
4.6228

> <Gold.Chemscore.Internal.Correction.Weighted>
   9.000000E+99

> <Gold.Protein.RotatedTorsions>
[ 6907 6896 6895 6894 ] final  -27.14 input  -60.11 | X-H torsion
[ 7974 7965 7964 7962 ] final -113.48 input  175.53 | X-H torsion
[ 8008 7997 7996 7995 ] final -121.34 input   59.86 | X-H torsion
[ 10167 10162 10161 10158 ] final   51.91 input  -65.29 | X-H torsion
[ 10718 10713 10712 10709 ] final -125.92 input   66.30 | X-H torsion
[ 10763 10752 10751 10750 ] final   70.42 input  -60.55 | X-H torsion
[ 11005 11000 10999 10996 ] final  122.49 input  -57.11 | X-H torsion

> <Gold.Protein.ActiveResidues>
 VAL166  LYS551  ARG553  GLY616  TRP617  ASP618  TYR619  PRO620  LYS621  CYS622 
 ASP623  PHE694  ASN695  SER759  ASP760  ASP761  ALA762  ILE779  LEU786  VAL792 
 PHE793  MET794  SER795  GLU796  ALA797  LYS798  CYS799  TRP800  GLU811  SER814 

> <Gold.Protein.RotatedAtoms>
  151.1510  135.0227  159.8668 H   0  0  0  0  0  0  0  0  0  0  0  0  # atno 6907 bound_to 6896
  152.5452  134.1388  159.8480 H   0  0  0  0  0  0  0  0  0  0  0  0  # atno 6908 bound_to 6896
  151.1473  133.4885  159.2628 H   0  0  0  0  0  0  0  0  0  0  0  0  # atno 6909 bound_to 6896
  145.1315  140.8727  143.3755 H   0  0  0  0  0  0  0  0  0  0  0  0  # atno 7974 bound_to 7965
  155.1464  140.0403  157.2810 H   0  0  0  0  0  0  0  0  0  0  0  0  # atno 8008 bound_to 7997
  154.6436  140.2553  155.7267 H   0  0  0  0  0  0  0  0  0  0  0  0  # atno 8009 bound_to 7997
  156.2544  140.2850  156.0840 H   0  0  0  0  0  0  0  0  0  0  0  0  # atno 8010 bound_to 7997
  140.2570  144.3416  150.6330 H   0  0  0  0  0  0  0  0  0  0  0  0  # atno 10167 bound_to 10162
  156.1719  130.6673  151.0190 H   0  0  0  0  0  0  0  0  0  0  0  0  # atno 10718 bound_to 10713
  153.0341  135.5174  154.7438 H   0  0  0  0  0  0  0  0  0  0  0  0  # atno 10763 bound_to 10752
  154.6429  135.2915  155.0083 H   0  0  0  0  0  0  0  0  0  0  0  0  # atno 10764 bound_to 10752
  154.0995  135.6638  153.4918 H   0  0  0  0  0  0  0  0  0  0  0  0  # atno 10765 bound_to 10752
  139.9271  134.9641  156.8117 H   0  0  0  0  0  0  0  0  0  0  0  0  # atno 11005 bound_to 11000
  145.0630  139.3090  143.5871 LP  0  0  0  0  0  0  0  0  0  0  0  0  # atno 17320 bound_to 7965
  146.3513  140.0078  142.8670 LP  0  0  0  0  0  0  0  0  0  0  0  0  # atno 17321 bound_to 7965
  140.5996  143.2167  151.7098 LP  0  0  0  0  0  0  0  0  0  0  0  0  # atno 17342 bound_to 10162
  139.5028  144.3814  152.0372 LP  0  0  0  0  0  0  0  0  0  0  0  0  # atno 17343 bound_to 10162
  157.6808  131.0838  150.7374 LP  0  0  0  0  0  0  0  0  0  0  0  0  # atno 17370 bound_to 10713
  156.7433  130.4746  149.5473 LP  0  0  0  0  0  0  0  0  0  0  0  0  # atno 17371 bound_to 10713
  140.6307  133.9909  155.7660 LP  0  0  0  0  0  0  0  0  0  0  0  0  # atno 17394 bound_to 11000
  141.0835  134.0026  157.3349 LP  0  0  0  0  0  0  0  0  0  0  0  0  # atno 17395 bound_to 11000

$$$$
