AV-unprocessed.smi:141|AV-procd|sdf|1188|dock10
  -GOLD-   2262018343D 1   1.00000     0.00000
 Structure written by MMmdl.
 56 59  0  0  0  0  0  0  0  0  1 V2000
  151.2932  136.1321  154.5196 O   0  0  0  0  0  0  0  0  0  0  0  0
  150.3725  136.5029  155.2507 C   0  0  0  0  0  0  0  0  0  0  0  0
  149.4180  135.4457  155.8461 C   0  0  0  0  0  0  0  0  0  0  0  0
  149.6573  134.0757  155.3385 N   0  0  0  0  0  0  0  0  0  0  0  0
  148.8791  133.6080  154.2501 C   0  0  0  0  0  0  0  0  0  0  0  0
  148.0296  134.3245  153.7182 O   0  0  0  0  0  0  0  0  0  0  0  0
  149.1471  132.2383  153.8259 C   0  0  0  0  0  0  0  0  0  0  0  0
  148.4499  131.7092  152.8062 F   0  0  0  0  0  0  0  0  0  0  0  0
  150.0815  131.4892  154.4462 C   0  0  0  0  0  0  0  0  0  0  0  0
  150.8369  131.9601  155.5044 N   0  0  0  0  0  0  0  0  0  0  0  0
  151.8620  131.0852  156.1911 C   0  0  1  0  0  0  0  0  0  0  0  0
  151.7816  129.6527  155.6506 C   0  0  0  0  0  0  0  0  0  0  0  0
  152.8440  129.6664  154.5733 C   0  0  0  0  0  0  0  0  0  0  0  0
  153.8873  130.5928  155.1866 C   0  0  0  0  0  0  0  0  0  0  0  0
  153.1428  131.5714  155.9072 O   0  0  0  0  0  0  0  0  0  0  0  0
  150.6262  133.2709  155.9846 C   0  0  0  0  0  0  0  0  0  0  0  0
  151.2625  133.6967  156.9511 O   0  0  0  0  0  0  0  0  0  0  0  0
  150.1746  137.8102  155.5497 N   0  0  0  0  0  0  0  0  0  0  0  0
  149.1441  138.3368  156.4547 C   0  0  0  0  0  0  0  0  0  0  0  0
  149.8273  138.8785  157.7235 C   0  0  0  0  0  0  0  0  0  0  0  0
  150.8821  139.9535  157.3774 C   0  0  0  0  0  0  0  0  0  0  0  0
  151.6382  140.4508  158.6298 C   0  0  0  0  0  0  0  0  0  0  0  0
  151.8559  141.9527  158.6211 C   0  0  0  0  0  0  0  0  0  0  0  0
  151.3437  142.7364  157.5659 C   0  0  0  0  0  0  0  0  0  0  0  0
  151.5384  144.1314  157.5619 C   0  0  0  0  0  0  0  0  0  0  0  0
  152.2443  144.7472  158.6138 C   0  0  0  0  0  0  0  0  0  0  0  0
  152.7545  143.9676  159.6702 C   0  0  0  0  0  0  0  0  0  0  0  0
  152.5609  142.5724  159.6741 C   0  0  0  0  0  0  0  0  0  0  0  0
  151.8458  139.4360  156.2869 C   0  0  0  0  0  0  0  0  0  0  0  0
  151.0718  138.8738  155.0810 C   0  0  0  0  0  0  0  0  0  0  0  0
  149.5036  135.4668  156.9337 H   0  0  0  0  0  0  0  0  0  0  0  0
  148.3894  135.7493  155.6464 H   0  0  0  0  0  0  0  0  0  0  0  0
  150.2301  130.4788  154.0953 H   0  0  0  0  0  0  0  0  0  0  0  0
  151.6673  131.1679  157.2615 H   0  0  0  0  0  0  0  0  0  0  0  0
  152.0569  128.9634  156.4499 H   0  0  0  0  0  0  0  0  0  0  0  0
  150.7842  129.3969  155.2907 H   0  0  0  0  0  0  0  0  0  0  0  0
  153.2352  128.6752  154.3434 H   0  0  0  0  0  0  0  0  0  0  0  0
  152.4449  130.0984  153.6549 H   0  0  0  0  0  0  0  0  0  0  0  0
  154.5149  130.0433  155.8896 H   0  0  0  0  0  0  0  0  0  0  0  0
  154.5346  131.0517  154.4389 H   0  0  0  0  0  0  0  0  0  0  0  0
  148.6042  139.1403  155.9514 H   0  0  0  0  0  0  0  0  0  0  0  0
  148.3829  137.6086  156.7294 H   0  0  0  0  0  0  0  0  0  0  0  0
  149.0775  139.2966  158.3962 H   0  0  0  0  0  0  0  0  0  0  0  0
  150.2985  138.0525  158.2585 H   0  0  0  0  0  0  0  0  0  0  0  0
  150.3446  140.7967  156.9394 H   0  0  0  0  0  0  0  0  0  0  0  0
  151.1024  140.1801  159.5406 H   0  0  0  0  0  0  0  0  0  0  0  0
  152.6100  139.9621  158.7129 H   0  0  0  0  0  0  0  0  0  0  0  0
  150.7981  142.2703  156.7582 H   0  0  0  0  0  0  0  0  0  0  0  0
  151.1454  144.7289  156.7527 H   0  0  0  0  0  0  0  0  0  0  0  0
  152.3928  145.8169  158.6109 H   0  0  0  0  0  0  0  0  0  0  0  0
  153.2937  144.4401  160.4780 H   0  0  0  0  0  0  0  0  0  0  0  0
  152.9521  141.9793  160.4881 H   0  0  0  0  0  0  0  0  0  0  0  0
  152.5045  140.2412  155.9594 H   0  0  0  0  0  0  0  0  0  0  0  0
  152.4890  138.6564  156.6981 H   0  0  0  0  0  0  0  0  0  0  0  0
  151.7730  138.5348  154.3178 H   0  0  0  0  0  0  0  0  0  0  0  0
  150.4831  139.6630  154.6110 H   0  0  0  0  0  0  0  0  0  0  0  0
  1  2  2  0  0  0  0
  2  3  1  0  0  0  0
  2 18  1  0  0  0  0
  3  4  1  0  0  0  0
  3 31  1  0  0  0  0
  3 32  1  0  0  0  0
  4 16  1  0  0  0  0
  4  5  1  0  0  0  0
  5  6  2  0  0  0  0
  5  7  1  0  0  0  0
  7  8  1  0  0  0  0
  7  9  2  0  0  0  0
  9 10  1  0  0  0  0
  9 33  1  0  0  0  0
 10 11  1  0  0  0  0
 10 16  1  0  0  0  0
 11 15  1  0  0  0  0
 11 12  1  0  0  0  0
 11 34  1  0  0  0  0
 12 13  1  0  0  0  0
 12 35  1  0  0  0  0
 12 36  1  0  0  0  0
 13 14  1  0  0  0  0
 13 37  1  0  0  0  0
 13 38  1  0  0  0  0
 14 15  1  0  0  0  0
 14 39  1  0  0  0  0
 14 40  1  0  0  0  0
 16 17  2  0  0  0  0
 18 30  1  0  0  0  0
 18 19  1  0  0  0  0
 19 20  1  0  0  0  0
 19 41  1  0  0  0  0
 19 42  1  0  0  0  0
 20 21  1  0  0  0  0
 20 43  1  0  0  0  0
 20 44  1  0  0  0  0
 21 22  1  0  0  0  0
 21 29  1  0  0  0  0
 21 45  1  0  0  0  0
 22 23  1  0  0  0  0
 22 46  1  0  0  0  0
 22 47  1  0  0  0  0
 23 28  1  0  0  0  0
 23 24  2  0  0  0  0
 24 25  1  0  0  0  0
 24 48  1  0  0  0  0
 25 26  2  0  0  0  0
 25 49  1  0  0  0  0
 26 27  1  0  0  0  0
 26 50  1  0  0  0  0
 27 28  2  0  0  0  0
 27 51  1  0  0  0  0
 28 52  1  0  0  0  0
 29 30  1  0  0  0  0
 29 53  1  0  0  0  0
 29 54  1  0  0  0  0
 30 55  1  0  0  0  0
 30 56  1  0  0  0  0
M  END
> <s_m_source_file>
AV-unprocessed.smi

> <i_m_source_file_index>
141

> <i_lp_mmshare_version>
43012

> <i_f3d_flags>
0

> <s_epik_input>
W2NIXTFbY0hdW2NIXVtjSF1bY0hdYzFbQ0gyXVtDSF0oW0NIMl1bQ0gyXTIpW0NIMl1bQ0gyXU4yQyg9TylbQ0gyXW4zYyg9TyljKEYpW2NIXW4oYzM9TylbQ0BASF00W0NIMl1bQ0gyXVtDSDJdTzQ=

> <s_epik_cmdline>
J2VwaWtfcHl0aG9uJywgJy1waCcsICc3LjAnLCAnLXRuJywgJzgnLCAnLW1hJywgJzIwMCcsICctbWV0YWxfYmluZGluZycsICctaW1hZScsICc8aW5maWxlLm1hZT4nLCAnLW9tYWUnLCAnPG91dGZpbGUubWFlPic=

> <r_lp_tautomer_probability>
1

> <r_epik_Ionization_Penalty>
3.78313e-08

> <r_epik_Ionization_Penalty_Charging>
4.95074e-09

> <r_epik_Ionization_Penalty_Neutral>
3.28806e-08

> <r_epik_State_Penalty>
-0

> <r_epik_Charging_Adjusted_Penalty>
4.95074e-09

> <i_epik_Tot_Q>
0

> <i_epik_Tot_abs_Q>
0

> <r_epik_Metal_State_Penalty>
-0

> <b_epik_Metal_Only>
0

> <s_epik_Chemistry_Notes>
This compound contains an acetal/aminal-like group ( X-CH(R)-Y where X, Y are N, S, or O) that may be acid/base labile, releasing an aldehyde.

> <s_lp_Force_Field>
OPLS_2005

> <r_lp_Energy>
51.0645

> <b_lp_Chiralities_Consistent>
1

> <s_lp_Variant>
AV-unprocessed.smi:141-2

> <Gold.Version>
5.8.1

> <Gold.Id.Protein>
6NUR|6NUR_protein|mol2

> <Gold.PLP.Fitness>
56.7670

> <Gold.PLP.PLP>
-54.1305

> <Gold.PLP.part.hbond>
-2.0000

> <Gold.PLP.part.metal>
0.0000

> <Gold.PLP.part.buried>
-4.2995

> <Gold.PLP.part.nonpolar>
-49.7810

> <Gold.PLP.part.repulsive>
0.9933

> <Gold.PLP.ligand.clash>
0.0000

> <Gold.PLP.ligand.torsion>
1.0772

> <Gold.PLP.Chemscore.Hbond>
1.5760

> <Gold.PLP.Chemscore.CHOScore>
0.0000

> <Gold.PLP.Chemscore.Metal>
0.0000

> <Gold.Chemscore.Hbonds>
donor molecule, donor type, donor heavy atom, donor atom, acceptor molecule, acceptor atom, score
      P1  H  6896  6907       L1    17  0.25
      P1  H 10752 10764       L1     1  1.00

> <Gold.PLP.Chemscore.Internal.Correction>
0.0630

> <Gold.Rescore>
     Score         DG    S(hbond)    S(metal)    S(lipo)     H(rot)  DE(clash)    DE(int)     intcor
     19.81     -21.25       1.67        0.00     127.36       1.85       0.06       1.38       ----

> <Gold.Chemscore.Fitness>
19.8107

> <Gold.Chemscore.DG>
-21.2485

> <Gold.Chemscore.ZeroCoef>
-5.4800

> <Gold.Chemscore.Hbond>
1.6747

> <Gold.Chemscore.Metal>
0.0000

> <Gold.Chemscore.Lipo>
127.3578

> <Gold.Chemscore.Internal_Hbond>
0.0000

> <Gold.Chemscore.DEClash>
0.0602

> <Gold.Chemscore.DEInternal>
1.3775

> <Gold.Chemscore.Rot>
1.8461

> <Gold.Chemscore.Internal.Correction>
   9.000000E+99

> <Gold.Chemscore.Hbonds>
donor molecule, donor type, donor heavy atom, donor atom, acceptor molecule, acceptor atom, score
      P1  H  6896  6907       L1    17  0.24
      P1  H 10752 10764       L1     1  1.00

> <Gold.Chemscore.Hbond.Weighted>
-5.5936

> <Gold.Chemscore.Metal.Weighted>
-0.0000

> <Gold.Chemscore.Lipo.Weighted>
-14.9009

> <Gold.Chemscore.Internal_Hbond.Weighted>
0.0000

> <Gold.Chemscore.DEClash.Weighted>
0.0602

> <Gold.Chemscore.DEInternal.Weighted>
1.3775

> <Gold.Chemscore.Rot.Weighted>
4.7260

> <Gold.Chemscore.Internal.Correction.Weighted>
   9.000000E+99

> <Gold.Protein.RotatedTorsions>
[ 6907 6896 6895 6894 ] final -153.92 input  -60.11 | X-H torsion
[ 7974 7965 7964 7962 ] final   55.75 input  175.53 | X-H torsion
[ 8008 7997 7996 7995 ] final  125.19 input   59.86 | X-H torsion
[ 10167 10162 10161 10158 ] final  -60.44 input  -65.29 | X-H torsion
[ 10718 10713 10712 10709 ] final  159.68 input   66.30 | X-H torsion
[ 10763 10752 10751 10750 ] final  -65.99 input  -60.55 | X-H torsion
[ 11005 11000 10999 10996 ] final   53.59 input  -57.11 | X-H torsion

> <Gold.Protein.ActiveResidues>
 VAL166  LYS551  ARG553  GLY616  TRP617  ASP618  TYR619  PRO620  LYS621  CYS622 
 ASP623  PHE694  ASN695  SER759  ASP760  ASP761  ALA762  ILE779  LEU786  VAL792 
 PHE793  MET794  SER795  GLU796  ALA797  LYS798  CYS799  TRP800  GLU811  SER814 

> <Gold.Protein.RotatedAtoms>
  151.2497  133.4356  159.2610 H   0  0  0  0  0  0  0  0  0  0  0  0  # atno 6907 bound_to 6896
  151.0628  134.9748  159.8279 H   0  0  0  0  0  0  0  0  0  0  0  0  # atno 6908 bound_to 6896
  152.5401  134.2447  159.8928 H   0  0  0  0  0  0  0  0  0  0  0  0  # atno 6909 bound_to 6896
  145.9471  139.3939  143.0328 H   0  0  0  0  0  0  0  0  0  0  0  0  # atno 7974 bound_to 7965
  156.2826  140.2722  156.1910 H   0  0  0  0  0  0  0  0  0  0  0  0  # atno 8008 bound_to 7997
  155.0458  140.0386  157.2544 H   0  0  0  0  0  0  0  0  0  0  0  0  # atno 8009 bound_to 7997
  154.7236  140.2692  155.6524 H   0  0  0  0  0  0  0  0  0  0  0  0  # atno 8010 bound_to 7997
  140.6071  143.2376  151.5796 H   0  0  0  0  0  0  0  0  0  0  0  0  # atno 10167 bound_to 10162
  157.1609  131.0587  151.2233 H   0  0  0  0  0  0  0  0  0  0  0  0  # atno 10718 bound_to 10713
  154.3532  135.6132  153.5653 H   0  0  0  0  0  0  0  0  0  0  0  0  # atno 10763 bound_to 10752
  152.9797  135.5797  154.4718 H   0  0  0  0  0  0  0  0  0  0  0  0  # atno 10764 bound_to 10752
  154.4443  135.2851  155.1803 H   0  0  0  0  0  0  0  0  0  0  0  0  # atno 10765 bound_to 10752
  140.0755  134.5411  155.9001 H   0  0  0  0  0  0  0  0  0  0  0  0  # atno 11005 bound_to 11000
  145.8222  140.9673  143.0893 LP  0  0  0  0  0  0  0  0  0  0  0  0  # atno 17320 bound_to 7965
  144.6789  140.0055  143.7484 LP  0  0  0  0  0  0  0  0  0  0  0  0  # atno 17321 bound_to 7965
  139.5333  144.2853  152.1196 LP  0  0  0  0  0  0  0  0  0  0  0  0  # atno 17342 bound_to 10162
  140.2045  144.4625  150.6415 LP  0  0  0  0  0  0  0  0  0  0  0  0  # atno 17343 bound_to 10162
  157.4133  130.7397  149.6856 LP  0  0  0  0  0  0  0  0  0  0  0  0  # atno 17370 bound_to 10713
  155.9754  130.4089  150.3852 LP  0  0  0  0  0  0  0  0  0  0  0  0  # atno 17371 bound_to 10713
  141.2028  133.6627  156.6025 LP  0  0  0  0  0  0  0  0  0  0  0  0  # atno 17394 bound_to 11000
  140.3564  134.7724  157.4503 LP  0  0  0  0  0  0  0  0  0  0  0  0  # atno 17395 bound_to 11000

$$$$
