#       Name:                AV-unprocessed.smi:1289
#       Creating user name   scv26
#       Creation time:       Fri Mar 27 04:53:47 2020


#       File generated by GOLD software.
#

@<TRIPOS>MOLECULE
AV-unprocessed.smi:1289
    43    45     1
SMALL
NO_CHARGES


@<TRIPOS>ATOM
      1 ****        -8.4450   1.0415   0.2984 N.1            1 S1                 0.0000
      2 ****        -7.3078   0.8283   0.2906 C.1            1 S1                 0.0000
      3 ****        -5.8794   0.5606   0.2810 C.ar           1 S1                 0.0000
      4 ****        -4.9614   1.6202   0.1431 C.ar           1 S1                 0.0000
      5 ****        -3.5779   1.3572   0.1369 C.ar           1 S1                 0.0000
      6 ****        -3.0917   0.0402   0.2676 C.ar           1 S1                 0.0000
      7 ****        -1.7236  -0.1244   0.2522 O.3            1 S1                 0.0000
      8 ****        -1.1996  -1.4398   0.3885 C.3            1 S1                 0.0000
      9 ****         0.3361  -1.4021   0.3222 C.3            1 S1                 0.0000
     10 ****         0.8445  -0.9392   1.5571 O.3            1 S1                 0.0000
     11 ****         0.8829  -0.5834  -0.8648 C.3            1 S1                 0.0000
     12 ****         2.3481  -0.6365  -0.9657 N.pl3          1 S1                 0.0000
     13 ****         3.1424  -1.5517  -1.5845 C.2            1 S1                 0.0000
     14 ****         4.4353  -1.1636  -1.4046 N.pl3          1 S1                 1.0000
     15 ****         4.4685   0.0181  -0.6613 C.ar           1 S1                 0.0000
     16 ****         5.5410   0.7917  -0.2281 C.ar           1 S1                 0.0000
     17 ****         5.2278   1.9468   0.5179 C.ar           1 S1                 0.0000
     18 ****         3.8923   2.2943   0.8078 C.ar           1 S1                 0.0000
     19 ****         2.8127   1.5028   0.3635 C.ar           1 S1                 0.0000
     20 ****         3.1304   0.3632  -0.3752 C.ar           1 S1                 0.0000
     21 ****        -4.0220  -1.0212   0.4041 C.ar           1 S1                 0.0000
     22 ****        -5.4063  -0.7602   0.4105 C.ar           1 S1                 0.0000
     23 ****        -5.3110   2.6377   0.0421 H              1 S1                 0.0000
     24 ****        -2.8814   2.1761   0.0313 H              1 S1                 0.0000
     25 ****        -1.5280  -1.8997   1.3223 H              1 S1                 0.0000
     26 ****        -1.5697  -2.0557  -0.4328 H              1 S1                 0.0000
     27 ****         0.6864  -2.4301   0.2210 H              1 S1                 0.0000
     28 ****         1.7874  -0.9961   1.5333 H              1 S1                 0.0000
     29 ****         0.4832  -0.9780  -1.7997 H              1 S1                 0.0000
     30 ****         0.5669   0.4587  -0.8148 H              1 S1                 0.0000
     31 ****         2.8076  -2.4269  -2.1228 H              1 S1                 0.0000
     32 ****         6.5649   0.5273  -0.4482 H              1 S1                 0.0000
     33 ****         6.0280   2.5787   0.8755 H              1 S1                 0.0000
     34 ****         3.6912   3.1860   1.3837 H              1 S1                 0.0000
     35 ****         1.7938   1.7763   0.5957 H              1 S1                 0.0000
     36 ****        -3.6998  -2.0462   0.5059 H              1 S1                 0.0000
     37 ****        -6.1011  -1.5811   0.5159 H              1 S1                 0.0000
     38 ****         5.2344  -1.6696  -1.7650 H              1 S1                 0.0000
     39 ****        -9.4279   1.2258   0.3051 LP             1 S1                 0.0000
     40 ****        -1.3515   0.4215   1.0029 LP             1 S1                 0.0000
     41 ****        -1.3920   0.2373  -0.6191 LP             1 S1                 0.0000
     42 ****         0.4910  -1.5061   2.3012 LP             1 S1                 0.0000
     43 ****         0.5674   0.0108   1.7012 LP             1 S1                 0.0000
@<TRIPOS>BOND
    1    1    2 3     
    2    2    3 1     
    3    3   22 ar    
    4    3    4 ar    
    5    4    5 ar    
    6    4   23 1     
    7    5    6 ar    
    8    5   24 1     
    9    6    7 1     
   10    6   21 ar    
   11    7    8 1     
   12    8    9 1     
   13    8   25 1     
   14    8   26 1     
   15    9   10 1     
   16    9   11 1     
   17    9   27 1     
   18   10   28 1     
   19   11   12 1     
   20   11   29 1     
   21   11   30 1     
   22   12   20 1     
   23   12   13 1     
   24   13   14 2     
   25   13   31 1     
   26   14   15 1     
   27   14   38 1     
   28   15   20 ar    
   29   15   16 ar    
   30   16   17 ar    
   31   16   32 1     
   32   17   18 ar    
   33   17   33 1     
   34   18   19 ar    
   35   18   34 1     
   36   19   20 ar    
   37   19   35 1     
   38   21   22 ar    
   39   21   36 1     
   40   22   37 1     
   41    1   39 1     
   42    7   40 1     
   43    7   41 1     
   44   10   42 1     
   45   10   43 1     
@<TRIPOS>SUBSTRUCTURE
      1 S1             1
@<TRIPOS>SET
LONE_PAIRS      STATIC     ATOMS    <user>   **** ""
5 39 40 41 42 43
DONOR_HYDROGENS      STATIC     ATOMS    <user>   **** ""
2 28 38
ATOM$BLUE        STATIC     ATOMS    COLORGROUP SYSTEM
5 39 40 41 42 43
ATOM$RED        STATIC     ATOMS    COLORGROUP SYSTEM
2 28 38
