AV-unprocessed.smi:244|AV-procd|sdf|1864|dock5
  -GOLD-   2262020503D 1   1.00000     0.00000
 Structure written by MMmdl.
 57 61  0  0  0  0  0  0  0  0  2 V2000
  144.1752  135.0486  155.6871 C   0  0  0  0  0  0  0  0  0  0  0  0
  143.9398  134.3031  154.4319 N   0  3  1  0  0  0  0  0  0  0  0  0
  142.9844  134.9990  153.5342 C   0  0  0  0  0  0  0  0  0  0  0  0
  142.6770  134.1496  152.2907 C   0  0  0  0  0  0  0  0  0  0  0  0
  143.9722  133.7951  151.5506 C   0  0  2  0  0  0  0  0  0  0  0  0
  143.6728  132.9647  150.4343 O   0  0  0  0  0  0  0  0  0  0  0  0
  144.8388  132.6629  149.6750 C   0  0  0  0  0  0  0  0  0  0  0  0
  145.8426  131.9080  150.5608 C   0  0  0  0  0  0  0  0  0  0  0  0
  146.1454  132.6822  151.7630 N   0  0  0  0  0  0  0  0  0  0  0  0
  147.1330  132.1415  152.5135 C   0  0  0  0  0  0  0  0  0  0  0  0
  148.1409  132.9220  152.9851 N   0  0  0  0  0  0  0  0  0  0  0  0
  149.1228  132.3765  153.7103 C   0  0  0  0  0  0  0  0  0  0  0  0
  149.2900  131.0997  154.0628 N   0  0  0  0  0  0  0  0  0  0  0  0
  148.2822  130.3152  153.5839 C   0  0  0  0  0  0  0  0  0  0  0  0
  147.1757  130.7528  152.8048 C   0  0  0  0  0  0  0  0  0  0  0  0
  146.3596  129.6763  152.4831 N   0  0  0  0  0  0  0  0  0  0  0  0
  146.9497  128.6564  153.0447 C   0  0  0  0  0  0  0  0  0  0  0  0
  148.1052  128.9509  153.7343 N   0  0  0  0  0  0  0  0  0  0  0  0
  148.9547  128.0122  154.4518 C   0  0  0  0  0  0  0  0  0  0  0  0
  149.4706  126.8375  153.5833 C   0  0  0  0  0  0  0  0  0  0  0  0
  149.8796  127.3696  152.3352 O   0  0  0  0  0  0  0  0  0  0  0  0
  150.6746  126.1089  154.2198 C   0  0  0  0  0  0  0  0  0  0  0  0
  151.0404  124.8196  153.4631 C   0  0  0  0  0  0  0  0  0  0  0  0
  149.9049  123.9689  153.3635 O   0  0  0  0  0  0  0  0  0  0  0  0
  148.8439  124.5540  152.6190 C   0  0  0  0  0  0  0  0  0  0  0  0
  148.3391  125.8210  153.3313 C   0  0  0  0  0  0  0  0  0  0  0  0
  144.9373  133.0570  152.5038 C   0  0  1  0  0  0  0  0  0  0  0  0
  145.2062  133.9460  153.7431 C   0  0  0  0  0  0  0  0  0  0  0  0
  144.6556  136.0076  155.4885 H   0  0  0  0  0  0  0  0  0  0  0  0
  144.8157  134.4778  156.3602 H   0  0  0  0  0  0  0  0  0  0  0  0
  143.2347  135.2376  156.2055 H   0  0  0  0  0  0  0  0  0  0  0  0
  142.0586  135.2034  154.0734 H   0  0  0  0  0  0  0  0  0  0  0  0
  143.3988  135.9638  153.2369 H   0  0  0  0  0  0  0  0  0  0  0  0
  142.1569  133.2372  152.5861 H   0  0  0  0  0  0  0  0  0  0  0  0
  142.0027  134.6917  151.6269 H   0  0  0  0  0  0  0  0  0  0  0  0
  144.4344  134.7175  151.1927 H   0  0  0  0  0  0  0  0  0  0  0  0
  144.5572  132.0499  148.8187 H   0  0  0  0  0  0  0  0  0  0  0  0
  145.2800  133.5794  149.2799 H   0  0  0  0  0  0  0  0  0  0  0  0
  145.4232  130.9393  150.8365 H   0  0  0  0  0  0  0  0  0  0  0  0
  146.7597  131.7155  150.0018 H   0  0  0  0  0  0  0  0  0  0  0  0
  149.8835  133.0604  154.0573 H   0  0  0  0  0  0  0  0  0  0  0  0
  146.5520  127.6541  152.9780 H   0  0  0  0  0  0  0  0  0  0  0  0
  149.7975  128.5710  154.8607 H   0  0  0  0  0  0  0  0  0  0  0  0
  148.3994  127.6334  155.3112 H   0  0  0  0  0  0  0  0  0  0  0  0
  150.8010  127.5741  152.3824 H   0  0  0  0  0  0  0  0  0  0  0  0
  151.5463  126.7624  154.2646 H   0  0  0  0  0  0  0  0  0  0  0  0
  150.4321  125.8489  155.2509 H   0  0  0  0  0  0  0  0  0  0  0  0
  151.4290  125.0443  152.4688 H   0  0  0  0  0  0  0  0  0  0  0  0
  151.8295  124.2884  153.9955 H   0  0  0  0  0  0  0  0  0  0  0  0
  149.1752  124.7768  151.6036 H   0  0  0  0  0  0  0  0  0  0  0  0
  148.0350  123.8284  152.5335 H   0  0  0  0  0  0  0  0  0  0  0  0
  147.9003  125.5261  154.2855 H   0  0  0  0  0  0  0  0  0  0  0  0
  147.5340  126.2788  152.7551 H   0  0  0  0  0  0  0  0  0  0  0  0
  144.4579  132.1357  152.8400 H   0  0  0  0  0  0  0  0  0  0  0  0
  145.7343  134.8557  153.4525 H   0  0  0  0  0  0  0  0  0  0  0  0
  145.8417  133.4209  154.4571 H   0  0  0  0  0  0  0  0  0  0  0  0
  143.5021  133.4316  154.6954 H   0  0  0  0  0  0  0  0  0  0  0  0
  1  2  1  0  0  0  0
  1 29  1  0  0  0  0
  1 30  1  0  0  0  0
  1 31  1  0  0  0  0
  2 28  1  0  0  0  0
  2  3  1  0  0  0  0
  2 57  1  0  0  0  0
  3  4  1  0  0  0  0
  3 32  1  0  0  0  0
  3 33  1  0  0  0  0
  4  5  1  0  0  0  0
  4 34  1  0  0  0  0
  4 35  1  0  0  0  0
  5 27  1  0  0  0  0
  5  6  1  0  0  0  0
  5 36  1  0  0  0  0
  6  7  1  0  0  0  0
  7  8  1  0  0  0  0
  7 37  1  0  0  0  0
  7 38  1  0  0  0  0
  8  9  1  0  0  0  0
  8 39  1  0  0  0  0
  8 40  1  0  0  0  0
  9 10  1  0  0  0  0
  9 27  1  0  0  0  0
 10 15  1  0  0  0  0
 10 11  2  0  0  0  0
 11 12  1  0  0  0  0
 12 13  2  0  0  0  0
 12 41  1  0  0  0  0
 13 14  1  0  0  0  0
 14 18  1  0  0  0  0
 14 15  2  0  0  0  0
 15 16  1  0  0  0  0
 16 17  2  0  0  0  0
 17 18  1  0  0  0  0
 17 42  1  0  0  0  0
 18 19  1  0  0  0  0
 19 20  1  0  0  0  0
 19 43  1  0  0  0  0
 19 44  1  0  0  0  0
 20 26  1  0  0  0  0
 20 21  1  0  0  0  0
 20 22  1  0  0  0  0
 21 45  1  0  0  0  0
 22 23  1  0  0  0  0
 22 46  1  0  0  0  0
 22 47  1  0  0  0  0
 23 24  1  0  0  0  0
 23 48  1  0  0  0  0
 23 49  1  0  0  0  0
 24 25  1  0  0  0  0
 25 26  1  0  0  0  0
 25 50  1  0  0  0  0
 25 51  1  0  0  0  0
 26 52  1  0  0  0  0
 26 53  1  0  0  0  0
 27 28  1  0  0  0  0
 27 54  1  0  0  0  0
 28 55  1  0  0  0  0
 28 56  1  0  0  0  0
M  CHG  1   2   1
M  END
> <s_m_source_file>
AV-unprocessed.smi

> <i_m_source_file_index>
244

> <i_lp_mmshare_version>
43012

> <i_f3d_flags>
0

> <s_epik_input>
W0NIMl0xW0NIMl1OKFtDSDNdKVtDSDJdW0NAQEhdKFtDQEhdMTIpTihbQ0gyXVtDSDJdTzIpYyhuW2NIXW4zKWMoYzM0KW5bY0hdbjRbQ0gyXUM1KFtPSF0pW0NIMl1bQ0gyXU9bQ0gyXVtDSDJdNQ==

> <s_epik_cmdline>
J2VwaWtfcHl0aG9uJywgJy1waCcsICc3LjAnLCAnLXRuJywgJzgnLCAnLW1hJywgJzIwMCcsICctbWV0YWxfYmluZGluZycsICctaW1hZScsICc8aW5maWxlLm1hZT4nLCAnLW9tYWUnLCAnPG91dGZpbGUubWFlPic=

> <r_lp_tautomer_probability>
1

> <r_epik_Ionization_Penalty>
0.0136215

> <r_epik_Ionization_Penalty_Charging>
0.0131385

> <r_epik_Ionization_Penalty_Neutral>
0.000483022

> <r_epik_State_Penalty>
0.0104001

> <r_epik_Charging_Adjusted_Penalty>
0.0235387

> <i_epik_Tot_Q>
1

> <i_epik_Tot_abs_Q>
1

> <r_epik_Metal_State_Penalty>
0.0104469

> <b_epik_Metal_Only>
0

> <s_lp_Force_Field>
OPLS_2005

> <r_lp_Energy>
41.0301

> <b_lp_Chiralities_Consistent>
1

> <s_lp_Variant>
AV-unprocessed.smi:244-1

> <Gold.Version>
5.8.1

> <Gold.Id.Protein>
6NUR|6NUR_protein|mol2

> <Gold.PLP.Fitness>
39.6375

> <Gold.PLP.PLP>
-31.9844

> <Gold.PLP.part.hbond>
-1.5454

> <Gold.PLP.part.metal>
0.0000

> <Gold.PLP.part.buried>
-5.5422

> <Gold.PLP.part.nonpolar>
-25.0786

> <Gold.PLP.part.repulsive>
0.7500

> <Gold.PLP.ligand.clash>
0.0000

> <Gold.PLP.ligand.torsion>
0.7279

> <Gold.PLP.Chemscore.Hbond>
2.9920

> <Gold.PLP.Chemscore.CHOScore>
0.0000

> <Gold.PLP.Chemscore.Metal>
0.0000

> <Gold.Chemscore.Hbonds>
donor molecule, donor type, donor heavy atom, donor atom, acceptor molecule, acceptor atom, score
      L1  H     2    57       P1 10957  2.00
      L1  H    21    45       P1 10737  0.67

> <Gold.PLP.Chemscore.Internal.Correction>
0.1329

> <Gold.Rescore>
     Score         DG    S(hbond)    S(metal)    S(lipo)     H(rot)  DE(clash)    DE(int)     intcor
     13.07     -14.82       1.99        0.00      68.82       2.09       0.17       1.59       ----

> <Gold.Chemscore.Fitness>
13.0660

> <Gold.Chemscore.DG>
-14.8249

> <Gold.Chemscore.ZeroCoef>
-5.4800

> <Gold.Chemscore.Hbond>
1.9897

> <Gold.Chemscore.Metal>
0.0000

> <Gold.Chemscore.Lipo>
68.8238

> <Gold.Chemscore.Internal_Hbond>
0.0000

> <Gold.Chemscore.DEClash>
0.1686

> <Gold.Chemscore.DEInternal>
1.5903

> <Gold.Chemscore.Rot>
2.0911

> <Gold.Chemscore.Internal.Correction>
   9.000000E+99

> <Gold.Chemscore.Hbonds>
donor molecule, donor type, donor heavy atom, donor atom, acceptor molecule, acceptor atom, score
      L1  H     2    57       P1 10957  1.00
      L1  H    21    45       P1 10737  0.65

> <Gold.Chemscore.Hbond.Weighted>
-6.6456

> <Gold.Chemscore.Metal.Weighted>
-0.0000

> <Gold.Chemscore.Lipo.Weighted>
-8.0524

> <Gold.Chemscore.Internal_Hbond.Weighted>
0.0000

> <Gold.Chemscore.DEClash.Weighted>
0.1686

> <Gold.Chemscore.DEInternal.Weighted>
1.5903

> <Gold.Chemscore.Rot.Weighted>
5.3531

> <Gold.Chemscore.Internal.Correction.Weighted>
   9.000000E+99

> <Gold.Protein.RotatedTorsions>
[ 6907 6896 6895 6894 ] final  -30.72 input  -60.11 | X-H torsion
[ 7974 7965 7964 7962 ] final  -69.61 input  175.53 | X-H torsion
[ 8008 7997 7996 7995 ] final  -22.93 input   59.86 | X-H torsion
[ 10167 10162 10161 10158 ] final -165.85 input  -65.29 | X-H torsion
[ 10718 10713 10712 10709 ] final -134.59 input   66.30 | X-H torsion
[ 10763 10752 10751 10750 ] final  -44.27 input  -60.55 | X-H torsion
[ 11005 11000 10999 10996 ] final  -83.07 input  -57.11 | X-H torsion

> <Gold.Protein.ActiveResidues>
 VAL166  LYS551  ARG553  GLY616  TRP617  ASP618  TYR619  PRO620  LYS621  CYS622 
 ASP623  PHE694  ASN695  SER759  ASP760  ASP761  ALA762  ILE779  LEU786  VAL792 
 PHE793  MET794  SER795  GLU796  ALA797  LYS798  CYS799  TRP800  GLU811  SER814 

> <Gold.Protein.RotatedAtoms>
  151.1018  134.9976  159.8451 H   0  0  0  0  0  0  0  0  0  0  0  0  # atno 6907 bound_to 6896
  152.5437  134.1941  159.8696 H   0  0  0  0  0  0  0  0  0  0  0  0  # atno 6908 bound_to 6896
  151.1985  133.4580  159.2629 H   0  0  0  0  0  0  0  0  0  0  0  0  # atno 6909 bound_to 6896
  145.7015  140.9114  143.0728 H   0  0  0  0  0  0  0  0  0  0  0  0  # atno 7974 bound_to 7965
  154.4615  140.1994  156.0233 H   0  0  0  0  0  0  0  0  0  0  0  0  # atno 8008 bound_to 7997
  156.0848  140.3266  155.7711 H   0  0  0  0  0  0  0  0  0  0  0  0  # atno 8009 bound_to 7997
  155.5053  140.0557  157.2923 H   0  0  0  0  0  0  0  0  0  0  0  0  # atno 8010 bound_to 7997
  139.6154  144.0730  152.1883 H   0  0  0  0  0  0  0  0  0  0  0  0  # atno 10167 bound_to 10162
  156.2570  130.7187  151.1108 H   0  0  0  0  0  0  0  0  0  0  0  0  # atno 10718 bound_to 10713
  154.0094  135.6683  153.4764 H   0  0  0  0  0  0  0  0  0  0  0  0  # atno 10763 bound_to 10752
  153.0627  135.5018  154.8127 H   0  0  0  0  0  0  0  0  0  0  0  0  # atno 10764 bound_to 10752
  154.7005  135.3078  154.9312 H   0  0  0  0  0  0  0  0  0  0  0  0  # atno 10765 bound_to 10752
  141.1660  133.7276  156.8666 H   0  0  0  0  0  0  0  0  0  0  0  0  # atno 11005 bound_to 11000
  144.6967  139.8954  143.7455 LP  0  0  0  0  0  0  0  0  0  0  0  0  # atno 17320 bound_to 7965
  146.0793  139.3781  143.0474 LP  0  0  0  0  0  0  0  0  0  0  0  0  # atno 17321 bound_to 7965
  140.0359  144.6045  150.7450 LP  0  0  0  0  0  0  0  0  0  0  0  0  # atno 17342 bound_to 10162
  140.7347  143.2732  151.3822 LP  0  0  0  0  0  0  0  0  0  0  0  0  # atno 17343 bound_to 10162
  157.7236  131.0665  150.6028 LP  0  0  0  0  0  0  0  0  0  0  0  0  # atno 17370 bound_to 10713
  156.6113  130.4381  149.5858 LP  0  0  0  0  0  0  0  0  0  0  0  0  # atno 17371 bound_to 10713
  140.1811  134.9033  157.2949 LP  0  0  0  0  0  0  0  0  0  0  0  0  # atno 17394 bound_to 11000
  140.2394  134.3813  155.7487 LP  0  0  0  0  0  0  0  0  0  0  0  0  # atno 17395 bound_to 11000

$$$$
