AV-unprocessed.smi:3135|AV-procd|sdf|11945|dock9
  -GOLD-   2272017333D 1   1.00000     0.00000
 Structure written by MMmdl.
 38 39  0  0  0  0  0  0  0  0  2 V2000
  152.4140  144.7073  159.4319 C   0  0  0  0  0  0  0  0  0  0  0  0
  152.0472  143.4317  158.7296 C   0  0  0  0  0  0  0  0  0  0  0  0
  151.0818  143.2488  157.6991 C   0  0  0  0  0  0  0  0  0  0  0  0
  150.9978  141.9933  157.2903 N   0  0  0  0  0  0  0  0  0  0  0  0
  151.9039  141.3316  158.0419 N   0  0  0  0  0  0  0  0  0  0  0  0
  152.0928  139.9024  157.8594 C   0  0  0  0  0  0  0  0  0  0  0  0
  151.9899  139.4913  156.3875 C   0  0  0  0  0  0  0  0  0  0  0  0
  153.0132  139.2716  155.7399 O   0  0  0  0  0  0  0  0  0  0  0  0
  150.7567  139.4053  155.8615 N   0  0  0  0  0  0  0  0  0  0  0  0
  150.4641  139.0151  154.4875 C   0  0  0  0  0  0  0  0  0  0  0  0
  149.0988  139.5589  154.0250 C   0  0  0  0  0  0  0  0  0  0  0  0
  148.1303  138.4865  153.6833 N   0  3  1  0  0  0  0  0  0  0  0  0
  147.9301  137.5625  154.8230 C   0  0  0  0  0  0  0  0  0  0  0  0
  146.8399  139.0163  153.1791 C   0  0  0  0  0  0  0  0  0  0  0  0
  146.0081  138.0015  152.4241 C   0  0  0  0  0  0  0  0  0  0  0  0
  146.7428  139.0840  151.6708 C   0  0  0  0  0  0  0  0  0  0  0  0
  152.5487  142.1756  158.9215 C   0  0  0  0  0  0  0  0  0  0  0  0
  152.4206  145.5565  158.7485 H   0  0  0  0  0  0  0  0  0  0  0  0
  153.4050  144.6516  159.8828 H   0  0  0  0  0  0  0  0  0  0  0  0
  151.7100  144.9419  160.2304 H   0  0  0  0  0  0  0  0  0  0  0  0
  150.4427  143.9878  157.2384 H   0  0  0  0  0  0  0  0  0  0  0  0
  153.0724  139.6208  158.2473 H   0  0  0  0  0  0  0  0  0  0  0  0
  151.3477  139.3684  158.4518 H   0  0  0  0  0  0  0  0  0  0  0  0
  149.9689  139.6004  156.4627 H   0  0  0  0  0  0  0  0  0  0  0  0
  151.2701  139.3659  153.8424 H   0  0  0  0  0  0  0  0  0  0  0  0
  150.4713  137.9261  154.4331 H   0  0  0  0  0  0  0  0  0  0  0  0
  148.6852  140.1679  154.8305 H   0  0  0  0  0  0  0  0  0  0  0  0
  149.2164  140.2219  153.1664 H   0  0  0  0  0  0  0  0  0  0  0  0
  147.5058  138.0878  155.6797 H   0  0  0  0  0  0  0  0  0  0  0  0
  148.8764  137.1160  155.1300 H   0  0  0  0  0  0  0  0  0  0  0  0
  147.2571  136.7471  154.5576 H   0  0  0  0  0  0  0  0  0  0  0  0
  146.3464  139.7574  153.8057 H   0  0  0  0  0  0  0  0  0  0  0  0
  146.3851  136.9850  152.3258 H   0  0  0  0  0  0  0  0  0  0  0  0
  144.9258  138.0901  152.4924 H   0  0  0  0  0  0  0  0  0  0  0  0
  146.1468  139.8877  151.2432 H   0  0  0  0  0  0  0  0  0  0  0  0
  147.6070  138.7825  151.0817 H   0  0  0  0  0  0  0  0  0  0  0  0
  153.3052  141.8166  159.6038 H   0  0  0  0  0  0  0  0  0  0  0  0
  148.5410  137.9404  152.9394 H   0  0  0  0  0  0  0  0  0  0  0  0
  1  2  1  0  0  0  0
  1 18  1  0  0  0  0
  1 19  1  0  0  0  0
  1 20  1  0  0  0  0
  2 17  2  0  0  0  0
  2  3  1  0  0  0  0
  3  4  2  0  0  0  0
  3 21  1  0  0  0  0
  4  5  1  0  0  0  0
  5  6  1  0  0  0  0
  5 17  1  0  0  0  0
  6  7  1  0  0  0  0
  6 22  1  0  0  0  0
  6 23  1  0  0  0  0
  7  8  2  0  0  0  0
  7  9  1  0  0  0  0
  9 10  1  0  0  0  0
  9 24  1  0  0  0  0
 10 11  1  0  0  0  0
 10 25  1  0  0  0  0
 10 26  1  0  0  0  0
 11 12  1  0  0  0  0
 11 27  1  0  0  0  0
 11 28  1  0  0  0  0
 12 13  1  0  0  0  0
 12 14  1  0  0  0  0
 12 38  1  0  0  0  0
 13 29  1  0  0  0  0
 13 30  1  0  0  0  0
 13 31  1  0  0  0  0
 14 16  1  0  0  0  0
 14 15  1  0  0  0  0
 14 32  1  0  0  0  0
 15 16  1  0  0  0  0
 15 33  1  0  0  0  0
 15 34  1  0  0  0  0
 16 35  1  0  0  0  0
 16 36  1  0  0  0  0
 17 37  1  0  0  0  0
M  CHG  1  12   1
M  END
> <s_m_source_file>
AV-unprocessed.smi

> <i_m_source_file_index>
3135

> <i_lp_mmshare_version>
43012

> <i_f3d_flags>
0

> <s_epik_input>
W0NIM11jMVtjSF1ubihbY0hdMSlbQ0gyXUMoPU8pW05IXVtDSDJdW0NIMl1OKFtDSDNdKVtDSF0yW0NIMl1bQ0gyXTI=

> <s_epik_cmdline>
J2VwaWtfcHl0aG9uJywgJy1waCcsICc3LjAnLCAnLXRuJywgJzgnLCAnLW1hJywgJzIwMCcsICctbWV0YWxfYmluZGluZycsICctaW1hZScsICc8aW5maWxlLm1hZT4nLCAnLW9tYWUnLCAnPG91dGZpbGUubWFlPic=

> <r_lp_tautomer_probability>
1

> <r_epik_Ionization_Penalty>
0.174318

> <r_epik_Ionization_Penalty_Charging>
0.174302

> <r_epik_Ionization_Penalty_Neutral>
1.62778e-05

> <r_epik_State_Penalty>
0.163722

> <r_epik_Charging_Adjusted_Penalty>
0.338024

> <i_epik_Tot_Q>
1

> <i_epik_Tot_abs_Q>
1

> <r_epik_Metal_State_Penalty>
0.163727

> <b_epik_Metal_Only>
0

> <s_lp_Force_Field>
OPLS_2005

> <r_lp_Energy>
17.6271

> <b_lp_Chiralities_Consistent>
1

> <s_lp_Variant>
AV-unprocessed.smi:3135-1

> <Gold.Version>
5.8.1

> <Gold.Id.Protein>
6NUR|6NUR_protein|mol2

> <Gold.PLP.Fitness>
44.7458

> <Gold.PLP.PLP>
-34.9460

> <Gold.PLP.part.hbond>
-2.4213

> <Gold.PLP.part.metal>
0.0000

> <Gold.PLP.part.buried>
-0.0090

> <Gold.PLP.part.nonpolar>
-33.3949

> <Gold.PLP.part.repulsive>
0.1627

> <Gold.PLP.ligand.clash>
0.0000

> <Gold.PLP.ligand.torsion>
1.7575

> <Gold.PLP.Chemscore.Hbond>
3.0000

> <Gold.PLP.Chemscore.CHOScore>
1.0000

> <Gold.PLP.Chemscore.Metal>
0.0000

> <Gold.Chemscore.Hbonds>
donor molecule, donor type, donor heavy atom, donor atom, acceptor molecule, acceptor atom, score
      L1  H    12    38       P1  7948  1.95
      P1  H  7997  8008       L1     8  1.00
      L1  C     3    21       P1  8028  1.00

> <Gold.PLP.Chemscore.Internal.Correction>
1.3148

> <Gold.Rescore>
     Score         DG    S(hbond)    S(metal)    S(lipo)     H(rot)  DE(clash)    DE(int)     intcor
     15.63     -17.62       1.96        0.00      90.71       1.96       0.19       1.81       ----

> <Gold.Chemscore.Fitness>
15.6279

> <Gold.Chemscore.DG>
-17.6236

> <Gold.Chemscore.ZeroCoef>
-5.4800

> <Gold.Chemscore.Hbond>
1.9571

> <Gold.Chemscore.Metal>
0.0000

> <Gold.Chemscore.Lipo>
90.7095

> <Gold.Chemscore.Internal_Hbond>
0.0000

> <Gold.Chemscore.DEClash>
0.1900

> <Gold.Chemscore.DEInternal>
1.8057

> <Gold.Chemscore.Rot>
1.9555

> <Gold.Chemscore.Internal.Correction>
   9.000000E+99

> <Gold.Chemscore.Hbonds>
donor molecule, donor type, donor heavy atom, donor atom, acceptor molecule, acceptor atom, score
      L1  H    12    38       P1  7948  0.90
      P1  H  7997  8008       L1     8  0.98

> <Gold.Chemscore.Hbond.Weighted>
-6.5366

> <Gold.Chemscore.Metal.Weighted>
-0.0000

> <Gold.Chemscore.Lipo.Weighted>
-10.6130

> <Gold.Chemscore.Internal_Hbond.Weighted>
0.0000

> <Gold.Chemscore.DEClash.Weighted>
0.1900

> <Gold.Chemscore.DEInternal.Weighted>
1.8057

> <Gold.Chemscore.Rot.Weighted>
5.0060

> <Gold.Chemscore.Internal.Correction.Weighted>
   9.000000E+99

> <Gold.Protein.RotatedTorsions>
[ 6907 6896 6895 6894 ] final  -52.85 input  -60.11 | X-H torsion
[ 7974 7965 7964 7962 ] final -112.82 input  175.53 | X-H torsion
[ 8008 7997 7996 7995 ] final  -22.62 input   59.86 | X-H torsion
[ 10167 10162 10161 10158 ] final    5.70 input  -65.29 | X-H torsion
[ 10718 10713 10712 10709 ] final  -73.59 input   66.30 | X-H torsion
[ 10763 10752 10751 10750 ] final  -25.02 input  -60.55 | X-H torsion
[ 11005 11000 10999 10996 ] final  119.18 input  -57.11 | X-H torsion

> <Gold.Protein.ActiveResidues>
 VAL166  LYS551  ARG553  GLY616  TRP617  ASP618  TYR619  PRO620  LYS621  CYS622 
 ASP623  PHE694  ASN695  SER759  ASP760  ASP761  ALA762  ILE779  LEU786  VAL792 
 PHE793  MET794  SER795  GLU796  ALA797  LYS798  CYS799  TRP800  GLU811  SER814 

> <Gold.Protein.RotatedAtoms>
  150.8480  134.7795  159.6985 H   0  0  0  0  0  0  0  0  0  0  0  0  # atno 6907 bound_to 6896
  152.4552  134.5304  159.9819 H   0  0  0  0  0  0  0  0  0  0  0  0  # atno 6908 bound_to 6896
  151.5431  133.3391  159.2975 H   0  0  0  0  0  0  0  0  0  0  0  0  # atno 6909 bound_to 6896
  145.1394  140.8769  143.3711 H   0  0  0  0  0  0  0  0  0  0  0  0  # atno 7974 bound_to 7965
  154.4633  140.2003  156.0185 H   0  0  0  0  0  0  0  0  0  0  0  0  # atno 8008 bound_to 7997
  156.0881  140.3262  155.7751 H   0  0  0  0  0  0  0  0  0  0  0  0  # atno 8009 bound_to 7997
  155.5001  140.0553  157.2931 H   0  0  0  0  0  0  0  0  0  0  0  0  # atno 8010 bound_to 7997
  140.6468  143.7643  150.7511 H   0  0  0  0  0  0  0  0  0  0  0  0  # atno 10167 bound_to 10162
  156.0274  130.4397  150.2765 H   0  0  0  0  0  0  0  0  0  0  0  0  # atno 10718 bound_to 10713
  153.6931  135.6960  153.5084 H   0  0  0  0  0  0  0  0  0  0  0  0  # atno 10763 bound_to 10752
  153.2398  135.4310  155.0685 H   0  0  0  0  0  0  0  0  0  0  0  0  # atno 10764 bound_to 10752
  154.8367  135.3505  154.6472 H   0  0  0  0  0  0  0  0  0  0  0  0  # atno 10765 bound_to 10752
  139.9137  134.9626  156.7616 H   0  0  0  0  0  0  0  0  0  0  0  0  # atno 11005 bound_to 11000
  145.0548  139.3152  143.5910 LP  0  0  0  0  0  0  0  0  0  0  0  0  # atno 17320 bound_to 7965
  146.3506  139.9970  142.8680 LP  0  0  0  0  0  0  0  0  0  0  0  0  # atno 17321 bound_to 7965
  140.1285  143.4547  152.2269 LP  0  0  0  0  0  0  0  0  0  0  0  0  # atno 17342 bound_to 10162
  139.5679  144.7446  151.3971 LP  0  0  0  0  0  0  0  0  0  0  0  0  # atno 17343 bound_to 10162
  157.0868  131.0158  151.3136 LP  0  0  0  0  0  0  0  0  0  0  0  0  # atno 17370 bound_to 10713
  157.4885  130.7807  149.7484 LP  0  0  0  0  0  0  0  0  0  0  0  0  # atno 17371 bound_to 10713
  140.6693  133.9574  155.7847 LP  0  0  0  0  0  0  0  0  0  0  0  0  # atno 17394 bound_to 11000
  141.0589  134.0376  157.3686 LP  0  0  0  0  0  0  0  0  0  0  0  0  # atno 17395 bound_to 11000

$$$$
