AV-unprocessed.smi:1452|AV-procd|sdf|5904|dock5
  -GOLD-   22720 5593D 1   1.00000     0.00000
 Structure written by MMmdl.
 40 42  0  0  0  0  0  0  0  0  2 V2000
  146.1241  138.3097  154.5715 O   0  0  0  0  0  0  0  0  0  0  0  0
  146.9609  137.6718  153.9351 C   0  0  0  0  0  0  0  0  0  0  0  0
  148.2455  138.0797  153.8635 N   0  0  0  0  0  0  0  0  0  0  0  0
  148.9017  139.2126  154.4285 C   0  0  0  0  0  0  0  0  0  0  0  0
  150.2218  138.9672  154.8691 C   0  0  0  0  0  0  0  0  0  0  0  0
  150.9750  140.0168  155.4299 C   0  0  0  0  0  0  0  0  0  0  0  0
  150.3898  141.2911  155.5323 C   0  0  0  0  0  0  0  0  0  0  0  0
  149.0733  141.4547  155.0657 C   0  0  0  0  0  0  0  0  0  0  0  0
  148.3496  140.4495  154.5285 N   0  0  0  0  0  0  0  0  0  0  0  0
  146.6646  136.5393  153.2760 N   0  0  0  0  0  0  0  0  0  0  0  0
  145.3629  135.8771  153.2519 C   0  0  1  0  0  0  0  0  0  0  0  0
  144.3019  136.6752  152.4689 C   0  0  0  0  0  0  0  0  0  0  0  0
  143.5494  135.6230  151.6481 C   0  0  0  0  0  0  0  0  0  0  0  0
  144.5886  134.6284  151.3575 N   0  3  2  0  0  0  0  0  0  0  0  0
  144.1823  133.3298  150.7839 C   0  0  0  0  0  0  0  0  0  0  0  0
  145.4555  132.5440  150.4035 C   0  0  0  0  0  0  0  0  0  0  0  0
  146.4515  132.4380  151.5805 C   0  0  0  0  0  0  0  0  0  0  0  0
  146.7346  133.8154  152.2179 C   0  0  0  0  0  0  0  0  0  0  0  0
  145.3960  134.4841  152.5808 C   0  0  1  0  0  0  0  0  0  0  0  0
  148.8239  137.5322  153.2428 H   0  0  0  0  0  0  0  0  0  0  0  0
  150.6589  137.9829  154.7808 H   0  0  0  0  0  0  0  0  0  0  0  0
  151.9844  139.8462  155.7739 H   0  0  0  0  0  0  0  0  0  0  0  0
  150.9357  142.1213  155.9556 H   0  0  0  0  0  0  0  0  0  0  0  0
  148.5879  142.4177  155.1235 H   0  0  0  0  0  0  0  0  0  0  0  0
  147.4165  136.0842  152.7771 H   0  0  0  0  0  0  0  0  0  0  0  0
  145.0031  135.7564  154.2756 H   0  0  0  0  0  0  0  0  0  0  0  0
  143.6395  137.2455  153.1210 H   0  0  0  0  0  0  0  0  0  0  0  0
  144.7827  137.3823  151.7909 H   0  0  0  0  0  0  0  0  0  0  0  0
  142.7571  135.1658  152.2431 H   0  0  0  0  0  0  0  0  0  0  0  0
  143.1093  136.0323  150.7383 H   0  0  0  0  0  0  0  0  0  0  0  0
  143.5798  132.7724  151.5027 H   0  0  0  0  0  0  0  0  0  0  0  0
  143.5639  133.4942  149.9007 H   0  0  0  0  0  0  0  0  0  0  0  0
  145.1885  131.5481  150.0485 H   0  0  0  0  0  0  0  0  0  0  0  0
  145.9470  133.0442  149.5679 H   0  0  0  0  0  0  0  0  0  0  0  0
  146.0404  131.7692  152.3377 H   0  0  0  0  0  0  0  0  0  0  0  0
  147.3833  131.9831  151.2433 H   0  0  0  0  0  0  0  0  0  0  0  0
  147.3538  133.6909  153.1066 H   0  0  0  0  0  0  0  0  0  0  0  0
  147.2967  134.4401  151.5220 H   0  0  0  0  0  0  0  0  0  0  0  0
  144.8576  133.8101  153.2507 H   0  0  0  0  0  0  0  0  0  0  0  0
  145.1927  135.0648  150.6759 H   0  0  0  0  0  0  0  0  0  0  0  0
  1  2  2  0  0  0  0
  2  3  1  0  0  0  0
  2 10  1  0  0  0  0
  3  4  1  0  0  0  0
  3 20  1  0  0  0  0
  4  9  1  0  0  0  0
  4  5  2  0  0  0  0
  5  6  1  0  0  0  0
  5 21  1  0  0  0  0
  6  7  2  0  0  0  0
  6 22  1  0  0  0  0
  7  8  1  0  0  0  0
  7 23  1  0  0  0  0
  8  9  2  0  0  0  0
  8 24  1  0  0  0  0
 10 11  1  0  0  0  0
 10 25  1  0  0  0  0
 11 19  1  0  0  0  0
 11 12  1  0  0  0  0
 11 26  1  0  0  0  0
 12 13  1  0  0  0  0
 12 27  1  0  0  0  0
 12 28  1  0  0  0  0
 13 14  1  0  0  0  0
 13 29  1  0  0  0  0
 13 30  1  0  0  0  0
 14 19  1  0  0  0  0
 14 15  1  0  0  0  0
 14 40  1  0  0  0  0
 15 16  1  0  0  0  0
 15 31  1  0  0  0  0
 15 32  1  0  0  0  0
 16 17  1  0  0  0  0
 16 33  1  0  0  0  0
 16 34  1  0  0  0  0
 17 18  1  0  0  0  0
 17 35  1  0  0  0  0
 17 36  1  0  0  0  0
 18 19  1  0  0  0  0
 18 37  1  0  0  0  0
 18 38  1  0  0  0  0
 19 39  1  0  0  0  0
M  CHG  1  14   1
M  END
> <s_m_source_file>
AV-unprocessed.smi

> <i_m_source_file_index>
1452

> <i_lp_mmshare_version>
43012

> <i_f3d_flags>
0

> <s_epik_input>
W0NIMl0xW0NIMl1bQ0gyXVtDSDJdW0NASF0oTjEyKVtDQEBIXShbQ0gyXVtDSDJdMilbTkhdQyg9TylbTkhdYzNbY0hdW2NIXVtjSF1bY0hdbjM=

> <s_epik_cmdline>
J2VwaWtfcHl0aG9uJywgJy1waCcsICc3LjAnLCAnLXRuJywgJzgnLCAnLW1hJywgJzIwMCcsICctbWV0YWxfYmluZGluZycsICctaW1hZScsICc8aW5maWxlLm1hZT4nLCAnLW9tYWUnLCAnPG91dGZpbGUubWFlPic=

> <r_epik_Ionization_Penalty>
0.00100813

> <r_epik_Ionization_Penalty_Charging>
0.000974069

> <r_epik_Ionization_Penalty_Neutral>
3.40643e-05

> <r_epik_State_Penalty>
0.000633842

> <r_epik_Charging_Adjusted_Penalty>
0.00160791

> <i_epik_Tot_Q>
1

> <i_epik_Tot_abs_Q>
1

> <r_epik_Metal_State_Penalty>
-0

> <b_epik_Metal_Only>
0

> <s_lp_Force_Field>
OPLS_2005

> <r_lp_Energy>
45.5748

> <b_lp_Chiralities_Consistent>
1

> <s_lp_Variant>
AV-unprocessed.smi:1452-2

> <Gold.Version>
5.8.1

> <Gold.Id.Protein>
6NUR|6NUR_protein|mol2

> <Gold.PLP.Fitness>
37.0524

> <Gold.PLP.PLP>
-28.7736

> <Gold.PLP.part.hbond>
-2.0000

> <Gold.PLP.part.metal>
0.0000

> <Gold.PLP.part.buried>
-3.0929

> <Gold.PLP.part.nonpolar>
-23.9356

> <Gold.PLP.part.repulsive>
0.1844

> <Gold.PLP.ligand.clash>
0.0000

> <Gold.PLP.ligand.torsion>
0.3609

> <Gold.PLP.Chemscore.Hbond>
2.0000

> <Gold.PLP.Chemscore.CHOScore>
1.0000

> <Gold.PLP.Chemscore.Metal>
0.0000

> <Gold.Chemscore.Hbonds>
donor molecule, donor type, donor heavy atom, donor atom, acceptor molecule, acceptor atom, score
      L1  H     3    20       P1  7948  1.00
      L1  H    10    25       P1  7948  0.98
      L1  C     8    24       P1  8028  1.00

> <Gold.PLP.Chemscore.Internal.Correction>
0.0005

> <Gold.Rescore>
     Score         DG    S(hbond)    S(metal)    S(lipo)     H(rot)  DE(clash)    DE(int)     intcor
     17.37     -17.91       1.92        0.00      73.22       1.00       0.16       0.38       ----

> <Gold.Chemscore.Fitness>
17.3735

> <Gold.Chemscore.DG>
-17.9096

> <Gold.Chemscore.ZeroCoef>
-5.4800

> <Gold.Chemscore.Hbond>
1.9230

> <Gold.Chemscore.Metal>
0.0000

> <Gold.Chemscore.Lipo>
73.2210

> <Gold.Chemscore.Internal_Hbond>
0.0000

> <Gold.Chemscore.DEClash>
0.1552

> <Gold.Chemscore.DEInternal>
0.3809

> <Gold.Chemscore.Rot>
1.0000

> <Gold.Chemscore.Internal.Correction>
   9.000000E+99

> <Gold.Chemscore.Hbonds>
donor molecule, donor type, donor heavy atom, donor atom, acceptor molecule, acceptor atom, score
      L1  H     3    20       P1  7948  0.94
      L1  H    10    25       P1  7948  0.93

> <Gold.Chemscore.Hbond.Weighted>
-6.4228

> <Gold.Chemscore.Metal.Weighted>
-0.0000

> <Gold.Chemscore.Lipo.Weighted>
-8.5669

> <Gold.Chemscore.Internal_Hbond.Weighted>
0.0000

> <Gold.Chemscore.DEClash.Weighted>
0.1552

> <Gold.Chemscore.DEInternal.Weighted>
0.3809

> <Gold.Chemscore.Rot.Weighted>
2.5600

> <Gold.Chemscore.Internal.Correction.Weighted>
   9.000000E+99

> <Gold.Protein.RotatedTorsions>
[ 6907 6896 6895 6894 ] final  -41.13 input  -60.11 | X-H torsion
[ 7974 7965 7964 7962 ] final  -11.69 input  175.53 | X-H torsion
[ 8008 7997 7996 7995 ] final   63.24 input   59.86 | X-H torsion
[ 10167 10162 10161 10158 ] final   35.25 input  -65.29 | X-H torsion
[ 10718 10713 10712 10709 ] final  -46.71 input   66.30 | X-H torsion
[ 10763 10752 10751 10750 ] final   41.57 input  -60.55 | X-H torsion
[ 11005 11000 10999 10996 ] final -170.34 input  -57.11 | X-H torsion

> <Gold.Protein.ActiveResidues>
 VAL166  LYS551  ARG553  GLY616  TRP617  ASP618  TYR619  PRO620  LYS621  CYS622 
 ASP623  PHE694  ASN695  SER759  ASP760  ASP761  ALA762  ILE779  LEU786  VAL792 
 PHE793  MET794  SER795  GLU796  ALA797  LYS798  CYS799  TRP800  GLU811  SER814 

> <Gold.Protein.RotatedAtoms>
  150.9703  134.9077  159.7783 H   0  0  0  0  0  0  0  0  0  0  0  0  # atno 6907 bound_to 6896
  152.5188  134.3550  159.9274 H   0  0  0  0  0  0  0  0  0  0  0  0  # atno 6908 bound_to 6896
  151.3560  133.3867  159.2719 H   0  0  0  0  0  0  0  0  0  0  0  0  # atno 6909 bound_to 6896
  146.2178  140.2948  142.8371 H   0  0  0  0  0  0  0  0  0  0  0  0  # atno 7974 bound_to 7965
  155.6271  140.3496  155.4671 H   0  0  0  0  0  0  0  0  0  0  0  0  # atno 8008 bound_to 7997
  156.0033  140.1218  157.0550 H   0  0  0  0  0  0  0  0  0  0  0  0  # atno 8009 bound_to 7997
  154.4256  140.1096  156.5713 H   0  0  0  0  0  0  0  0  0  0  0  0  # atno 8010 bound_to 7997
  140.4239  144.1421  150.6151 H   0  0  0  0  0  0  0  0  0  0  0  0  # atno 10167 bound_to 10162
  156.2156  130.4163  149.9058 H   0  0  0  0  0  0  0  0  0  0  0  0  # atno 10718 bound_to 10713
  152.9905  135.6158  154.2808 H   0  0  0  0  0  0  0  0  0  0  0  0  # atno 10763 bound_to 10752
  154.2538  135.2784  155.2808 H   0  0  0  0  0  0  0  0  0  0  0  0  # atno 10764 bound_to 10752
  154.5265  135.5800  153.6781 H   0  0  0  0  0  0  0  0  0  0  0  0  # atno 10765 bound_to 10752
  140.5206  134.5713  157.5046 H   0  0  0  0  0  0  0  0  0  0  0  0  # atno 11005 bound_to 11000
  144.9100  140.7746  143.5813 LP  0  0  0  0  0  0  0  0  0  0  0  0  # atno 17320 bound_to 7965
  145.2879  139.1894  143.4756 LP  0  0  0  0  0  0  0  0  0  0  0  0  # atno 17321 bound_to 7965
  140.4503  143.2489  151.9357 LP  0  0  0  0  0  0  0  0  0  0  0  0  # atno 17342 bound_to 10162
  139.4783  144.5569  151.8300 LP  0  0  0  0  0  0  0  0  0  0  0  0  # atno 17343 bound_to 10162
  156.6721  130.8824  151.3564 LP  0  0  0  0  0  0  0  0  0  0  0  0  # atno 17370 bound_to 10713
  157.7061  130.9387  150.0937 LP  0  0  0  0  0  0  0  0  0  0  0  0  # atno 17371 bound_to 10713
  139.9608  134.7456  156.0241 LP  0  0  0  0  0  0  0  0  0  0  0  0  # atno 17394 bound_to 11000
  141.1336  133.6580  156.3533 LP  0  0  0  0  0  0  0  0  0  0  0  0  # atno 17395 bound_to 11000

$$$$
