AV-unprocessed.smi:2694|AV-procd|sdf|10405|dock5
  -GOLD-   2272014433D 1   1.00000     0.00000
 Structure written by MMmdl.
 42 44  0  0  0  0  0  0  0  0  1 V2000
  152.3193  138.3152  159.2868 O   0  0  0  0  0  0  0  0  0  0  0  0
  151.8033  139.3993  159.0151 C   0  0  0  0  0  0  0  0  0  0  0  0
  152.5207  140.6678  159.1438 C   0  0  0  0  0  0  0  0  0  0  0  0
  151.9161  141.8412  158.8386 C   0  0  0  0  0  0  0  0  0  0  0  0
  152.6126  143.1864  158.9936 C   0  0  0  0  0  0  0  0  0  0  0  0
  152.6944  143.7622  160.4178 C   0  0  0  0  0  0  0  0  0  0  0  0
  152.4113  145.1405  159.8104 C   0  0  0  0  0  0  0  0  0  0  0  0
  151.7649  144.4153  158.6252 C   0  0  0  0  0  0  0  0  0  0  0  0
  150.5902  141.8633  158.3923 N   0  0  0  0  0  0  0  0  0  0  0  0
  149.9350  140.7541  158.2654 C   0  0  0  0  0  0  0  0  0  0  0  0
  150.5157  139.5085  158.5767 N   0  0  0  0  0  0  0  0  0  0  0  0
  149.6611  138.3190  158.4142 C   0  0  0  0  0  0  0  0  0  0  0  0
  149.5783  137.4458  159.6893 C   0  0  2  0  0  0  0  0  0  0  0  0
  150.0686  136.1597  159.3715 O   0  0  0  0  0  0  0  0  0  0  0  0
  148.1572  137.2974  160.2630 C   0  0  0  0  0  0  0  0  0  0  0  0
  148.2542  137.0026  161.6503 O   0  0  0  0  0  0  0  0  0  0  0  0
  148.4626  135.6968  162.0398 C   0  0  0  0  0  0  0  0  0  0  0  0
  148.2793  134.5777  161.1885 C   0  0  0  0  0  0  0  0  0  0  0  0
  148.4979  133.2717  161.6686 C   0  0  0  0  0  0  0  0  0  0  0  0
  148.9043  133.0668  162.9995 C   0  0  0  0  0  0  0  0  0  0  0  0
  149.0987  134.1708  163.8492 C   0  0  0  0  0  0  0  0  0  0  0  0
  148.8831  135.4777  163.3706 C   0  0  0  0  0  0  0  0  0  0  0  0
  149.1431  136.8157  164.4304 Cl  0  0  0  0  0  0  0  0  0  0  0  0
  153.5422  140.6561  159.4947 H   0  0  0  0  0  0  0  0  0  0  0  0
  153.5832  143.1990  158.4943 H   0  0  0  0  0  0  0  0  0  0  0  0
  151.8911  143.4288  161.0764 H   0  0  0  0  0  0  0  0  0  0  0  0
  153.6707  143.6654  160.8934 H   0  0  0  0  0  0  0  0  0  0  0  0
  151.7308  145.7645  160.3904 H   0  0  0  0  0  0  0  0  0  0  0  0
  153.3205  145.6771  159.5346 H   0  0  0  0  0  0  0  0  0  0  0  0
  151.9861  144.8471  157.6489 H   0  0  0  0  0  0  0  0  0  0  0  0
  150.6929  144.2625  158.7647 H   0  0  0  0  0  0  0  0  0  0  0  0
  148.8996  140.7183  157.9228 H   0  0  0  0  0  0  0  0  0  0  0  0
  148.6535  138.6015  158.1021 H   0  0  0  0  0  0  0  0  0  0  0  0
  150.0430  137.7175  157.5868 H   0  0  0  0  0  0  0  0  0  0  0  0
  150.2355  137.8480  160.4613 H   0  0  0  0  0  0  0  0  0  0  0  0
  149.3340  135.5878  159.2096 H   0  0  0  0  0  0  0  0  0  0  0  0
  147.5930  138.2125  160.0769 H   0  0  0  0  0  0  0  0  0  0  0  0
  147.6331  136.4736  159.7756 H   0  0  0  0  0  0  0  0  0  0  0  0
  147.9735  134.6936  160.1601 H   0  0  0  0  0  0  0  0  0  0  0  0
  148.3533  132.4256  161.0132 H   0  0  0  0  0  0  0  0  0  0  0  0
  149.0708  132.0650  163.3671 H   0  0  0  0  0  0  0  0  0  0  0  0
  149.4153  134.0145  164.8700 H   0  0  0  0  0  0  0  0  0  0  0  0
  1  2  2  0  0  0  0
  2 11  1  0  0  0  0
  2  3  1  0  0  0  0
  3  4  2  0  0  0  0
  3 24  1  0  0  0  0
  4  5  1  0  0  0  0
  4  9  1  0  0  0  0
  5  8  1  0  0  0  0
  5  6  1  0  0  0  0
  5 25  1  0  0  0  0
  6  7  1  0  0  0  0
  6 26  1  0  0  0  0
  6 27  1  0  0  0  0
  7  8  1  0  0  0  0
  7 28  1  0  0  0  0
  7 29  1  0  0  0  0
  8 30  1  0  0  0  0
  8 31  1  0  0  0  0
  9 10  2  0  0  0  0
 10 11  1  0  0  0  0
 10 32  1  0  0  0  0
 11 12  1  0  0  0  0
 12 13  1  0  0  0  0
 12 33  1  0  0  0  0
 12 34  1  0  0  0  0
 13 14  1  0  0  0  0
 13 15  1  0  0  0  0
 13 35  1  0  0  0  0
 14 36  1  0  0  0  0
 15 16  1  0  0  0  0
 15 37  1  0  0  0  0
 15 38  1  0  0  0  0
 16 17  1  0  0  0  0
 17 22  1  0  0  0  0
 17 18  2  0  0  0  0
 18 19  1  0  0  0  0
 18 39  1  0  0  0  0
 19 20  2  0  0  0  0
 19 40  1  0  0  0  0
 20 21  1  0  0  0  0
 20 41  1  0  0  0  0
 21 22  2  0  0  0  0
 21 42  1  0  0  0  0
 22 23  1  0  0  0  0
M  END
> <s_m_source_file>
AV-unprocessed.smi

> <i_m_source_file_index>
2694

> <i_lp_mmshare_version>
43012

> <i_f3d_flags>
0

> <s_epik_input>
W0NIMl0xW0NIMl1bQ0gyXVtDSF0xYyhbY0hdYzI9TyluW2NIXW4yW0NIMl1bQ0BIXShbT0hdKVtDSDJdT2MzW2NIXVtjSF1bY0hdW2NIXWMzQ2w=

> <s_epik_cmdline>
J2VwaWtfcHl0aG9uJywgJy1waCcsICc3LjAnLCAnLXRuJywgJzgnLCAnLW1hJywgJzIwMCcsICctbWV0YWxfYmluZGluZycsICctaW1hZScsICc8aW5maWxlLm1hZT4nLCAnLW9tYWUnLCAnPG91dGZpbGUubWFlPic=

> <r_lp_tautomer_probability>
1

> <r_epik_Ionization_Penalty>
1.78212e-05

> <r_epik_Ionization_Penalty_Charging>
5.61663e-08

> <r_epik_Ionization_Penalty_Neutral>
1.7765e-05

> <r_epik_State_Penalty>
-0

> <r_epik_Charging_Adjusted_Penalty>
5.61663e-08

> <i_epik_Tot_Q>
0

> <i_epik_Tot_abs_Q>
0

> <r_epik_Metal_State_Penalty>
-0

> <b_epik_Metal_Only>
0

> <s_lp_Force_Field>
OPLS_2005

> <r_lp_Energy>
26.4785

> <b_lp_Chiralities_Consistent>
1

> <s_lp_Variant>
AV-unprocessed.smi:2694-1

> <Gold.Version>
5.8.1

> <Gold.Id.Protein>
6NUR|6NUR_protein|mol2

> <Gold.PLP.Fitness>
54.8573

> <Gold.PLP.PLP>
-51.7396

> <Gold.PLP.part.hbond>
-2.2050

> <Gold.PLP.part.metal>
0.0000

> <Gold.PLP.part.buried>
-6.0280

> <Gold.PLP.part.nonpolar>
-43.9135

> <Gold.PLP.part.repulsive>
0.0451

> <Gold.PLP.ligand.clash>
0.0000

> <Gold.PLP.ligand.torsion>
1.6396

> <Gold.PLP.Chemscore.Hbond>
1.9760

> <Gold.PLP.Chemscore.CHOScore>
0.0000

> <Gold.PLP.Chemscore.Metal>
0.0000

> <Gold.Chemscore.Hbonds>
donor molecule, donor type, donor heavy atom, donor atom, acceptor molecule, acceptor atom, score
      P1  H  6896  6909       L1    14  0.85
      P1  H  6931  6943       L1    16  0.54

> <Gold.PLP.Chemscore.Internal.Correction>
0.4690

> <Gold.Rescore>
     Score         DG    S(hbond)    S(metal)    S(lipo)     H(rot)  DE(clash)    DE(int)     intcor
     16.07     -19.21       1.61        0.00     124.43       2.42       0.16       2.98       ----

> <Gold.Chemscore.Fitness>
16.0654

> <Gold.Chemscore.DG>
-19.2089

> <Gold.Chemscore.ZeroCoef>
-5.4800

> <Gold.Chemscore.Hbond>
1.6099

> <Gold.Chemscore.Metal>
0.0000

> <Gold.Chemscore.Lipo>
124.4301

> <Gold.Chemscore.Internal_Hbond>
0.0000

> <Gold.Chemscore.DEClash>
0.1597

> <Gold.Chemscore.DEInternal>
2.9838

> <Gold.Chemscore.Rot>
2.4245

> <Gold.Chemscore.Internal.Correction>
   9.000000E+99

> <Gold.Chemscore.Hbonds>
donor molecule, donor type, donor heavy atom, donor atom, acceptor molecule, acceptor atom, score
      P1  H  6896  6909       L1    14  0.14
      P1  H  6931  6943       L1    16  0.04

> <Gold.Chemscore.Hbond.Weighted>
-5.3772

> <Gold.Chemscore.Metal.Weighted>
-0.0000

> <Gold.Chemscore.Lipo.Weighted>
-14.5583

> <Gold.Chemscore.Internal_Hbond.Weighted>
0.0000

> <Gold.Chemscore.DEClash.Weighted>
0.1597

> <Gold.Chemscore.DEInternal.Weighted>
2.9838

> <Gold.Chemscore.Rot.Weighted>
6.2066

> <Gold.Chemscore.Internal.Correction.Weighted>
   9.000000E+99

> <Gold.Protein.RotatedTorsions>
[ 6907 6896 6895 6894 ] final   89.87 input  -60.11 | X-H torsion
[ 7974 7965 7964 7962 ] final    6.04 input  175.53 | X-H torsion
[ 8008 7997 7996 7995 ] final -153.55 input   59.86 | X-H torsion
[ 10167 10162 10161 10158 ] final -158.04 input  -65.29 | X-H torsion
[ 10718 10713 10712 10709 ] final -136.07 input   66.30 | X-H torsion
[ 10763 10752 10751 10750 ] final   70.03 input  -60.55 | X-H torsion
[ 11005 11000 10999 10996 ] final  -10.38 input  -57.11 | X-H torsion

> <Gold.Protein.ActiveResidues>
 VAL166  LYS551  ARG553  GLY616  TRP617  ASP618  TYR619  PRO620  LYS621  CYS622 
 ASP623  PHE694  ASN695  SER759  ASP760  ASP761  ALA762  ILE779  LEU786  VAL792 
 PHE793  MET794  SER795  GLU796  ALA797  LYS798  CYS799  TRP800  GLU811  SER814 

> <Gold.Protein.RotatedAtoms>
  152.5440  134.1899  159.8669 H   0  0  0  0  0  0  0  0  0  0  0  0  # atno 6907 bound_to 6896
  151.1895  133.4669  159.2602 H   0  0  0  0  0  0  0  0  0  0  0  0  # atno 6908 bound_to 6896
  151.1097  135.0031  159.8543 H   0  0  0  0  0  0  0  0  0  0  0  0  # atno 6909 bound_to 6896
  146.2437  140.0294  142.8391 H   0  0  0  0  0  0  0  0  0  0  0  0  # atno 7974 bound_to 7965
  155.6726  140.0735  157.2514 H   0  0  0  0  0  0  0  0  0  0  0  0  # atno 8008 bound_to 7997
  154.4120  140.1696  156.1947 H   0  0  0  0  0  0  0  0  0  0  0  0  # atno 8009 bound_to 7997
  155.9603  140.3370  155.6488 H   0  0  0  0  0  0  0  0  0  0  0  0  # atno 8010 bound_to 7997
  139.6723  143.9724  152.2290 H   0  0  0  0  0  0  0  0  0  0  0  0  # atno 10167 bound_to 10162
  156.2731  130.7277  151.1250 H   0  0  0  0  0  0  0  0  0  0  0  0  # atno 10718 bound_to 10713
  153.0319  135.5189  154.7379 H   0  0  0  0  0  0  0  0  0  0  0  0  # atno 10763 bound_to 10752
  154.6387  135.2909  155.0131 H   0  0  0  0  0  0  0  0  0  0  0  0  # atno 10764 bound_to 10752
  154.1057  135.6629  153.4928 H   0  0  0  0  0  0  0  0  0  0  0  0  # atno 10765 bound_to 10752
  140.7441  133.8646  155.8991 H   0  0  0  0  0  0  0  0  0  0  0  0  # atno 11005 bound_to 11000
  145.1169  140.9439  143.4623 LP  0  0  0  0  0  0  0  0  0  0  0  0  # atno 17320 bound_to 7965
  145.0520  139.3174  143.5924 LP  0  0  0  0  0  0  0  0  0  0  0  0  # atno 17321 bound_to 7965
  139.9492  144.6632  150.8189 LP  0  0  0  0  0  0  0  0  0  0  0  0  # atno 17342 bound_to 10162
  140.7622  143.3194  151.2658 LP  0  0  0  0  0  0  0  0  0  0  0  0  # atno 17343 bound_to 10162
  157.7290  131.0627  150.5793 LP  0  0  0  0  0  0  0  0  0  0  0  0  # atno 17370 bound_to 10713
  156.5891  130.4324  149.5944 LP  0  0  0  0  0  0  0  0  0  0  0  0  # atno 17371 bound_to 10713
  140.9810  134.1405  157.4494 LP  0  0  0  0  0  0  0  0  0  0  0  0  # atno 17394 bound_to 11000
  139.8800  135.0010  156.6044 LP  0  0  0  0  0  0  0  0  0  0  0  0  # atno 17395 bound_to 11000

$$$$
