AV-unprocessed.smi:2936|AV-procd|sdf|11257|dock2
  -GOLD-   2272016153D 1   1.00000     0.00000
 Structure written by MMmdl.
 23 24  0  0  0  0  0  0  0  0  2 V2000
  151.1462  139.4568  156.6504 O   0  0  0  0  0  0  0  0  0  0  0  0
  151.8353  139.7781  157.6172 C   0  0  0  0  0  0  0  0  0  0  0  0
  152.5447  138.8598  158.3420 N   0  5  0  0  0  0  0  0  0  0  0  0
  153.3427  139.2841  159.4714 N   0  0  0  0  0  0  0  0  0  0  0  0
  153.3979  140.5115  159.8100 C   0  0  0  0  0  0  0  0  0  0  0  0
  152.6620  141.5674  159.0825 C   0  0  0  0  0  0  0  0  0  0  0  0
  152.7622  142.8858  159.5007 N   0  0  0  0  0  0  0  0  0  0  0  0
  152.5914  143.3033  160.8841 C   0  0  0  0  0  0  0  0  0  0  0  0
  151.5154  144.3995  160.9797 C   0  0  0  0  0  0  0  0  0  0  0  0
  151.8563  145.4799  160.1147 O   0  0  0  0  0  0  0  0  0  0  0  0
  151.9369  145.0733  158.7509 C   0  0  0  0  0  0  0  0  0  0  0  0
  153.0251  143.9960  158.5978 C   0  0  0  0  0  0  0  0  0  0  0  0
  151.9081  141.1886  158.0183 C   0  0  0  0  0  0  0  0  0  0  0  0
  151.0107  142.3510  157.0987 Cl  0  0  0  0  0  0  0  0  0  0  0  0
  153.9955  140.8487  160.6609 H   0  0  0  0  0  0  0  0  0  0  0  0
  152.3149  142.4480  161.5018 H   0  0  0  0  0  0  0  0  0  0  0  0
  153.5448  143.6750  161.2612 H   0  0  0  0  0  0  0  0  0  0  0  0
  150.5318  144.0072  160.7186 H   0  0  0  0  0  0  0  0  0  0  0  0
  151.4476  144.7707  162.0020 H   0  0  0  0  0  0  0  0  0  0  0  0
  150.9684  144.7027  158.4131 H   0  0  0  0  0  0  0  0  0  0  0  0
  152.1773  145.9402  158.1356 H   0  0  0  0  0  0  0  0  0  0  0  0
  154.0062  144.4133  158.8266 H   0  0  0  0  0  0  0  0  0  0  0  0
  153.0612  143.6401  157.5675 H   0  0  0  0  0  0  0  0  0  0  0  0
  1  2  2  0  0  0  0
  2 13  1  0  0  0  0
  2  3  1  0  0  0  0
  3  4  1  0  0  0  0
  4  5  2  0  0  0  0
  5  6  1  0  0  0  0
  5 15  1  0  0  0  0
  6  7  1  0  0  0  0
  6 13  2  0  0  0  0
  7 12  1  0  0  0  0
  7  8  1  0  0  0  0
  8  9  1  0  0  0  0
  8 16  1  0  0  0  0
  8 17  1  0  0  0  0
  9 10  1  0  0  0  0
  9 18  1  0  0  0  0
  9 19  1  0  0  0  0
 10 11  1  0  0  0  0
 11 12  1  0  0  0  0
 11 20  1  0  0  0  0
 11 21  1  0  0  0  0
 12 22  1  0  0  0  0
 12 23  1  0  0  0  0
 13 14  1  0  0  0  0
M  CHG  1   3  -1
M  END
> <s_m_source_file>
AV-unprocessed.smi

> <i_m_source_file_index>
2936

> <i_lp_mmshare_version>
43012

> <i_f3d_flags>
0

> <s_epik_input>
Tz1jMVtuSF1uW2NIXWMoYzFDbClOMltDSDJdW0NIMl1PW0NIMl1bQ0gyXTI=

> <s_epik_cmdline>
J2VwaWtfcHl0aG9uJywgJy1waCcsICc3LjAnLCAnLXRuJywgJzgnLCAnLW1hJywgJzIwMCcsICctbWV0YWxfYmluZGluZycsICctaW1hZScsICc8aW5maWxlLm1hZT4nLCAnLW9tYWUnLCAnPG91dGZpbGUubWFlPic=

> <r_lp_tautomer_probability>
1

> <r_epik_Ionization_Penalty>
2.40826

> <r_epik_Ionization_Penalty_Charging>
0.00182709

> <r_epik_Ionization_Penalty_Neutral>
2.40643

> <r_epik_State_Penalty>
0.0371983

> <r_epik_Charging_Adjusted_Penalty>
0.0390254

> <i_epik_Tot_Q>
-1

> <i_epik_Tot_abs_Q>
1

> <r_epik_Metal_State_Penalty>
0.000698467

> <b_epik_Metal_Only>
0

> <s_lp_Force_Field>
OPLS_2005

> <r_lp_Energy>
40.7518

> <b_lp_Chiralities_Consistent>
1

> <s_lp_Variant>
AV-unprocessed.smi:2936-1

> <Gold.Version>
5.8.1

> <Gold.Id.Protein>
6NUR|6NUR_protein|mol2

> <Gold.PLP.Fitness>
31.8905

> <Gold.PLP.PLP>
-31.9521

> <Gold.PLP.part.hbond>
0.0000

> <Gold.PLP.part.metal>
0.0000

> <Gold.PLP.part.buried>
-4.6241

> <Gold.PLP.part.nonpolar>
-27.4538

> <Gold.PLP.part.repulsive>
0.1595

> <Gold.PLP.ligand.clash>
0.0000

> <Gold.PLP.ligand.torsion>
0.8343

> <Gold.PLP.Chemscore.Hbond>
0.0000

> <Gold.PLP.Chemscore.CHOScore>
0.0000

> <Gold.PLP.Chemscore.Metal>
0.0000

> <Gold.PLP.Chemscore.Internal.Correction>
1.6069

> <Gold.Rescore>
     Score         DG    S(hbond)    S(metal)    S(lipo)     H(rot)  DE(clash)    DE(int)     intcor
     13.62     -14.65       0.00        0.00      78.40       0.00       0.02       1.01       ----

> <Gold.Chemscore.Fitness>
13.6200

> <Gold.Chemscore.DG>
-14.6530

> <Gold.Chemscore.ZeroCoef>
-5.4800

> <Gold.Chemscore.Hbond>
0.0000

> <Gold.Chemscore.Metal>
0.0000

> <Gold.Chemscore.Lipo>
78.4021

> <Gold.Chemscore.Internal_Hbond>
0.0000

> <Gold.Chemscore.DEClash>
0.0234

> <Gold.Chemscore.DEInternal>
1.0096

> <Gold.Chemscore.Rot>
0.0000

> <Gold.Chemscore.Internal.Correction>
   9.000000E+99

> <Gold.Chemscore.Hbond.Weighted>
-0.0000

> <Gold.Chemscore.Metal.Weighted>
-0.0000

> <Gold.Chemscore.Lipo.Weighted>
-9.1730

> <Gold.Chemscore.Internal_Hbond.Weighted>
0.0000

> <Gold.Chemscore.DEClash.Weighted>
0.0234

> <Gold.Chemscore.DEInternal.Weighted>
1.0096

> <Gold.Chemscore.Rot.Weighted>
0.0000

> <Gold.Chemscore.Internal.Correction.Weighted>
   9.000000E+99

> <Gold.Protein.RotatedTorsions>
[ 6907 6896 6895 6894 ] final  145.43 input  -60.11 | X-H torsion
[ 7974 7965 7964 7962 ] final  -14.32 input  175.53 | X-H torsion
[ 8008 7997 7996 7995 ] final  -86.86 input   59.86 | X-H torsion
[ 10167 10162 10161 10158 ] final   32.18 input  -65.29 | X-H torsion
[ 10718 10713 10712 10709 ] final  -24.59 input   66.30 | X-H torsion
[ 10763 10752 10751 10750 ] final -115.90 input  -60.55 | X-H torsion
[ 11005 11000 10999 10996 ] final  170.23 input  -57.11 | X-H torsion

> <Gold.Protein.ActiveResidues>
 VAL166  LYS551  ARG553  GLY616  TRP617  ASP618  TYR619  PRO620  LYS621  CYS622 
 ASP623  PHE694  ASN695  SER759  ASP760  ASP761  ALA762  ILE779  LEU786  VAL792 
 PHE793  MET794  SER795  GLU796  ALA797  LYS798  CYS799  TRP800  GLU811  SER814 

> <Gold.Protein.RotatedAtoms>
  152.1810  133.4707  159.4957 H   0  0  0  0  0  0  0  0  0  0  0  0  # atno 6907 bound_to 6896
  150.6934  134.1834  159.4266 H   0  0  0  0  0  0  0  0  0  0  0  0  # atno 6908 bound_to 6896
  151.9745  135.0060  160.0605 H   0  0  0  0  0  0  0  0  0  0  0  0  # atno 6909 bound_to 6896
  146.2079  140.3331  142.8401 H   0  0  0  0  0  0  0  0  0  0  0  0  # atno 7974 bound_to 7965
  154.6567  140.0573  157.0016 H   0  0  0  0  0  0  0  0  0  0  0  0  # atno 8008 bound_to 7997
  155.1290  140.3255  155.4460 H   0  0  0  0  0  0  0  0  0  0  0  0  # atno 8009 bound_to 7997
  156.2600  140.1984  156.6410 H   0  0  0  0  0  0  0  0  0  0  0  0  # atno 8010 bound_to 7997
  140.4522  144.1032  150.6194 H   0  0  0  0  0  0  0  0  0  0  0  0  # atno 10167 bound_to 10162
  156.4757  130.4534  149.6842 H   0  0  0  0  0  0  0  0  0  0  0  0  # atno 10718 bound_to 10713
  154.8499  135.4365  154.1736 H   0  0  0  0  0  0  0  0  0  0  0  0  # atno 10763 bound_to 10752
  153.2843  135.6956  153.7361 H   0  0  0  0  0  0  0  0  0  0  0  0  # atno 10764 bound_to 10752
  153.6552  135.3444  155.3086 H   0  0  0  0  0  0  0  0  0  0  0  0  # atno 10765 bound_to 10752
  140.3062  134.7555  157.3955 H   0  0  0  0  0  0  0  0  0  0  0  0  # atno 11005 bound_to 11000
  144.8838  140.7436  143.5969 LP  0  0  0  0  0  0  0  0  0  0  0  0  # atno 17320 bound_to 7965
  145.3251  139.1776  143.4567 LP  0  0  0  0  0  0  0  0  0  0  0  0  # atno 17321 bound_to 7965
  140.4194  143.2619  151.9734 LP  0  0  0  0  0  0  0  0  0  0  0  0  # atno 17342 bound_to 10162
  139.4797  144.5844  151.7878 LP  0  0  0  0  0  0  0  0  0  0  0  0  # atno 17343 bound_to 10162
  156.3573  130.7463  151.2430 LP  0  0  0  0  0  0  0  0  0  0  0  0  # atno 17370 bound_to 10713
  157.7487  131.0360  150.4390 LP  0  0  0  0  0  0  0  0  0  0  0  0  # atno 17371 bound_to 10713
  140.1065  134.5402  155.8304 LP  0  0  0  0  0  0  0  0  0  0  0  0  # atno 17394 bound_to 11000
  141.2118  133.6711  156.6609 LP  0  0  0  0  0  0  0  0  0  0  0  0  # atno 17395 bound_to 11000

$$$$
