AV-unprocessed.smi:1419|AV-procd|sdf|5783|dock2
  -GOLD-   22720 5423D 1   1.00000     0.00000
 Structure written by MMmdl.
 41 42  0  0  0  0  0  0  0  0  1 V2000
  145.6784  136.7793  152.6437 C   0  0  0  0  0  0  0  0  0  0  0  0
  145.8187  135.3052  152.2301 C   0  0  1  0  0  0  0  0  0  0  0  0
  145.3834  135.0398  150.7726 C   0  0  0  0  0  0  0  0  0  0  0  0
  145.2383  133.6268  150.4796 N   0  0  0  0  0  0  0  0  0  0  0  0
  146.2534  132.6965  150.2982 C   0  0  0  0  0  0  0  0  0  0  0  0
  145.6400  131.4905  150.0442 C   0  0  0  0  0  0  0  0  0  0  0  0
  144.2569  131.6535  150.0693 N   0  0  0  0  0  0  0  0  0  0  0  0
  144.0948  132.9434  150.3351 C   0  0  0  0  0  0  0  0  0  0  0  0
  147.2034  134.8862  152.4221 N   0  0  0  0  0  0  0  0  0  0  0  0
  147.7549  134.5094  153.5884 C   0  0  0  0  0  0  0  0  0  0  0  0
  147.1216  134.5109  154.6449 O   0  0  0  0  0  0  0  0  0  0  0  0
  149.0573  134.1412  153.5036 N   0  0  0  0  0  0  0  0  0  0  0  0
  149.7262  133.5272  152.3481 C   0  0  0  0  0  0  0  0  0  0  0  0
  150.0327  132.0499  152.6721 C   0  0  2  0  0  0  0  0  0  0  0  0
  148.7839  131.1508  152.7302 C   0  0  0  0  0  0  0  0  0  0  0  0
  150.7932  131.9701  153.8820 O   0  0  0  0  0  0  0  0  0  0  0  0
  150.2287  132.6331  155.0168 C   0  0  1  0  0  0  0  0  0  0  0  0
  151.2148  132.4965  156.1818 C   0  0  0  0  0  0  0  0  0  0  0  0
  149.9460  134.1074  154.6665 C   0  0  0  0  0  0  0  0  0  0  0  0
  144.6401  137.1093  152.6037 H   0  0  0  0  0  0  0  0  0  0  0  0
  146.2609  137.4309  151.9916 H   0  0  0  0  0  0  0  0  0  0  0  0
  146.0263  136.9343  153.6657 H   0  0  0  0  0  0  0  0  0  0  0  0
  145.1835  134.7183  152.8965 H   0  0  0  0  0  0  0  0  0  0  0  0
  144.4341  135.5358  150.5640 H   0  0  0  0  0  0  0  0  0  0  0  0
  146.1111  135.4552  150.0740 H   0  0  0  0  0  0  0  0  0  0  0  0
  147.2986  132.9624  150.3593 H   0  0  0  0  0  0  0  0  0  0  0  0
  146.0842  130.5259  149.8479 H   0  0  0  0  0  0  0  0  0  0  0  0
  143.1214  133.4032  150.4246 H   0  0  0  0  0  0  0  0  0  0  0  0
  147.7888  134.8657  151.5998 H   0  0  0  0  0  0  0  0  0  0  0  0
  149.1641  133.5956  151.4168 H   0  0  0  0  0  0  0  0  0  0  0  0
  150.6587  134.0613  152.1592 H   0  0  0  0  0  0  0  0  0  0  0  0
  150.6732  131.6591  151.8812 H   0  0  0  0  0  0  0  0  0  0  0  0
  148.2613  131.1534  151.7734 H   0  0  0  0  0  0  0  0  0  0  0  0
  148.0713  131.4744  153.4883 H   0  0  0  0  0  0  0  0  0  0  0  0
  149.0594  130.1199  152.9529 H   0  0  0  0  0  0  0  0  0  0  0  0
  149.2984  132.1398  155.3001 H   0  0  0  0  0  0  0  0  0  0  0  0
  150.8261  132.9715  157.0828 H   0  0  0  0  0  0  0  0  0  0  0  0
  152.1724  132.9607  155.9446 H   0  0  0  0  0  0  0  0  0  0  0  0
  151.4019  131.4474  156.4132 H   0  0  0  0  0  0  0  0  0  0  0  0
  150.8750  134.6279  154.4288 H   0  0  0  0  0  0  0  0  0  0  0  0
  149.5265  134.6251  155.5304 H   0  0  0  0  0  0  0  0  0  0  0  0
  1  2  1  0  0  0  0
  1 20  1  0  0  0  0
  1 21  1  0  0  0  0
  1 22  1  0  0  0  0
  2  3  1  0  0  0  0
  2  9  1  0  0  0  0
  2 23  1  0  0  0  0
  3  4  1  0  0  0  0
  3 24  1  0  0  0  0
  3 25  1  0  0  0  0
  4  8  1  0  0  0  0
  4  5  1  0  0  0  0
  5  6  2  0  0  0  0
  5 26  1  0  0  0  0
  6  7  1  0  0  0  0
  6 27  1  0  0  0  0
  7  8  2  0  0  0  0
  8 28  1  0  0  0  0
  9 10  1  0  0  0  0
  9 29  1  0  0  0  0
 10 11  2  0  0  0  0
 10 12  1  0  0  0  0
 12 19  1  0  0  0  0
 12 13  1  0  0  0  0
 13 14  1  0  0  0  0
 13 30  1  0  0  0  0
 13 31  1  0  0  0  0
 14 15  1  0  0  0  0
 14 16  1  0  0  0  0
 14 32  1  0  0  0  0
 15 33  1  0  0  0  0
 15 34  1  0  0  0  0
 15 35  1  0  0  0  0
 16 17  1  0  0  0  0
 17 18  1  0  0  0  0
 17 19  1  0  0  0  0
 17 36  1  0  0  0  0
 18 37  1  0  0  0  0
 18 38  1  0  0  0  0
 18 39  1  0  0  0  0
 19 40  1  0  0  0  0
 19 41  1  0  0  0  0
M  END
> <s_m_source_file>
AV-unprocessed.smi

> <i_m_source_file_index>
1419

> <i_lp_mmshare_version>
43012

> <i_f3d_flags>
0

> <s_epik_input>
W2NIXTFuW2NIXVtjSF1uMVtDSDJdW0NAQEhdKFtDSDNdKVtOSF1DKD1PKU4yW0NIMl1bQ0BASF0oW0NIM10pT1tDQEBIXShbQ0gzXSlbQ0gyXTI=

> <s_epik_cmdline>
J2VwaWtfcHl0aG9uJywgJy1waCcsICc3LjAnLCAnLXRuJywgJzgnLCAnLW1hJywgJzIwMCcsICctbWV0YWxfYmluZGluZycsICctaW1hZScsICc8aW5maWxlLm1hZT4nLCAnLW9tYWUnLCAnPG91dGZpbGUubWFlPic=

> <r_lp_tautomer_probability>
1

> <r_epik_Ionization_Penalty>
0.625124

> <r_epik_Ionization_Penalty_Charging>
0.625093

> <r_epik_Ionization_Penalty_Neutral>
3.17415e-05

> <r_epik_State_Penalty>
0.641455

> <r_epik_Charging_Adjusted_Penalty>
1.26655

> <i_epik_Tot_Q>
0

> <i_epik_Tot_abs_Q>
0

> <r_epik_Metal_State_Penalty>
0.307717

> <b_epik_Metal_Only>
0

> <s_lp_Force_Field>
OPLS_2005

> <r_lp_Energy>
30.8813

> <b_lp_Chiralities_Consistent>
1

> <s_lp_Variant>
AV-unprocessed.smi:1419-10

> <Gold.Version>
5.8.1

> <Gold.Id.Protein>
6NUR|6NUR_protein|mol2

> <Gold.PLP.Fitness>
34.9283

> <Gold.PLP.PLP>
-29.7915

> <Gold.PLP.part.hbond>
-1.9578

> <Gold.PLP.part.metal>
0.0000

> <Gold.PLP.part.buried>
-4.5515

> <Gold.PLP.part.nonpolar>
-23.7439

> <Gold.PLP.part.repulsive>
0.2096

> <Gold.PLP.ligand.clash>
0.0000

> <Gold.PLP.ligand.torsion>
0.8454

> <Gold.PLP.Chemscore.Hbond>
0.6965

> <Gold.PLP.Chemscore.CHOScore>
1.5597

> <Gold.PLP.Chemscore.Metal>
0.0000

> <Gold.Chemscore.Hbonds>
donor molecule, donor type, donor heavy atom, donor atom, acceptor molecule, acceptor atom, score
      L1  H     9    29       P1  7948  0.11
      P1  H 10785 10796       L1     7  0.26
      L1  C     5    26       P1 10747  0.43
      L1  C     6    27       P1 10747  0.01
      L1  C     8    28       P1 10186  1.00

> <Gold.PLP.Chemscore.Internal.Correction>
0.0589

> <Gold.Rescore>
     Score         DG    S(hbond)    S(metal)    S(lipo)     H(rot)  DE(clash)    DE(int)     intcor
     10.31     -11.24       0.70        0.00      63.65       1.58       0.06       0.88       ----

> <Gold.Chemscore.Fitness>
10.3118

> <Gold.Chemscore.DG>
-11.2450

> <Gold.Chemscore.ZeroCoef>
-5.4800

> <Gold.Chemscore.Hbond>
0.7049

> <Gold.Chemscore.Metal>
0.0000

> <Gold.Chemscore.Lipo>
63.6541

> <Gold.Chemscore.Internal_Hbond>
0.0000

> <Gold.Chemscore.DEClash>
0.0573

> <Gold.Chemscore.DEInternal>
0.8758

> <Gold.Chemscore.Rot>
1.5769

> <Gold.Chemscore.Internal.Correction>
   9.000000E+99

> <Gold.Chemscore.Hbonds>
donor molecule, donor type, donor heavy atom, donor atom, acceptor molecule, acceptor atom, score
      L1  H     9    29       P1  7948  0.04
      P1  H 10785 10796       L1     7  0.20

> <Gold.Chemscore.Hbond.Weighted>
-2.3543

> <Gold.Chemscore.Metal.Weighted>
-0.0000

> <Gold.Chemscore.Lipo.Weighted>
-7.4475

> <Gold.Chemscore.Internal_Hbond.Weighted>
0.0000

> <Gold.Chemscore.DEClash.Weighted>
0.0573

> <Gold.Chemscore.DEInternal.Weighted>
0.8758

> <Gold.Chemscore.Rot.Weighted>
4.0369

> <Gold.Chemscore.Internal.Correction.Weighted>
   9.000000E+99

> <Gold.Protein.RotatedTorsions>
[ 6907 6896 6895 6894 ] final  -26.91 input  -60.11 | X-H torsion
[ 7974 7965 7964 7962 ] final  -54.32 input  175.53 | X-H torsion
[ 8008 7997 7996 7995 ] final  -66.77 input   59.86 | X-H torsion
[ 10167 10162 10161 10158 ] final  132.90 input  -65.29 | X-H torsion
[ 10718 10713 10712 10709 ] final  106.22 input   66.30 | X-H torsion
[ 10763 10752 10751 10750 ] final  117.99 input  -60.55 | X-H torsion
[ 11005 11000 10999 10996 ] final  -40.75 input  -57.11 | X-H torsion

> <Gold.Protein.ActiveResidues>
 VAL166  LYS551  ARG553  GLY616  TRP617  ASP618  TYR619  PRO620  LYS621  CYS622 
 ASP623  PHE694  ASN695  SER759  ASP760  ASP761  ALA762  ILE779  LEU786  VAL792 
 PHE793  MET794  SER795  GLU796  ALA797  LYS798  CYS799  TRP800  GLU811  SER814 

> <Gold.Protein.RotatedAtoms>
  151.1544  135.0243  159.8682 H   0  0  0  0  0  0  0  0  0  0  0  0  # atno 6907 bound_to 6896
  152.5452  134.1352  159.8466 H   0  0  0  0  0  0  0  0  0  0  0  0  # atno 6908 bound_to 6896
  151.1440  133.4906  159.2629 H   0  0  0  0  0  0  0  0  0  0  0  0  # atno 6909 bound_to 6896
  145.8869  140.8101  142.9811 H   0  0  0  0  0  0  0  0  0  0  0  0  # atno 7974 bound_to 7965
  154.4756  140.0906  156.7253 H   0  0  0  0  0  0  0  0  0  0  0  0  # atno 8008 bound_to 7997
  155.4606  140.3461  155.4294 H   0  0  0  0  0  0  0  0  0  0  0  0  # atno 8009 bound_to 7997
  156.1110  140.1448  156.9326 H   0  0  0  0  0  0  0  0  0  0  0  0  # atno 8010 bound_to 7997
  139.5320  144.6641  151.4918 H   0  0  0  0  0  0  0  0  0  0  0  0  # atno 10167 bound_to 10162
  157.6676  131.0846  150.5974 H   0  0  0  0  0  0  0  0  0  0  0  0  # atno 10718 bound_to 10713
  153.5609  135.3521  155.2798 H   0  0  0  0  0  0  0  0  0  0  0  0  # atno 10763 bound_to 10752
  154.8695  135.4136  154.2832 H   0  0  0  0  0  0  0  0  0  0  0  0  # atno 10764 bound_to 10752
  153.3578  135.7058  153.6806 H   0  0  0  0  0  0  0  0  0  0  0  0  # atno 10765 bound_to 10752
  141.0197  133.6868  156.2364 H   0  0  0  0  0  0  0  0  0  0  0  0  # atno 11005 bound_to 11000
  144.6729  140.1469  143.7433 LP  0  0  0  0  0  0  0  0  0  0  0  0  # atno 17320 bound_to 7965
  145.8956  139.2401  143.1524 LP  0  0  0  0  0  0  0  0  0  0  0  0  # atno 17321 bound_to 7965
  140.6503  143.8709  150.6779 LP  0  0  0  0  0  0  0  0  0  0  0  0  # atno 17342 bound_to 10162
  140.2072  143.3912  152.1746 LP  0  0  0  0  0  0  0  0  0  0  0  0  # atno 17343 bound_to 10162
  156.6275  130.4423  149.5799 LP  0  0  0  0  0  0  0  0  0  0  0  0  # atno 17370 bound_to 10713
  156.2307  130.6793  151.1461 LP  0  0  0  0  0  0  0  0  0  0  0  0  # atno 17371 bound_to 10713
  140.6594  134.4984  157.5582 LP  0  0  0  0  0  0  0  0  0  0  0  0  # atno 17394 bound_to 11000
  139.9138  134.8288  156.1434 LP  0  0  0  0  0  0  0  0  0  0  0  0  # atno 17395 bound_to 11000

$$$$
