AV-unprocessed.smi:3216|AV-procd|sdf|12288|dock6
  -GOLD-   2272018133D 1   1.00000     0.00000
 Structure written by MMmdl.
 36 36  0  0  0  0  0  0  0  0  1 V2000
  150.5190  141.1897  155.9138 C   0  0  0  0  0  0  0  0  0  0  0  0
  149.6491  140.1925  155.1284 C   0  0  0  0  0  0  0  0  0  0  0  0
  150.5287  139.1835  154.3757 C   0  0  0  0  0  0  0  0  0  0  0  0
  148.6777  140.8971  154.1621 C   0  0  0  0  0  0  0  0  0  0  0  0
  148.1106  139.9648  153.1961 N   0  0  0  0  0  0  0  0  0  0  0  0
  146.9508  139.3133  153.3605 C   0  0  0  0  0  0  0  0  0  0  0  0
  146.2388  139.4404  154.3567 O   0  0  0  0  0  0  0  0  0  0  0  0
  146.5216  138.3806  152.2218 C   0  0  0  0  0  0  0  0  0  0  0  0
  146.6207  136.9469  152.5388 N   0  0  0  0  0  0  0  0  0  0  0  0
  145.6300  136.1251  151.8504 C   0  0  0  0  0  0  0  0  0  0  0  0
  145.9220  134.6325  152.0782 C   0  0  0  0  0  0  0  0  0  0  0  0
  145.3345  133.7911  151.0502 N   0  0  0  0  0  0  0  0  0  0  0  0
  145.9387  132.7978  150.3084 C   0  0  0  0  0  0  0  0  0  0  0  0
  144.9930  132.2865  149.4666 C   0  0  0  0  0  0  0  0  0  0  0  0
  143.8255  133.0400  149.7733 C   0  0  0  0  0  0  0  0  0  0  0  0
  144.0319  133.9373  150.7238 N   0  0  0  0  0  0  0  0  0  0  0  0
  151.1208  141.8028  155.2423 H   0  0  0  0  0  0  0  0  0  0  0  0
  151.2005  140.6689  156.5873 H   0  0  0  0  0  0  0  0  0  0  0  0
  149.9133  141.8604  156.5236 H   0  0  0  0  0  0  0  0  0  0  0  0
  149.0551  139.6300  155.8502 H   0  0  0  0  0  0  0  0  0  0  0  0
  151.1543  139.6798  153.6330 H   0  0  0  0  0  0  0  0  0  0  0  0
  149.9211  138.4416  153.8568 H   0  0  0  0  0  0  0  0  0  0  0  0
  151.1865  138.6471  155.0601 H   0  0  0  0  0  0  0  0  0  0  0  0
  147.8736  141.3759  154.7238 H   0  0  0  0  0  0  0  0  0  0  0  0
  149.1991  141.6863  153.6180 H   0  0  0  0  0  0  0  0  0  0  0  0
  148.6335  139.8060  152.3472 H   0  0  0  0  0  0  0  0  0  0  0  0
  145.5010  138.6091  151.9098 H   0  0  0  0  0  0  0  0  0  0  0  0
  147.1579  138.5882  151.3610 H   0  0  0  0  0  0  0  0  0  0  0  0
  147.5450  136.5890  152.3456 H   0  0  0  0  0  0  0  0  0  0  0  0
  144.6191  136.3560  152.1885 H   0  0  0  0  0  0  0  0  0  0  0  0
  145.6692  136.3408  150.7820 H   0  0  0  0  0  0  0  0  0  0  0  0
  146.9995  134.4641  152.0716 H   0  0  0  0  0  0  0  0  0  0  0  0
  145.5644  134.3141  153.0591 H   0  0  0  0  0  0  0  0  0  0  0  0
  146.9803  132.5434  150.4381 H   0  0  0  0  0  0  0  0  0  0  0  0
  145.1166  131.4959  148.7415 H   0  0  0  0  0  0  0  0  0  0  0  0
  142.8405  132.9615  149.3374 H   0  0  0  0  0  0  0  0  0  0  0  0
  1  2  1  0  0  0  0
  1 17  1  0  0  0  0
  1 18  1  0  0  0  0
  1 19  1  0  0  0  0
  2  3  1  0  0  0  0
  2  4  1  0  0  0  0
  2 20  1  0  0  0  0
  3 21  1  0  0  0  0
  3 22  1  0  0  0  0
  3 23  1  0  0  0  0
  4  5  1  0  0  0  0
  4 24  1  0  0  0  0
  4 25  1  0  0  0  0
  5  6  1  0  0  0  0
  5 26  1  0  0  0  0
  6  7  2  0  0  0  0
  6  8  1  0  0  0  0
  8  9  1  0  0  0  0
  8 27  1  0  0  0  0
  8 28  1  0  0  0  0
  9 10  1  0  0  0  0
  9 29  1  0  0  0  0
 10 11  1  0  0  0  0
 10 30  1  0  0  0  0
 10 31  1  0  0  0  0
 11 12  1  0  0  0  0
 11 32  1  0  0  0  0
 11 33  1  0  0  0  0
 12 16  1  0  0  0  0
 12 13  1  0  0  0  0
 13 14  2  0  0  0  0
 13 34  1  0  0  0  0
 14 15  1  0  0  0  0
 14 35  1  0  0  0  0
 15 16  2  0  0  0  0
 15 36  1  0  0  0  0
M  END
> <s_m_source_file>
AV-unprocessed.smi

> <i_m_source_file_index>
3216

> <i_lp_mmshare_version>
43012

> <i_f3d_flags>
0

> <s_epik_input>
W0NIM11bQ0hdKFtDSDNdKVtDSDJdW05IXUMoPU8pW0NIMl1bTkhdW0NIMl1bQ0gyXW4xW2NIXVtjSF1bY0hdbjE=

> <s_epik_cmdline>
J2VwaWtfcHl0aG9uJywgJy1waCcsICc3LjAnLCAnLXRuJywgJzgnLCAnLW1hJywgJzIwMCcsICctbWV0YWxfYmluZGluZycsICctaW1hZScsICc8aW5maWxlLm1hZT4nLCAnLW9tYWUnLCAnPG91dGZpbGUubWFlPic=

> <r_lp_tautomer_probability>
1

> <r_epik_Ionization_Penalty>
0.724936

> <r_epik_Ionization_Penalty_Charging>
0

> <r_epik_Ionization_Penalty_Neutral>
0.724936

> <r_epik_State_Penalty>
0.747957

> <r_epik_Charging_Adjusted_Penalty>
0.747957

> <i_epik_Tot_Q>
0

> <i_epik_Tot_abs_Q>
0

> <r_epik_Metal_State_Penalty>
0.746186

> <b_epik_Metal_Only>
0

> <s_lp_Force_Field>
OPLS_2005

> <r_lp_Energy>
6.66152

> <b_lp_Chiralities_Consistent>
1

> <s_lp_Variant>
AV-unprocessed.smi:3216-2

> <Gold.Version>
5.8.1

> <Gold.Id.Protein>
6NUR|6NUR_protein|mol2

> <Gold.PLP.Fitness>
44.6541

> <Gold.PLP.PLP>
-34.4239

> <Gold.PLP.part.hbond>
-1.9254

> <Gold.PLP.part.metal>
0.0000

> <Gold.PLP.part.buried>
-4.7427

> <Gold.PLP.part.nonpolar>
-29.7537

> <Gold.PLP.part.repulsive>
0.3903

> <Gold.PLP.ligand.clash>
0.0000

> <Gold.PLP.ligand.torsion>
0.8576

> <Gold.PLP.Chemscore.Hbond>
2.0000

> <Gold.PLP.Chemscore.CHOScore>
1.9284

> <Gold.PLP.Chemscore.Metal>
0.0000

> <Gold.Chemscore.Hbonds>
donor molecule, donor type, donor heavy atom, donor atom, acceptor molecule, acceptor atom, score
      L1  H     5    26       P1  7957  1.00
      L1  H     9    29       P1  7948  0.98
      L1  C    13    34       P1 10747  0.80
      L1  C    15    36       P1 10186  0.99

> <Gold.PLP.Chemscore.Internal.Correction>
0.1602

> <Gold.Rescore>
     Score         DG    S(hbond)    S(metal)    S(lipo)     H(rot)  DE(clash)    DE(int)     intcor
     14.59     -15.40       1.97        0.00      77.22       2.22       0.02       0.79       ----

> <Gold.Chemscore.Fitness>
14.5938

> <Gold.Chemscore.DG>
-15.4012

> <Gold.Chemscore.ZeroCoef>
-5.4800

> <Gold.Chemscore.Hbond>
1.9689

> <Gold.Chemscore.Metal>
0.0000

> <Gold.Chemscore.Lipo>
77.2236

> <Gold.Chemscore.Internal_Hbond>
0.0000

> <Gold.Chemscore.DEClash>
0.0212

> <Gold.Chemscore.DEInternal>
0.7862

> <Gold.Chemscore.Rot>
2.2227

> <Gold.Chemscore.Internal.Correction>
   9.000000E+99

> <Gold.Chemscore.Hbonds>
donor molecule, donor type, donor heavy atom, donor atom, acceptor molecule, acceptor atom, score
      L1  H     5    26       P1  7957  0.94
      L1  H     9    29       P1  7948  0.92

> <Gold.Chemscore.Hbond.Weighted>
-6.5762

> <Gold.Chemscore.Metal.Weighted>
-0.0000

> <Gold.Chemscore.Lipo.Weighted>
-9.0352

> <Gold.Chemscore.Internal_Hbond.Weighted>
0.0000

> <Gold.Chemscore.DEClash.Weighted>
0.0212

> <Gold.Chemscore.DEInternal.Weighted>
0.7862

> <Gold.Chemscore.Rot.Weighted>
5.6902

> <Gold.Chemscore.Internal.Correction.Weighted>
   9.000000E+99

> <Gold.Protein.RotatedTorsions>
[ 6907 6896 6895 6894 ] final -150.76 input  -60.11 | X-H torsion
[ 7974 7965 7964 7962 ] final   74.27 input  175.53 | X-H torsion
[ 8008 7997 7996 7995 ] final  -33.98 input   59.86 | X-H torsion
[ 10167 10162 10161 10158 ] final  -99.92 input  -65.29 | X-H torsion
[ 10718 10713 10712 10709 ] final -101.55 input   66.30 | X-H torsion
[ 10763 10752 10751 10750 ] final  -75.96 input  -60.55 | X-H torsion
[ 11005 11000 10999 10996 ] final -110.28 input  -57.11 | X-H torsion

> <Gold.Protein.ActiveResidues>
 VAL166  LYS551  ARG553  GLY616  TRP617  ASP618  TYR619  PRO620  LYS621  CYS622 
 ASP623  PHE694  ASN695  SER759  ASP760  ASP761  ALA762  ILE779  LEU786  VAL792 
 PHE793  MET794  SER795  GLU796  ALA797  LYS798  CYS799  TRP800  GLU811  SER814 

> <Gold.Protein.RotatedAtoms>
  151.2032  133.4599  159.2596 H   0  0  0  0  0  0  0  0  0  0  0  0  # atno 6907 bound_to 6896
  151.1049  134.9993  159.8476 H   0  0  0  0  0  0  0  0  0  0  0  0  # atno 6908 bound_to 6896
  152.5446  134.1956  159.8744 H   0  0  0  0  0  0  0  0  0  0  0  0  # atno 6909 bound_to 6896
  145.7303  139.2681  143.1545 H   0  0  0  0  0  0  0  0  0  0  0  0  # atno 7974 bound_to 7965
  154.4133  140.1696  156.1976 H   0  0  0  0  0  0  0  0  0  0  0  0  # atno 8008 bound_to 7997
  155.9551  140.3398  155.6418 H   0  0  0  0  0  0  0  0  0  0  0  0  # atno 8009 bound_to 7997
  155.6820  140.0724  157.2472 H   0  0  0  0  0  0  0  0  0  0  0  0  # atno 8010 bound_to 7997
  140.2573  143.3431  152.0658 H   0  0  0  0  0  0  0  0  0  0  0  0  # atno 10167 bound_to 10162
  156.0198  130.5379  150.6979 H   0  0  0  0  0  0  0  0  0  0  0  0  # atno 10718 bound_to 10713
  154.4935  135.5813  153.6477 H   0  0  0  0  0  0  0  0  0  0  0  0  # atno 10763 bound_to 10752
  152.9866  135.6118  154.3094 H   0  0  0  0  0  0  0  0  0  0  0  0  # atno 10764 bound_to 10752
  154.2995  135.2847  155.2597 H   0  0  0  0  0  0  0  0  0  0  0  0  # atno 10765 bound_to 10752
  141.0800  133.9235  157.2308 H   0  0  0  0  0  0  0  0  0  0  0  0  # atno 11005 bound_to 11000
  146.0543  140.8037  142.9766 LP  0  0  0  0  0  0  0  0  0  0  0  0  # atno 17320 bound_to 7965
  144.6894  140.3100  143.7249 LP  0  0  0  0  0  0  0  0  0  0  0  0  # atno 17321 bound_to 7965
  139.5027  144.6741  151.6172 LP  0  0  0  0  0  0  0  0  0  0  0  0  # atno 17342 bound_to 10162
  140.5993  143.9638  150.6375 LP  0  0  0  0  0  0  0  0  0  0  0  0  # atno 17343 bound_to 10162
  157.4646  131.0887  151.0708 LP  0  0  0  0  0  0  0  0  0  0  0  0  # atno 17370 bound_to 10713
  157.1186  130.6052  149.5499 LP  0  0  0  0  0  0  0  0  0  0  0  0  # atno 17371 bound_to 10713
  139.9614  135.0153  156.9270 LP  0  0  0  0  0  0  0  0  0  0  0  0  # atno 17394 bound_to 11000
  140.5489  134.0647  155.7363 LP  0  0  0  0  0  0  0  0  0  0  0  0  # atno 17395 bound_to 11000

$$$$
