AV-unprocessed.smi:89|AV-procd|sdf|825|dock7
  -GOLD-   2262017233D 1   1.00000     0.00000
 Structure written by MMmdl.
 54 56  0  0  0  0  0  0  0  0  1 V2000
  147.4806  134.5269  162.8635 C   0  0  0  0  0  0  0  0  0  0  0  0
  147.2232  136.0083  162.5432 C   0  0  0  0  0  0  0  0  0  0  0  0
  146.6010  136.2203  161.2332 N   0  0  0  0  0  0  0  0  0  0  0  0
  147.3894  136.6327  160.2115 C   0  0  0  0  0  0  0  0  0  0  0  0
  148.7290  136.6385  160.4279 N   0  0  0  0  0  0  0  0  0  0  0  0
  149.5632  137.0362  159.4636 C   0  0  0  0  0  0  0  0  0  0  0  0
  149.2734  137.4519  158.2293 N   0  0  0  0  0  0  0  0  0  0  0  0
  147.9289  137.4312  158.0009 C   0  0  0  0  0  0  0  0  0  0  0  0
  146.9220  137.0435  158.9302 C   0  0  0  0  0  0  0  0  0  0  0  0
  145.6686  137.1536  158.3396 N   0  0  0  0  0  0  0  0  0  0  0  0
  145.9193  137.5898  157.1360 C   0  0  0  0  0  0  0  0  0  0  0  0
  147.2519  137.7685  156.8415 N   0  0  0  0  0  0  0  0  0  0  0  0
  147.8104  138.2348  155.5809 C   0  0  0  0  0  0  0  0  0  0  0  0
  148.7240  139.4811  155.7110 C   0  0  1  0  0  0  0  0  0  0  0  0
  148.1107  140.4224  156.5719 O   0  0  0  0  0  0  0  0  0  0  0  0
  150.1336  139.1788  156.2261 C   0  0  0  0  0  0  0  0  0  0  0  0
  150.9665  139.1513  154.9527 C   0  0  0  0  0  0  0  0  0  0  0  0
  150.4015  140.2097  154.2005 O   0  0  0  0  0  0  0  0  0  0  0  0
  148.9878  140.1350  154.3389 C   0  0  0  0  0  0  0  0  0  0  0  0
  145.2160  136.6969  161.1437 C   0  0  2  0  0  0  0  0  0  0  0  0
  145.0502  138.0876  161.7806 C   0  0  0  0  0  0  0  0  0  0  0  0
  144.2086  135.6815  161.7174 C   0  0  0  0  0  0  0  0  0  0  0  0
  142.4659  136.2681  161.5281 S   0  0  0  0  0  0  0  0  0  0  0  0
  142.2416  137.3656  162.4811 O   0  0  0  0  0  0  0  0  0  0  0  0
  142.2053  136.4826  160.0963 O   0  0  0  0  0  0  0  0  0  0  0  0
  141.4923  134.8032  162.0866 C   0  0  0  0  0  0  0  0  0  0  0  0
  141.8034  134.4241  163.5393 C   0  0  0  0  0  0  0  0  0  0  0  0
  147.8781  134.4164  163.8722 H   0  0  0  0  0  0  0  0  0  0  0  0
  148.2007  134.0785  162.1792 H   0  0  0  0  0  0  0  0  0  0  0  0
  146.5575  133.9494  162.8060 H   0  0  0  0  0  0  0  0  0  0  0  0
  146.5740  136.4154  163.3166 H   0  0  0  0  0  0  0  0  0  0  0  0
  148.1523  136.5734  162.6099 H   0  0  0  0  0  0  0  0  0  0  0  0
  150.6130  137.0169  159.7171 H   0  0  0  0  0  0  0  0  0  0  0  0
  145.1331  137.7860  156.4214 H   0  0  0  0  0  0  0  0  0  0  0  0
  148.3659  137.4093  155.1339 H   0  0  0  0  0  0  0  0  0  0  0  0
  146.9831  138.4462  154.9019 H   0  0  0  0  0  0  0  0  0  0  0  0
  147.8748  141.1839  156.0648 H   0  0  0  0  0  0  0  0  0  0  0  0
  150.4952  139.9901  156.8605 H   0  0  0  0  0  0  0  0  0  0  0  0
  150.2202  138.2582  156.8007 H   0  0  0  0  0  0  0  0  0  0  0  0
  152.0291  139.3091  155.1385 H   0  0  0  0  0  0  0  0  0  0  0  0
  150.8415  138.2076  154.4197 H   0  0  0  0  0  0  0  0  0  0  0  0
  148.5954  139.5218  153.5262 H   0  0  0  0  0  0  0  0  0  0  0  0
  148.5449  141.1269  154.2400 H   0  0  0  0  0  0  0  0  0  0  0  0
  144.9611  136.8156  160.0893 H   0  0  0  0  0  0  0  0  0  0  0  0
  144.0387  138.4659  161.6320 H   0  0  0  0  0  0  0  0  0  0  0  0
  145.7369  138.8095  161.3377 H   0  0  0  0  0  0  0  0  0  0  0  0
  145.2379  138.0633  162.8544 H   0  0  0  0  0  0  0  0  0  0  0  0
  144.3051  134.7028  161.2504 H   0  0  0  0  0  0  0  0  0  0  0  0
  144.3890  135.5465  162.7838 H   0  0  0  0  0  0  0  0  0  0  0  0
  140.4330  135.0246  161.9577 H   0  0  0  0  0  0  0  0  0  0  0  0
  141.7357  133.9728  161.4236 H   0  0  0  0  0  0  0  0  0  0  0  0
  141.2418  133.5373  163.8337 H   0  0  0  0  0  0  0  0  0  0  0  0
  141.5368  135.2248  164.2281 H   0  0  0  0  0  0  0  0  0  0  0  0
  142.8625  134.2040  163.6722 H   0  0  0  0  0  0  0  0  0  0  0  0
  1  2  1  0  0  0  0
  1 28  1  0  0  0  0
  1 29  1  0  0  0  0
  1 30  1  0  0  0  0
  2  3  1  0  0  0  0
  2 31  1  0  0  0  0
  2 32  1  0  0  0  0
  3  4  1  0  0  0  0
  3 20  1  0  0  0  0
  4  9  1  0  0  0  0
  4  5  2  0  0  0  0
  5  6  1  0  0  0  0
  6  7  2  0  0  0  0
  6 33  1  0  0  0  0
  7  8  1  0  0  0  0
  8 12  1  0  0  0  0
  8  9  2  0  0  0  0
  9 10  1  0  0  0  0
 10 11  2  0  0  0  0
 11 12  1  0  0  0  0
 11 34  1  0  0  0  0
 12 13  1  0  0  0  0
 13 14  1  0  0  0  0
 13 35  1  0  0  0  0
 13 36  1  0  0  0  0
 14 19  1  0  0  0  0
 14 15  1  0  0  0  0
 14 16  1  0  0  0  0
 15 37  1  0  0  0  0
 16 17  1  0  0  0  0
 16 38  1  0  0  0  0
 16 39  1  0  0  0  0
 17 18  1  0  0  0  0
 17 40  1  0  0  0  0
 17 41  1  0  0  0  0
 18 19  1  0  0  0  0
 19 42  1  0  0  0  0
 19 43  1  0  0  0  0
 20 21  1  0  0  0  0
 20 22  1  0  0  0  0
 20 44  1  0  0  0  0
 21 45  1  0  0  0  0
 21 46  1  0  0  0  0
 21 47  1  0  0  0  0
 22 23  1  0  0  0  0
 22 48  1  0  0  0  0
 22 49  1  0  0  0  0
 23 24  2  0  0  0  0
 23 25  2  0  0  0  0
 23 26  1  0  0  0  0
 26 27  1  0  0  0  0
 26 50  1  0  0  0  0
 26 51  1  0  0  0  0
 27 52  1  0  0  0  0
 27 53  1  0  0  0  0
 27 54  1  0  0  0  0
M  END
> <s_m_source_file>
AV-unprocessed.smi

> <i_m_source_file_index>
89

> <i_lp_mmshare_version>
43012

> <i_f3d_flags>
0

> <s_epik_input>
W0NIM11bQ0gyXVMoPU8pKD1PKVtDSDJdW0NAQEhdKFtDSDNdKU4oW0NIMl1bQ0gzXSljKG5bY0hdbjEpYyhjMTIpbltjSF1uMltDSDJdW0NAQF0zKFtPSF0pW0NIMl1bQ0gyXU9bQ0gyXTM=

> <s_epik_cmdline>
J2VwaWtfcHl0aG9uJywgJy1waCcsICc3LjAnLCAnLXRuJywgJzgnLCAnLW1hJywgJzIwMCcsICctbWV0YWxfYmluZGluZycsICctaW1hZScsICc8aW5maWxlLm1hZT4nLCAnLW9tYWUnLCAnPG91dGZpbGUubWFlPic=

> <r_lp_tautomer_probability>
1

> <r_epik_Ionization_Penalty>
0.00103773

> <r_epik_Ionization_Penalty_Charging>
0

> <r_epik_Ionization_Penalty_Neutral>
0.00103773

> <r_epik_State_Penalty>
0.000558914

> <r_epik_Charging_Adjusted_Penalty>
0.000558914

> <i_epik_Tot_Q>
0

> <i_epik_Tot_abs_Q>
0

> <r_epik_Metal_State_Penalty>
-0

> <b_epik_Metal_Only>
0

> <s_lp_Force_Field>
OPLS_2005

> <r_lp_Energy>
26.0666

> <b_lp_Chiralities_Consistent>
1

> <s_lp_Variant>
AV-unprocessed.smi:89-1

> <Gold.Version>
5.8.1

> <Gold.Id.Protein>
6NUR|6NUR_protein|mol2

> <Gold.PLP.Fitness>
36.5070

> <Gold.PLP.PLP>
-32.5577

> <Gold.PLP.part.hbond>
-2.7685

> <Gold.PLP.part.metal>
0.0000

> <Gold.PLP.part.buried>
-4.8837

> <Gold.PLP.part.nonpolar>
-25.5085

> <Gold.PLP.part.repulsive>
0.1860

> <Gold.PLP.ligand.clash>
0.0000

> <Gold.PLP.ligand.torsion>
1.0047

> <Gold.PLP.Chemscore.Hbond>
1.4762

> <Gold.PLP.Chemscore.CHOScore>
0.0000

> <Gold.PLP.Chemscore.Metal>
0.0000

> <Gold.Chemscore.Hbonds>
donor molecule, donor type, donor heavy atom, donor atom, acceptor molecule, acceptor atom, score
      P1  H  6931  6943       L1     5  0.47
      P1  H  7989  7998       L1    18  1.00

> <Gold.PLP.Chemscore.Internal.Correction>
1.5301

> <Gold.Rescore>
     Score         DG    S(hbond)    S(metal)    S(lipo)     H(rot)  DE(clash)    DE(int)     intcor
      4.84      -8.80       1.00        0.00      68.34       3.14       0.00       3.95       ----

> <Gold.Chemscore.Fitness>
4.8442

> <Gold.Chemscore.DG>
-8.7956

> <Gold.Chemscore.ZeroCoef>
-5.4800

> <Gold.Chemscore.Hbond>
1.0043

> <Gold.Chemscore.Metal>
0.0000

> <Gold.Chemscore.Lipo>
68.3431

> <Gold.Chemscore.Internal_Hbond>
0.0000

> <Gold.Chemscore.DEClash>
0.0004

> <Gold.Chemscore.DEInternal>
3.9509

> <Gold.Chemscore.Rot>
3.1386

> <Gold.Chemscore.Internal.Correction>
   9.000000E+99

> <Gold.Chemscore.Hbonds>
donor molecule, donor type, donor heavy atom, donor atom, acceptor molecule, acceptor atom, score
      P1  H  6931  6943       L1     5  0.05
      P1  H  7989  7998       L1    18  0.47

> <Gold.Chemscore.Hbond.Weighted>
-3.3543

> <Gold.Chemscore.Metal.Weighted>
-0.0000

> <Gold.Chemscore.Lipo.Weighted>
-7.9961

> <Gold.Chemscore.Internal_Hbond.Weighted>
0.0000

> <Gold.Chemscore.DEClash.Weighted>
0.0004

> <Gold.Chemscore.DEInternal.Weighted>
3.9509

> <Gold.Chemscore.Rot.Weighted>
8.0349

> <Gold.Chemscore.Internal.Correction.Weighted>
   9.000000E+99

> <Gold.Protein.RotatedTorsions>
[ 6907 6896 6895 6894 ] final  -40.65 input  -60.11 | X-H torsion
[ 7974 7965 7964 7962 ] final   99.38 input  175.53 | X-H torsion
[ 8008 7997 7996 7995 ] final   42.33 input   59.86 | X-H torsion
[ 10167 10162 10161 10158 ] final   65.21 input  -65.29 | X-H torsion
[ 10718 10713 10712 10709 ] final -160.45 input   66.30 | X-H torsion
[ 10763 10752 10751 10750 ] final  -71.16 input  -60.55 | X-H torsion
[ 11005 11000 10999 10996 ] final -132.71 input  -57.11 | X-H torsion

> <Gold.Protein.ActiveResidues>
 VAL166  LYS551  ARG553  GLY616  TRP617  ASP618  TYR619  PRO620  LYS621  CYS622 
 ASP623  PHE694  ASN695  SER759  ASP760  ASP761  ALA762  ILE779  LEU786  VAL792 
 PHE793  MET794  SER795  GLU796  ALA797  LYS798  CYS799  TRP800  GLU811  SER814 

> <Gold.Protein.RotatedAtoms>
  150.9759  134.9124  159.7815 H   0  0  0  0  0  0  0  0  0  0  0  0  # atno 6907 bound_to 6896
  152.5206  134.3476  159.9249 H   0  0  0  0  0  0  0  0  0  0  0  0  # atno 6908 bound_to 6896
  151.3484  133.3894  159.2712 H   0  0  0  0  0  0  0  0  0  0  0  0  # atno 6909 bound_to 6896
  145.3996  139.2350  143.3307 H   0  0  0  0  0  0  0  0  0  0  0  0  # atno 7974 bound_to 7965
  155.2843  140.3374  155.4256 H   0  0  0  0  0  0  0  0  0  0  0  0  # atno 8008 bound_to 7997
  156.2075  140.1757  156.7808 H   0  0  0  0  0  0  0  0  0  0  0  0  # atno 8009 bound_to 7997
  154.5641  140.0682  156.8848 H   0  0  0  0  0  0  0  0  0  0  0  0  # atno 8010 bound_to 7997
  140.1137  144.4795  150.6962 H   0  0  0  0  0  0  0  0  0  0  0  0  # atno 10167 bound_to 10162
  156.5823  130.8735  151.2868 H   0  0  0  0  0  0  0  0  0  0  0  0  # atno 10718 bound_to 10713
  154.4278  135.5971  153.6050 H   0  0  0  0  0  0  0  0  0  0  0  0  # atno 10763 bound_to 10752
  152.9797  135.5968  154.3876 H   0  0  0  0  0  0  0  0  0  0  0  0  # atno 10764 bound_to 10752
  154.3710  135.2841  155.2245 H   0  0  0  0  0  0  0  0  0  0  0  0  # atno 10765 bound_to 10752
  140.9146  134.1524  157.4363 H   0  0  0  0  0  0  0  0  0  0  0  0  # atno 11005 bound_to 11000
  146.2758  140.4692  142.8796 LP  0  0  0  0  0  0  0  0  0  0  0  0  # atno 17320 bound_to 7965
  144.8383  140.6817  143.6246 LP  0  0  0  0  0  0  0  0  0  0  0  0  # atno 17321 bound_to 7965
  140.6911  143.2376  151.5128 LP  0  0  0  0  0  0  0  0  0  0  0  0  # atno 17342 bound_to 10162
  139.5605  144.2168  152.1684 LP  0  0  0  0  0  0  0  0  0  0  0  0  # atno 17343 bound_to 10162
  157.7323  130.9714  150.1924 LP  0  0  0  0  0  0  0  0  0  0  0  0  # atno 17370 bound_to 10713
  156.2620  130.3712  149.8120 LP  0  0  0  0  0  0  0  0  0  0  0  0  # atno 17371 bound_to 10713
  139.8763  134.9948  156.5714 LP  0  0  0  0  0  0  0  0  0  0  0  0  # atno 17394 bound_to 11000
  140.8066  133.8462  155.8773 LP  0  0  0  0  0  0  0  0  0  0  0  0  # atno 17395 bound_to 11000

$$$$
