#       Name:                AV-unprocessed.smi:2576
#       Creating user name   scv26
#       Creation time:       Fri Mar 27 14:13:56 2020


#       File generated by GOLD software.
#

@<TRIPOS>MOLECULE
AV-unprocessed.smi:2576
    31    32     1
SMALL
NO_CHARGES


@<TRIPOS>ATOM
      1 ****        -1.5802   0.3408   0.7067 O.3            1 S1                 0.0000
      2 ****        -1.3517  -1.0439   0.5241 C.3            1 S1                 0.0000
      3 ****         0.1634  -1.2899   0.3795 C.3            1 S1                 0.0000
      4 ****         0.7382  -0.5930  -0.7584 N.pl3          1 S1                 0.0000
      5 ****         0.6102  -1.1295  -2.0049 N.2            1 S1                 0.0000
      6 ****         1.1951  -0.3432  -2.8586 N.2            1 S1                 0.0000
      7 ****         1.7171   0.7336  -2.1613 C.ar           1 S1                 0.0000
      8 ****         2.4407   1.8702  -2.5864 C.ar           1 S1                 0.0000
      9 ****         2.8621   2.8398  -1.6500 C.ar           1 S1                 0.0000
     10 ****         3.7446   4.2165  -2.2084 Cl             1 S1                 0.0000
     11 ****         2.5634   2.6823  -0.2749 C.ar           1 S1                 0.0000
     12 ****         3.0690   3.8600   0.8836 Cl             1 S1                 0.0000
     13 ****         1.8440   1.5527   0.1633 C.ar           1 S1                 0.0000
     14 ****         1.4347   0.5996  -0.7846 C.ar           1 S1                 0.0000
     15 ****        -1.9474  -1.8299   1.7096 C.3            1 S1                 0.0000
     16 ****        -3.4857  -1.8366   1.7689 C.3            1 S1                 0.0000
     17 ****        -3.8771  -2.5847   2.7997 F              1 S1                 0.0000
     18 ****        -3.9661  -0.6046   1.9355 F              1 S1                 0.0000
     19 ****        -3.9906  -2.3575   0.6508 F              1 S1                 0.0000
     20 ****        -2.5129   0.4898   0.7488 H              1 S1                 0.0000
     21 ****        -1.8479  -1.3508  -0.3972 H              1 S1                 0.0000
     22 ****         0.6883  -0.9730   1.2817 H              1 S1                 0.0000
     23 ****         0.3641  -2.3561   0.2644 H              1 S1                 0.0000
     24 ****         2.6713   1.9961  -3.6341 H              1 S1                 0.0000
     25 ****         1.6088   1.4212   1.2092 H              1 S1                 0.0000
     26 ****        -1.6113  -2.8657   1.6449 H              1 S1                 0.0000
     27 ****        -1.5446  -1.4442   2.6472 H              1 S1                 0.0000
     28 ****        -1.1920   0.8504  -0.0611 LP             1 S1                 0.0000
     29 ****        -1.1519   0.6435   1.5582 LP             1 S1                 0.0000
     30 ****         0.1437  -1.9860  -2.2258 LP             1 S1                 0.0000
     31 ****         1.2573  -0.4900  -3.8458 LP             1 S1                 0.0000
@<TRIPOS>BOND
    1    1    2 1     
    2    1   20 1     
    3    2    3 1     
    4    2   15 1     
    5    2   21 1     
    6    3    4 1     
    7    3   22 1     
    8    3   23 1     
    9    4   14 1     
   10    4    5 1     
   11    5    6 2     
   12    6    7 1     
   13    7   14 ar    
   14    7    8 ar    
   15    8    9 ar    
   16    8   24 1     
   17    9   10 1     
   18    9   11 ar    
   19   11   12 1     
   20   11   13 ar    
   21   13   14 ar    
   22   13   25 1     
   23   15   16 1     
   24   15   26 1     
   25   15   27 1     
   26   16   17 1     
   27   16   18 1     
   28   16   19 1     
   29    1   28 1     
   30    1   29 1     
   31    5   30 1     
   32    6   31 1     
@<TRIPOS>SUBSTRUCTURE
      1 S1             1
@<TRIPOS>SET
LONE_PAIRS      STATIC     ATOMS    <user>   **** ""
4 28 29 30 31
DONOR_HYDROGENS      STATIC     ATOMS    <user>   **** ""
1 20
ATOM$BLUE        STATIC     ATOMS    COLORGROUP SYSTEM
4 28 29 30 31
ATOM$RED        STATIC     ATOMS    COLORGROUP SYSTEM
1 20
