AV-unprocessed.smi:1718|AV-procd|sdf|6924|dock2
  -GOLD-   22720 8133D 1   1.00000     0.00000
 Structure written by MMmdl.
 40 41  0  0  0  0  0  0  0  0  1 V2000
  150.5334  133.6779  154.4736 C   0  0  0  0  0  0  0  0  0  0  0  0
  149.0737  133.8873  154.9036 C   0  0  2  0  0  0  0  0  0  0  0  0
  148.8400  133.0613  156.0396 O   0  0  0  0  0  0  0  0  0  0  0  0
  149.6517  133.3391  157.1763 C   0  0  0  0  0  0  0  0  0  0  0  0
  149.4883  134.8139  157.5675 C   0  0  1  0  0  0  0  0  0  0  0  0
  148.5120  135.0582  158.7285 C   0  0  0  0  0  0  0  0  0  0  0  0
  149.4039  135.5795  159.8384 C   0  0  0  0  0  0  0  0  0  0  0  0
  150.5365  136.2345  159.0600 C   0  0  0  0  0  0  0  0  0  0  0  0
  150.7474  135.3408  157.9785 O   0  0  0  0  0  0  0  0  0  0  0  0
  148.0966  133.5223  153.7741 C   0  0  0  0  0  0  0  0  0  0  0  0
  148.1436  132.3987  153.2741 O   0  0  0  0  0  0  0  0  0  0  0  0
  147.2409  134.4993  153.4131 N   0  0  0  0  0  0  0  0  0  0  0  0
  146.2158  134.4838  152.4519 C   0  0  0  0  0  0  0  0  0  0  0  0
  145.6467  133.3627  151.9358 C   0  0  0  0  0  0  0  0  0  0  0  0
  144.5823  133.4218  150.9479 C   0  0  0  0  0  0  0  0  0  0  0  0
  144.0142  132.1612  150.3138 C   0  0  0  0  0  0  0  0  0  0  0  0
  143.0680  132.4529  149.4202 F   0  0  0  0  0  0  0  0  0  0  0  0
  144.9694  131.4632  149.6994 F   0  0  0  0  0  0  0  0  0  0  0  0
  143.4734  131.3865  151.2530 F   0  0  0  0  0  0  0  0  0  0  0  0
  144.1887  134.6497  150.5627 C   0  0  0  0  0  0  0  0  0  0  0  0
  144.7509  135.8069  151.1060 N   0  0  0  0  0  0  0  0  0  0  0  0
  145.7395  135.8109  152.0281 C   0  0  0  0  0  0  0  0  0  0  0  0
  146.1830  136.8753  152.4579 O   0  0  0  0  0  0  0  0  0  0  0  0
  144.3889  136.6907  150.7777 H   0  0  0  0  0  0  0  0  0  0  0  0
  150.7771  134.2745  153.5938 H   0  0  0  0  0  0  0  0  0  0  0  0
  150.7384  132.6327  154.2381 H   0  0  0  0  0  0  0  0  0  0  0  0
  151.2155  133.9735  155.2709 H   0  0  0  0  0  0  0  0  0  0  0  0
  148.9478  134.9353  155.1833 H   0  0  0  0  0  0  0  0  0  0  0  0
  149.3646  132.6972  158.0102 H   0  0  0  0  0  0  0  0  0  0  0  0
  150.7022  133.1421  156.9604 H   0  0  0  0  0  0  0  0  0  0  0  0
  149.1561  135.3805  156.6965 H   0  0  0  0  0  0  0  0  0  0  0  0
  147.7850  135.8206  158.4461 H   0  0  0  0  0  0  0  0  0  0  0  0
  147.9585  134.1669  159.0260 H   0  0  0  0  0  0  0  0  0  0  0  0
  148.8925  136.2682  160.5115 H   0  0  0  0  0  0  0  0  0  0  0  0
  149.7913  134.7473  160.4276 H   0  0  0  0  0  0  0  0  0  0  0  0
  150.2315  137.2085  158.6743 H   0  0  0  0  0  0  0  0  0  0  0  0
  151.4393  136.3653  159.6568 H   0  0  0  0  0  0  0  0  0  0  0  0
  147.3634  135.3881  153.8773 H   0  0  0  0  0  0  0  0  0  0  0  0
  145.9546  132.3820  152.2581 H   0  0  0  0  0  0  0  0  0  0  0  0
  143.4309  134.8397  149.8169 H   0  0  0  0  0  0  0  0  0  0  0  0
  1  2  1  0  0  0  0
  1 25  1  0  0  0  0
  1 26  1  0  0  0  0
  1 27  1  0  0  0  0
  2  3  1  0  0  0  0
  2 10  1  0  0  0  0
  2 28  1  0  0  0  0
  3  4  1  0  0  0  0
  4  5  1  0  0  0  0
  4 29  1  0  0  0  0
  4 30  1  0  0  0  0
  5  9  1  0  0  0  0
  5  6  1  0  0  0  0
  5 31  1  0  0  0  0
  6  7  1  0  0  0  0
  6 32  1  0  0  0  0
  6 33  1  0  0  0  0
  7  8  1  0  0  0  0
  7 34  1  0  0  0  0
  7 35  1  0  0  0  0
  8  9  1  0  0  0  0
  8 36  1  0  0  0  0
  8 37  1  0  0  0  0
 10 11  2  0  0  0  0
 10 12  1  0  0  0  0
 12 13  1  0  0  0  0
 12 38  1  0  0  0  0
 13 22  1  0  0  0  0
 13 14  2  0  0  0  0
 14 15  1  0  0  0  0
 14 39  1  0  0  0  0
 15 16  1  0  0  0  0
 15 20  2  0  0  0  0
 16 17  1  0  0  0  0
 16 18  1  0  0  0  0
 16 19  1  0  0  0  0
 20 21  1  0  0  0  0
 20 40  1  0  0  0  0
 21 24  1  0  0  0  0
 21 22  1  0  0  0  0
 22 23  2  0  0  0  0
M  END
> <s_m_source_file>
AV-unprocessed.smi

> <i_m_source_file_index>
1718

> <i_lp_mmshare_version>
43012

> <i_f3d_flags>
0

> <s_epik_input>
TzFbQ0gyXVtDSDJdW0NIMl1bQ0BIXTFbQ0gyXU9bQ0BASF0oW0NIM10pQyg9TylbTkhdYzJbY0hdYyhDKEYpKEYpRilbY0hdW25IXWMyPU8=

> <s_epik_cmdline>
J2VwaWtfcHl0aG9uJywgJy1waCcsICc3LjAnLCAnLXRuJywgJzgnLCAnLW1hJywgJzIwMCcsICctbWV0YWxfYmluZGluZycsICctaW1hZScsICc8aW5maWxlLm1hZT4nLCAnLW9tYWUnLCAnPG91dGZpbGUubWFlPic=

> <r_lp_tautomer_probability>
0.999

> <r_epik_Ionization_Penalty>
0.00894336

> <r_epik_Ionization_Penalty_Charging>
0.00894326

> <r_epik_Ionization_Penalty_Neutral>
1.00145e-07

> <r_epik_State_Penalty>
0.00676626

> <r_epik_Charging_Adjusted_Penalty>
0.0157095

> <i_epik_Tot_Q>
0

> <i_epik_Tot_abs_Q>
0

> <r_epik_Metal_State_Penalty>
0.321145

> <b_epik_Metal_Only>
0

> <s_lp_Force_Field>
OPLS_2005

> <r_lp_Energy>
34.3894

> <b_lp_Chiralities_Consistent>
1

> <s_lp_Variant>
AV-unprocessed.smi:1718-3

> <Gold.Version>
5.8.1

> <Gold.Id.Protein>
6NUR|6NUR_protein|mol2

> <Gold.PLP.Fitness>
40.6746

> <Gold.PLP.PLP>
-38.0382

> <Gold.PLP.part.hbond>
-3.0000

> <Gold.PLP.part.metal>
0.0000

> <Gold.PLP.part.buried>
-4.9524

> <Gold.PLP.part.nonpolar>
-31.2854

> <Gold.PLP.part.repulsive>
0.4014

> <Gold.PLP.ligand.clash>
1.1607

> <Gold.PLP.ligand.torsion>
0.6644

> <Gold.PLP.Chemscore.Hbond>
1.1453

> <Gold.PLP.Chemscore.CHOScore>
0.4677

> <Gold.PLP.Chemscore.Metal>
0.0000

> <Gold.Chemscore.Hbonds>
donor molecule, donor type, donor heavy atom, donor atom, acceptor molecule, acceptor atom, score
      L1  H    21    24       P1 10171  0.62
      L1  C    20    40       P1 10186  1.00

> <Gold.PLP.Chemscore.Internal.Correction>
0.2866

> <Gold.Rescore>
     Score         DG    S(hbond)    S(metal)    S(lipo)     H(rot)  DE(clash)    DE(int)     intcor
     10.91     -11.97       1.41        0.00      56.22       1.88       0.15       0.91       ----

> <Gold.Chemscore.Fitness>
10.9144

> <Gold.Chemscore.DG>
-11.9729

> <Gold.Chemscore.ZeroCoef>
-5.4800

> <Gold.Chemscore.Hbond>
1.4147

> <Gold.Chemscore.Metal>
0.0000

> <Gold.Chemscore.Lipo>
56.2229

> <Gold.Chemscore.Internal_Hbond>
0.0000

> <Gold.Chemscore.DEClash>
0.1533

> <Gold.Chemscore.DEInternal>
0.9052

> <Gold.Chemscore.Rot>
1.8790

> <Gold.Chemscore.Internal.Correction>
   9.000000E+99

> <Gold.Chemscore.Hbonds>
donor molecule, donor type, donor heavy atom, donor atom, acceptor molecule, acceptor atom, score
      L1  H    21    24       P1 10171  0.63

> <Gold.Chemscore.Hbond.Weighted>
-4.7250

> <Gold.Chemscore.Metal.Weighted>
-0.0000

> <Gold.Chemscore.Lipo.Weighted>
-6.5781

> <Gold.Chemscore.Internal_Hbond.Weighted>
0.0000

> <Gold.Chemscore.DEClash.Weighted>
0.1533

> <Gold.Chemscore.DEInternal.Weighted>
0.9052

> <Gold.Chemscore.Rot.Weighted>
4.8102

> <Gold.Chemscore.Internal.Correction.Weighted>
   9.000000E+99

> <Gold.Protein.RotatedTorsions>
[ 6907 6896 6895 6894 ] final  105.97 input  -60.11 | X-H torsion
[ 7974 7965 7964 7962 ] final   16.35 input  175.53 | X-H torsion
[ 8008 7997 7996 7995 ] final   52.95 input   59.86 | X-H torsion
[ 10167 10162 10161 10158 ] final   -6.95 input  -65.29 | X-H torsion
[ 10718 10713 10712 10709 ] final  -98.38 input   66.30 | X-H torsion
[ 10763 10752 10751 10750 ] final   50.87 input  -60.55 | X-H torsion
[ 11005 11000 10999 10996 ] final   31.36 input  -57.11 | X-H torsion

> <Gold.Protein.ActiveResidues>
 VAL166  LYS551  ARG553  GLY616  TRP617  ASP618  TYR619  PRO620  LYS621  CYS622 
 ASP623  PHE694  ASN695  SER759  ASP760  ASP761  ALA762  ILE779  LEU786  VAL792 
 PHE793  MET794  SER795  GLU796  ALA797  LYS798  CYS799  TRP800  GLU811  SER814 

> <Gold.Protein.RotatedAtoms>
  152.5211  133.9450  159.7644 H   0  0  0  0  0  0  0  0  0  0  0  0  # atno 6907 bound_to 6896
  150.9772  133.6274  159.2735 H   0  0  0  0  0  0  0  0  0  0  0  0  # atno 6908 bound_to 6896
  151.3464  135.0881  159.9441 H   0  0  0  0  0  0  0  0  0  0  0  0  # atno 6909 bound_to 6896
  146.2252  139.8761  142.8579 H   0  0  0  0  0  0  0  0  0  0  0  0  # atno 7974 bound_to 7965
  155.4602  140.3461  155.4312 H   0  0  0  0  0  0  0  0  0  0  0  0  # atno 8008 bound_to 7997
  156.1165  140.1475  156.9294 H   0  0  0  0  0  0  0  0  0  0  0  0  # atno 8009 bound_to 7997
  154.4793  140.0875  156.7317 H   0  0  0  0  0  0  0  0  0  0  0  0  # atno 8010 bound_to 7997
  140.7013  143.6136  150.8680 H   0  0  0  0  0  0  0  0  0  0  0  0  # atno 10167 bound_to 10162
  156.0106  130.5235  150.6514 H   0  0  0  0  0  0  0  0  0  0  0  0  # atno 10718 bound_to 10713
  152.9784  135.5864  154.4323 H   0  0  0  0  0  0  0  0  0  0  0  0  # atno 10763 bound_to 10752
  154.3935  135.2768  155.2142 H   0  0  0  0  0  0  0  0  0  0  0  0  # atno 10764 bound_to 10752
  154.4004  135.6105  153.5948 H   0  0  0  0  0  0  0  0  0  0  0  0  # atno 10765 bound_to 10752
  140.2847  134.2932  155.7791 H   0  0  0  0  0  0  0  0  0  0  0  0  # atno 11005 bound_to 11000
  145.2560  141.0060  143.3854 LP  0  0  0  0  0  0  0  0  0  0  0  0  # atno 17320 bound_to 7965
  144.9337  139.4269  143.6483 LP  0  0  0  0  0  0  0  0  0  0  0  0  # atno 17321 bound_to 7965
  139.9858  143.5901  152.2927 LP  0  0  0  0  0  0  0  0  0  0  0  0  # atno 17342 bound_to 10162
  139.6538  144.7661  151.2095 LP  0  0  0  0  0  0  0  0  0  0  0  0  # atno 17343 bound_to 10162
  157.4275  131.0845  151.1071 LP  0  0  0  0  0  0  0  0  0  0  0  0  # atno 17370 bound_to 10713
  157.1654  130.6244  149.5624 LP  0  0  0  0  0  0  0  0  0  0  0  0  # atno 17371 bound_to 10713
  141.2157  133.7547  156.9534 LP  0  0  0  0  0  0  0  0  0  0  0  0  # atno 17394 bound_to 11000
  140.1251  134.9392  157.2258 LP  0  0  0  0  0  0  0  0  0  0  0  0  # atno 17395 bound_to 11000

$$$$
