AV-unprocessed.smi:1893|AV-procd|sdf|7678|dock6
  -GOLD-   22720 9423D 1   1.00000     0.00000
 Structure written by MMmdl.
 43 44  0  0  0  0  0  0  0  0  2 V2000
  151.0632  143.1750  157.2907 C   0  0  0  0  0  0  0  0  0  0  0  0
  151.8714  143.6979  158.4976 C   0  0  1  0  0  0  0  0  0  0  0  0
  151.1730  144.9673  159.0363 C   0  0  0  0  0  0  0  0  0  0  0  0
  151.9018  145.5602  160.2440 C   0  0  0  0  0  0  0  0  0  0  0  0
  152.0340  144.4902  161.3264 C   0  0  0  0  0  0  0  0  0  0  0  0
  152.7470  143.2509  160.7698 C   0  0  0  0  0  0  0  0  0  0  0  0
  152.0400  142.6787  159.5866 N   0  3  2  0  0  0  0  0  0  0  0  0
  152.6693  141.4017  159.1404 C   0  0  0  0  0  0  0  0  0  0  0  0
  151.6619  140.2422  159.0346 C   0  0  0  0  0  0  0  0  0  0  0  0
  151.2256  140.0683  157.6563 N   0  0  0  0  0  0  0  0  0  0  0  0
  151.9495  139.4612  156.7037 C   0  0  0  0  0  0  0  0  0  0  0  0
  153.0735  139.0013  156.9080 O   0  0  0  0  0  0  0  0  0  0  0  0
  151.2945  139.3564  155.3176 C   0  0  1  0  0  0  0  0  0  0  0  0
  152.0848  138.4598  154.3463 C   0  0  0  0  0  0  0  0  0  0  0  0
  149.9172  138.9011  155.4468 N   0  0  0  0  0  0  0  0  0  0  0  0
  149.0249  138.5343  154.5224 C   0  0  0  0  0  0  0  0  0  0  0  0
  147.8559  138.1605  155.0233 N   0  0  0  0  0  0  0  0  0  0  0  0
  148.1122  138.3333  156.3539 C   0  0  0  0  0  0  0  0  0  0  0  0
  149.3335  138.7697  156.6622 N   0  0  0  0  0  0  0  0  0  0  0  0
  150.8033  143.9902  156.6146 H   0  0  0  0  0  0  0  0  0  0  0  0
  150.1319  142.7044  157.6075 H   0  0  0  0  0  0  0  0  0  0  0  0
  151.6230  142.4595  156.6900 H   0  0  0  0  0  0  0  0  0  0  0  0
  152.8649  143.9793  158.1443 H   0  0  0  0  0  0  0  0  0  0  0  0
  151.1108  145.7226  158.2518 H   0  0  0  0  0  0  0  0  0  0  0  0
  150.1449  144.7312  159.3159 H   0  0  0  0  0  0  0  0  0  0  0  0
  152.8890  145.9172  159.9475 H   0  0  0  0  0  0  0  0  0  0  0  0
  151.3572  146.4229  160.6290 H   0  0  0  0  0  0  0  0  0  0  0  0
  152.5874  144.8885  162.1774 H   0  0  0  0  0  0  0  0  0  0  0  0
  151.0468  144.2138  161.6997 H   0  0  0  0  0  0  0  0  0  0  0  0
  153.7715  143.5050  160.4928 H   0  0  0  0  0  0  0  0  0  0  0  0
  152.8142  142.5198  161.5729 H   0  0  0  0  0  0  0  0  0  0  0  0
  153.1082  141.5093  158.1515 H   0  0  0  0  0  0  0  0  0  0  0  0
  153.4899  141.1424  159.8114 H   0  0  0  0  0  0  0  0  0  0  0  0
  152.0949  139.2988  159.3654 H   0  0  0  0  0  0  0  0  0  0  0  0
  150.7978  140.4443  159.6698 H   0  0  0  0  0  0  0  0  0  0  0  0
  150.3116  140.4200  157.4092 H   0  0  0  0  0  0  0  0  0  0  0  0
  151.2792  140.3617  154.8921 H   0  0  0  0  0  0  0  0  0  0  0  0
  153.1110  138.8104  154.2306 H   0  0  0  0  0  0  0  0  0  0  0  0
  151.6261  138.4622  153.3572 H   0  0  0  0  0  0  0  0  0  0  0  0
  152.1230  137.4246  154.6883 H   0  0  0  0  0  0  0  0  0  0  0  0
  149.2360  138.5381  153.4628 H   0  0  0  0  0  0  0  0  0  0  0  0
  147.3783  138.1265  157.1191 H   0  0  0  0  0  0  0  0  0  0  0  0
  151.1062  142.4430  159.8909 H   0  0  0  0  0  0  0  0  0  0  0  0
  1  2  1  0  0  0  0
  1 20  1  0  0  0  0
  1 21  1  0  0  0  0
  1 22  1  0  0  0  0
  2  7  1  0  0  0  0
  2  3  1  0  0  0  0
  2 23  1  0  0  0  0
  3  4  1  0  0  0  0
  3 24  1  0  0  0  0
  3 25  1  0  0  0  0
  4  5  1  0  0  0  0
  4 26  1  0  0  0  0
  4 27  1  0  0  0  0
  5  6  1  0  0  0  0
  5 28  1  0  0  0  0
  5 29  1  0  0  0  0
  6  7  1  0  0  0  0
  6 30  1  0  0  0  0
  6 31  1  0  0  0  0
  7  8  1  0  0  0  0
  7 43  1  0  0  0  0
  8  9  1  0  0  0  0
  8 32  1  0  0  0  0
  8 33  1  0  0  0  0
  9 10  1  0  0  0  0
  9 34  1  0  0  0  0
  9 35  1  0  0  0  0
 10 11  1  0  0  0  0
 10 36  1  0  0  0  0
 11 12  2  0  0  0  0
 11 13  1  0  0  0  0
 13 14  1  0  0  0  0
 13 15  1  0  0  0  0
 13 37  1  0  0  0  0
 14 38  1  0  0  0  0
 14 39  1  0  0  0  0
 14 40  1  0  0  0  0
 15 19  1  0  0  0  0
 15 16  1  0  0  0  0
 16 17  2  0  0  0  0
 16 41  1  0  0  0  0
 17 18  1  0  0  0  0
 18 19  2  0  0  0  0
 18 42  1  0  0  0  0
M  CHG  1   7   1
M  END
> <s_m_source_file>
AV-unprocessed.smi

> <i_m_source_file_index>
1893

> <i_lp_mmshare_version>
43012

> <i_f3d_flags>
0

> <s_epik_input>
W0NIM11bQ0BASF0xW0NIMl1bQ0gyXVtDSDJdW0NIMl1OMVtDSDJdW0NIMl1bTkhdQyg9TylbQ0BIXShbQ0gzXSluMltjSF1uW2NIXW4y

> <s_epik_cmdline>
J2VwaWtfcHl0aG9uJywgJy1waCcsICc3LjAnLCAnLXRuJywgJzgnLCAnLW1hJywgJzIwMCcsICctbWV0YWxfYmluZGluZycsICctaW1hZScsICc8aW5maWxlLm1hZT4nLCAnLW9tYWUnLCAnPG91dGZpbGUubWFlPic=

> <r_lp_tautomer_probability>
1

> <r_epik_Ionization_Penalty>
0.00266409

> <r_epik_Ionization_Penalty_Charging>
0.00265606

> <r_epik_Ionization_Penalty_Neutral>
8.02794e-06

> <r_epik_State_Penalty>
0.00184955

> <r_epik_Charging_Adjusted_Penalty>
0.00450561

> <i_epik_Tot_Q>
1

> <i_epik_Tot_abs_Q>
1

> <r_epik_Metal_State_Penalty>
-0

> <b_epik_Metal_Only>
0

> <s_lp_Force_Field>
OPLS_2005

> <r_lp_Energy>
26.1161

> <b_lp_Chiralities_Consistent>
1

> <s_lp_Variant>
AV-unprocessed.smi:1893-8

> <Gold.Version>
5.8.1

> <Gold.Id.Protein>
6NUR|6NUR_protein|mol2

> <Gold.PLP.Fitness>
42.9397

> <Gold.PLP.PLP>
-38.8445

> <Gold.PLP.part.hbond>
-1.0000

> <Gold.PLP.part.metal>
0.0000

> <Gold.PLP.part.buried>
-4.1290

> <Gold.PLP.part.nonpolar>
-34.2680

> <Gold.PLP.part.repulsive>
0.2448

> <Gold.PLP.ligand.clash>
0.0000

> <Gold.PLP.ligand.torsion>
1.5249

> <Gold.PLP.Chemscore.Hbond>
1.0000

> <Gold.PLP.Chemscore.CHOScore>
1.3387

> <Gold.PLP.Chemscore.Metal>
0.0000

> <Gold.Chemscore.Hbonds>
donor molecule, donor type, donor heavy atom, donor atom, acceptor molecule, acceptor atom, score
      P1  H  7997  8009       L1    12  1.00
      L1  C    16    41       P1  7948  0.30
      L1  C    16    41       P1  7957  0.42

> <Gold.PLP.Chemscore.Internal.Correction>
0.1287

> <Gold.Rescore>
     Score         DG    S(hbond)    S(metal)    S(lipo)     H(rot)  DE(clash)    DE(int)     intcor
     10.60     -14.15       0.95        0.00     102.57       2.54       0.43       3.12       ----

> <Gold.Chemscore.Fitness>
10.5998

> <Gold.Chemscore.DG>
-14.1485

> <Gold.Chemscore.ZeroCoef>
-5.4800

> <Gold.Chemscore.Hbond>
0.9473

> <Gold.Chemscore.Metal>
0.0000

> <Gold.Chemscore.Lipo>
102.5740

> <Gold.Chemscore.Internal_Hbond>
0.0000

> <Gold.Chemscore.DEClash>
0.4254

> <Gold.Chemscore.DEInternal>
3.1233

> <Gold.Chemscore.Rot>
2.5377

> <Gold.Chemscore.Internal.Correction>
   9.000000E+99

> <Gold.Chemscore.Hbonds>
donor molecule, donor type, donor heavy atom, donor atom, acceptor molecule, acceptor atom, score
      P1  H  7997  8009       L1    12  0.88

> <Gold.Chemscore.Hbond.Weighted>
-3.1639

> <Gold.Chemscore.Metal.Weighted>
-0.0000

> <Gold.Chemscore.Lipo.Weighted>
-12.0012

> <Gold.Chemscore.Internal_Hbond.Weighted>
0.0000

> <Gold.Chemscore.DEClash.Weighted>
0.4254

> <Gold.Chemscore.DEInternal.Weighted>
3.1233

> <Gold.Chemscore.Rot.Weighted>
6.4966

> <Gold.Chemscore.Internal.Correction.Weighted>
   9.000000E+99

> <Gold.Protein.RotatedTorsions>
[ 6907 6896 6895 6894 ] final  -33.89 input  -60.11 | X-H torsion
[ 7974 7965 7964 7962 ] final  106.00 input  175.53 | X-H torsion
[ 8008 7997 7996 7995 ] final -172.22 input   59.86 | X-H torsion
[ 10167 10162 10161 10158 ] final  -74.93 input  -65.29 | X-H torsion
[ 10718 10713 10712 10709 ] final -118.23 input   66.30 | X-H torsion
[ 10763 10752 10751 10750 ] final  -78.95 input  -60.55 | X-H torsion
[ 11005 11000 10999 10996 ] final -100.69 input  -57.11 | X-H torsion

> <Gold.Protein.ActiveResidues>
 VAL166  LYS551  ARG553  GLY616  TRP617  ASP618  TYR619  PRO620  LYS621  CYS622 
 ASP623  PHE694  ASN695  SER759  ASP760  ASP761  ALA762  ILE779  LEU786  VAL792 
 PHE793  MET794  SER795  GLU796  ALA797  LYS798  CYS799  TRP800  GLU811  SER814 

> <Gold.Protein.RotatedAtoms>
  151.0597  134.9729  159.8253 H   0  0  0  0  0  0  0  0  0  0  0  0  # atno 6907 bound_to 6896
  152.5393  134.2432  159.8880 H   0  0  0  0  0  0  0  0  0  0  0  0  # atno 6908 bound_to 6896
  151.2452  133.4336  159.2643 H   0  0  0  0  0  0  0  0  0  0  0  0  # atno 6909 bound_to 6896
  145.3124  139.2536  143.3756 H   0  0  0  0  0  0  0  0  0  0  0  0  # atno 7974 bound_to 7965
  155.9417  140.1110  157.1050 H   0  0  0  0  0  0  0  0  0  0  0  0  # atno 8008 bound_to 7997
  154.4090  140.1218  156.5002 H   0  0  0  0  0  0  0  0  0  0  0  0  # atno 8009 bound_to 7997
  155.6953  140.3472  155.4913 H   0  0  0  0  0  0  0  0  0  0  0  0  # atno 8010 bound_to 7997
  140.4986  143.2365  151.7790 H   0  0  0  0  0  0  0  0  0  0  0  0  # atno 10167 bound_to 10162
  156.1091  130.6234  150.9265 H   0  0  0  0  0  0  0  0  0  0  0  0  # atno 10718 bound_to 10713
  154.5324  135.5712  153.6770 H   0  0  0  0  0  0  0  0  0  0  0  0  # atno 10763 bound_to 10752
  152.9942  135.6208  154.2611 H   0  0  0  0  0  0  0  0  0  0  0  0  # atno 10764 bound_to 10752
  154.2538  135.2858  155.2785 H   0  0  0  0  0  0  0  0  0  0  0  0  # atno 10765 bound_to 10752
  141.1261  133.8419  157.1135 H   0  0  0  0  0  0  0  0  0  0  0  0  # atno 11005 bound_to 11000
  146.3113  140.3663  142.8669 LP  0  0  0  0  0  0  0  0  0  0  0  0  # atno 17320 bound_to 7965
  144.9005  140.7637  143.5870 LP  0  0  0  0  0  0  0  0  0  0  0  0  # atno 17321 bound_to 7965
  139.4867  144.4553  151.9605 LP  0  0  0  0  0  0  0  0  0  0  0  0  # atno 17342 bound_to 10162
  140.3642  144.2936  150.5929 LP  0  0  0  0  0  0  0  0  0  0  0  0  # atno 17343 bound_to 10162
  157.6271  131.0924  150.8513 LP  0  0  0  0  0  0  0  0  0  0  0  0  # atno 17370 bound_to 10713
  156.8627  130.5119  149.5302 LP  0  0  0  0  0  0  0  0  0  0  0  0  # atno 17371 bound_to 10713
  140.0260  134.9923  157.0688 LP  0  0  0  0  0  0  0  0  0  0  0  0  # atno 17394 bound_to 11000
  140.4361  134.1729  155.7171 LP  0  0  0  0  0  0  0  0  0  0  0  0  # atno 17395 bound_to 11000

$$$$
