#       Name:                AV-unprocessed.smi:3292
#       Creating user name   scv26
#       Creation time:       Fri Mar 27 18:56:17 2020


#       File generated by GOLD software.
#

@<TRIPOS>MOLECULE
AV-unprocessed.smi:3292
    43    44     1
SMALL
NO_CHARGES


@<TRIPOS>ATOM
      1 ****        -2.8015  -2.2672   2.5928 C.3            1 S1                 0.0000
      2 ****        -2.3379  -1.2486   1.5430 C.3            1 S1                 0.0000
      3 ****        -2.7537  -1.6816   0.1198 C.3            1 S1                 0.0000
      4 ****        -2.4434  -0.6809  -0.8857 N.pl3          1 S1                 0.0000
      5 ****        -3.1081   0.5176  -1.1093 C.2            1 S1                 0.0000
      6 ****        -2.4505   1.1442  -2.1438 C.2            1 S1                 0.0000
      7 ****        -1.3902   0.3504  -2.5757 N.2            1 S1                 0.0000
      8 ****        -1.4527  -0.7151  -1.7881 C.2            1 S1                 0.0000
      9 ****        -0.8863  -1.0958   1.6359 N.am           1 S1                 0.0000
     10 ****        -0.2153   0.0559   1.4884 C.2            1 S1                 0.0000
     11 ****        -0.7496   1.1543   1.3338 O.2            1 S1                 0.0000
     12 ****         1.1095  -0.1400   1.4782 N.am           1 S1                 0.0000
     13 ****         2.0991   0.8897   1.1811 C.3            1 S1                 0.0000
     14 ****         2.1602   1.2107  -0.3264 C.3            1 S1                 0.0000
     15 ****         3.2302   2.2305  -0.7020 C.3            1 S1                 0.0000
     16 ****         3.8516   1.6764  -1.9884 C.3            1 S1                 0.0000
     17 ****         2.9873   0.6271  -2.3975 O.3            1 S1                 0.0000
     18 ****         2.4940   0.0151  -1.2190 C.3            1 S1                 0.0000
     19 ****        -3.8851  -2.3859   2.5713 H              1 S1                 0.0000
     20 ****        -2.5263  -1.9479   3.5985 H              1 S1                 0.0000
     21 ****        -2.3564  -3.2479   2.4200 H              1 S1                 0.0000
     22 ****        -2.8246  -0.2999   1.7770 H              1 S1                 0.0000
     23 ****        -2.2662  -2.6188  -0.1535 H              1 S1                 0.0000
     24 ****        -3.8278  -1.8675   0.0836 H              1 S1                 0.0000
     25 ****        -3.9628   0.8211  -0.5230 H              1 S1                 0.0000
     26 ****        -2.6571   2.0978  -2.6065 H              1 S1                 0.0000
     27 ****        -0.7527  -1.5345  -1.8608 H              1 S1                 0.0000
     28 ****        -0.3500  -1.9420   1.7608 H              1 S1                 0.0000
     29 ****         1.4551  -1.0780   1.6193 H              1 S1                 0.0000
     30 ****         1.8789   1.7926   1.7532 H              1 S1                 0.0000
     31 ****         3.0696   0.5333   1.5274 H              1 S1                 0.0000
     32 ****         1.1972   1.6081  -0.6517 H              1 S1                 0.0000
     33 ****         2.7836   3.2119  -0.8650 H              1 S1                 0.0000
     34 ****         3.9917   2.3373   0.0715 H              1 S1                 0.0000
     35 ****         3.9501   2.4331  -2.7669 H              1 S1                 0.0000
     36 ****         4.8419   1.2646  -1.7879 H              1 S1                 0.0000
     37 ****         3.2727  -0.6089  -0.7765 H              1 S1                 0.0000
     38 ****         1.6262  -0.6112  -1.4268 H              1 S1                 0.0000
     39 ****        -0.7357   0.5395  -3.3077 LP             1 S1                 0.0000
     40 ****        -1.7468   1.2267   1.3122 LP             1 S1                 0.0000
     41 ****        -0.1864   1.9741   1.2298 LP             1 S1                 0.0000
     42 ****         3.4920  -0.0398  -2.9456 LP             1 S1                 0.0000
     43 ****         2.2298   0.9961  -2.9360 LP             1 S1                 0.0000
@<TRIPOS>BOND
    1    1    2 1     
    2    1   19 1     
    3    1   20 1     
    4    1   21 1     
    5    2    3 1     
    6    2    9 1     
    7    2   22 1     
    8    3    4 1     
    9    3   23 1     
   10    3   24 1     
   11    4    8 1     
   12    4    5 1     
   13    5    6 2     
   14    5   25 1     
   15    6    7 1     
   16    6   26 1     
   17    7    8 2     
   18    8   27 1     
   19    9   10 am    
   20    9   28 1     
   21   10   11 2     
   22   10   12 am    
   23   12   13 1     
   24   12   29 1     
   25   13   14 1     
   26   13   30 1     
   27   13   31 1     
   28   14   18 1     
   29   14   15 1     
   30   14   32 1     
   31   15   16 1     
   32   15   33 1     
   33   15   34 1     
   34   16   17 1     
   35   16   35 1     
   36   16   36 1     
   37   17   18 1     
   38   18   37 1     
   39   18   38 1     
   40    7   39 1     
   41   11   40 1     
   42   11   41 1     
   43   17   42 1     
   44   17   43 1     
@<TRIPOS>SUBSTRUCTURE
      1 S1             1
@<TRIPOS>SET
LONE_PAIRS      STATIC     ATOMS    <user>   **** ""
5 39 40 41 42 43
DONOR_HYDROGENS      STATIC     ATOMS    <user>   **** ""
2 28 29
ATOM$BLUE        STATIC     ATOMS    COLORGROUP SYSTEM
5 39 40 41 42 43
ATOM$RED        STATIC     ATOMS    COLORGROUP SYSTEM
2 28 29
