AV-unprocessed.smi:1406|AV-procd|sdf|5714|dock2
  -GOLD-   22720 5343D 1   1.00000     0.00000
 Structure written by MMmdl.
 41 43  0  0  0  0  0  0  0  0  2 V2000
  149.3091  138.3372  154.8384 C   0  0  0  0  0  0  0  0  0  0  0  0
  149.1432  139.5672  155.7537 C   0  0  1  0  0  0  0  0  0  0  0  0
  150.4806  140.2463  156.1020 C   0  0  0  0  0  0  0  0  0  0  0  0
  151.2696  140.5826  155.2182 O   0  0  0  0  0  0  0  0  0  0  0  0
  150.7282  140.4404  157.4068 N   0  0  0  0  0  0  0  0  0  0  0  0
  151.9049  141.1140  157.9417 C   0  0  2  0  0  0  0  0  0  0  0  0
  152.6232  140.3328  159.0579 C   0  0  0  0  0  0  0  0  0  0  0  0
  153.0825  141.4015  160.0705 C   0  0  0  0  0  0  0  0  0  0  0  0
  152.7084  142.6967  159.4696 N   0  3  2  0  0  0  0  0  0  0  0  0
  152.5043  143.8366  160.3895 C   0  0  0  0  0  0  0  0  0  0  0  0
  152.1987  145.1050  159.5671 C   0  0  0  0  0  0  0  0  0  0  0  0
  151.0280  144.8857  158.5863 C   0  0  0  0  0  0  0  0  0  0  0  0
  151.2553  143.6318  157.7197 C   0  0  0  0  0  0  0  0  0  0  0  0
  151.5327  142.4250  158.6301 C   0  0  1  0  0  0  0  0  0  0  0  0
  148.2045  140.5318  155.1907 N   0  0  0  0  0  0  0  0  0  0  0  0
  148.2622  141.2218  154.0495 C   0  0  0  0  0  0  0  0  0  0  0  0
  147.2003  141.9827  153.8260 N   0  0  0  0  0  0  0  0  0  0  0  0
  146.4738  141.6960  154.9470 C   0  0  0  0  0  0  0  0  0  0  0  0
  147.0243  140.8248  155.7922 N   0  0  0  0  0  0  0  0  0  0  0  0
  149.9426  137.5810  155.3034 H   0  0  0  0  0  0  0  0  0  0  0  0
  149.7565  138.6007  153.8790 H   0  0  0  0  0  0  0  0  0  0  0  0
  148.3443  137.8716  154.6352 H   0  0  0  0  0  0  0  0  0  0  0  0
  148.7166  139.2170  156.6950 H   0  0  0  0  0  0  0  0  0  0  0  0
  150.0337  140.1314  158.0717 H   0  0  0  0  0  0  0  0  0  0  0  0
  152.6131  141.3260  157.1377 H   0  0  0  0  0  0  0  0  0  0  0  0
  151.9499  139.6269  159.5462 H   0  0  0  0  0  0  0  0  0  0  0  0
  153.4625  139.7620  158.6586 H   0  0  0  0  0  0  0  0  0  0  0  0
  152.5634  141.2637  161.0203 H   0  0  0  0  0  0  0  0  0  0  0  0
  154.1551  141.3603  160.2617 H   0  0  0  0  0  0  0  0  0  0  0  0
  151.6842  143.6191  161.0755 H   0  0  0  0  0  0  0  0  0  0  0  0
  153.4001  143.9858  160.9931 H   0  0  0  0  0  0  0  0  0  0  0  0
  151.9761  145.9385  160.2341 H   0  0  0  0  0  0  0  0  0  0  0  0
  153.0880  145.3918  159.0043 H   0  0  0  0  0  0  0  0  0  0  0  0
  150.1004  144.7743  159.1490 H   0  0  0  0  0  0  0  0  0  0  0  0
  150.9002  145.7631  157.9516 H   0  0  0  0  0  0  0  0  0  0  0  0
  150.3816  143.4428  157.0950 H   0  0  0  0  0  0  0  0  0  0  0  0
  152.0955  143.7951  157.0434 H   0  0  0  0  0  0  0  0  0  0  0  0
  150.6722  142.2564  159.2824 H   0  0  0  0  0  0  0  0  0  0  0  0
  149.0947  141.1603  153.3637 H   0  0  0  0  0  0  0  0  0  0  0  0
  145.5070  142.1362  155.1422 H   0  0  0  0  0  0  0  0  0  0  0  0
  153.4571  142.9476  158.8396 H   0  0  0  0  0  0  0  0  0  0  0  0
  1  2  1  0  0  0  0
  1 20  1  0  0  0  0
  1 21  1  0  0  0  0
  1 22  1  0  0  0  0
  2  3  1  0  0  0  0
  2 15  1  0  0  0  0
  2 23  1  0  0  0  0
  3  4  2  0  0  0  0
  3  5  1  0  0  0  0
  5  6  1  0  0  0  0
  5 24  1  0  0  0  0
  6 14  1  0  0  0  0
  6  7  1  0  0  0  0
  6 25  1  0  0  0  0
  7  8  1  0  0  0  0
  7 26  1  0  0  0  0
  7 27  1  0  0  0  0
  8  9  1  0  0  0  0
  8 28  1  0  0  0  0
  8 29  1  0  0  0  0
  9 14  1  0  0  0  0
  9 10  1  0  0  0  0
  9 41  1  0  0  0  0
 10 11  1  0  0  0  0
 10 30  1  0  0  0  0
 10 31  1  0  0  0  0
 11 12  1  0  0  0  0
 11 32  1  0  0  0  0
 11 33  1  0  0  0  0
 12 13  1  0  0  0  0
 12 34  1  0  0  0  0
 12 35  1  0  0  0  0
 13 14  1  0  0  0  0
 13 36  1  0  0  0  0
 13 37  1  0  0  0  0
 14 38  1  0  0  0  0
 15 19  1  0  0  0  0
 15 16  1  0  0  0  0
 16 17  2  0  0  0  0
 16 39  1  0  0  0  0
 17 18  1  0  0  0  0
 18 19  2  0  0  0  0
 18 40  1  0  0  0  0
M  CHG  1   9   1
M  END
> <s_m_source_file>
AV-unprocessed.smi

> <i_m_source_file_index>
1406

> <i_lp_mmshare_version>
43012

> <i_f3d_flags>
0

> <s_epik_input>
bjFbY0hdbltjSF1uMVtDQEhdKFtDSDNdKUMoPU8pW05IXVtDQEhdKFtDSDJdW0NIMl0yKVtDQEBIXShOMjMpW0NIMl1bQ0gyXVtDSDJdW0NIMl0z

> <s_epik_cmdline>
J2VwaWtfcHl0aG9uJywgJy1waCcsICc3LjAnLCAnLXRuJywgJzgnLCAnLW1hJywgJzIwMCcsICctbWV0YWxfYmluZGluZycsICctaW1hZScsICc8aW5maWxlLm1hZT4nLCAnLW9tYWUnLCAnPG91dGZpbGUubWFlPic=

> <r_lp_tautomer_probability>
1

> <r_epik_Ionization_Penalty>
0.00197066

> <r_epik_Ionization_Penalty_Charging>
0.00196223

> <r_epik_Ionization_Penalty_Neutral>
8.43107e-06

> <r_epik_State_Penalty>
0.00133866

> <r_epik_Charging_Adjusted_Penalty>
0.00330089

> <i_epik_Tot_Q>
1

> <i_epik_Tot_abs_Q>
1

> <r_epik_Metal_State_Penalty>
-0

> <b_epik_Metal_Only>
0

> <s_lp_Force_Field>
OPLS_2005

> <r_lp_Energy>
39.7

> <b_lp_Chiralities_Consistent>
1

> <s_lp_Variant>
AV-unprocessed.smi:1406-6

> <Gold.Version>
5.8.1

> <Gold.Id.Protein>
6NUR|6NUR_protein|mol2

> <Gold.PLP.Fitness>
40.0608

> <Gold.PLP.PLP>
-34.8661

> <Gold.PLP.part.hbond>
-1.0000

> <Gold.PLP.part.metal>
0.0000

> <Gold.PLP.part.buried>
-5.5247

> <Gold.PLP.part.nonpolar>
-28.9167

> <Gold.PLP.part.repulsive>
0.3542

> <Gold.PLP.ligand.clash>
0.0000

> <Gold.PLP.ligand.torsion>
0.3038

> <Gold.PLP.Chemscore.Hbond>
0.8960

> <Gold.PLP.Chemscore.CHOScore>
1.0000

> <Gold.PLP.Chemscore.Metal>
0.0000

> <Gold.Chemscore.Hbonds>
donor molecule, donor type, donor heavy atom, donor atom, acceptor molecule, acceptor atom, score
      P1  H  7989  7998       L1     4  0.88
      L1  C    16    39       P1  7957  1.00

> <Gold.PLP.Chemscore.Internal.Correction>
0.1143

> <Gold.Rescore>
     Score         DG    S(hbond)    S(metal)    S(lipo)     H(rot)  DE(clash)    DE(int)     intcor
     13.93     -14.30       0.98        0.00      88.79       1.89       0.01       0.36       ----

> <Gold.Chemscore.Fitness>
13.9287

> <Gold.Chemscore.DG>
-14.2968

> <Gold.Chemscore.ZeroCoef>
-5.4800

> <Gold.Chemscore.Hbond>
0.9755

> <Gold.Chemscore.Metal>
0.0000

> <Gold.Chemscore.Lipo>
88.7887

> <Gold.Chemscore.Internal_Hbond>
0.0000

> <Gold.Chemscore.DEClash>
0.0108

> <Gold.Chemscore.DEInternal>
0.3574

> <Gold.Chemscore.Rot>
1.8865

> <Gold.Chemscore.Internal.Correction>
   9.000000E+99

> <Gold.Chemscore.Hbonds>
donor molecule, donor type, donor heavy atom, donor atom, acceptor molecule, acceptor atom, score
      P1  H  7989  7998       L1     4  0.87

> <Gold.Chemscore.Hbond.Weighted>
-3.2581

> <Gold.Chemscore.Metal.Weighted>
-0.0000

> <Gold.Chemscore.Lipo.Weighted>
-10.3883

> <Gold.Chemscore.Internal_Hbond.Weighted>
0.0000

> <Gold.Chemscore.DEClash.Weighted>
0.0108

> <Gold.Chemscore.DEInternal.Weighted>
0.3574

> <Gold.Chemscore.Rot.Weighted>
4.8295

> <Gold.Chemscore.Internal.Correction.Weighted>
   9.000000E+99

> <Gold.Protein.RotatedTorsions>
[ 6907 6896 6895 6894 ] final  -89.27 input  -60.11 | X-H torsion
[ 7974 7965 7964 7962 ] final   83.63 input  175.53 | X-H torsion
[ 8008 7997 7996 7995 ] final    4.41 input   59.86 | X-H torsion
[ 10167 10162 10161 10158 ] final    5.92 input  -65.29 | X-H torsion
[ 10718 10713 10712 10709 ] final -135.14 input   66.30 | X-H torsion
[ 10763 10752 10751 10750 ] final  -71.72 input  -60.55 | X-H torsion
[ 11005 11000 10999 10996 ] final  -47.90 input  -57.11 | X-H torsion

> <Gold.Protein.ActiveResidues>
 VAL166  LYS551  ARG553  GLY616  TRP617  ASP618  TYR619  PRO620  LYS621  CYS622 
 ASP623  PHE694  ASN695  SER759  ASP760  ASP761  ALA762  ILE779  LEU786  VAL792 
 PHE793  MET794  SER795  GLU796  ALA797  LYS798  CYS799  TRP800  GLU811  SER814 

> <Gold.Protein.RotatedAtoms>
  150.6873  134.2613  159.4550 H   0  0  0  0  0  0  0  0  0  0  0  0  # atno 6907 bound_to 6896
  152.0543  134.9632  160.0584 H   0  0  0  0  0  0  0  0  0  0  0  0  # atno 6908 bound_to 6896
  152.1084  133.4252  159.4656 H   0  0  0  0  0  0  0  0  0  0  0  0  # atno 6909 bound_to 6896
  145.6094  139.2366  143.2201 H   0  0  0  0  0  0  0  0  0  0  0  0  # atno 7974 bound_to 7965
  154.7156  140.2701  155.6589 H   0  0  0  0  0  0  0  0  0  0  0  0  # atno 8008 bound_to 7997
  156.2808  140.2744  156.1735 H   0  0  0  0  0  0  0  0  0  0  0  0  # atno 8009 bound_to 7997
  155.0576  140.0371  157.2555 H   0  0  0  0  0  0  0  0  0  0  0  0  # atno 8010 bound_to 7997
  140.6456  143.7670  150.7493 H   0  0  0  0  0  0  0  0  0  0  0  0  # atno 10167 bound_to 10162
  156.2630  130.7221  151.1161 H   0  0  0  0  0  0  0  0  0  0  0  0  # atno 10718 bound_to 10713
  154.4357  135.5953  153.6097 H   0  0  0  0  0  0  0  0  0  0  0  0  # atno 10763 bound_to 10752
  152.9802  135.5986  154.3785 H   0  0  0  0  0  0  0  0  0  0  0  0  # atno 10764 bound_to 10752
  154.3628  135.2841  155.2289 H   0  0  0  0  0  0  0  0  0  0  0  0  # atno 10765 bound_to 10752
  141.0668  133.6691  156.3363 H   0  0  0  0  0  0  0  0  0  0  0  0  # atno 11005 bound_to 11000
  146.1516  140.6917  142.9319 LP  0  0  0  0  0  0  0  0  0  0  0  0  # atno 17320 bound_to 7965
  144.7276  140.4573  143.6961 LP  0  0  0  0  0  0  0  0  0  0  0  0  # atno 17321 bound_to 7965
  140.1311  143.4525  152.2254 LP  0  0  0  0  0  0  0  0  0  0  0  0  # atno 17342 bound_to 10162
  139.5666  144.7439  151.4005 LP  0  0  0  0  0  0  0  0  0  0  0  0  # atno 17343 bound_to 10162
  157.7257  131.0651  150.5940 LP  0  0  0  0  0  0  0  0  0  0  0  0  # atno 17370 bound_to 10713
  156.6030  130.4359  149.5889 LP  0  0  0  0  0  0  0  0  0  0  0  0  # atno 17371 bound_to 10713
  140.5756  134.5797  157.5468 LP  0  0  0  0  0  0  0  0  0  0  0  0  # atno 17394 bound_to 11000
  139.9484  134.7660  156.0505 LP  0  0  0  0  0  0  0  0  0  0  0  0  # atno 17395 bound_to 11000

$$$$
