AV-unprocessed.smi:1470|AV-procd|sdf|5961|dock1
  -GOLD-   22720 6 43D 1   1.00000     0.00000
 Structure written by MMmdl.
 43 44  0  0  0  0  0  0  0  0  2 V2000
  145.3147  134.9836  150.8684 C   0  0  0  0  0  0  0  0  0  0  0  0
  145.2255  136.2891  151.4109 O   0  0  0  0  0  0  0  0  0  0  0  0
  146.1936  137.1707  150.8658 C   0  0  0  0  0  0  0  0  0  0  0  0
  146.2809  138.4285  151.7423 C   0  0  0  0  0  0  0  0  0  0  0  0
  147.5888  138.5546  152.3763 N   0  0  0  0  0  0  0  0  0  0  0  0
  147.8955  139.4359  153.3377 C   0  0  0  0  0  0  0  0  0  0  0  0
  147.0870  140.2356  153.8086 O   0  0  0  0  0  0  0  0  0  0  0  0
  149.1790  139.3144  153.7174 N   0  0  0  0  0  0  0  0  0  0  0  0
  149.8869  140.0624  154.6960 C   0  0  0  0  0  0  0  0  0  0  0  0
  151.0567  139.6048  155.3535 C   0  0  0  0  0  0  0  0  0  0  0  0
  151.6732  140.4233  156.3222 C   0  0  0  0  0  0  0  0  0  0  0  0
  151.1090  141.6825  156.6292 C   0  0  0  0  0  0  0  0  0  0  0  0
  151.6523  142.5607  157.5758 N   0  0  0  0  0  0  0  0  0  0  0  0
  151.6280  143.9570  157.1472 C   0  0  0  0  0  0  0  0  0  0  0  0
  152.4091  144.8438  158.1320 C   0  0  0  0  0  0  0  0  0  0  0  0
  151.8825  144.6654  159.5651 C   0  0  0  0  0  0  0  0  0  0  0  0
  151.8964  143.1785  159.9551 C   0  0  0  0  0  0  0  0  0  0  0  0
  151.1341  142.3303  158.9220 C   0  0  0  0  0  0  0  0  0  0  0  0
  149.9869  142.0759  155.9883 N   0  3  0  0  0  0  0  0  0  0  0  0
  149.3654  141.3227  155.0555 C   0  0  0  0  0  0  0  0  0  0  0  0
  144.5439  134.3512  151.3085 H   0  0  0  0  0  0  0  0  0  0  0  0
  146.2842  134.5330  151.0847 H   0  0  0  0  0  0  0  0  0  0  0  0
  145.1660  134.9939  149.7878 H   0  0  0  0  0  0  0  0  0  0  0  0
  147.1655  136.6787  150.7993 H   0  0  0  0  0  0  0  0  0  0  0  0
  145.9028  137.4520  149.8527 H   0  0  0  0  0  0  0  0  0  0  0  0
  146.0722  139.3179  151.1457 H   0  0  0  0  0  0  0  0  0  0  0  0
  145.5188  138.3933  152.5211 H   0  0  0  0  0  0  0  0  0  0  0  0
  148.3128  137.9326  152.0477 H   0  0  0  0  0  0  0  0  0  0  0  0
  149.6951  138.5577  153.2928 H   0  0  0  0  0  0  0  0  0  0  0  0
  151.4880  138.6380  155.1460 H   0  0  0  0  0  0  0  0  0  0  0  0
  152.5673  140.0817  156.8231 H   0  0  0  0  0  0  0  0  0  0  0  0
  152.0589  144.0429  156.1486 H   0  0  0  0  0  0  0  0  0  0  0  0
  150.5955  144.3027  157.0815 H   0  0  0  0  0  0  0  0  0  0  0  0
  153.4679  144.5837  158.0970 H   0  0  0  0  0  0  0  0  0  0  0  0
  152.3364  145.8898  157.8329 H   0  0  0  0  0  0  0  0  0  0  0  0
  152.4866  145.2447  160.2641 H   0  0  0  0  0  0  0  0  0  0  0  0
  150.8656  145.0539  159.6338 H   0  0  0  0  0  0  0  0  0  0  0  0
  152.9276  142.8295  160.0233 H   0  0  0  0  0  0  0  0  0  0  0  0
  151.4583  143.0461  160.9448 H   0  0  0  0  0  0  0  0  0  0  0  0
  150.0725  142.5794  158.9505 H   0  0  0  0  0  0  0  0  0  0  0  0
  151.2211  141.2726  159.1749 H   0  0  0  0  0  0  0  0  0  0  0  0
  148.4746  141.7550  154.6228 H   0  0  0  0  0  0  0  0  0  0  0  0
  149.5876  142.9853  156.2216 H   0  0  0  0  0  0  0  0  0  0  0  0
  1  2  1  0  0  0  0
  1 21  1  0  0  0  0
  1 22  1  0  0  0  0
  1 23  1  0  0  0  0
  2  3  1  0  0  0  0
  3  4  1  0  0  0  0
  3 24  1  0  0  0  0
  3 25  1  0  0  0  0
  4  5  1  0  0  0  0
  4 26  1  0  0  0  0
  4 27  1  0  0  0  0
  5  6  1  0  0  0  0
  5 28  1  0  0  0  0
  6  7  2  0  0  0  0
  6  8  1  0  0  0  0
  8  9  1  0  0  0  0
  8 29  1  0  0  0  0
  9 20  1  0  0  0  0
  9 10  2  0  0  0  0
 10 11  1  0  0  0  0
 10 30  1  0  0  0  0
 11 12  2  0  0  0  0
 11 31  1  0  0  0  0
 12 13  1  0  0  0  0
 12 19  1  0  0  0  0
 13 18  1  0  0  0  0
 13 14  1  0  0  0  0
 14 15  1  0  0  0  0
 14 32  1  0  0  0  0
 14 33  1  0  0  0  0
 15 16  1  0  0  0  0
 15 34  1  0  0  0  0
 15 35  1  0  0  0  0
 16 17  1  0  0  0  0
 16 36  1  0  0  0  0
 16 37  1  0  0  0  0
 17 18  1  0  0  0  0
 17 38  1  0  0  0  0
 17 39  1  0  0  0  0
 18 40  1  0  0  0  0
 18 41  1  0  0  0  0
 19 20  2  0  0  0  0
 19 43  1  0  0  0  0
 20 42  1  0  0  0  0
M  CHG  1  19   1
M  END
> <s_m_source_file>
AV-unprocessed.smi

> <i_m_source_file_index>
1470

> <i_lp_mmshare_version>
43012

> <i_f3d_flags>
0

> <s_epik_input>
W0NIM11PW0NIMl1bQ0gyXVtOSF1DKD1PKVtOSF1jMVtjSF1bY0hdYyhuW2NIXTEpTjJbQ0gyXVtDSDJdW0NIMl1bQ0gyXVtDSDJdMg==

> <s_epik_cmdline>
J2VwaWtfcHl0aG9uJywgJy1waCcsICc3LjAnLCAnLXRuJywgJzgnLCAnLW1hJywgJzIwMCcsICctbWV0YWxfYmluZGluZycsICctaW1hZScsICc8aW5maWxlLm1hZT4nLCAnLW9tYWUnLCAnPG91dGZpbGUubWFlPic=

> <r_lp_tautomer_probability>
0.999994

> <r_epik_Ionization_Penalty>
1.11549

> <r_epik_Ionization_Penalty_Charging>
1.11547

> <r_epik_Ionization_Penalty_Neutral>
1.91766e-05

> <r_epik_State_Penalty>
1.17384

> <r_epik_Charging_Adjusted_Penalty>
2.28931

> <i_epik_Tot_Q>
1

> <i_epik_Tot_abs_Q>
1

> <r_epik_Metal_State_Penalty>
1.25929

> <b_epik_Metal_Only>
0

> <s_lp_Force_Field>
OPLS_2005

> <r_lp_Energy>
26.3413

> <b_lp_Chiralities_Consistent>
1

> <s_lp_Variant>
AV-unprocessed.smi:1470-2

> <Gold.Version>
5.8.1

> <Gold.Id.Protein>
6NUR|6NUR_protein|mol2

> <Gold.PLP.Fitness>
48.9876

> <Gold.PLP.PLP>
-42.1814

> <Gold.PLP.part.hbond>
-4.0000

> <Gold.PLP.part.metal>
0.0000

> <Gold.PLP.part.buried>
3.4811

> <Gold.PLP.part.nonpolar>
-42.0181

> <Gold.PLP.part.repulsive>
0.9375

> <Gold.PLP.ligand.clash>
0.0000

> <Gold.PLP.ligand.torsion>
1.2031

> <Gold.PLP.Chemscore.Hbond>
3.0000

> <Gold.PLP.Chemscore.CHOScore>
0.0000

> <Gold.PLP.Chemscore.Metal>
0.0000

> <Gold.Chemscore.Hbonds>
donor molecule, donor type, donor heavy atom, donor atom, acceptor molecule, acceptor atom, score
      L1  H     5    28       P1  7948  1.00
      L1  H    19    43       P1  8028  2.00

> <Gold.PLP.Chemscore.Internal.Correction>
0.2124

> <Gold.Rescore>
     Score         DG    S(hbond)    S(metal)    S(lipo)     H(rot)  DE(clash)    DE(int)     intcor
     16.93     -19.84       1.91        0.00     104.21       1.64       0.27       2.65       ----

> <Gold.Chemscore.Fitness>
16.9275

> <Gold.Chemscore.DG>
-19.8439

> <Gold.Chemscore.ZeroCoef>
-5.4800

> <Gold.Chemscore.Hbond>
1.9080

> <Gold.Chemscore.Metal>
0.0000

> <Gold.Chemscore.Lipo>
104.2129

> <Gold.Chemscore.Internal_Hbond>
0.0000

> <Gold.Chemscore.DEClash>
0.2681

> <Gold.Chemscore.DEInternal>
2.6483

> <Gold.Chemscore.Rot>
1.6413

> <Gold.Chemscore.Internal.Correction>
   9.000000E+99

> <Gold.Chemscore.Hbonds>
donor molecule, donor type, donor heavy atom, donor atom, acceptor molecule, acceptor atom, score
      L1  H     5    28       P1  7948  0.95
      L1  H    19    43       P1  8028  0.93

> <Gold.Chemscore.Hbond.Weighted>
-6.3727

> <Gold.Chemscore.Metal.Weighted>
-0.0000

> <Gold.Chemscore.Lipo.Weighted>
-12.1929

> <Gold.Chemscore.Internal_Hbond.Weighted>
0.0000

> <Gold.Chemscore.DEClash.Weighted>
0.2681

> <Gold.Chemscore.DEInternal.Weighted>
2.6483

> <Gold.Chemscore.Rot.Weighted>
4.2017

> <Gold.Chemscore.Internal.Correction.Weighted>
   9.000000E+99

> <Gold.Protein.RotatedTorsions>
[ 6907 6896 6895 6894 ] final  -74.90 input  -60.11 | X-H torsion
[ 7974 7965 7964 7962 ] final    5.38 input  175.53 | X-H torsion
[ 8008 7997 7996 7995 ] final   40.85 input   59.86 | X-H torsion
[ 10167 10162 10161 10158 ] final -115.18 input  -65.29 | X-H torsion
[ 10718 10713 10712 10709 ] final   62.58 input   66.30 | X-H torsion
[ 10763 10752 10751 10750 ] final -132.97 input  -60.55 | X-H torsion
[ 11005 11000 10999 10996 ] final  158.46 input  -57.11 | X-H torsion

> <Gold.Protein.ActiveResidues>
 VAL166  LYS551  ARG553  GLY616  TRP617  ASP618  TYR619  PRO620  LYS621  CYS622 
 ASP623  PHE694  ASN695  SER759  ASP760  ASP761  ALA762  ILE779  LEU786  VAL792 
 PHE793  MET794  SER795  GLU796  ALA797  LYS798  CYS799  TRP800  GLU811  SER814 

> <Gold.Protein.RotatedAtoms>
  150.7077  134.4800  159.5465 H   0  0  0  0  0  0  0  0  0  0  0  0  # atno 6907 bound_to 6896
  152.2439  134.8198  160.0465 H   0  0  0  0  0  0  0  0  0  0  0  0  # atno 6908 bound_to 6896
  151.8969  133.3494  159.3854 H   0  0  0  0  0  0  0  0  0  0  0  0  # atno 6909 bound_to 6896
  146.2440  140.0392  142.8383 H   0  0  0  0  0  0  0  0  0  0  0  0  # atno 7974 bound_to 7965
  155.2600  140.3358  155.4274 H   0  0  0  0  0  0  0  0  0  0  0  0  # atno 8008 bound_to 7997
  156.2179  140.1796  156.7589 H   0  0  0  0  0  0  0  0  0  0  0  0  # atno 8009 bound_to 7997
  154.5780  140.0658  156.9048 H   0  0  0  0  0  0  0  0  0  0  0  0  # atno 8010 bound_to 7997
  140.0929  143.4683  152.1859 H   0  0  0  0  0  0  0  0  0  0  0  0  # atno 10167 bound_to 10162
  157.5911  130.9058  149.9606 H   0  0  0  0  0  0  0  0  0  0  0  0  # atno 10718 bound_to 10713
  154.8738  135.3781  154.4496 H   0  0  0  0  0  0  0  0  0  0  0  0  # atno 10763 bound_to 10752
  153.5173  135.7029  153.5754 H   0  0  0  0  0  0  0  0  0  0  0  0  # atno 10764 bound_to 10752
  153.4017  135.3946  155.1958 H   0  0  0  0  0  0  0  0  0  0  0  0  # atno 10765 bound_to 10752
  140.1867  134.8437  157.2865 H   0  0  0  0  0  0  0  0  0  0  0  0  # atno 11005 bound_to 11000
  145.1084  140.9390  143.4671 LP  0  0  0  0  0  0  0  0  0  0  0  0  # atno 17320 bound_to 7965
  145.0600  139.3112  143.5885 LP  0  0  0  0  0  0  0  0  0  0  0  0  # atno 17321 bound_to 7965
  139.5715  144.7465  151.3879 LP  0  0  0  0  0  0  0  0  0  0  0  0  # atno 17342 bound_to 10162
  140.7019  143.7610  150.7417 LP  0  0  0  0  0  0  0  0  0  0  0  0  # atno 17343 bound_to 10162
  156.0966  130.3659  150.0296 LP  0  0  0  0  0  0  0  0  0  0  0  0  # atno 17370 bound_to 10713
  156.8418  130.9428  151.3631 LP  0  0  0  0  0  0  0  0  0  0  0  0  # atno 17371 bound_to 10713
  140.2206  134.4028  155.7568 LP  0  0  0  0  0  0  0  0  0  0  0  0  # atno 17394 bound_to 11000
  141.2225  133.7164  156.8484 LP  0  0  0  0  0  0  0  0  0  0  0  0  # atno 17395 bound_to 11000

$$$$
