AV-unprocessed.smi:249|AV-procd|sdf|1917|dock7
  -GOLD-   2262021 13D 1   1.00000     0.00000
 Structure written by MMmdl.
 64 67  0  0  0  0  0  0  0  0  2 V2000
  153.3274  142.4102  161.6749 C   0  0  0  0  0  0  0  0  0  0  0  0
  152.4592  143.1716  160.6594 C   0  0  0  0  0  0  0  0  0  0  0  0
  152.4097  142.5246  159.3159 N   0  3  1  0  0  0  0  0  0  0  0  0
  151.9142  141.1196  159.3965 C   0  0  0  0  0  0  0  0  0  0  0  0
  151.9837  140.4016  158.0419 C   0  0  0  0  0  0  0  0  0  0  0  0
  151.1795  141.1719  156.9854 C   0  0  2  0  0  0  0  0  0  0  0  0
  151.1844  140.5083  155.6744 N   0  0  0  0  0  0  0  0  0  0  0  0
  152.2777  139.6103  155.3082 C   0  0  0  0  0  0  0  0  0  0  0  0
  150.0217  140.3732  154.9762 C   0  0  0  0  0  0  0  0  0  0  0  0
  149.5229  141.4412  154.2966 N   0  0  0  0  0  0  0  0  0  0  0  0
  148.3797  141.3424  153.6130 C   0  0  0  0  0  0  0  0  0  0  0  0
  147.5835  140.2828  153.4699 N   0  0  0  0  0  0  0  0  0  0  0  0
  148.0781  139.2015  154.1355 C   0  0  0  0  0  0  0  0  0  0  0  0
  149.2749  139.1587  154.9079 C   0  0  0  0  0  0  0  0  0  0  0  0
  149.4475  137.8799  155.4276 N   0  0  0  0  0  0  0  0  0  0  0  0
  148.4120  137.2123  154.9986 C   0  0  0  0  0  0  0  0  0  0  0  0
  147.5487  137.9242  154.1980 N   0  0  0  0  0  0  0  0  0  0  0  0
  146.3243  137.4330  153.5903 C   0  0  0  0  0  0  0  0  0  0  0  0
  146.5202  136.3019  152.5415 C   0  0  2  0  0  0  0  0  0  0  0  0
  145.9336  136.7621  151.1847 C   0  0  0  0  0  0  0  0  0  0  0  0
  146.6125  137.8968  150.6868 O   0  0  0  0  0  0  0  0  0  0  0  0
  145.9138  134.9383  152.9914 C   0  0  2  0  0  0  0  0  0  0  0  0
  146.5269  134.3195  154.2497 C   0  0  0  0  0  0  0  0  0  0  0  0
  146.4996  132.8073  154.0110 C   0  0  0  0  0  0  0  0  0  0  0  0
  145.8321  132.6335  152.7719 O   0  0  0  0  0  0  0  0  0  0  0  0
  146.0829  133.7883  151.9933 C   0  0  0  0  0  0  0  0  0  0  0  0
  151.7062  142.6130  156.9117 C   0  0  0  0  0  0  0  0  0  0  0  0
  151.6556  143.3146  158.2867 C   0  0  2  0  0  0  0  0  0  0  0  0
  152.1756  144.7580  158.1210 C   0  0  0  0  0  0  0  0  0  0  0  0
  153.4603  143.0042  162.5795 H   0  0  0  0  0  0  0  0  0  0  0  0
  154.3187  142.2019  161.2711 H   0  0  0  0  0  0  0  0  0  0  0  0
  152.8780  141.4670  161.9837 H   0  0  0  0  0  0  0  0  0  0  0  0
  151.4482  143.3046  161.0470 H   0  0  0  0  0  0  0  0  0  0  0  0
  152.8970  144.1645  160.5872 H   0  0  0  0  0  0  0  0  0  0  0  0
  152.5049  140.5408  160.1042 H   0  0  0  0  0  0  0  0  0  0  0  0
  150.8881  141.1170  159.7678 H   0  0  0  0  0  0  0  0  0  0  0  0
  153.0259  140.3028  157.7374 H   0  0  0  0  0  0  0  0  0  0  0  0
  151.5959  139.3880  158.1474 H   0  0  0  0  0  0  0  0  0  0  0  0
  150.1474  141.2482  157.3303 H   0  0  0  0  0  0  0  0  0  0  0  0
  152.8937  140.0657  154.5327 H   0  0  0  0  0  0  0  0  0  0  0  0
  151.9010  138.6571  154.9349 H   0  0  0  0  0  0  0  0  0  0  0  0
  152.9232  139.3900  156.1575 H   0  0  0  0  0  0  0  0  0  0  0  0
  148.0565  142.2406  153.1077 H   0  0  0  0  0  0  0  0  0  0  0  0
  148.2571  136.1717  155.2440 H   0  0  0  0  0  0  0  0  0  0  0  0
  145.6583  137.0903  154.3832 H   0  0  0  0  0  0  0  0  0  0  0  0
  145.8344  138.2953  153.1368 H   0  0  0  0  0  0  0  0  0  0  0  0
  147.5895  136.1511  152.3875 H   0  0  0  0  0  0  0  0  0  0  0  0
  146.0324  135.9899  150.4228 H   0  0  0  0  0  0  0  0  0  0  0  0
  144.8708  136.9876  151.2775 H   0  0  0  0  0  0  0  0  0  0  0  0
  145.9749  138.4957  150.3286 H   0  0  0  0  0  0  0  0  0  0  0  0
  144.8431  135.0656  153.1604 H   0  0  0  0  0  0  0  0  0  0  0  0
  147.5572  134.6440  154.3983 H   0  0  0  0  0  0  0  0  0  0  0  0
  145.9600  134.5844  155.1417 H   0  0  0  0  0  0  0  0  0  0  0  0
  147.5136  132.4121  153.9350 H   0  0  0  0  0  0  0  0  0  0  0  0
  145.9822  132.2684  154.8052 H   0  0  0  0  0  0  0  0  0  0  0  0
  145.3851  133.8451  151.1574 H   0  0  0  0  0  0  0  0  0  0  0  0
  147.0991  133.7494  151.5969 H   0  0  0  0  0  0  0  0  0  0  0  0
  152.7323  142.6271  156.5422 H   0  0  0  0  0  0  0  0  0  0  0  0
  151.1122  143.1739  156.1886 H   0  0  0  0  0  0  0  0  0  0  0  0
  150.6125  143.3675  158.6035 H   0  0  0  0  0  0  0  0  0  0  0  0
  151.7175  145.2395  157.2564 H   0  0  0  0  0  0  0  0  0  0  0  0
  153.2558  144.7790  157.9725 H   0  0  0  0  0  0  0  0  0  0  0  0
  151.9333  145.3880  158.9759 H   0  0  0  0  0  0  0  0  0  0  0  0
  153.3642  142.4771  158.9890 H   0  0  0  0  0  0  0  0  0  0  0  0
  1  2  1  0  0  0  0
  1 30  1  0  0  0  0
  1 31  1  0  0  0  0
  1 32  1  0  0  0  0
  2  3  1  0  0  0  0
  2 33  1  0  0  0  0
  2 34  1  0  0  0  0
  3 28  1  0  0  0  0
  3  4  1  0  0  0  0
  3 64  1  0  0  0  0
  4  5  1  0  0  0  0
  4 35  1  0  0  0  0
  4 36  1  0  0  0  0
  5  6  1  0  0  0  0
  5 37  1  0  0  0  0
  5 38  1  0  0  0  0
  6  7  1  0  0  0  0
  6 27  1  0  0  0  0
  6 39  1  0  0  0  0
  7  8  1  0  0  0  0
  7  9  1  0  0  0  0
  8 40  1  0  0  0  0
  8 41  1  0  0  0  0
  8 42  1  0  0  0  0
  9 14  1  0  0  0  0
  9 10  2  0  0  0  0
 10 11  1  0  0  0  0
 11 12  2  0  0  0  0
 11 43  1  0  0  0  0
 12 13  1  0  0  0  0
 13 17  1  0  0  0  0
 13 14  2  0  0  0  0
 14 15  1  0  0  0  0
 15 16  2  0  0  0  0
 16 17  1  0  0  0  0
 16 44  1  0  0  0  0
 17 18  1  0  0  0  0
 18 19  1  0  0  0  0
 18 45  1  0  0  0  0
 18 46  1  0  0  0  0
 19 20  1  0  0  0  0
 19 22  1  0  0  0  0
 19 47  1  0  0  0  0
 20 21  1  0  0  0  0
 20 48  1  0  0  0  0
 20 49  1  0  0  0  0
 21 50  1  0  0  0  0
 22 26  1  0  0  0  0
 22 23  1  0  0  0  0
 22 51  1  0  0  0  0
 23 24  1  0  0  0  0
 23 52  1  0  0  0  0
 23 53  1  0  0  0  0
 24 25  1  0  0  0  0
 24 54  1  0  0  0  0
 24 55  1  0  0  0  0
 25 26  1  0  0  0  0
 26 56  1  0  0  0  0
 26 57  1  0  0  0  0
 27 28  1  0  0  0  0
 27 58  1  0  0  0  0
 27 59  1  0  0  0  0
 28 29  1  0  0  0  0
 28 60  1  0  0  0  0
 29 61  1  0  0  0  0
 29 62  1  0  0  0  0
 29 63  1  0  0  0  0
M  CHG  1   3   1
M  END
> <s_m_source_file>
AV-unprocessed.smi

> <i_m_source_file_index>
249

> <i_lp_mmshare_version>
43012

> <i_f3d_flags>
0

> <s_epik_input>
W0NIM11bQ0gyXU4xW0NIMl1bQ0gyXVtDQEhdKFtDSDJdW0NASF0xW0NIM10pTihbQ0gzXSljKG5bY0hdbjIpYyhjMjMpbltjSF1uM1tDSDJdW0NASF0oW0NIMl1bT0hdKVtDQEBIXTRbQ0gyXVtDSDJdT1tDSDJdNA==

> <s_epik_cmdline>
J2VwaWtfcHl0aG9uJywgJy1waCcsICc3LjAnLCAnLXRuJywgJzgnLCAnLW1hJywgJzIwMCcsICctbWV0YWxfYmluZGluZycsICctaW1hZScsICc8aW5maWxlLm1hZT4nLCAnLW9tYWUnLCAnPG91dGZpbGUubWFlPic=

> <r_lp_tautomer_probability>
1

> <r_epik_Ionization_Penalty>
0.00294688

> <r_epik_Ionization_Penalty_Charging>
0.00169971

> <r_epik_Ionization_Penalty_Neutral>
0.00124717

> <r_epik_State_Penalty>
-0

> <r_epik_Charging_Adjusted_Penalty>
0.00169971

> <i_epik_Tot_Q>
1

> <i_epik_Tot_abs_Q>
1

> <r_epik_Metal_State_Penalty>
-0

> <b_epik_Metal_Only>
0

> <s_lp_Force_Field>
OPLS_2005

> <r_lp_Energy>
53.9477

> <b_lp_Chiralities_Consistent>
1

> <s_lp_Variant>
AV-unprocessed.smi:249-20

> <Gold.Version>
5.8.1

> <Gold.Id.Protein>
6NUR|6NUR_protein|mol2

> <Gold.PLP.Fitness>
46.5909

> <Gold.PLP.PLP>
-45.2463

> <Gold.PLP.part.hbond>
-4.4818

> <Gold.PLP.part.metal>
0.0000

> <Gold.PLP.part.buried>
-1.7486

> <Gold.PLP.part.nonpolar>
-39.5328

> <Gold.PLP.part.repulsive>
0.5935

> <Gold.PLP.ligand.clash>
0.0000

> <Gold.PLP.ligand.torsion>
2.5854

> <Gold.PLP.Chemscore.Hbond>
1.9199

> <Gold.PLP.Chemscore.CHOScore>
0.0000

> <Gold.PLP.Chemscore.Metal>
0.0000

> <Gold.Chemscore.Hbonds>
donor molecule, donor type, donor heavy atom, donor atom, acceptor molecule, acceptor atom, score
      L1  H    21    50       P1 10171  0.59
      P1  H  7954  7966       L1    21  1.00

> <Gold.PLP.Chemscore.Internal.Correction>
0.7557

> <Gold.Rescore>
     Score         DG    S(hbond)    S(metal)    S(lipo)     H(rot)  DE(clash)    DE(int)     intcor
     13.08     -18.29       1.81        0.00     115.75       2.65       2.53       2.67       ----

> <Gold.Chemscore.Fitness>
13.0844

> <Gold.Chemscore.DG>
-18.2888

> <Gold.Chemscore.ZeroCoef>
-5.4800

> <Gold.Chemscore.Hbond>
1.8125

> <Gold.Chemscore.Metal>
0.0000

> <Gold.Chemscore.Lipo>
115.7520

> <Gold.Chemscore.Internal_Hbond>
0.0000

> <Gold.Chemscore.DEClash>
2.5318

> <Gold.Chemscore.DEInternal>
2.6726

> <Gold.Chemscore.Rot>
2.6515

> <Gold.Chemscore.Internal.Correction>
   9.000000E+99

> <Gold.Chemscore.Hbonds>
donor molecule, donor type, donor heavy atom, donor atom, acceptor molecule, acceptor atom, score
      L1  H    21    50       P1 10171  0.59
      P1  H  7954  7966       L1    21  0.90

> <Gold.Chemscore.Hbond.Weighted>
-6.0538

> <Gold.Chemscore.Metal.Weighted>
-0.0000

> <Gold.Chemscore.Lipo.Weighted>
-13.5430

> <Gold.Chemscore.Internal_Hbond.Weighted>
0.0000

> <Gold.Chemscore.DEClash.Weighted>
2.5318

> <Gold.Chemscore.DEInternal.Weighted>
2.6726

> <Gold.Chemscore.Rot.Weighted>
6.7880

> <Gold.Chemscore.Internal.Correction.Weighted>
   9.000000E+99

> <Gold.Protein.RotatedTorsions>
[ 6907 6896 6895 6894 ] final   70.69 input  -60.11 | X-H torsion
[ 7974 7965 7964 7962 ] final -166.19 input  175.53 | X-H torsion
[ 8008 7997 7996 7995 ] final  -51.15 input   59.86 | X-H torsion
[ 10167 10162 10161 10158 ] final  -87.82 input  -65.29 | X-H torsion
[ 10718 10713 10712 10709 ] final  135.23 input   66.30 | X-H torsion
[ 10763 10752 10751 10750 ] final -167.99 input  -60.55 | X-H torsion
[ 11005 11000 10999 10996 ] final  -53.40 input  -57.11 | X-H torsion

> <Gold.Protein.ActiveResidues>
 VAL166  LYS551  ARG553  GLY616  TRP617  ASP618  TYR619  PRO620  LYS621  CYS622 
 ASP623  PHE694  ASN695  SER759  ASP760  ASP761  ALA762  ILE779  LEU786  VAL792 
 PHE793  MET794  SER795  GLU796  ALA797  LYS798  CYS799  TRP800  GLU811  SER814 

> <Gold.Protein.RotatedAtoms>
  152.4765  134.4831  159.9671 H   0  0  0  0  0  0  0  0  0  0  0  0  # atno 6907 bound_to 6896
  151.4846  133.3532  159.2851 H   0  0  0  0  0  0  0  0  0  0  0  0  # atno 6908 bound_to 6896
  150.8807  134.8224  159.7284 H   0  0  0  0  0  0  0  0  0  0  0  0  # atno 6909 bound_to 6896
  144.7251  140.2703  143.6251 H   0  0  0  0  0  0  0  0  0  0  0  0  # atno 7974 bound_to 7965
  154.4077  140.1255  156.4782 H   0  0  0  0  0  0  0  0  0  0  0  0  # atno 8008 bound_to 7997
  155.7111  140.3494  155.4954 H   0  0  0  0  0  0  0  0  0  0  0  0  # atno 8009 bound_to 7997
  155.9299  140.1068  157.1130 H   0  0  0  0  0  0  0  0  0  0  0  0  # atno 8010 bound_to 7997
  140.3807  143.2750  151.9387 H   0  0  0  0  0  0  0  0  0  0  0  0  # atno 10167 bound_to 10162
  157.4592  131.1072  150.9941 H   0  0  0  0  0  0  0  0  0  0  0  0  # atno 10718 bound_to 10713
  154.6675  135.2934  154.9786 H   0  0  0  0  0  0  0  0  0  0  0  0  # atno 10763 bound_to 10752
  154.0824  135.6602  153.4844 H   0  0  0  0  0  0  0  0  0  0  0  0  # atno 10764 bound_to 10752
  153.0466  135.5200  154.7655 H   0  0  0  0  0  0  0  0  0  0  0  0  # atno 10765 bound_to 10752
  141.0974  133.6622  156.4167 H   0  0  0  0  0  0  0  0  0  0  0  0  # atno 11005 bound_to 11000
  145.8049  139.1979  143.2026 LP  0  0  0  0  0  0  0  0  0  0  0  0  # atno 17320 bound_to 7965
  146.0645  140.7935  142.9718 LP  0  0  0  0  0  0  0  0  0  0  0  0  # atno 17321 bound_to 7965
  139.4795  144.5821  151.7915 LP  0  0  0  0  0  0  0  0  0  0  0  0  # atno 17342 bound_to 10162
  140.4940  144.1268  150.5956 LP  0  0  0  0  0  0  0  0  0  0  0  0  # atno 17343 bound_to 10162
  157.0744  130.5877  149.5408 LP  0  0  0  0  0  0  0  0  0  0  0  0  # atno 17370 bound_to 10713
  156.0021  130.5102  150.7699 LP  0  0  0  0  0  0  0  0  0  0  0  0  # atno 17371 bound_to 10713
  140.5106  134.6398  157.5283 LP  0  0  0  0  0  0  0  0  0  0  0  0  # atno 17394 bound_to 11000
  139.9815  134.7130  155.9851 LP  0  0  0  0  0  0  0  0  0  0  0  0  # atno 17395 bound_to 11000

$$$$
