AV-unprocessed.smi:817|AV-procd|sdf|3829|dock9
  -GOLD-   22720 1273D 1   1.00000     0.00000
 Structure written by MMmdl.
 48 49  0  0  0  0  0  0  0  0  2 V2000
  143.8226  132.6072  149.3030 C   0  0  0  0  0  0  0  0  0  0  0  0
  144.4327  133.4237  150.4519 C   0  0  1  0  0  0  0  0  0  0  0  0
  144.8492  134.8258  149.9739 C   0  0  0  0  0  0  0  0  0  0  0  0
  145.4134  135.6742  151.1215 C   0  0  0  0  0  0  0  0  0  0  0  0
  144.4309  135.7646  152.3046 C   0  0  0  0  0  0  0  0  0  0  0  0
  143.9792  134.3773  152.8487 C   0  0  1  0  0  0  0  0  0  0  0  0
  145.1966  133.6390  153.4878 C   0  0  0  0  0  0  0  0  0  0  0  0
  144.9569  132.2030  153.6490 N   0  0  0  0  0  0  0  0  0  0  0  0
  145.6974  131.1903  153.1671 C   0  0  0  0  0  0  0  0  0  0  0  0
  146.7189  131.4068  152.5203 O   0  0  0  0  0  0  0  0  0  0  0  0
  145.2252  129.9675  153.4799 N   0  0  0  0  0  0  0  0  0  0  0  0
  145.7390  128.6915  153.1226 C   0  0  0  0  0  0  0  0  0  0  0  0
  147.0401  128.6367  152.5819 C   0  0  0  0  0  0  0  0  0  0  0  0
  147.5882  127.3880  152.2337 C   0  0  0  0  0  0  0  0  0  0  0  0
  146.8114  126.2333  152.4472 C   0  0  0  0  0  0  0  0  0  0  0  0
  145.5699  126.2649  152.9752 N   0  0  0  0  0  0  0  0  0  0  0  0
  145.0495  127.4666  153.3060 C   0  0  0  0  0  0  0  0  0  0  0  0
  142.9080  134.5301  153.9059 N   0  3  0  0  0  0  0  0  0  0  0  0
  143.3413  135.1983  155.1617 C   0  0  0  0  0  0  0  0  0  0  0  0
  141.6051  135.0850  153.4543 C   0  0  0  0  0  0  0  0  0  0  0  0
  143.4493  133.5398  151.6373 C   0  0  0  0  0  0  0  0  0  0  0  0
  142.9263  133.0848  148.9058 H   0  0  0  0  0  0  0  0  0  0  0  0
  143.5462  131.6064  149.6358 H   0  0  0  0  0  0  0  0  0  0  0  0
  144.5310  132.4960  148.4816 H   0  0  0  0  0  0  0  0  0  0  0  0
  145.3251  132.8867  150.7707 H   0  0  0  0  0  0  0  0  0  0  0  0
  145.5920  134.7451  149.1791 H   0  0  0  0  0  0  0  0  0  0  0  0
  143.9893  135.3367  149.5388 H   0  0  0  0  0  0  0  0  0  0  0  0
  146.3672  135.2626  151.4514 H   0  0  0  0  0  0  0  0  0  0  0  0
  145.6341  136.6773  150.7555 H   0  0  0  0  0  0  0  0  0  0  0  0
  144.9022  136.3540  153.0912 H   0  0  0  0  0  0  0  0  0  0  0  0
  143.5616  136.3365  151.9791 H   0  0  0  0  0  0  0  0  0  0  0  0
  146.1022  133.7672  152.8983 H   0  0  0  0  0  0  0  0  0  0  0  0
  145.4398  134.0720  154.4578 H   0  0  0  0  0  0  0  0  0  0  0  0
  144.1342  131.9447  154.1740 H   0  0  0  0  0  0  0  0  0  0  0  0
  144.4182  129.9499  154.0859 H   0  0  0  0  0  0  0  0  0  0  0  0
  147.6133  129.5402  152.4320 H   0  0  0  0  0  0  0  0  0  0  0  0
  148.5807  127.3169  151.8138 H   0  0  0  0  0  0  0  0  0  0  0  0
  147.1998  125.2583  152.1921 H   0  0  0  0  0  0  0  0  0  0  0  0
  144.0658  127.4209  153.7450 H   0  0  0  0  0  0  0  0  0  0  0  0
  143.5211  136.2626  155.0075 H   0  0  0  0  0  0  0  0  0  0  0  0
  144.2384  134.7547  155.5888 H   0  0  0  0  0  0  0  0  0  0  0  0
  142.5650  135.1073  155.9221 H   0  0  0  0  0  0  0  0  0  0  0  0
  141.7252  136.0514  152.9647 H   0  0  0  0  0  0  0  0  0  0  0  0
  140.9301  135.2259  154.2992 H   0  0  0  0  0  0  0  0  0  0  0  0
  141.0914  134.4048  152.7758 H   0  0  0  0  0  0  0  0  0  0  0  0
  142.5540  134.0010  151.2219 H   0  0  0  0  0  0  0  0  0  0  0  0
  143.1493  132.5443  151.9668 H   0  0  0  0  0  0  0  0  0  0  0  0
  142.6917  133.5831  154.1832 H   0  0  0  0  0  0  0  0  0  0  0  0
  1  2  1  0  0  0  0
  1 22  1  0  0  0  0
  1 23  1  0  0  0  0
  1 24  1  0  0  0  0
  2 21  1  0  0  0  0
  2  3  1  0  0  0  0
  2 25  1  0  0  0  0
  3  4  1  0  0  0  0
  3 26  1  0  0  0  0
  3 27  1  0  0  0  0
  4  5  1  0  0  0  0
  4 28  1  0  0  0  0
  4 29  1  0  0  0  0
  5  6  1  0  0  0  0
  5 30  1  0  0  0  0
  5 31  1  0  0  0  0
  6  7  1  0  0  0  0
  6 18  1  0  0  0  0
  6 21  1  0  0  0  0
  7  8  1  0  0  0  0
  7 32  1  0  0  0  0
  7 33  1  0  0  0  0
  8  9  1  0  0  0  0
  8 34  1  0  0  0  0
  9 10  2  0  0  0  0
  9 11  1  0  0  0  0
 11 12  1  0  0  0  0
 11 35  1  0  0  0  0
 12 17  1  0  0  0  0
 12 13  2  0  0  0  0
 13 14  1  0  0  0  0
 13 36  1  0  0  0  0
 14 15  2  0  0  0  0
 14 37  1  0  0  0  0
 15 16  1  0  0  0  0
 15 38  1  0  0  0  0
 16 17  2  0  0  0  0
 17 39  1  0  0  0  0
 18 19  1  0  0  0  0
 18 20  1  0  0  0  0
 18 48  1  0  0  0  0
 19 40  1  0  0  0  0
 19 41  1  0  0  0  0
 19 42  1  0  0  0  0
 20 43  1  0  0  0  0
 20 44  1  0  0  0  0
 20 45  1  0  0  0  0
 21 46  1  0  0  0  0
 21 47  1  0  0  0  0
M  CHG  1  18   1
M  END
> <s_m_source_file>
AV-unprocessed.smi

> <i_m_source_file_index>
817

> <i_lp_mmshare_version>
43012

> <i_f3d_flags>
0

> <s_epik_input>
W0NIM11bQ0BASF0oW0NIMl0xKVtDSDJdW0NIMl1bQ0gyXVtDQF0xKE4oW0NIM10pW0NIM10pW0NIMl1bTkhdQyg9TylbTkhdYzJbY0hdW2NIXVtjSF1uW2NIXTI=

> <s_epik_cmdline>
J2VwaWtfcHl0aG9uJywgJy1waCcsICc3LjAnLCAnLXRuJywgJzgnLCAnLW1hJywgJzIwMCcsICctbWV0YWxfYmluZGluZycsICctaW1hZScsICc8aW5maWxlLm1hZT4nLCAnLW9tYWUnLCAnPG91dGZpbGUubWFlPic=

> <r_lp_tautomer_probability>
1

> <r_epik_Ionization_Penalty>
0.00584939

> <r_epik_Ionization_Penalty_Charging>
0.00160539

> <r_epik_Ionization_Penalty_Neutral>
0.004244

> <r_epik_State_Penalty>
-0

> <r_epik_Charging_Adjusted_Penalty>
0.00160539

> <i_epik_Tot_Q>
1

> <i_epik_Tot_abs_Q>
1

> <r_epik_Metal_State_Penalty>
-0

> <b_epik_Metal_Only>
0

> <s_lp_Force_Field>
OPLS_2005

> <r_lp_Energy>
49.3624

> <b_lp_Chiralities_Consistent>
1

> <s_lp_Variant>
AV-unprocessed.smi:817-2

> <Gold.Version>
5.8.1

> <Gold.Id.Protein>
6NUR|6NUR_protein|mol2

> <Gold.PLP.Fitness>
46.8240

> <Gold.PLP.PLP>
-33.5258

> <Gold.PLP.part.hbond>
-4.0000

> <Gold.PLP.part.metal>
0.0000

> <Gold.PLP.part.buried>
-1.8964

> <Gold.PLP.part.nonpolar>
-29.0560

> <Gold.PLP.part.repulsive>
0.1458

> <Gold.PLP.ligand.clash>
0.0000

> <Gold.PLP.ligand.torsion>
0.2796

> <Gold.PLP.Chemscore.Hbond>
3.7819

> <Gold.PLP.Chemscore.CHOScore>
0.7998

> <Gold.PLP.Chemscore.Metal>
0.0000

> <Gold.Chemscore.Hbonds>
donor molecule, donor type, donor heavy atom, donor atom, acceptor molecule, acceptor atom, score
      L1  H     8    34       P1 10957  0.70
      L1  H    11    35       P1 10956  0.43
      L1  H    18    48       P1 10957  2.00
      L1  C    17    39       P1 10956  0.72

> <Gold.PLP.Chemscore.Internal.Correction>
0.1125

> <Gold.Rescore>
     Score         DG    S(hbond)    S(metal)    S(lipo)     H(rot)  DE(clash)    DE(int)     intcor
     14.92     -16.98       1.82        0.00      78.00       1.44       0.38       1.68       ----

> <Gold.Chemscore.Fitness>
14.9201

> <Gold.Chemscore.DG>
-16.9840

> <Gold.Chemscore.ZeroCoef>
-5.4800

> <Gold.Chemscore.Hbond>
1.8162

> <Gold.Chemscore.Metal>
0.0000

> <Gold.Chemscore.Lipo>
77.9974

> <Gold.Chemscore.Internal_Hbond>
0.0000

> <Gold.Chemscore.DEClash>
0.3802

> <Gold.Chemscore.DEInternal>
1.6836

> <Gold.Chemscore.Rot>
1.4405

> <Gold.Chemscore.Internal.Correction>
   9.000000E+99

> <Gold.Chemscore.Hbonds>
donor molecule, donor type, donor heavy atom, donor atom, acceptor molecule, acceptor atom, score
      L1  H     8    34       P1 10957  0.07
      L1  H    11    35       P1 10956  0.05
      L1  H    18    48       P1 10957  1.00

> <Gold.Chemscore.Hbond.Weighted>
-6.0660

> <Gold.Chemscore.Metal.Weighted>
-0.0000

> <Gold.Chemscore.Lipo.Weighted>
-9.1257

> <Gold.Chemscore.Internal_Hbond.Weighted>
0.0000

> <Gold.Chemscore.DEClash.Weighted>
0.3802

> <Gold.Chemscore.DEInternal.Weighted>
1.6836

> <Gold.Chemscore.Rot.Weighted>
3.6878

> <Gold.Chemscore.Internal.Correction.Weighted>
   9.000000E+99

> <Gold.Protein.RotatedTorsions>
[ 6907 6896 6895 6894 ] final  -76.64 input  -60.11 | X-H torsion
[ 7974 7965 7964 7962 ] final   36.44 input  175.53 | X-H torsion
[ 8008 7997 7996 7995 ] final   31.21 input   59.86 | X-H torsion
[ 10167 10162 10161 10158 ] final   23.55 input  -65.29 | X-H torsion
[ 10718 10713 10712 10709 ] final   57.17 input   66.30 | X-H torsion
[ 10763 10752 10751 10750 ] final -140.43 input  -60.55 | X-H torsion
[ 11005 11000 10999 10996 ] final -116.84 input  -57.11 | X-H torsion

> <Gold.Protein.ActiveResidues>
 VAL166  LYS551  ARG553  GLY616  TRP617  ASP618  TYR619  PRO620  LYS621  CYS622 
 ASP623  PHE694  ASN695  SER759  ASP760  ASP761  ALA762  ILE779  LEU786  VAL792 
 PHE793  MET794  SER795  GLU796  ALA797  LYS798  CYS799  TRP800  GLU811  SER814 

> <Gold.Protein.RotatedAtoms>
  150.7021  134.4541  159.5349 H   0  0  0  0  0  0  0  0  0  0  0  0  # atno 6907 bound_to 6896
  152.2228  134.8393  160.0493 H   0  0  0  0  0  0  0  0  0  0  0  0  # atno 6908 bound_to 6896
  151.9237  133.3557  159.3943 H   0  0  0  0  0  0  0  0  0  0  0  0  # atno 6909 bound_to 6896
  146.1211  139.6018  142.9289 H   0  0  0  0  0  0  0  0  0  0  0  0  # atno 7974 bound_to 7965
  155.1028  140.3231  155.4542 H   0  0  0  0  0  0  0  0  0  0  0  0  # atno 8008 bound_to 7997
  156.2712  140.2058  156.6101 H   0  0  0  0  0  0  0  0  0  0  0  0  # atno 8009 bound_to 7997
  154.6816  140.0525  157.0258 H   0  0  0  0  0  0  0  0  0  0  0  0  # atno 8010 bound_to 7997
  140.5260  143.9922  150.6441 H   0  0  0  0  0  0  0  0  0  0  0  0  # atno 10167 bound_to 10162
  157.5492  130.8753  149.8937 H   0  0  0  0  0  0  0  0  0  0  0  0  # atno 10718 bound_to 10713
  154.8578  135.3553  154.5707 H   0  0  0  0  0  0  0  0  0  0  0  0  # atno 10763 bound_to 10752
  153.6320  135.7002  153.5277 H   0  0  0  0  0  0  0  0  0  0  0  0  # atno 10764 bound_to 10752
  153.3042  135.4197  155.1239 H   0  0  0  0  0  0  0  0  0  0  0  0  # atno 10765 bound_to 10752
  141.0395  133.9858  157.3017 H   0  0  0  0  0  0  0  0  0  0  0  0  # atno 11005 bound_to 11000
  145.5464  141.0417  143.2302 LP  0  0  0  0  0  0  0  0  0  0  0  0  # atno 17320 bound_to 7965
  144.7598  139.6984  143.7239 LP  0  0  0  0  0  0  0  0  0  0  0  0  # atno 17321 bound_to 7965
  140.3284  143.3093  152.0712 LP  0  0  0  0  0  0  0  0  0  0  0  0  # atno 17342 bound_to 10162
  139.4938  144.6526  151.6643 LP  0  0  0  0  0  0  0  0  0  0  0  0  # atno 17343 bound_to 10162
  156.0562  130.3708  150.1086 LP  0  0  0  0  0  0  0  0  0  0  0  0  # atno 17370 bound_to 10713
  156.9260  130.9698  151.3541 LP  0  0  0  0  0  0  0  0  0  0  0  0  # atno 17371 bound_to 10713
  139.9265  135.0201  156.8252 LP  0  0  0  0  0  0  0  0  0  0  0  0  # atno 17394 bound_to 11000
  140.6261  133.9949  155.7640 LP  0  0  0  0  0  0  0  0  0  0  0  0  # atno 17395 bound_to 11000

$$$$
