#       Name:                AV-unprocessed.smi:3093
#       Creating user name   scv26
#       Creation time:       Fri Mar 27 17:16:36 2020


#       File generated by GOLD software.
#

@<TRIPOS>MOLECULE
AV-unprocessed.smi:3093
    26    27     1
SMALL
NO_CHARGES


@<TRIPOS>ATOM
      1 ****        -3.4143  -0.8147  -1.5282 C.2            1 S1                 0.0000
      2 ****        -3.2015   0.5901  -1.4554 C.2            1 S1                 0.0000
      3 ****        -1.9215   0.9056  -1.3407 N.2            1 S1                 0.0000
      4 ****        -1.2774  -0.2820  -1.3247 N.pl3          1 S1                 0.0000
      5 ****         0.1726  -0.3237  -1.2338 C.3            1 S1                 0.0000
      6 ****         0.7286   0.4642  -0.0312 C.3            1 S1                 0.0000
      7 ****         2.2550   0.4304   0.0725 C.3            1 S1                 0.0000
      8 ****         2.5007   0.7273   1.5471 C.3            1 S1                 0.0000
      9 ****         1.3352   0.0262   2.2498 C.3            1 S1                 0.0000
     10 ****         0.2404  -0.0585   1.2619 N.4            1 S1                 1.0000
     11 ****        -2.1556  -1.3383  -1.4505 C.2            1 S1                 0.0000
     12 ****        -4.3453  -1.3527  -1.6290 H              1 S1                 0.0000
     13 ****        -3.9330   1.3842  -1.4857 H              1 S1                 0.0000
     14 ****         0.4861  -1.3672  -1.1796 H              1 S1                 0.0000
     15 ****         0.5795   0.0773  -2.1628 H              1 S1                 0.0000
     16 ****         0.4201   1.5092  -0.0930 H              1 S1                 0.0000
     17 ****         2.6337  -0.5636  -0.1708 H              1 S1                 0.0000
     18 ****         2.7397   1.1476  -0.5907 H              1 S1                 0.0000
     19 ****         3.4751   0.3824   1.8943 H              1 S1                 0.0000
     20 ****         2.4444   1.8030   1.7194 H              1 S1                 0.0000
     21 ****         1.6177  -0.9871   2.5366 H              1 S1                 0.0000
     22 ****         1.0187   0.5552   3.1491 H              1 S1                 0.0000
     23 ****        -0.5611   0.4757   1.5663 H              1 S1                 0.0000
     24 ****        -1.8173  -2.3640  -1.4738 H              1 S1                 0.0000
     25 ****        -0.0215  -1.0278   1.1540 H              1 S1                 0.0000
     26 ****        -1.5202   1.8196  -1.2795 LP             1 S1                 0.0000
@<TRIPOS>BOND
    1    1   11 2     
    2    1    2 1     
    3    1   12 1     
    4    2    3 2     
    5    2   13 1     
    6    3    4 1     
    7    4    5 1     
    8    4   11 1     
    9    5    6 1     
   10    5   14 1     
   11    5   15 1     
   12    6   10 1     
   13    6    7 1     
   14    6   16 1     
   15    7    8 1     
   16    7   17 1     
   17    7   18 1     
   18    8    9 1     
   19    8   19 1     
   20    8   20 1     
   21    9   10 1     
   22    9   21 1     
   23    9   22 1     
   24   10   23 1     
   25   10   25 1     
   26   11   24 1     
   27    3   26 1     
@<TRIPOS>SUBSTRUCTURE
      1 S1             1
@<TRIPOS>SET
LONE_PAIRS      STATIC     ATOMS    <user>   **** ""
1 26
DONOR_HYDROGENS      STATIC     ATOMS    <user>   **** ""
2 23 25
ATOM$BLUE        STATIC     ATOMS    COLORGROUP SYSTEM
1 26
ATOM$RED        STATIC     ATOMS    COLORGROUP SYSTEM
2 23 25
