#       Name:                AV-unprocessed.smi:312
#       Creating user name   scv26
#       Creation time:       Thu Mar 26 22:20:44 2020


#       File generated by GOLD software.
#

@<TRIPOS>MOLECULE
AV-unprocessed.smi:312
    38    39     1
SMALL
NO_CHARGES


@<TRIPOS>ATOM
      1 ****        -0.3105  -2.3327   2.4118 C.3            1 S1                 0.0000
      2 ****         0.2560  -1.8896   1.0551 C.3            1 S1                 0.0000
      3 ****         1.7208  -2.3315   0.8774 C.3            1 S1                 0.0000
      4 ****         2.2259  -2.0326  -0.4503 N.pl3          1 S1                 0.0000
      5 ****         1.9854  -2.7447  -1.6180 C.2            1 S1                 0.0000
      6 ****         2.6588  -2.0890  -2.6239 C.2            1 S1                 0.0000
      7 ****         3.3185  -0.9792  -2.1007 N.2            1 S1                 0.0000
      8 ****         3.0169  -1.0119  -0.8092 C.2            1 S1                 0.0000
      9 ****         0.1536  -0.4372   0.9294 N.am           1 S1                 0.0000
     10 ****        -0.8432   0.2269   0.3248 C.2            1 S1                 0.0000
     11 ****        -1.8223  -0.3299  -0.1733 O.2            1 S1                 0.0000
     12 ****        -0.7052   1.7573   0.2710 C.3            1 S1                 0.0000
     13 ****        -1.8963   2.4744   0.9486 C.3            1 S1                 0.0000
     14 ****        -2.5951   3.3069  -0.1348 C.3            1 S1                 0.0000
     15 ****        -2.1273   2.7209  -1.4642 C.3            1 S1                 0.0000
     16 ****        -0.6949   2.2719  -1.1807 C.3            1 S1                 0.0000
     17 ****        -0.2612  -3.4162   2.5220 H              1 S1                 0.0000
     18 ****        -1.3560  -2.0401   2.5160 H              1 S1                 0.0000
     19 ****         0.2444  -1.8882   3.2387 H              1 S1                 0.0000
     20 ****        -0.3345  -2.3700   0.2725 H              1 S1                 0.0000
     21 ****         2.3626  -1.8503   1.6172 H              1 S1                 0.0000
     22 ****         1.8115  -3.4068   1.0362 H              1 S1                 0.0000
     23 ****         1.3696  -3.6319  -1.6362 H              1 S1                 0.0000
     24 ****         2.7189  -2.3288  -3.6752 H              1 S1                 0.0000
     25 ****         3.3760  -0.2727  -0.1082 H              1 S1                 0.0000
     26 ****         0.9141   0.1053   1.3127 H              1 S1                 0.0000
     27 ****         0.2273   2.0447   0.7600 H              1 S1                 0.0000
     28 ****        -2.6037   1.7667   1.3847 H              1 S1                 0.0000
     29 ****        -1.5574   3.1145   1.7639 H              1 S1                 0.0000
     30 ****        -3.6808   3.2965  -0.0347 H              1 S1                 0.0000
     31 ****        -2.2684   4.3451  -0.0624 H              1 S1                 0.0000
     32 ****        -2.7426   1.8595  -1.7273 H              1 S1                 0.0000
     33 ****        -2.1882   3.4374  -2.2837 H              1 S1                 0.0000
     34 ****        -0.0217   3.1267  -1.2571 H              1 S1                 0.0000
     35 ****        -0.3512   1.5301  -1.9036 H              1 S1                 0.0000
     36 ****         3.8864  -0.3138  -2.5851 LP             1 S1                 0.0000
     37 ****        -1.9023  -1.3261  -0.1387 LP             1 S1                 0.0000
     38 ****        -2.5373   0.2141  -0.6123 LP             1 S1                 0.0000
@<TRIPOS>BOND
    1    1    2 1     
    2    1   17 1     
    3    1   18 1     
    4    1   19 1     
    5    2    3 1     
    6    2    9 1     
    7    2   20 1     
    8    3    4 1     
    9    3   21 1     
   10    3   22 1     
   11    4    8 1     
   12    4    5 1     
   13    5    6 2     
   14    5   23 1     
   15    6    7 1     
   16    6   24 1     
   17    7    8 2     
   18    8   25 1     
   19    9   10 am    
   20    9   26 1     
   21   10   11 2     
   22   10   12 1     
   23   12   16 1     
   24   12   13 1     
   25   12   27 1     
   26   13   14 1     
   27   13   28 1     
   28   13   29 1     
   29   14   15 1     
   30   14   30 1     
   31   14   31 1     
   32   15   16 1     
   33   15   32 1     
   34   15   33 1     
   35   16   34 1     
   36   16   35 1     
   37    7   36 1     
   38   11   37 1     
   39   11   38 1     
@<TRIPOS>SUBSTRUCTURE
      1 S1             1
@<TRIPOS>SET
LONE_PAIRS      STATIC     ATOMS    <user>   **** ""
3 36 37 38
DONOR_HYDROGENS      STATIC     ATOMS    <user>   **** ""
1 26
ATOM$BLUE        STATIC     ATOMS    COLORGROUP SYSTEM
3 36 37 38
ATOM$RED        STATIC     ATOMS    COLORGROUP SYSTEM
1 26
