#       Name:                AV-unprocessed.smi:1940
#       Creating user name   scv26
#       Creation time:       Fri Mar 27 09:58:23 2020


#       File generated by GOLD software.
#

@<TRIPOS>MOLECULE
AV-unprocessed.smi:1940
    55    57     1
SMALL
NO_CHARGES


@<TRIPOS>ATOM
      1 ****        -4.4307  -2.7184  -1.6459 C.3            1 S1                 0.0000
      2 ****        -3.9986  -1.9657  -0.3777 C.3            1 S1                 0.0000
      3 ****        -2.5395  -1.8748  -0.3572 N.am           1 S1                 0.0000
      4 ****        -1.8235  -0.7412  -0.3724 C.2            1 S1                 0.0000
      5 ****        -2.3241   0.3819  -0.4255 O.2            1 S1                 0.0000
      6 ****        -0.5050  -1.0018  -0.3422 N.am           1 S1                 0.0000
      7 ****         0.5776  -0.0810  -0.3463 C.ar           1 S1                 0.0000
      8 ****         0.4776   1.2669   0.0735 C.ar           1 S1                 0.0000
      9 ****         1.6269   2.0790   0.0337 C.ar           1 S1                 0.0000
     10 ****         2.8408   1.5193  -0.4142 C.ar           1 S1                 0.0000
     11 ****         3.9850   2.3279  -0.4649 N.3            1 S1                 0.0000
     12 ****         4.4415   2.5921  -1.8271 C.3            1 S1                 0.0000
     13 ****         5.5516   3.6574  -1.8334 C.3            1 S1                 0.0000
     14 ****         6.7024   3.2582  -0.8953 C.3            1 S1                 0.0000
     15 ****         6.1620   2.9572   0.5123 C.3            1 S1                 0.0000
     16 ****         5.0381   1.9079   0.4562 C.3            1 S1                 0.0000
     17 ****         2.9488   0.2263  -0.8014 N.ar           1 S1                 0.0000
     18 ****         1.8428  -0.5468  -0.7606 C.ar           1 S1                 0.0000
     19 ****        -4.4874  -2.6521   0.9133 C.3            1 S1                 0.0000
     20 ****        -6.0083  -2.7605   1.0408 C.3            1 S1                 0.0000
     21 ****        -6.1865  -2.8572   2.5382 C.3            1 S1                 0.0000
     22 ****        -5.1209  -1.8880   3.0389 C.3            1 S1                 0.0000
     23 ****        -4.0852  -1.9028   2.0597 O.3            1 S1                 0.0000
     24 ****        -5.5165  -2.7596  -1.7332 H              1 S1                 0.0000
     25 ****        -4.0570  -3.7429  -1.6475 H              1 S1                 0.0000
     26 ****        -4.0531  -2.2243  -2.5418 H              1 S1                 0.0000
     27 ****        -4.4387  -0.9677  -0.4184 H              1 S1                 0.0000
     28 ****        -2.0360  -2.7485  -0.3148 H              1 S1                 0.0000
     29 ****        -0.2442  -1.9762  -0.3812 H              1 S1                 0.0000
     30 ****        -0.4467   1.6900   0.4346 H              1 S1                 0.0000
     31 ****         1.5753   3.1121   0.3453 H              1 S1                 0.0000
     32 ****         4.8137   1.6676  -2.2711 H              1 S1                 0.0000
     33 ****         3.6027   2.9260  -2.4393 H              1 S1                 0.0000
     34 ****         5.9259   3.8010  -2.8472 H              1 S1                 0.0000
     35 ****         5.1385   4.6161  -1.5166 H              1 S1                 0.0000
     36 ****         7.2079   2.3760  -1.2900 H              1 S1                 0.0000
     37 ****         7.4474   4.0531  -0.8520 H              1 S1                 0.0000
     38 ****         6.9683   2.6080   1.1575 H              1 S1                 0.0000
     39 ****         5.7813   3.8757   0.9609 H              1 S1                 0.0000
     40 ****         4.6192   1.7581   1.4522 H              1 S1                 0.0000
     41 ****         5.4446   0.9487   0.1320 H              1 S1                 0.0000
     42 ****         1.9726  -1.5715  -1.0772 H              1 S1                 0.0000
     43 ****        -4.0515  -3.6490   1.0009 H              1 S1                 0.0000
     44 ****        -6.4933  -1.8574   0.6670 H              1 S1                 0.0000
     45 ****        -6.4214  -3.6170   0.5073 H              1 S1                 0.0000
     46 ****        -7.1912  -2.5952   2.8707 H              1 S1                 0.0000
     47 ****        -5.9656  -3.8702   2.8773 H              1 S1                 0.0000
     48 ****        -5.5240  -0.8763   3.0992 H              1 S1                 0.0000
     49 ****        -4.7422  -2.1609   4.0240 H              1 S1                 0.0000
     50 ****        -3.3182   0.4851  -0.4602 LP             1 S1                 0.0000
     51 ****        -1.7368   1.1912  -0.4340 LP             1 S1                 0.0000
     52 ****         3.7008   3.2215  -0.1174 LP             1 S1                 0.0000
     53 ****         3.8243  -0.1460  -1.1094 LP             1 S1                 0.0000
     54 ****        -3.8810  -0.9637   1.7833 LP             1 S1                 0.0000
     55 ****        -3.2663  -2.3198   2.4540 LP             1 S1                 0.0000
@<TRIPOS>BOND
    1    1    2 1     
    2    1   24 1     
    3    1   25 1     
    4    1   26 1     
    5    2    3 1     
    6    2   19 1     
    7    2   27 1     
    8    3    4 am    
    9    3   28 1     
   10    4    5 2     
   11    4    6 am    
   12    6    7 1     
   13    6   29 1     
   14    7   18 ar    
   15    7    8 ar    
   16    8    9 ar    
   17    8   30 1     
   18    9   10 ar    
   19    9   31 1     
   20   10   11 1     
   21   10   17 ar    
   22   11   16 1     
   23   11   12 1     
   24   12   13 1     
   25   12   32 1     
   26   12   33 1     
   27   13   14 1     
   28   13   34 1     
   29   13   35 1     
   30   14   15 1     
   31   14   36 1     
   32   14   37 1     
   33   15   16 1     
   34   15   38 1     
   35   15   39 1     
   36   16   40 1     
   37   16   41 1     
   38   17   18 ar    
   39   18   42 1     
   40   19   23 1     
   41   19   20 1     
   42   19   43 1     
   43   20   21 1     
   44   20   44 1     
   45   20   45 1     
   46   21   22 1     
   47   21   46 1     
   48   21   47 1     
   49   22   23 1     
   50   22   48 1     
   51   22   49 1     
   52    5   50 1     
   53    5   51 1     
   54   11   52 1     
   55   17   53 1     
   56   23   54 1     
   57   23   55 1     
@<TRIPOS>SUBSTRUCTURE
      1 S1             1
@<TRIPOS>SET
LONE_PAIRS      STATIC     ATOMS    <user>   **** ""
6 50 51 52 53 54 55
DONOR_HYDROGENS      STATIC     ATOMS    <user>   **** ""
2 28 29
ATOM$BLUE        STATIC     ATOMS    COLORGROUP SYSTEM
6 50 51 52 53 54 55
ATOM$RED        STATIC     ATOMS    COLORGROUP SYSTEM
2 28 29
