AV-unprocessed.smi:530|AV-procd|sdf|2843|dock4
  -GOLD-   2262023333D 1   1.00000     0.00000
 Structure written by MMmdl.
 35 37  0  0  0  0  0  0  0  0  1 V2000
  152.3099  138.5949  159.2270 C   0  0  0  0  0  0  0  0  0  0  0  0
  152.2375  140.0844  159.1092 C   0  0  0  0  0  0  0  0  0  0  0  0
  152.8815  140.8963  159.9480 N   0  0  0  0  0  0  0  0  0  0  0  0
  152.5408  142.1499  159.4772 C   0  0  0  0  0  0  0  0  0  0  0  0
  152.9062  143.4350  159.9384 C   0  0  0  0  0  0  0  0  0  0  0  0
  152.4258  144.5905  159.2880 C   0  0  0  0  0  0  0  0  0  0  0  0
  151.5745  144.4781  158.1696 C   0  0  0  0  0  0  0  0  0  0  0  0
  151.1998  143.2073  157.6923 C   0  0  0  0  0  0  0  0  0  0  0  0
  151.6828  142.0571  158.3444 C   0  0  0  0  0  0  0  0  0  0  0  0
  151.5120  140.6914  158.1381 N   0  0  0  0  0  0  0  0  0  0  0  0
  150.7177  140.0655  157.0897 C   0  0  0  0  0  0  0  0  0  0  0  0
  150.7824  140.8270  155.7506 C   0  0  1  0  0  0  0  0  0  0  0  0
  151.8905  140.3821  154.9914 O   0  0  0  0  0  0  0  0  0  0  0  0
  149.4740  140.7028  154.9856 C   0  0  0  0  0  0  0  0  0  0  0  0
  148.6960  141.8464  154.6992 C   0  0  0  0  0  0  0  0  0  0  0  0
  147.4902  141.7233  153.9817 C   0  0  0  0  0  0  0  0  0  0  0  0
  147.0567  140.4572  153.5442 C   0  0  0  0  0  0  0  0  0  0  0  0
  147.8304  139.3143  153.8228 C   0  0  0  0  0  0  0  0  0  0  0  0
  149.0364  139.4368  154.5401 C   0  0  0  0  0  0  0  0  0  0  0  0
  152.9415  138.3087  160.0686 H   0  0  0  0  0  0  0  0  0  0  0  0
  152.7334  138.1632  158.3200 H   0  0  0  0  0  0  0  0  0  0  0  0
  151.3163  138.1774  159.3884 H   0  0  0  0  0  0  0  0  0  0  0  0
  153.5568  143.5315  160.7950 H   0  0  0  0  0  0  0  0  0  0  0  0
  152.7109  145.5676  159.6495 H   0  0  0  0  0  0  0  0  0  0  0  0
  151.2090  145.3681  157.6782 H   0  0  0  0  0  0  0  0  0  0  0  0
  150.5455  143.1174  156.8380 H   0  0  0  0  0  0  0  0  0  0  0  0
  151.0638  139.0393  156.9590 H   0  0  0  0  0  0  0  0  0  0  0  0
  149.6851  139.9917  157.4311 H   0  0  0  0  0  0  0  0  0  0  0  0
  150.9559  141.8841  155.9533 H   0  0  0  0  0  0  0  0  0  0  0  0
  152.3771  139.7593  155.5092 H   0  0  0  0  0  0  0  0  0  0  0  0
  149.0231  142.8225  155.0265 H   0  0  0  0  0  0  0  0  0  0  0  0
  146.8986  142.6010  153.7659 H   0  0  0  0  0  0  0  0  0  0  0  0
  146.1323  140.3629  152.9936 H   0  0  0  0  0  0  0  0  0  0  0  0
  147.4997  138.3431  153.4851 H   0  0  0  0  0  0  0  0  0  0  0  0
  149.6249  138.5545  154.7452 H   0  0  0  0  0  0  0  0  0  0  0  0
  1  2  1  0  0  0  0
  1 20  1  0  0  0  0
  1 21  1  0  0  0  0
  1 22  1  0  0  0  0
  2 10  1  0  0  0  0
  2  3  2  0  0  0  0
  3  4  1  0  0  0  0
  4  9  2  0  0  0  0
  4  5  1  0  0  0  0
  5  6  2  0  0  0  0
  5 23  1  0  0  0  0
  6  7  1  0  0  0  0
  6 24  1  0  0  0  0
  7  8  2  0  0  0  0
  7 25  1  0  0  0  0
  8  9  1  0  0  0  0
  8 26  1  0  0  0  0
  9 10  1  0  0  0  0
 10 11  1  0  0  0  0
 11 12  1  0  0  0  0
 11 27  1  0  0  0  0
 11 28  1  0  0  0  0
 12 13  1  0  0  0  0
 12 14  1  0  0  0  0
 12 29  1  0  0  0  0
 13 30  1  0  0  0  0
 14 19  1  0  0  0  0
 14 15  2  0  0  0  0
 15 16  1  0  0  0  0
 15 31  1  0  0  0  0
 16 17  2  0  0  0  0
 16 32  1  0  0  0  0
 17 18  1  0  0  0  0
 17 33  1  0  0  0  0
 18 19  2  0  0  0  0
 18 34  1  0  0  0  0
 19 35  1  0  0  0  0
M  END
> <s_m_source_file>
AV-unprocessed.smi

> <i_m_source_file_index>
530

> <i_lp_mmshare_version>
43012

> <i_f3d_flags>
0

> <s_epik_input>
W2NIXTFbY0hdW2NIXVtjSF1jKGMxMiluKGMobjIpW0NIM10pW0NIMl1bQ0BIXShbT0hdKWMzW2NIXVtjSF1bY0hdW2NIXVtjSF0z

> <s_epik_cmdline>
J2VwaWtfcHl0aG9uJywgJy1waCcsICc3LjAnLCAnLXRuJywgJzgnLCAnLW1hJywgJzIwMCcsICctbWV0YWxfYmluZGluZycsICctaW1hZScsICc8aW5maWxlLm1hZT4nLCAnLW9tYWUnLCAnPG91dGZpbGUubWFlPic=

> <r_epik_Ionization_Penalty>
0.129663

> <r_epik_Ionization_Penalty_Charging>
0

> <r_epik_Ionization_Penalty_Neutral>
0.129663

> <r_epik_State_Penalty>
0.119073

> <r_epik_Charging_Adjusted_Penalty>
0.119073

> <i_epik_Tot_Q>
0

> <i_epik_Tot_abs_Q>
0

> <r_epik_Metal_State_Penalty>
0.000131867

> <b_epik_Metal_Only>
0

> <s_lp_Force_Field>
OPLS_2005

> <r_lp_Energy>
11.6979

> <b_lp_Chiralities_Consistent>
1

> <s_lp_Variant>
AV-unprocessed.smi:530-2

> <Gold.Version>
5.8.1

> <Gold.Id.Protein>
6NUR|6NUR_protein|mol2

> <Gold.PLP.Fitness>
47.3124

> <Gold.PLP.PLP>
-46.4753

> <Gold.PLP.part.hbond>
-0.9623

> <Gold.PLP.part.metal>
0.0000

> <Gold.PLP.part.buried>
-3.6823

> <Gold.PLP.part.nonpolar>
-41.4329

> <Gold.PLP.part.repulsive>
0.0000

> <Gold.PLP.ligand.clash>
0.0000

> <Gold.PLP.ligand.torsion>
0.7109

> <Gold.PLP.Chemscore.Hbond>
0.7448

> <Gold.PLP.Chemscore.CHOScore>
0.0000

> <Gold.PLP.Chemscore.Metal>
0.0000

> <Gold.Chemscore.Hbonds>
donor molecule, donor type, donor heavy atom, donor atom, acceptor molecule, acceptor atom, score
      P1  H  7989  7998       L1    13  0.77

> <Gold.PLP.Chemscore.Internal.Correction>
0.0245

> <Gold.Rescore>
     Score         DG    S(hbond)    S(metal)    S(lipo)     H(rot)  DE(clash)    DE(int)     intcor
     16.61     -17.31       0.91        0.00     112.46       1.70       0.03       0.67       ----

> <Gold.Chemscore.Fitness>
16.6137

> <Gold.Chemscore.DG>
-17.3068

> <Gold.Chemscore.ZeroCoef>
-5.4800

> <Gold.Chemscore.Hbond>
0.9055

> <Gold.Chemscore.Metal>
0.0000

> <Gold.Chemscore.Lipo>
112.4583

> <Gold.Chemscore.Internal_Hbond>
0.0000

> <Gold.Chemscore.DEClash>
0.0275

> <Gold.Chemscore.DEInternal>
0.6656

> <Gold.Chemscore.Rot>
1.7013

> <Gold.Chemscore.Internal.Correction>
   9.000000E+99

> <Gold.Chemscore.Hbonds>
donor molecule, donor type, donor heavy atom, donor atom, acceptor molecule, acceptor atom, score
      P1  H  7989  7998       L1    13  0.45

> <Gold.Chemscore.Hbond.Weighted>
-3.0245

> <Gold.Chemscore.Metal.Weighted>
-0.0000

> <Gold.Chemscore.Lipo.Weighted>
-13.1576

> <Gold.Chemscore.Internal_Hbond.Weighted>
0.0000

> <Gold.Chemscore.DEClash.Weighted>
0.0275

> <Gold.Chemscore.DEInternal.Weighted>
0.6656

> <Gold.Chemscore.Rot.Weighted>
4.3554

> <Gold.Chemscore.Internal.Correction.Weighted>
   9.000000E+99

> <Gold.Protein.RotatedTorsions>
[ 6907 6896 6895 6894 ] final   17.23 input  -60.11 | X-H torsion
[ 7974 7965 7964 7962 ] final   -6.14 input  175.53 | X-H torsion
[ 8008 7997 7996 7995 ] final  139.68 input   59.86 | X-H torsion
[ 10167 10162 10161 10158 ] final  -83.55 input  -65.29 | X-H torsion
[ 10718 10713 10712 10709 ] final   57.62 input   66.30 | X-H torsion
[ 10763 10752 10751 10750 ] final -153.65 input  -60.55 | X-H torsion
[ 11005 11000 10999 10996 ] final  -11.47 input  -57.11 | X-H torsion

> <Gold.Protein.ActiveResidues>
 VAL166  LYS551  ARG553  GLY616  TRP617  ASP618  TYR619  PRO620  LYS621  CYS622 
 ASP623  PHE694  ASN695  SER759  ASP760  ASP761  ALA762  ILE779  LEU786  VAL792 
 PHE793  MET794  SER795  GLU796  ALA797  LYS798  CYS799  TRP800  GLU811  SER814 

> <Gold.Protein.RotatedAtoms>
  151.8464  135.0573  160.0453 H   0  0  0  0  0  0  0  0  0  0  0  0  # atno 6907 bound_to 6896
  152.2770  133.5430  159.5482 H   0  0  0  0  0  0  0  0  0  0  0  0  # atno 6908 bound_to 6896
  150.7174  134.0534  159.3848 H   0  0  0  0  0  0  0  0  0  0  0  0  # atno 6909 bound_to 6896
  146.2337  140.2126  142.8335 H   0  0  0  0  0  0  0  0  0  0  0  0  # atno 7974 bound_to 7965
  156.2987  140.2361  156.4277 H   0  0  0  0  0  0  0  0  0  0  0  0  # atno 8008 bound_to 7997
  154.8298  140.0433  157.1489 H   0  0  0  0  0  0  0  0  0  0  0  0  # atno 8009 bound_to 7997
  154.9220  140.3005  155.5215 H   0  0  0  0  0  0  0  0  0  0  0  0  # atno 8010 bound_to 7997
  140.4216  143.2582  151.8882 H   0  0  0  0  0  0  0  0  0  0  0  0  # atno 10167 bound_to 10162
  157.5530  130.8779  149.8992 H   0  0  0  0  0  0  0  0  0  0  0  0  # atno 10718 bound_to 10713
  154.7913  135.3208  154.7771 H   0  0  0  0  0  0  0  0  0  0  0  0  # atno 10763 bound_to 10752
  153.8459  135.6866  153.4802 H   0  0  0  0  0  0  0  0  0  0  0  0  # atno 10764 bound_to 10752
  153.1584  135.4670  154.9678 H   0  0  0  0  0  0  0  0  0  0  0  0  # atno 10765 bound_to 10752
  140.7556  133.8556  155.9081 H   0  0  0  0  0  0  0  0  0  0  0  0  # atno 11005 bound_to 11000
  144.9694  140.8354  143.5464 LP  0  0  0  0  0  0  0  0  0  0  0  0  # atno 17320 bound_to 7965
  145.2106  139.2206  143.5145 LP  0  0  0  0  0  0  0  0  0  0  0  0  # atno 17321 bound_to 7965
  139.4783  144.5431  151.8498 LP  0  0  0  0  0  0  0  0  0  0  0  0  # atno 17342 bound_to 10162
  140.4527  144.1832  150.5899 LP  0  0  0  0  0  0  0  0  0  0  0  0  # atno 17343 bound_to 10162
  156.0593  130.3702  150.1018 LP  0  0  0  0  0  0  0  0  0  0  0  0  # atno 17370 bound_to 10713
  156.9189  130.9676  151.3551 LP  0  0  0  0  0  0  0  0  0  0  0  0  # atno 17371 bound_to 10713
  140.9710  134.1531  157.4576 LP  0  0  0  0  0  0  0  0  0  0  0  0  # atno 17394 bound_to 11000
  139.8779  134.9978  156.5869 LP  0  0  0  0  0  0  0  0  0  0  0  0  # atno 17395 bound_to 11000

$$$$
