AV-unprocessed.smi:443|AV-procd|sdf|2585|dock6
  -GOLD-   2262022573D 1   1.00000     0.00000
 Structure written by MMmdl.
 48 49  0  0  0  0  0  0  0  0  1 V2000
  150.7041  145.1124  159.6262 C   0  0  0  0  0  0  0  0  0  0  0  0
  151.3455  143.7832  159.3316 C   0  0  0  0  0  0  0  0  0  0  0  0
  151.0898  143.2590  158.1788 N   0  0  0  0  0  0  0  0  0  0  0  0
  151.6088  142.0329  157.8126 N   0  0  0  0  0  0  0  0  0  0  0  0
  151.1716  141.5664  156.4899 C   0  0  0  0  0  0  0  0  0  0  0  0
  149.7253  141.0228  156.5071 C   0  0  2  0  0  0  0  0  0  0  0  0
  149.6074  139.9757  157.4476 O   0  0  0  0  0  0  0  0  0  0  0  0
  149.1986  140.5421  155.1424 C   0  0  0  0  0  0  0  0  0  0  0  0
  147.8153  140.2244  155.2431 O   0  0  0  0  0  0  0  0  0  0  0  0
  146.8828  141.2081  154.9859 C   0  0  0  0  0  0  0  0  0  0  0  0
  147.1180  142.2721  154.0768 C   0  0  0  0  0  0  0  0  0  0  0  0
  146.1324  143.2461  153.8358 C   0  0  0  0  0  0  0  0  0  0  0  0
  144.8969  143.1742  154.4992 C   0  0  0  0  0  0  0  0  0  0  0  0
  144.6516  142.1288  155.4063 C   0  0  0  0  0  0  0  0  0  0  0  0
  145.6331  141.1442  155.6596 C   0  0  0  0  0  0  0  0  0  0  0  0
  145.3057  140.0407  156.6684 C   0  0  0  0  0  0  0  0  0  0  0  0
  144.1462  139.1377  156.2114 C   0  0  0  0  0  0  0  0  0  0  0  0
  145.0950  140.5873  158.0888 C   0  0  0  0  0  0  0  0  0  0  0  0
  152.4328  141.2759  158.5913 C   0  0  0  0  0  0  0  0  0  0  0  0
  152.8710  140.1841  158.2260 O   0  0  0  0  0  0  0  0  0  0  0  0
  152.7306  141.8812  159.8915 C   0  0  0  0  0  0  0  0  0  0  0  0
  153.5906  141.1202  160.7393 C   0  0  0  0  0  0  0  0  0  0  0  0
  154.3007  140.5192  161.4283 N   0  0  0  0  0  0  0  0  0  0  0  0
  152.2188  143.0807  160.2660 C   0  0  0  0  0  0  0  0  0  0  0  0
  152.4904  143.7485  161.6071 C   0  0  0  0  0  0  0  0  0  0  0  0
  151.4602  145.8854  159.7638 H   0  0  0  0  0  0  0  0  0  0  0  0
  150.1030  145.0600  160.5341 H   0  0  0  0  0  0  0  0  0  0  0  0
  150.0461  145.4342  158.8179 H   0  0  0  0  0  0  0  0  0  0  0  0
  151.2538  142.3755  155.7623 H   0  0  0  0  0  0  0  0  0  0  0  0
  151.8534  140.7946  156.1279 H   0  0  0  0  0  0  0  0  0  0  0  0
  149.0590  141.8106  156.8602 H   0  0  0  0  0  0  0  0  0  0  0  0
  149.7486  140.3309  158.3118 H   0  0  0  0  0  0  0  0  0  0  0  0
  149.3696  141.2998  154.3760 H   0  0  0  0  0  0  0  0  0  0  0  0
  149.7560  139.6498  154.8546 H   0  0  0  0  0  0  0  0  0  0  0  0
  148.0513  142.3672  153.5437 H   0  0  0  0  0  0  0  0  0  0  0  0
  146.3251  144.0492  153.1397 H   0  0  0  0  0  0  0  0  0  0  0  0
  144.1383  143.9206  154.3146 H   0  0  0  0  0  0  0  0  0  0  0  0
  143.6975  142.0899  155.9112 H   0  0  0  0  0  0  0  0  0  0  0  0
  146.1803  139.3913  156.7252 H   0  0  0  0  0  0  0  0  0  0  0  0
  144.3455  138.7176  155.2253 H   0  0  0  0  0  0  0  0  0  0  0  0
  143.1967  139.6689  156.1614 H   0  0  0  0  0  0  0  0  0  0  0  0
  144.0109  138.3037  156.9004 H   0  0  0  0  0  0  0  0  0  0  0  0
  145.9657  141.1513  158.4235 H   0  0  0  0  0  0  0  0  0  0  0  0
  144.9385  139.7752  158.7993 H   0  0  0  0  0  0  0  0  0  0  0  0
  144.2291  141.2429  158.1500 H   0  0  0  0  0  0  0  0  0  0  0  0
  153.1895  143.1785  162.2181 H   0  0  0  0  0  0  0  0  0  0  0  0
  151.5659  143.8526  162.1758 H   0  0  0  0  0  0  0  0  0  0  0  0
  152.9189  144.7406  161.4624 H   0  0  0  0  0  0  0  0  0  0  0  0
  1  2  1  0  0  0  0
  1 26  1  0  0  0  0
  1 27  1  0  0  0  0
  1 28  1  0  0  0  0
  2 24  1  0  0  0  0
  2  3  2  0  0  0  0
  3  4  1  0  0  0  0
  4  5  1  0  0  0  0
  4 19  1  0  0  0  0
  5  6  1  0  0  0  0
  5 29  1  0  0  0  0
  5 30  1  0  0  0  0
  6  7  1  0  0  0  0
  6  8  1  0  0  0  0
  6 31  1  0  0  0  0
  7 32  1  0  0  0  0
  8  9  1  0  0  0  0
  8 33  1  0  0  0  0
  8 34  1  0  0  0  0
  9 10  1  0  0  0  0
 10 15  1  0  0  0  0
 10 11  2  0  0  0  0
 11 12  1  0  0  0  0
 11 35  1  0  0  0  0
 12 13  2  0  0  0  0
 12 36  1  0  0  0  0
 13 14  1  0  0  0  0
 13 37  1  0  0  0  0
 14 15  2  0  0  0  0
 14 38  1  0  0  0  0
 15 16  1  0  0  0  0
 16 17  1  0  0  0  0
 16 18  1  0  0  0  0
 16 39  1  0  0  0  0
 17 40  1  0  0  0  0
 17 41  1  0  0  0  0
 17 42  1  0  0  0  0
 18 43  1  0  0  0  0
 18 44  1  0  0  0  0
 18 45  1  0  0  0  0
 19 20  2  0  0  0  0
 19 21  1  0  0  0  0
 21 22  1  0  0  0  0
 21 24  2  0  0  0  0
 22 23  3  0  0  0  0
 24 25  1  0  0  0  0
 25 46  1  0  0  0  0
 25 47  1  0  0  0  0
 25 48  1  0  0  0  0
M  END
> <s_m_source_file>
AV-unprocessed.smi

> <i_m_source_file_index>
443

> <i_lp_mmshare_version>
43012

> <i_f3d_flags>
0

> <s_epik_input>
TiNDYyhjMVtDSDNdKWMoPU8pbihuYzFbQ0gzXSlbQ0gyXVtDQEhdKFtPSF0pW0NIMl1PYzJbY0hdW2NIXVtjSF1bY0hdYzJbQ0hdKFtDSDNdKVtDSDNd

> <s_epik_cmdline>
J2VwaWtfcHl0aG9uJywgJy1waCcsICc3LjAnLCAnLXRuJywgJzgnLCAnLW1hJywgJzIwMCcsICctbWV0YWxfYmluZGluZycsICctaW1hZScsICc8aW5maWxlLm1hZT4nLCAnLW9tYWUnLCAnPG91dGZpbGUubWFlPic=

> <r_lp_tautomer_probability>
1

> <r_epik_Ionization_Penalty>
1.17331e-07

> <r_epik_Ionization_Penalty_Charging>
1.57223e-10

> <r_epik_Ionization_Penalty_Neutral>
1.17174e-07

> <r_epik_State_Penalty>
-0

> <r_epik_Charging_Adjusted_Penalty>
1.57223e-10

> <i_epik_Tot_Q>
0

> <i_epik_Tot_abs_Q>
0

> <r_epik_Metal_State_Penalty>
-0

> <b_epik_Metal_Only>
0

> <s_lp_Force_Field>
OPLS_2005

> <r_lp_Energy>
30.066

> <b_lp_Chiralities_Consistent>
1

> <s_lp_Variant>
AV-unprocessed.smi:443-1

> <Gold.Version>
5.8.1

> <Gold.Id.Protein>
6NUR|6NUR_protein|mol2

> <Gold.PLP.Fitness>
46.6165

> <Gold.PLP.PLP>
-45.2560

> <Gold.PLP.part.hbond>
-1.0000

> <Gold.PLP.part.metal>
0.0000

> <Gold.PLP.part.buried>
-7.9482

> <Gold.PLP.part.nonpolar>
-36.6198

> <Gold.PLP.part.repulsive>
0.1814

> <Gold.PLP.ligand.clash>
0.0000

> <Gold.PLP.ligand.torsion>
0.8501

> <Gold.PLP.Chemscore.Hbond>
0.9760

> <Gold.PLP.Chemscore.CHOScore>
0.0000

> <Gold.PLP.Chemscore.Metal>
0.0000

> <Gold.Chemscore.Hbonds>
donor molecule, donor type, donor heavy atom, donor atom, acceptor molecule, acceptor atom, score
      P1  H  7997  8009       L1    20  0.82

> <Gold.PLP.Chemscore.Internal.Correction>
0.1327

> <Gold.Rescore>
     Score         DG    S(hbond)    S(metal)    S(lipo)     H(rot)  DE(clash)    DE(int)     intcor
     13.67     -14.61       0.93        0.00     104.12       2.41       0.08       0.87       ----

> <Gold.Chemscore.Fitness>
13.6687

> <Gold.Chemscore.DG>
-14.6107

> <Gold.Chemscore.ZeroCoef>
-5.4800

> <Gold.Chemscore.Hbond>
0.9324

> <Gold.Chemscore.Metal>
0.0000

> <Gold.Chemscore.Lipo>
104.1175

> <Gold.Chemscore.Internal_Hbond>
0.0000

> <Gold.Chemscore.DEClash>
0.0768

> <Gold.Chemscore.DEInternal>
0.8651

> <Gold.Chemscore.Rot>
2.4084

> <Gold.Chemscore.Internal.Correction>
   9.000000E+99

> <Gold.Chemscore.Hbonds>
donor molecule, donor type, donor heavy atom, donor atom, acceptor molecule, acceptor atom, score
      P1  H  7997  8009       L1    20  0.76

> <Gold.Chemscore.Hbond.Weighted>
-3.1144

> <Gold.Chemscore.Metal.Weighted>
-0.0000

> <Gold.Chemscore.Lipo.Weighted>
-12.1818

> <Gold.Chemscore.Internal_Hbond.Weighted>
0.0000

> <Gold.Chemscore.DEClash.Weighted>
0.0768

> <Gold.Chemscore.DEInternal.Weighted>
0.8651

> <Gold.Chemscore.Rot.Weighted>
6.1655

> <Gold.Chemscore.Internal.Correction.Weighted>
   9.000000E+99

> <Gold.Protein.RotatedTorsions>
[ 6907 6896 6895 6894 ] final  -72.52 input  -60.11 | X-H torsion
[ 7974 7965 7964 7962 ] final -147.17 input  175.53 | X-H torsion
[ 8008 7997 7996 7995 ] final  164.18 input   59.86 | X-H torsion
[ 10167 10162 10161 10158 ] final   91.21 input  -65.29 | X-H torsion
[ 10718 10713 10712 10709 ] final  -87.92 input   66.30 | X-H torsion
[ 10763 10752 10751 10750 ] final -146.77 input  -60.55 | X-H torsion
[ 11005 11000 10999 10996 ] final  -71.56 input  -57.11 | X-H torsion

> <Gold.Protein.ActiveResidues>
 VAL166  LYS551  ARG553  GLY616  TRP617  ASP618  TYR619  PRO620  LYS621  CYS622 
 ASP623  PHE694  ASN695  SER759  ASP760  ASP761  ALA762  ILE779  LEU786  VAL792 
 PHE793  MET794  SER795  GLU796  ALA797  LYS798  CYS799  TRP800  GLU811  SER814 

> <Gold.Protein.RotatedAtoms>
  150.7166  134.5150  159.5625 H   0  0  0  0  0  0  0  0  0  0  0  0  # atno 6907 bound_to 6896
  152.2718  134.7921  160.0422 H   0  0  0  0  0  0  0  0  0  0  0  0  # atno 6908 bound_to 6896
  151.8599  133.3420  159.3737 H   0  0  0  0  0  0  0  0  0  0  0  0  # atno 6909 bound_to 6896
  144.8111  140.5362  143.5642 H   0  0  0  0  0  0  0  0  0  0  0  0  # atno 7974 bound_to 7965
  156.1899  140.1703  156.8111 H   0  0  0  0  0  0  0  0  0  0  0  0  # atno 8008 bound_to 7997
  154.5459  140.0727  156.8620 H   0  0  0  0  0  0  0  0  0  0  0  0  # atno 8009 bound_to 7997
  155.3123  140.3368  155.4246 H   0  0  0  0  0  0  0  0  0  0  0  0  # atno 8010 bound_to 7997
  139.8396  144.6647  150.9299 H   0  0  0  0  0  0  0  0  0  0  0  0  # atno 10167 bound_to 10162
  155.9984  130.4817  150.4941 H   0  0  0  0  0  0  0  0  0  0  0  0  # atno 10718 bound_to 10713
  154.8319  135.3377  154.6714 H   0  0  0  0  0  0  0  0  0  0  0  0  # atno 10763 bound_to 10752
  153.7333  135.6950  153.4988 H   0  0  0  0  0  0  0  0  0  0  0  0  # atno 10764 bound_to 10752
  153.2296  135.4421  155.0533 H   0  0  0  0  0  0  0  0  0  0  0  0  # atno 10765 bound_to 10752
  141.1594  133.6821  156.6925 H   0  0  0  0  0  0  0  0  0  0  0  0  # atno 11005 bound_to 11000
  145.5322  139.1475  143.3493 LP  0  0  0  0  0  0  0  0  0  0  0  0  # atno 17320 bound_to 7965
  146.2409  140.5462  142.8934 LP  0  0  0  0  0  0  0  0  0  0  0  0  # atno 17321 bound_to 7965
  140.7799  143.3924  151.1286 LP  0  0  0  0  0  0  0  0  0  0  0  0  # atno 17342 bound_to 10162
  139.7572  143.8690  152.3091 LP  0  0  0  0  0  0  0  0  0  0  0  0  # atno 17343 bound_to 10162
  157.2932  131.0630  151.2119 LP  0  0  0  0  0  0  0  0  0  0  0  0  # atno 17370 bound_to 10713
  157.3124  130.6896  149.6223 LP  0  0  0  0  0  0  0  0  0  0  0  0  # atno 17371 bound_to 10713
  140.3020  134.8156  157.4105 LP  0  0  0  0  0  0  0  0  0  0  0  0  # atno 17394 bound_to 11000
  140.1254  134.5165  155.8149 LP  0  0  0  0  0  0  0  0  0  0  0  0  # atno 17395 bound_to 11000

$$$$
