AV-unprocessed.smi:592|AV-procd|sdf|3011|dock4
  -GOLD-   2262023513D 1   1.00000     0.00000
 Structure written by MMmdl.
 28 29  0  0  0  0  0  0  0  0  2 V2000
  151.7072  141.2687  158.0384 O   0  0  0  0  0  0  0  0  0  0  0  0
  151.5492  142.4176  157.6281 C   0  0  0  0  0  0  0  0  0  0  0  0
  152.1865  143.6239  158.3379 C   0  0  0  0  0  0  0  0  0  0  0  0
  152.4747  143.3756  159.7616 N   0  0  0  0  0  0  0  0  0  0  0  0
  153.2970  142.2720  160.0656 C   0  0  0  0  0  0  0  0  0  0  0  0
  153.6245  141.9565  161.3285 C   0  0  0  0  0  0  0  0  0  0  0  0
  153.1104  142.7838  162.3942 C   0  0  0  0  0  0  0  0  0  0  0  0
  152.3188  143.8384  162.1155 C   0  0  0  0  0  0  0  0  0  0  0  0
  151.9548  144.1845  160.7366 C   0  0  0  0  0  0  0  0  0  0  0  0
  151.2260  145.1412  160.4726 O   0  0  0  0  0  0  0  0  0  0  0  0
  150.7296  142.6060  156.4554 N   0  0  0  0  0  0  0  0  0  0  0  0
  150.0695  141.7219  155.6657 C   0  0  0  0  0  0  0  0  0  0  0  0
  149.0060  142.0428  154.9147 N   0  3  0  0  0  0  0  0  0  0  0  0
  148.3617  140.9957  154.1072 C   0  0  0  0  0  0  0  0  0  0  0  0
  149.1138  139.6698  154.3061 C   0  0  0  0  0  0  0  0  0  0  0  0
  150.4524  139.9816  155.4741 S   0  0  0  0  0  0  0  0  0  0  0  0
  153.1122  143.8845  157.8250 H   0  0  0  0  0  0  0  0  0  0  0  0
  151.5240  144.4857  158.2518 H   0  0  0  0  0  0  0  0  0  0  0  0
  153.6361  141.7002  159.2140 H   0  0  0  0  0  0  0  0  0  0  0  0
  154.2531  141.1046  161.5421 H   0  0  0  0  0  0  0  0  0  0  0  0
  153.3609  142.5555  163.4197 H   0  0  0  0  0  0  0  0  0  0  0  0
  151.9425  144.4451  162.9261 H   0  0  0  0  0  0  0  0  0  0  0  0
  150.5731  143.5490  156.1299 H   0  0  0  0  0  0  0  0  0  0  0  0
  147.3198  140.8968  154.4129 H   0  0  0  0  0  0  0  0  0  0  0  0
  148.3685  141.2912  153.0578 H   0  0  0  0  0  0  0  0  0  0  0  0
  148.4533  138.8982  154.7022 H   0  0  0  0  0  0  0  0  0  0  0  0
  149.5269  139.3069  153.3646 H   0  0  0  0  0  0  0  0  0  0  0  0
  148.6354  142.9825  154.8964 H   0  0  0  0  0  0  0  0  0  0  0  0
  1  2  2  0  0  0  0
  2  3  1  0  0  0  0
  2 11  1  0  0  0  0
  3  4  1  0  0  0  0
  3 17  1  0  0  0  0
  3 18  1  0  0  0  0
  4  9  1  0  0  0  0
  4  5  1  0  0  0  0
  5  6  2  0  0  0  0
  5 19  1  0  0  0  0
  6  7  1  0  0  0  0
  6 20  1  0  0  0  0
  7  8  2  0  0  0  0
  7 21  1  0  0  0  0
  8  9  1  0  0  0  0
  8 22  1  0  0  0  0
  9 10  2  0  0  0  0
 11 12  1  0  0  0  0
 11 23  1  0  0  0  0
 12 16  1  0  0  0  0
 12 13  2  0  0  0  0
 13 14  1  0  0  0  0
 13 28  1  0  0  0  0
 14 15  1  0  0  0  0
 14 24  1  0  0  0  0
 14 25  1  0  0  0  0
 15 16  1  0  0  0  0
 15 26  1  0  0  0  0
 15 27  1  0  0  0  0
M  CHG  1  13   1
M  END
> <s_m_source_file>
AV-unprocessed.smi

> <i_m_source_file_index>
592

> <i_lp_mmshare_version>
43012

> <i_f3d_flags>
0

> <s_epik_input>
UzFbQ0gyXVtDSDJdTj1DMVtOSF1DKD1PKVtDSDJdbjJbY0hdW2NIXVtjSF1bY0hdYzI9Tw==

> <s_epik_cmdline>
J2VwaWtfcHl0aG9uJywgJy1waCcsICc3LjAnLCAnLXRuJywgJzgnLCAnLW1hJywgJzIwMCcsICctbWV0YWxfYmluZGluZycsICctaW1hZScsICc8aW5maWxlLm1hZT4nLCAnLW9tYWUnLCAnPG91dGZpbGUubWFlPic=

> <r_lp_tautomer_probability>
1

> <r_epik_Ionization_Penalty>
1.98499

> <r_epik_Ionization_Penalty_Charging>
1.98499

> <r_epik_Ionization_Penalty_Neutral>
2.63117e-16

> <r_epik_State_Penalty>
1.64719

> <r_epik_Charging_Adjusted_Penalty>
3.63218

> <i_epik_Tot_Q>
1

> <i_epik_Tot_abs_Q>
1

> <r_epik_Metal_State_Penalty>
5.35038

> <b_epik_Metal_Only>
0

> <s_epik_Chemistry_Notes>
This compound has an imine and may undergo hydrolysis.

> <s_lp_Force_Field>
OPLS_2005

> <r_lp_Energy>
33.1972

> <b_lp_Chiralities_Consistent>
1

> <s_lp_Variant>
AV-unprocessed.smi:592-2

> <Gold.Version>
5.8.1

> <Gold.Id.Protein>
6NUR|6NUR_protein|mol2

> <Gold.PLP.Fitness>
49.1653

> <Gold.PLP.PLP>
-42.8997

> <Gold.PLP.part.hbond>
-2.0000

> <Gold.PLP.part.metal>
0.0000

> <Gold.PLP.part.buried>
-4.7536

> <Gold.PLP.part.nonpolar>
-36.6039

> <Gold.PLP.part.repulsive>
0.4936

> <Gold.PLP.ligand.clash>
0.0000

> <Gold.PLP.ligand.torsion>
0.4802

> <Gold.PLP.Chemscore.Hbond>
2.4077

> <Gold.PLP.Chemscore.CHOScore>
0.0000

> <Gold.PLP.Chemscore.Metal>
0.0000

> <Gold.Chemscore.Hbonds>
donor molecule, donor type, donor heavy atom, donor atom, acceptor molecule, acceptor atom, score
      L1  H    11    23       P1  8028  0.62
      L1  H    13    28       P1  8028  1.73

> <Gold.PLP.Chemscore.Internal.Correction>
0.0030

> <Gold.Rescore>
     Score         DG    S(hbond)    S(metal)    S(lipo)     H(rot)  DE(clash)    DE(int)     intcor
     14.92     -16.68       1.60        0.00      79.59       1.35       0.02       1.74       ----

> <Gold.Chemscore.Fitness>
14.9151

> <Gold.Chemscore.DG>
-16.6823

> <Gold.Chemscore.ZeroCoef>
-5.4800

> <Gold.Chemscore.Hbond>
1.6005

> <Gold.Chemscore.Metal>
0.0000

> <Gold.Chemscore.Lipo>
79.5871

> <Gold.Chemscore.Internal_Hbond>
0.0000

> <Gold.Chemscore.DEClash>
0.0234

> <Gold.Chemscore.DEInternal>
1.7438

> <Gold.Chemscore.Rot>
1.3497

> <Gold.Chemscore.Internal.Correction>
   9.000000E+99

> <Gold.Chemscore.Hbonds>
donor molecule, donor type, donor heavy atom, donor atom, acceptor molecule, acceptor atom, score
      L1  H    11    23       P1  8028  0.61
      L1  H    13    28       P1  8028  0.86

> <Gold.Chemscore.Hbond.Weighted>
-5.3458

> <Gold.Chemscore.Metal.Weighted>
-0.0000

> <Gold.Chemscore.Lipo.Weighted>
-9.3117

> <Gold.Chemscore.Internal_Hbond.Weighted>
0.0000

> <Gold.Chemscore.DEClash.Weighted>
0.0234

> <Gold.Chemscore.DEInternal.Weighted>
1.7438

> <Gold.Chemscore.Rot.Weighted>
3.4552

> <Gold.Chemscore.Internal.Correction.Weighted>
   9.000000E+99

> <Gold.Protein.RotatedTorsions>
[ 6907 6896 6895 6894 ] final  108.58 input  -60.11 | X-H torsion
[ 7974 7965 7964 7962 ] final -125.97 input  175.53 | X-H torsion
[ 8008 7997 7996 7995 ] final   35.28 input   59.86 | X-H torsion
[ 10167 10162 10161 10158 ] final  174.53 input  -65.29 | X-H torsion
[ 10718 10713 10712 10709 ] final  -37.97 input   66.30 | X-H torsion
[ 10763 10752 10751 10750 ] final   17.25 input  -60.55 | X-H torsion
[ 11005 11000 10999 10996 ] final  158.28 input  -57.11 | X-H torsion

> <Gold.Protein.ActiveResidues>
 VAL166  LYS551  ARG553  GLY616  TRP617  ASP618  TYR619  PRO620  LYS621  CYS622 
 ASP623  PHE694  ASN695  SER759  ASP760  ASP761  ALA762  ILE779  LEU786  VAL792 
 PHE793  MET794  SER795  GLU796  ALA797  LYS798  CYS799  TRP800  GLU811  SER814 

> <Gold.Protein.RotatedAtoms>
  152.5105  133.9067  159.7467 H   0  0  0  0  0  0  0  0  0  0  0  0  # atno 6907 bound_to 6896
  150.9470  133.6583  159.2786 H   0  0  0  0  0  0  0  0  0  0  0  0  # atno 6908 bound_to 6896
  151.3875  135.0955  159.9568 H   0  0  0  0  0  0  0  0  0  0  0  0  # atno 6909 bound_to 6896
  144.9920  140.7741  143.4548 H   0  0  0  0  0  0  0  0  0  0  0  0  # atno 7974 bound_to 7965
  155.1685  140.3289  155.4397 H   0  0  0  0  0  0  0  0  0  0  0  0  # atno 8008 bound_to 7997
  156.2518  140.1947  156.6740 H   0  0  0  0  0  0  0  0  0  0  0  0  # atno 8009 bound_to 7997
  154.6354  140.0577  156.9769 H   0  0  0  0  0  0  0  0  0  0  0  0  # atno 8010 bound_to 7997
  139.5145  144.3136  152.0269 H   0  0  0  0  0  0  0  0  0  0  0  0  # atno 10167 bound_to 10162
  156.3091  130.4250  149.8068 H   0  0  0  0  0  0  0  0  0  0  0  0  # atno 10718 bound_to 10713
  153.1356  135.6749  153.9108 H   0  0  0  0  0  0  0  0  0  0  0  0  # atno 10763 bound_to 10752
  153.8580  135.3085  155.3437 H   0  0  0  0  0  0  0  0  0  0  0  0  # atno 10764 bound_to 10752
  154.7745  135.4922  153.9798 H   0  0  0  0  0  0  0  0  0  0  0  0  # atno 10765 bound_to 10752
  140.1850  134.8449  157.2846 H   0  0  0  0  0  0  0  0  0  0  0  0  # atno 11005 bound_to 11000
  145.2272  139.2132  143.5062 LP  0  0  0  0  0  0  0  0  0  0  0  0  # atno 17320 bound_to 7965
  146.3433  140.2141  142.8590 LP  0  0  0  0  0  0  0  0  0  0  0  0  # atno 17321 bound_to 7965
  140.2580  144.4098  150.6196 LP  0  0  0  0  0  0  0  0  0  0  0  0  # atno 17342 bound_to 10162
  140.6178  143.2173  151.6757 LP  0  0  0  0  0  0  0  0  0  0  0  0  # atno 17343 bound_to 10162
  156.5418  130.8303  151.3271 LP  0  0  0  0  0  0  0  0  0  0  0  0  # atno 17370 bound_to 10713
  157.7386  130.9817  150.2265 LP  0  0  0  0  0  0  0  0  0  0  0  0  # atno 17371 bound_to 10713
  140.2224  134.4007  155.7559 LP  0  0  0  0  0  0  0  0  0  0  0  0  # atno 17394 bound_to 11000
  141.2224  133.7173  156.8512 LP  0  0  0  0  0  0  0  0  0  0  0  0  # atno 17395 bound_to 11000

$$$$
