AV-unprocessed.smi:268|AV-procd|sdf|2041|dock8
  -GOLD-   2262021263D 1   1.00000     0.00000
 Structure written by MMmdl.
 50 53  0  0  0  0  0  0  0  0  1 V2000
  148.4704  128.6479  152.3971 C   0  0  0  0  0  0  0  0  0  0  0  0
  149.3819  129.5286  153.2617 C   0  0  0  0  0  0  0  0  0  0  0  0
  148.7197  130.6909  153.7427 O   0  0  0  0  0  0  0  0  0  0  0  0
  149.5766  131.7898  154.0184 C   0  0  2  0  0  0  0  0  0  0  0  0
  149.9747  131.9385  155.4942 C   0  0  0  0  0  0  0  0  0  0  0  0
  149.7393  133.4505  155.3327 C   0  0  2  0  0  0  0  0  0  0  0  0
  149.0709  134.0803  156.4741 N   0  0  0  0  0  0  0  0  0  0  0  0
  147.9958  133.3309  157.1167 C   0  0  0  0  0  0  0  0  0  0  0  0
  148.8331  135.4175  156.4244 C   0  0  0  0  0  0  0  0  0  0  0  0
  147.8773  135.9096  155.5905 N   0  0  0  0  0  0  0  0  0  0  0  0
  147.6301  137.2216  155.5442 C   0  0  0  0  0  0  0  0  0  0  0  0
  148.2102  138.2045  156.2349 N   0  0  0  0  0  0  0  0  0  0  0  0
  149.1688  137.7190  157.0745 C   0  0  0  0  0  0  0  0  0  0  0  0
  149.5384  136.3535  157.2330 C   0  0  0  0  0  0  0  0  0  0  0  0
  150.5548  136.2469  158.1751 N   0  0  0  0  0  0  0  0  0  0  0  0
  150.7718  137.4772  158.5525 C   0  0  0  0  0  0  0  0  0  0  0  0
  149.9902  138.4273  157.9347 N   0  0  0  0  0  0  0  0  0  0  0  0
  150.0225  139.8649  158.1566 C   0  0  0  0  0  0  0  0  0  0  0  0
  150.5092  140.6721  156.9385 C   0  0  0  0  0  0  0  0  0  0  0  0
  150.2576  142.1705  157.2054 C   0  0  0  0  0  0  0  0  0  0  0  0
  150.8685  143.0028  156.2397 O   0  0  0  0  0  0  0  0  0  0  0  0
  151.9106  140.2969  156.4355 C   0  0  0  0  0  0  0  0  0  0  0  0
  151.4338  140.0717  155.0905 O   0  0  0  0  0  0  0  0  0  0  0  0
  150.0707  140.1501  155.5626 C   0  0  0  0  0  0  0  0  0  0  0  0
  148.7830  133.0924  154.1853 C   0  0  0  0  0  0  0  0  0  0  0  0
  149.0374  127.8319  151.9489 H   0  0  0  0  0  0  0  0  0  0  0  0
  148.0212  129.2246  151.5883 H   0  0  0  0  0  0  0  0  0  0  0  0
  147.6672  128.2009  152.9816 H   0  0  0  0  0  0  0  0  0  0  0  0
  149.8105  128.9572  154.0864 H   0  0  0  0  0  0  0  0  0  0  0  0
  150.2215  129.8644  152.6528 H   0  0  0  0  0  0  0  0  0  0  0  0
  150.4108  131.9092  153.3237 H   0  0  0  0  0  0  0  0  0  0  0  0
  149.2701  131.4560  156.1748 H   0  0  0  0  0  0  0  0  0  0  0  0
  151.0056  131.6636  155.7182 H   0  0  0  0  0  0  0  0  0  0  0  0
  150.6281  133.9765  154.9795 H   0  0  0  0  0  0  0  0  0  0  0  0
  148.2111  133.2028  158.1777 H   0  0  0  0  0  0  0  0  0  0  0  0
  147.8876  132.3393  156.6766 H   0  0  0  0  0  0  0  0  0  0  0  0
  147.0342  133.8380  157.0200 H   0  0  0  0  0  0  0  0  0  0  0  0
  146.8566  137.5273  154.8550 H   0  0  0  0  0  0  0  0  0  0  0  0
  151.5158  137.7251  159.2951 H   0  0  0  0  0  0  0  0  0  0  0  0
  149.0259  140.1910  158.4562 H   0  0  0  0  0  0  0  0  0  0  0  0
  150.6632  140.0505  159.0196 H   0  0  0  0  0  0  0  0  0  0  0  0
  149.1919  142.3992  157.1958 H   0  0  0  0  0  0  0  0  0  0  0  0
  150.6349  142.4583  158.1872 H   0  0  0  0  0  0  0  0  0  0  0  0
  150.2472  143.6649  155.9772 H   0  0  0  0  0  0  0  0  0  0  0  0
  152.6424  141.1034  156.4925 H   0  0  0  0  0  0  0  0  0  0  0  0
  152.3109  139.3839  156.8788 H   0  0  0  0  0  0  0  0  0  0  0  0
  149.6003  139.1666  155.5875 H   0  0  0  0  0  0  0  0  0  0  0  0
  149.4672  140.8535  154.9883 H   0  0  0  0  0  0  0  0  0  0  0  0
  148.8283  133.7648  153.3283 H   0  0  0  0  0  0  0  0  0  0  0  0
  147.7547  132.9244  154.5118 H   0  0  0  0  0  0  0  0  0  0  0  0
  1  2  1  0  0  0  0
  1 26  1  0  0  0  0
  1 27  1  0  0  0  0
  1 28  1  0  0  0  0
  2  3  1  0  0  0  0
  2 29  1  0  0  0  0
  2 30  1  0  0  0  0
  3  4  1  0  0  0  0
  4 25  1  0  0  0  0
  4  5  1  0  0  0  0
  4 31  1  0  0  0  0
  5  6  1  0  0  0  0
  5 32  1  0  0  0  0
  5 33  1  0  0  0  0
  6  7  1  0  0  0  0
  6 25  1  0  0  0  0
  6 34  1  0  0  0  0
  7  8  1  0  0  0  0
  7  9  1  0  0  0  0
  8 35  1  0  0  0  0
  8 36  1  0  0  0  0
  8 37  1  0  0  0  0
  9 14  1  0  0  0  0
  9 10  2  0  0  0  0
 10 11  1  0  0  0  0
 11 12  2  0  0  0  0
 11 38  1  0  0  0  0
 12 13  1  0  0  0  0
 13 17  1  0  0  0  0
 13 14  2  0  0  0  0
 14 15  1  0  0  0  0
 15 16  2  0  0  0  0
 16 17  1  0  0  0  0
 16 39  1  0  0  0  0
 17 18  1  0  0  0  0
 18 19  1  0  0  0  0
 18 40  1  0  0  0  0
 18 41  1  0  0  0  0
 19 24  1  0  0  0  0
 19 20  1  0  0  0  0
 19 22  1  0  0  0  0
 20 21  1  0  0  0  0
 20 42  1  0  0  0  0
 20 43  1  0  0  0  0
 21 44  1  0  0  0  0
 22 23  1  0  0  0  0
 22 45  1  0  0  0  0
 22 46  1  0  0  0  0
 23 24  1  0  0  0  0
 24 47  1  0  0  0  0
 24 48  1  0  0  0  0
 25 49  1  0  0  0  0
 25 50  1  0  0  0  0
M  END
> <s_m_source_file>
AV-unprocessed.smi

> <i_m_source_file_index>
268

> <i_lp_mmshare_version>
43012

> <i_f3d_flags>
0

> <s_epik_input>
W0NIM11bQ0gyXU9bQ0BASF0xW0NIMl1bQ0BIXShbQ0gyXTEpTihbQ0gzXSljKG5bY0hdbjIpYyhjMjMpbltjSF1uM1tDSDJdQzQoW0NIMl1bT0hdKVtDSDJdT1tDSDJdNA==

> <s_epik_cmdline>
J2VwaWtfcHl0aG9uJywgJy1waCcsICc3LjAnLCAnLXRuJywgJzgnLCAnLW1hJywgJzIwMCcsICctbWV0YWxfYmluZGluZycsICctaW1hZScsICc8aW5maWxlLm1hZT4nLCAnLW9tYWUnLCAnPG91dGZpbGUubWFlPic=

> <r_lp_tautomer_probability>
1

> <r_epik_Ionization_Penalty>
0.00205824

> <r_epik_Ionization_Penalty_Charging>
0

> <r_epik_Ionization_Penalty_Neutral>
0.00205824

> <r_epik_State_Penalty>
0.00125218

> <r_epik_Charging_Adjusted_Penalty>
0.00125218

> <i_epik_Tot_Q>
0

> <i_epik_Tot_abs_Q>
0

> <r_epik_Metal_State_Penalty>
-0

> <b_epik_Metal_Only>
0

> <s_lp_Force_Field>
OPLS_2005

> <r_lp_Energy>
41.5967

> <b_lp_Chiralities_Consistent>
1

> <s_lp_Variant>
AV-unprocessed.smi:268-2

> <Gold.Version>
5.8.1

> <Gold.Id.Protein>
6NUR|6NUR_protein|mol2

> <Gold.PLP.Fitness>
35.7109

> <Gold.PLP.PLP>
-28.7480

> <Gold.PLP.part.hbond>
-3.0000

> <Gold.PLP.part.metal>
0.0000

> <Gold.PLP.part.buried>
-5.4905

> <Gold.PLP.part.nonpolar>
-20.0042

> <Gold.PLP.part.repulsive>
0.1488

> <Gold.PLP.ligand.clash>
0.0000

> <Gold.PLP.ligand.torsion>
1.2435

> <Gold.PLP.Chemscore.Hbond>
2.6880

> <Gold.PLP.Chemscore.CHOScore>
0.0000

> <Gold.PLP.Chemscore.Metal>
0.0000

> <Gold.Chemscore.Hbonds>
donor molecule, donor type, donor heavy atom, donor atom, acceptor molecule, acceptor atom, score
      L1  H    21    44       P1  8028  1.00
      P1  H  6896  6909       L1    15  0.67
      P1  H  7989  7998       L1    23  1.00

> <Gold.PLP.Chemscore.Internal.Correction>
1.3860

> <Gold.Rescore>
     Score         DG    S(hbond)    S(metal)    S(lipo)     H(rot)  DE(clash)    DE(int)     intcor
     11.17     -13.87       2.78        0.00      61.33       3.15       0.03       2.67       ----

> <Gold.Chemscore.Fitness>
11.1710

> <Gold.Chemscore.DG>
-13.8692

> <Gold.Chemscore.ZeroCoef>
-5.4800

> <Gold.Chemscore.Hbond>
2.7808

> <Gold.Chemscore.Metal>
0.0000

> <Gold.Chemscore.Lipo>
61.3342

> <Gold.Chemscore.Internal_Hbond>
0.0000

> <Gold.Chemscore.DEClash>
0.0323

> <Gold.Chemscore.DEInternal>
2.6659

> <Gold.Chemscore.Rot>
3.1542

> <Gold.Chemscore.Internal.Correction>
   9.000000E+99

> <Gold.Chemscore.Hbonds>
donor molecule, donor type, donor heavy atom, donor atom, acceptor molecule, acceptor atom, score
      L1  H    21    44       P1  8028  1.00
      P1  H  6896  6909       L1    15  0.43
      P1  H  7989  7998       L1    23  0.81

> <Gold.Chemscore.Hbond.Weighted>
-9.2879

> <Gold.Chemscore.Metal.Weighted>
-0.0000

> <Gold.Chemscore.Lipo.Weighted>
-7.1761

> <Gold.Chemscore.Internal_Hbond.Weighted>
0.0000

> <Gold.Chemscore.DEClash.Weighted>
0.0323

> <Gold.Chemscore.DEInternal.Weighted>
2.6659

> <Gold.Chemscore.Rot.Weighted>
8.0748

> <Gold.Chemscore.Internal.Correction.Weighted>
   9.000000E+99

> <Gold.Protein.RotatedTorsions>
[ 6907 6896 6895 6894 ] final   83.73 input  -60.11 | X-H torsion
[ 7974 7965 7964 7962 ] final  -30.14 input  175.53 | X-H torsion
[ 8008 7997 7996 7995 ] final   -1.88 input   59.86 | X-H torsion
[ 10167 10162 10161 10158 ] final  -78.26 input  -65.29 | X-H torsion
[ 10718 10713 10712 10709 ] final   46.72 input   66.30 | X-H torsion
[ 10763 10752 10751 10750 ] final   43.56 input  -60.55 | X-H torsion
[ 11005 11000 10999 10996 ] final  -45.41 input  -57.11 | X-H torsion

> <Gold.Protein.ActiveResidues>
 VAL166  LYS551  ARG553  GLY616  TRP617  ASP618  TYR619  PRO620  LYS621  CYS622 
 ASP623  PHE694  ASN695  SER759  ASP760  ASP761  ALA762  ILE779  LEU786  VAL792 
 PHE793  MET794  SER795  GLU796  ALA797  LYS798  CYS799  TRP800  GLU811  SER814 

> <Gold.Protein.RotatedAtoms>
  152.5335  134.2850  159.9021 H   0  0  0  0  0  0  0  0  0  0  0  0  # atno 6907 bound_to 6896
  151.2803  133.4206  159.2634 H   0  0  0  0  0  0  0  0  0  0  0  0  # atno 6908 bound_to 6896
  151.0289  134.9540  159.8157 H   0  0  0  0  0  0  0  0  0  0  0  0  # atno 6909 bound_to 6896
  146.1165  140.5502  142.8754 H   0  0  0  0  0  0  0  0  0  0  0  0  # atno 7974 bound_to 7965
  154.6419  140.2548  155.7312 H   0  0  0  0  0  0  0  0  0  0  0  0  # atno 8008 bound_to 7997
  156.2533  140.2885  156.0737 H   0  0  0  0  0  0  0  0  0  0  0  0  # atno 8009 bound_to 7997
  155.1583  140.0383  157.2827 H   0  0  0  0  0  0  0  0  0  0  0  0  # atno 8010 bound_to 7997
  140.4698  143.2430  151.8223 H   0  0  0  0  0  0  0  0  0  0  0  0  # atno 10167 bound_to 10162
  157.4510  130.8138  149.7789 H   0  0  0  0  0  0  0  0  0  0  0  0  # atno 10718 bound_to 10713
  152.9858  135.6097  154.3131 H   0  0  0  0  0  0  0  0  0  0  0  0  # atno 10763 bound_to 10752
  154.2846  135.2776  155.2684 H   0  0  0  0  0  0  0  0  0  0  0  0  # atno 10764 bound_to 10752
  154.5007  135.5867  153.6585 H   0  0  0  0  0  0  0  0  0  0  0  0  # atno 10765 bound_to 10752
  141.0514  133.6741  156.3010 H   0  0  0  0  0  0  0  0  0  0  0  0  # atno 11005 bound_to 11000
  144.7558  140.5302  143.6770 LP  0  0  0  0  0  0  0  0  0  0  0  0  # atno 17320 bound_to 7965
  145.5556  139.1478  143.3370 LP  0  0  0  0  0  0  0  0  0  0  0  0  # atno 17321 bound_to 7965
  139.4817  144.4906  151.9190 LP  0  0  0  0  0  0  0  0  0  0  0  0  # atno 17342 bound_to 10162
  140.3991  144.2516  150.5894 LP  0  0  0  0  0  0  0  0  0  0  0  0  # atno 17343 bound_to 10162
  155.9987  130.3892  150.2691 LP  0  0  0  0  0  0  0  0  0  0  0  0  # atno 17370 bound_to 10713
  157.0863  131.0157  151.3138 LP  0  0  0  0  0  0  0  0  0  0  0  0  # atno 17371 bound_to 10713
  140.6048  134.5518  157.5524 LP  0  0  0  0  0  0  0  0  0  0  0  0  # atno 17394 bound_to 11000
  139.9353  134.7886  156.0819 LP  0  0  0  0  0  0  0  0  0  0  0  0  # atno 17395 bound_to 11000

$$$$
