AV-unprocessed.smi:2061|AV-procd|sdf|8383|dock7
  -GOLD-   2272011 63D 1   1.00000     0.00000
 Structure written by MMmdl.
 45 46  0  0  0  0  0  0  0  0  3 V2000
  154.4513  136.6402  162.3241 C   0  0  0  0  0  0  0  0  0  0  0  0
  154.0408  137.1405  160.9818 C   0  0  0  0  0  0  0  0  0  0  0  0
  153.9696  138.3918  160.4380 C   0  0  0  0  0  0  0  0  0  0  0  0
  153.4955  138.1467  159.1202 C   0  0  0  0  0  0  0  0  0  0  0  0
  153.2717  139.0746  158.1768 N   0  5  0  0  0  0  0  0  0  0  0  0
  152.0436  139.2037  157.6260 C   0  0  0  0  0  0  0  0  0  0  0  0
  151.0793  138.4549  157.8002 O   0  0  0  0  0  0  0  0  0  0  0  0
  151.9217  140.2729  156.8265 N   0  0  0  0  0  0  0  0  0  0  0  0
  150.7087  140.6687  156.1178 C   0  0  0  0  0  0  0  0  0  0  0  0
  150.6547  140.1286  154.6653 C   0  0  1  0  0  0  0  0  0  0  0  0
  151.2315  138.6934  154.6071 C   0  0  0  0  0  0  0  0  0  0  0  0
  149.2577  140.2430  154.1346 N   0  3  1  0  0  0  0  0  0  0  0  0
  148.4371  139.0424  154.4479 C   0  0  0  0  0  0  0  0  0  0  0  0
  147.0488  139.1121  153.7853 C   0  0  2  0  0  0  0  0  0  0  0  0
  147.0801  138.8899  152.2625 C   0  0  0  0  0  0  0  0  0  0  0  0
  146.3964  140.3270  154.1472 O   0  0  0  0  0  0  0  0  0  0  0  0
  147.1285  141.5074  153.8356 C   0  0  1  0  0  0  0  0  0  0  0  0
  146.2950  142.7097  154.2933 C   0  0  0  0  0  0  0  0  0  0  0  0
  148.5070  141.4674  154.5216 C   0  0  0  0  0  0  0  0  0  0  0  0
  153.3107  136.8593  158.8806 N   0  0  0  0  0  0  0  0  0  0  0  0
  153.6530  136.2075  160.0714 O   0  0  0  0  0  0  0  0  0  0  0  0
  155.4907  136.3119  162.3115 H   0  0  0  0  0  0  0  0  0  0  0  0
  153.8326  135.7965  162.6310 H   0  0  0  0  0  0  0  0  0  0  0  0
  154.3520  137.4227  163.0767 H   0  0  0  0  0  0  0  0  0  0  0  0
  154.2145  139.3326  160.9075 H   0  0  0  0  0  0  0  0  0  0  0  0
  152.7358  140.8581  156.7078 H   0  0  0  0  0  0  0  0  0  0  0  0
  149.8560  140.2897  156.6819 H   0  0  0  0  0  0  0  0  0  0  0  0
  150.6308  141.7550  156.1545 H   0  0  0  0  0  0  0  0  0  0  0  0
  151.2964  140.7452  154.0336 H   0  0  0  0  0  0  0  0  0  0  0  0
  152.2408  138.6498  155.0162 H   0  0  0  0  0  0  0  0  0  0  0  0
  151.3129  138.3264  153.5840 H   0  0  0  0  0  0  0  0  0  0  0  0
  150.6198  137.9930  155.1766 H   0  0  0  0  0  0  0  0  0  0  0  0
  148.9352  138.1256  154.1361 H   0  0  0  0  0  0  0  0  0  0  0  0
  148.3160  138.9717  155.5302 H   0  0  0  0  0  0  0  0  0  0  0  0
  146.4415  138.3102  154.2062 H   0  0  0  0  0  0  0  0  0  0  0  0
  147.4628  137.8967  152.0257 H   0  0  0  0  0  0  0  0  0  0  0  0
  147.7170  139.6105  151.7504 H   0  0  0  0  0  0  0  0  0  0  0  0
  146.0787  138.9659  151.8382 H   0  0  0  0  0  0  0  0  0  0  0  0
  147.2606  141.5827  152.7562 H   0  0  0  0  0  0  0  0  0  0  0  0
  146.8024  143.6486  154.0705 H   0  0  0  0  0  0  0  0  0  0  0  0
  146.1092  142.6760  155.3673 H   0  0  0  0  0  0  0  0  0  0  0  0
  145.3285  142.7276  153.7890 H   0  0  0  0  0  0  0  0  0  0  0  0
  148.3965  141.5005  155.6069 H   0  0  0  0  0  0  0  0  0  0  0  0
  149.0456  142.3646  154.2183 H   0  0  0  0  0  0  0  0  0  0  0  0
  149.3477  140.2844  153.1295 H   0  0  0  0  0  0  0  0  0  0  0  0
  1  2  1  0  0  0  0
  1 22  1  0  0  0  0
  1 23  1  0  0  0  0
  1 24  1  0  0  0  0
  2 21  1  0  0  0  0
  2  3  2  0  0  0  0
  3  4  1  0  0  0  0
  3 25  1  0  0  0  0
  4  5  1  0  0  0  0
  4 20  2  0  0  0  0
  5  6  1  0  0  0  0
  6  7  2  0  0  0  0
  6  8  1  0  0  0  0
  8  9  1  0  0  0  0
  8 26  1  0  0  0  0
  9 10  1  0  0  0  0
  9 27  1  0  0  0  0
  9 28  1  0  0  0  0
 10 11  1  0  0  0  0
 10 12  1  0  0  0  0
 10 29  1  0  0  0  0
 11 30  1  0  0  0  0
 11 31  1  0  0  0  0
 11 32  1  0  0  0  0
 12 19  1  0  0  0  0
 12 13  1  0  0  0  0
 12 45  1  0  0  0  0
 13 14  1  0  0  0  0
 13 33  1  0  0  0  0
 13 34  1  0  0  0  0
 14 15  1  0  0  0  0
 14 16  1  0  0  0  0
 14 35  1  0  0  0  0
 15 36  1  0  0  0  0
 15 37  1  0  0  0  0
 15 38  1  0  0  0  0
 16 17  1  0  0  0  0
 17 18  1  0  0  0  0
 17 19  1  0  0  0  0
 17 39  1  0  0  0  0
 18 40  1  0  0  0  0
 18 41  1  0  0  0  0
 18 42  1  0  0  0  0
 19 43  1  0  0  0  0
 19 44  1  0  0  0  0
 20 21  1  0  0  0  0
M  CHG  1   5  -1
M  CHG  1  12   1
M  END
> <s_m_source_file>
AV-unprocessed.smi

> <i_m_source_file_index>
2061

> <i_lp_mmshare_version>
43012

> <i_f3d_flags>
0

> <s_epik_input>
W0NIM11jMVtjSF1jKG5vMSlbTkhdQyg9TylbTkhdW0NIMl1bQ0BIXShbQ0gzXSlOMltDSDJdW0NAQEhdKFtDSDNdKU9bQ0BASF0oW0NIM10pW0NIMl0y

> <s_epik_cmdline>
J2VwaWtfcHl0aG9uJywgJy1waCcsICc3LjAnLCAnLXRuJywgJzgnLCAnLW1hJywgJzIwMCcsICctbWV0YWxfYmluZGluZycsICctaW1hZScsICc8aW5maWxlLm1hZT4nLCAnLW9tYWUnLCAnPG91dGZpbGUubWFlPic=

> <r_epik_Ionization_Penalty>
6.73511

> <r_epik_Ionization_Penalty_Charging>
6.73502

> <r_epik_Ionization_Penalty_Neutral>
9.50841e-05

> <r_epik_State_Penalty>
6.93549

> <r_epik_Charging_Adjusted_Penalty>
13.6705

> <i_epik_Tot_Q>
0

> <i_epik_Tot_abs_Q>
2

> <r_epik_Metal_State_Penalty>
2.87211

> <b_epik_Metal_Only>
1

> <s_lp_Force_Field>
OPLS_2005

> <r_lp_Energy>
11.2328

> <b_lp_Chiralities_Consistent>
1

> <s_lp_Variant>
AV-unprocessed.smi:2061-24

> <Gold.Version>
5.8.1

> <Gold.Id.Protein>
6NUR|6NUR_protein|mol2

> <Gold.PLP.Fitness>
44.2384

> <Gold.PLP.PLP>
-34.9424

> <Gold.PLP.part.hbond>
-3.1406

> <Gold.PLP.part.metal>
0.0000

> <Gold.PLP.part.buried>
-2.6935

> <Gold.PLP.part.nonpolar>
-29.7377

> <Gold.PLP.part.repulsive>
0.8594

> <Gold.PLP.ligand.clash>
0.0000

> <Gold.PLP.ligand.torsion>
1.3950

> <Gold.PLP.Chemscore.Hbond>
4.0000

> <Gold.PLP.Chemscore.CHOScore>
0.0000

> <Gold.PLP.Chemscore.Metal>
0.0000

> <Gold.Chemscore.Hbonds>
donor molecule, donor type, donor heavy atom, donor atom, acceptor molecule, acceptor atom, score
      L1  H    12    45       P1  7957  1.00
      P1  H  6896  6909       L1    21  0.95
      P1  H  7997  8010       L1     5  2.00

> <Gold.PLP.Chemscore.Internal.Correction>
0.0860

> <Gold.Rescore>
     Score         DG    S(hbond)    S(metal)    S(lipo)     H(rot)  DE(clash)    DE(int)     intcor
     14.96     -20.11       2.74        0.00      80.77       1.56       2.49       2.66       ----

> <Gold.Chemscore.Fitness>
14.9641

> <Gold.Chemscore.DG>
-20.1147

> <Gold.Chemscore.ZeroCoef>
-5.4800

> <Gold.Chemscore.Hbond>
2.7440

> <Gold.Chemscore.Metal>
0.0000

> <Gold.Chemscore.Lipo>
80.7734

> <Gold.Chemscore.Internal_Hbond>
0.0000

> <Gold.Chemscore.DEClash>
2.4885

> <Gold.Chemscore.DEInternal>
2.6622

> <Gold.Chemscore.Rot>
1.5550

> <Gold.Chemscore.Internal.Correction>
   9.000000E+99

> <Gold.Chemscore.Hbonds>
donor molecule, donor type, donor heavy atom, donor atom, acceptor molecule, acceptor atom, score
      L1  H    12    45       P1  7957  0.96
      P1  H  6896  6909       L1    21  0.21
      P1  H  7997  8010       L1     5  0.72

> <Gold.Chemscore.Hbond.Weighted>
-9.1651

> <Gold.Chemscore.Metal.Weighted>
-0.0000

> <Gold.Chemscore.Lipo.Weighted>
-9.4505

> <Gold.Chemscore.Internal_Hbond.Weighted>
0.0000

> <Gold.Chemscore.DEClash.Weighted>
2.4885

> <Gold.Chemscore.DEInternal.Weighted>
2.6622

> <Gold.Chemscore.Rot.Weighted>
3.9809

> <Gold.Chemscore.Internal.Correction.Weighted>
   9.000000E+99

> <Gold.Protein.RotatedTorsions>
[ 6907 6896 6895 6894 ] final  170.33 input  -60.11 | X-H torsion
[ 7974 7965 7964 7962 ] final -176.13 input  175.53 | X-H torsion
[ 8008 7997 7996 7995 ] final   31.76 input   59.86 | X-H torsion
[ 10167 10162 10161 10158 ] final  121.53 input  -65.29 | X-H torsion
[ 10718 10713 10712 10709 ] final   -9.98 input   66.30 | X-H torsion
[ 10763 10752 10751 10750 ] final   69.56 input  -60.55 | X-H torsion
[ 11005 11000 10999 10996 ] final  -25.02 input  -57.11 | X-H torsion

> <Gold.Protein.ActiveResidues>
 VAL166  LYS551  ARG553  GLY616  TRP617  ASP618  TYR619  PRO620  LYS621  CYS622 
 ASP623  PHE694  ASN695  SER759  ASP760  ASP761  ALA762  ILE779  LEU786  VAL792 
 PHE793  MET794  SER795  GLU796  ALA797  LYS798  CYS799  TRP800  GLU811  SER814 

> <Gold.Protein.RotatedAtoms>
  151.8178  133.3390  159.3574 H   0  0  0  0  0  0  0  0  0  0  0  0  # atno 6907 bound_to 6896
  150.7304  134.5602  159.5848 H   0  0  0  0  0  0  0  0  0  0  0  0  # atno 6908 bound_to 6896
  152.3028  134.7592  160.0405 H   0  0  0  0  0  0  0  0  0  0  0  0  # atno 6909 bound_to 6896
  144.7127  140.1217  143.6405 H   0  0  0  0  0  0  0  0  0  0  0  0  # atno 7974 bound_to 7965
  155.1116  140.3239  155.4520 H   0  0  0  0  0  0  0  0  0  0  0  0  # atno 8008 bound_to 7997
  156.2689  140.2043  156.6188 H   0  0  0  0  0  0  0  0  0  0  0  0  # atno 8009 bound_to 7997
  154.6751  140.0532  157.0194 H   0  0  0  0  0  0  0  0  0  0  0  0  # atno 8010 bound_to 7997
  139.5914  144.7026  151.3282 H   0  0  0  0  0  0  0  0  0  0  0  0  # atno 10167 bound_to 10162
  156.6801  130.5034  149.5974 H   0  0  0  0  0  0  0  0  0  0  0  0  # atno 10718 bound_to 10713
  153.0293  135.5206  154.7306 H   0  0  0  0  0  0  0  0  0  0  0  0  # atno 10763 bound_to 10752
  154.6335  135.2903  155.0191 H   0  0  0  0  0  0  0  0  0  0  0  0  # atno 10764 bound_to 10752
  154.1134  135.6618  153.4942 H   0  0  0  0  0  0  0  0  0  0  0  0  # atno 10765 bound_to 10752
  140.8899  133.7595  156.0408 H   0  0  0  0  0  0  0  0  0  0  0  0  # atno 11005 bound_to 11000
  145.9365  139.2640  143.1294 LP  0  0  0  0  0  0  0  0  0  0  0  0  # atno 17320 bound_to 7965
  145.9468  140.8938  143.0279 LP  0  0  0  0  0  0  0  0  0  0  0  0  # atno 17321 bound_to 7965
  140.7176  143.7224  150.7685 LP  0  0  0  0  0  0  0  0  0  0  0  0  # atno 17342 bound_to 10162
  140.0781  143.4995  152.2545 LP  0  0  0  0  0  0  0  0  0  0  0  0  # atno 17343 bound_to 10162
  156.1873  130.6537  151.1021 LP  0  0  0  0  0  0  0  0  0  0  0  0  # atno 17370 bound_to 10713
  157.7046  131.0761  150.6708 LP  0  0  0  0  0  0  0  0  0  0  0  0  # atno 17371 bound_to 10713
  140.8359  134.3123  157.5331 LP  0  0  0  0  0  0  0  0  0  0  0  0  # atno 17394 bound_to 11000
  139.8728  134.9389  156.3728 LP  0  0  0  0  0  0  0  0  0  0  0  0  # atno 17395 bound_to 11000

$$$$
