AV-unprocessed.smi:3253|AV-procd|sdf|12447|dock4
  -GOLD-   2272018343D 1   1.00000     0.00000
 Structure written by MMmdl.
 37 38  0  0  0  0  0  0  0  0  2 V2000
  152.6064  142.9190  162.0117 C   0  0  0  0  0  0  0  0  0  0  0  0
  153.4008  142.1684  160.9308 C   0  0  2  0  0  0  0  0  0  0  0  0
  152.5669  141.8727  159.6642 C   0  0  0  0  0  0  0  0  0  0  0  0
  152.0314  143.0852  159.0391 N   0  0  0  0  0  0  0  0  0  0  0  0
  152.2494  144.3862  159.4150 C   0  0  0  0  0  0  0  0  0  0  0  0
  151.5443  145.1691  158.5374 C   0  0  0  0  0  0  0  0  0  0  0  0
  150.9222  144.3138  157.6674 N   0  3  0  0  0  0  0  0  0  0  0  0
  151.2176  143.0469  157.9761 C   0  0  0  0  0  0  0  0  0  0  0  0
  153.9259  140.9286  161.4952 N   0  0  0  0  0  0  0  0  0  0  0  0
  154.8965  140.1798  160.9483 C   0  0  0  0  0  0  0  0  0  0  0  0
  155.4431  140.4603  159.8808 O   0  0  0  0  0  0  0  0  0  0  0  0
  155.3137  138.9214  161.7255 C   0  0  1  0  0  0  0  0  0  0  0  0
  154.1861  137.8691  161.7399 C   0  0  0  0  0  0  0  0  0  0  0  0
  154.7365  136.7271  160.9022 C   0  0  0  0  0  0  0  0  0  0  0  0
  154.0723  135.7350  160.6062 O   0  0  0  0  0  0  0  0  0  0  0  0
  156.0014  136.9637  160.5438 N   0  0  0  0  0  0  0  0  0  0  0  0
  156.8335  136.0876  159.7304 C   0  0  0  0  0  0  0  0  0  0  0  0
  156.5244  138.2063  161.0852 C   0  0  0  0  0  0  0  0  0  0  0  0
  152.2758  143.8962  161.6594 H   0  0  0  0  0  0  0  0  0  0  0  0
  153.2158  143.0866  162.9005 H   0  0  0  0  0  0  0  0  0  0  0  0
  151.7220  142.3576  162.3155 H   0  0  0  0  0  0  0  0  0  0  0  0
  154.2474  142.7995  160.6526 H   0  0  0  0  0  0  0  0  0  0  0  0
  153.1655  141.3549  158.9131 H   0  0  0  0  0  0  0  0  0  0  0  0
  151.7264  141.2190  159.9022 H   0  0  0  0  0  0  0  0  0  0  0  0
  152.8757  144.6516  160.2545 H   0  0  0  0  0  0  0  0  0  0  0  0
  151.4402  146.2423  158.4694 H   0  0  0  0  0  0  0  0  0  0  0  0
  150.8699  142.1659  157.4658 H   0  0  0  0  0  0  0  0  0  0  0  0
  153.5312  140.6233  162.3733 H   0  0  0  0  0  0  0  0  0  0  0  0
  155.5635  139.2040  162.7499 H   0  0  0  0  0  0  0  0  0  0  0  0
  153.9914  137.5153  162.7529 H   0  0  0  0  0  0  0  0  0  0  0  0
  153.2441  138.2286  161.3219 H   0  0  0  0  0  0  0  0  0  0  0  0
  156.9506  135.1156  160.2111 H   0  0  0  0  0  0  0  0  0  0  0  0
  157.8263  136.5141  159.5828 H   0  0  0  0  0  0  0  0  0  0  0  0
  156.3817  135.9345  158.7496 H   0  0  0  0  0  0  0  0  0  0  0  0
  157.0032  138.7939  160.2996 H   0  0  0  0  0  0  0  0  0  0  0  0
  157.2834  137.9817  161.8358 H   0  0  0  0  0  0  0  0  0  0  0  0
  150.3227  144.5963  156.9019 H   0  0  0  0  0  0  0  0  0  0  0  0
  1  2  1  0  0  0  0
  1 19  1  0  0  0  0
  1 20  1  0  0  0  0
  1 21  1  0  0  0  0
  2  3  1  0  0  0  0
  2  9  1  0  0  0  0
  2 22  1  0  0  0  0
  3  4  1  0  0  0  0
  3 23  1  0  0  0  0
  3 24  1  0  0  0  0
  4  8  1  0  0  0  0
  4  5  1  0  0  0  0
  5  6  2  0  0  0  0
  5 25  1  0  0  0  0
  6  7  1  0  0  0  0
  6 26  1  0  0  0  0
  7  8  2  0  0  0  0
  7 37  1  0  0  0  0
  8 27  1  0  0  0  0
  9 10  1  0  0  0  0
  9 28  1  0  0  0  0
 10 11  2  0  0  0  0
 10 12  1  0  0  0  0
 12 18  1  0  0  0  0
 12 13  1  0  0  0  0
 12 29  1  0  0  0  0
 13 14  1  0  0  0  0
 13 30  1  0  0  0  0
 13 31  1  0  0  0  0
 14 15  2  0  0  0  0
 14 16  1  0  0  0  0
 16 17  1  0  0  0  0
 16 18  1  0  0  0  0
 17 32  1  0  0  0  0
 17 33  1  0  0  0  0
 17 34  1  0  0  0  0
 18 35  1  0  0  0  0
 18 36  1  0  0  0  0
M  CHG  1   7   1
M  END
> <s_m_source_file>
AV-unprocessed.smi

> <i_m_source_file_index>
3253

> <i_lp_mmshare_version>
43012

> <i_f3d_flags>
0

> <s_epik_input>
W2NIXTFuW2NIXVtjSF1uMVtDSDJdW0NAQEhdKFtDSDNdKVtOSF1DKD1PKVtDQEBIXTJbQ0gyXUMoPU8pTihbQ0gzXSlbQ0gyXTI=

> <s_epik_cmdline>
J2VwaWtfcHl0aG9uJywgJy1waCcsICc3LjAnLCAnLXRuJywgJzgnLCAnLW1hJywgJzIwMCcsICctbWV0YWxfYmluZGluZycsICctaW1hZScsICc8aW5maWxlLm1hZT4nLCAnLW9tYWUnLCAnPG91dGZpbGUubWFlPic=

> <r_lp_tautomer_probability>
1

> <r_epik_Ionization_Penalty>
0.251561

> <r_epik_Ionization_Penalty_Charging>
0

> <r_epik_Ionization_Penalty_Neutral>
0.251561

> <r_epik_State_Penalty>
0.242926

> <r_epik_Charging_Adjusted_Penalty>
0.242926

> <i_epik_Tot_Q>
1

> <i_epik_Tot_abs_Q>
1

> <r_epik_Metal_State_Penalty>
0.533885

> <b_epik_Metal_Only>
0

> <s_lp_Force_Field>
OPLS_2005

> <r_lp_Energy>
14.6529

> <b_lp_Chiralities_Consistent>
1

> <s_lp_Variant>
AV-unprocessed.smi:3253-3

> <Gold.Version>
5.8.1

> <Gold.Id.Protein>
6NUR|6NUR_protein|mol2

> <Gold.PLP.Fitness>
44.8243

> <Gold.PLP.PLP>
-36.3087

> <Gold.PLP.part.hbond>
-2.0000

> <Gold.PLP.part.metal>
0.0000

> <Gold.PLP.part.buried>
-5.4415

> <Gold.PLP.part.nonpolar>
-28.8113

> <Gold.PLP.part.repulsive>
0.0586

> <Gold.PLP.ligand.clash>
0.0000

> <Gold.PLP.ligand.torsion>
0.2581

> <Gold.PLP.Chemscore.Hbond>
3.0000

> <Gold.PLP.Chemscore.CHOScore>
0.0000

> <Gold.PLP.Chemscore.Metal>
0.0000

> <Gold.Chemscore.Hbonds>
donor molecule, donor type, donor heavy atom, donor atom, acceptor molecule, acceptor atom, score
      L1  H     7    37       P1  8028  2.00
      P1  H  6896  6908       L1    15  1.00

> <Gold.PLP.Chemscore.Internal.Correction>
0.0319

> <Gold.Rescore>
     Score         DG    S(hbond)    S(metal)    S(lipo)     H(rot)  DE(clash)    DE(int)     intcor
     14.99     -15.81       1.97        0.00      76.47       2.03       0.40       0.43       ----

> <Gold.Chemscore.Fitness>
14.9864

> <Gold.Chemscore.DG>
-15.8147

> <Gold.Chemscore.ZeroCoef>
-5.4800

> <Gold.Chemscore.Hbond>
1.9744

> <Gold.Chemscore.Metal>
0.0000

> <Gold.Chemscore.Lipo>
76.4734

> <Gold.Chemscore.Internal_Hbond>
0.0000

> <Gold.Chemscore.DEClash>
0.3991

> <Gold.Chemscore.DEInternal>
0.4292

> <Gold.Chemscore.Rot>
2.0341

> <Gold.Chemscore.Internal.Correction>
   9.000000E+99

> <Gold.Chemscore.Hbonds>
donor molecule, donor type, donor heavy atom, donor atom, acceptor molecule, acceptor atom, score
      L1  H     7    37       P1  8028  0.78
      P1  H  6896  6908       L1    15  0.93

> <Gold.Chemscore.Hbond.Weighted>
-6.5945

> <Gold.Chemscore.Metal.Weighted>
-0.0000

> <Gold.Chemscore.Lipo.Weighted>
-8.9474

> <Gold.Chemscore.Internal_Hbond.Weighted>
0.0000

> <Gold.Chemscore.DEClash.Weighted>
0.3991

> <Gold.Chemscore.DEInternal.Weighted>
0.4292

> <Gold.Chemscore.Rot.Weighted>
5.2072

> <Gold.Chemscore.Internal.Correction.Weighted>
   9.000000E+99

> <Gold.Protein.RotatedTorsions>
[ 6907 6896 6895 6894 ] final  -56.08 input  -60.11 | X-H torsion
[ 7974 7965 7964 7962 ] final  -40.12 input  175.53 | X-H torsion
[ 8008 7997 7996 7995 ] final  -91.50 input   59.86 | X-H torsion
[ 10167 10162 10161 10158 ] final  145.12 input  -65.29 | X-H torsion
[ 10718 10713 10712 10709 ] final   56.67 input   66.30 | X-H torsion
[ 10763 10752 10751 10750 ] final -114.07 input  -60.55 | X-H torsion
[ 11005 11000 10999 10996 ] final  -69.35 input  -57.11 | X-H torsion

> <Gold.Protein.ActiveResidues>
 VAL166  LYS551  ARG553  GLY616  TRP617  ASP618  TYR619  PRO620  LYS621  CYS622 
 ASP623  PHE694  ASN695  SER759  ASP760  ASP761  ALA762  ILE779  LEU786  VAL792 
 PHE793  MET794  SER795  GLU796  ALA797  LYS798  CYS799  TRP800  GLU811  SER814 

> <Gold.Protein.RotatedAtoms>
  150.8197  134.7398  159.6761 H   0  0  0  0  0  0  0  0  0  0  0  0  # atno 6907 bound_to 6896
  152.4314  134.5767  159.9946 H   0  0  0  0  0  0  0  0  0  0  0  0  # atno 6908 bound_to 6896
  151.5955  133.3324  159.3072 H   0  0  0  0  0  0  0  0  0  0  0  0  # atno 6909 bound_to 6896
  146.0334  140.6702  142.9122 H   0  0  0  0  0  0  0  0  0  0  0  0  # atno 7974 bound_to 7965
  154.7115  140.0519  157.0555 H   0  0  0  0  0  0  0  0  0  0  0  0  # atno 8008 bound_to 7997
  155.0548  140.3183  155.4661 H   0  0  0  0  0  0  0  0  0  0  0  0  # atno 8009 bound_to 7997
  156.2791  140.2109  156.5674 H   0  0  0  0  0  0  0  0  0  0  0  0  # atno 8010 bound_to 7997
  139.4932  144.5924  151.6653 H   0  0  0  0  0  0  0  0  0  0  0  0  # atno 10167 bound_to 10162
  157.5451  130.8725  149.8879 H   0  0  0  0  0  0  0  0  0  0  0  0  # atno 10718 bound_to 10713
  154.8424  135.4431  154.1448 H   0  0  0  0  0  0  0  0  0  0  0  0  # atno 10763 bound_to 10752
  153.2624  135.6937  153.7571 H   0  0  0  0  0  0  0  0  0  0  0  0  # atno 10764 bound_to 10752
  153.6842  135.3398  155.3161 H   0  0  0  0  0  0  0  0  0  0  0  0  # atno 10765 bound_to 10752
  141.1552  133.6762  156.6585 H   0  0  0  0  0  0  0  0  0  0  0  0  # atno 11005 bound_to 11000
  144.7040  140.3777  143.7132 LP  0  0  0  0  0  0  0  0  0  0  0  0  # atno 17320 bound_to 7965
  145.7004  139.1660  143.2596 LP  0  0  0  0  0  0  0  0  0  0  0  0  # atno 17321 bound_to 7965
  140.5554  144.0357  150.6145 LP  0  0  0  0  0  0  0  0  0  0  0  0  # atno 17342 bound_to 10162
  140.3425  143.3011  152.0573 LP  0  0  0  0  0  0  0  0  0  0  0  0  # atno 17343 bound_to 10162
  156.0529  130.3714  150.1160 LP  0  0  0  0  0  0  0  0  0  0  0  0  # atno 17370 bound_to 10713
  156.9337  130.9722  151.3528 LP  0  0  0  0  0  0  0  0  0  0  0  0  # atno 17371 bound_to 10713
  140.3265  134.7964  157.4293 LP  0  0  0  0  0  0  0  0  0  0  0  0  # atno 17394 bound_to 11000
  140.1052  134.5419  155.8316 LP  0  0  0  0  0  0  0  0  0  0  0  0  # atno 17395 bound_to 11000

$$$$
