#       Name:                AV-unprocessed.smi:2990
#       Creating user name   scv26
#       Creation time:       Fri Mar 27 16:31:50 2020


#       File generated by GOLD software.
#

@<TRIPOS>MOLECULE
AV-unprocessed.smi:2990
    44    46     1
SMALL
NO_CHARGES


@<TRIPOS>ATOM
      1 ****        -1.7267   0.3201   3.0879 C.3            1 S1                 0.0000
      2 ****        -1.8035   1.4920   2.1616 C.2            1 S1                 0.0000
      3 ****        -2.3478   2.6526   2.5289 N.2            1 S1                 0.0000
      4 ****        -2.2100   3.4250   1.3917 C.ar           1 S1                 0.0000
      5 ****        -2.5910   4.7620   1.1372 C.ar           1 S1                 0.0000
      6 ****        -2.3435   5.3475  -0.1218 C.ar           1 S1                 0.0000
      7 ****        -1.7137   4.6063  -1.1426 C.ar           1 S1                 0.0000
      8 ****        -1.3259   3.2727  -0.9100 C.ar           1 S1                 0.0000
      9 ****        -1.5746   2.6934   0.3486 C.ar           1 S1                 0.0000
     10 ****        -1.3253   1.4383   0.8938 N.pl3          1 S1                 0.0000
     11 ****        -0.6852   0.3194   0.2162 C.3            1 S1                 0.0000
     12 ****         0.8474   0.4749   0.1409 C.3            1 S1                 0.0000
     13 ****         1.4260   0.5703   1.4274 O.3            1 S1                 0.0000
     14 ****         1.5422  -0.6467  -0.6489 C.3            1 S1                 0.0000
     15 ****         1.0723  -1.9144  -0.2070 O.3            1 S1                 0.0000
     16 ****         1.5505  -3.0452  -0.8329 C.ar           1 S1                 0.0000
     17 ****         1.0504  -4.2845  -0.3818 C.ar           1 S1                 0.0000
     18 ****         1.4805  -5.4915  -0.9656 C.ar           1 S1                 0.0000
     19 ****         2.4217  -5.4705  -2.0112 C.ar           1 S1                 0.0000
     20 ****         2.9307  -4.2413  -2.4702 C.ar           1 S1                 0.0000
     21 ****         2.4993  -3.0337  -1.8869 C.ar           1 S1                 0.0000
     22 ****        -2.0787   0.5948   4.0827 H              1 S1                 0.0000
     23 ****        -0.6982  -0.0310   3.1744 H              1 S1                 0.0000
     24 ****        -2.3487  -0.4942   2.7160 H              1 S1                 0.0000
     25 ****        -3.0746   5.3378   1.9122 H              1 S1                 0.0000
     26 ****        -2.6383   6.3703  -0.3051 H              1 S1                 0.0000
     27 ****        -1.5283   5.0625  -2.1039 H              1 S1                 0.0000
     28 ****        -0.8425   2.7017  -1.6888 H              1 S1                 0.0000
     29 ****        -0.9568  -0.6103   0.7160 H              1 S1                 0.0000
     30 ****        -1.0998   0.2531  -0.7904 H              1 S1                 0.0000
     31 ****         1.0752   1.4168  -0.3593 H              1 S1                 0.0000
     32 ****         2.3533   0.7237   1.3294 H              1 S1                 0.0000
     33 ****         1.3019  -0.5271  -1.7067 H              1 S1                 0.0000
     34 ****         2.6261  -0.5708  -0.5442 H              1 S1                 0.0000
     35 ****         0.3279  -4.3099   0.4210 H              1 S1                 0.0000
     36 ****         1.0878  -6.4331  -0.6106 H              1 S1                 0.0000
     37 ****         2.7529  -6.3955  -2.4599 H              1 S1                 0.0000
     38 ****         3.6536  -4.2241  -3.2724 H              1 S1                 0.0000
     39 ****         2.9123  -2.1114  -2.2661 H              1 S1                 0.0000
     40 ****        -2.7542   2.9017   3.4080 LP             1 S1                 0.0000
     41 ****         1.2764  -0.2821   1.9284 LP             1 S1                 0.0000
     42 ****         1.0100   1.3289   1.9288 LP             1 S1                 0.0000
     43 ****         0.0781  -1.9151  -0.3145 LP             1 S1                 0.0000
     44 ****         1.3028  -1.9935   0.7629 LP             1 S1                 0.0000
@<TRIPOS>BOND
    1    1    2 1     
    2    1   22 1     
    3    1   23 1     
    4    1   24 1     
    5    2   10 1     
    6    2    3 2     
    7    3    4 1     
    8    4    9 ar    
    9    4    5 ar    
   10    5    6 ar    
   11    5   25 1     
   12    6    7 ar    
   13    6   26 1     
   14    7    8 ar    
   15    7   27 1     
   16    8    9 ar    
   17    8   28 1     
   18    9   10 1     
   19   10   11 1     
   20   11   12 1     
   21   11   29 1     
   22   11   30 1     
   23   12   13 1     
   24   12   14 1     
   25   12   31 1     
   26   13   32 1     
   27   14   15 1     
   28   14   33 1     
   29   14   34 1     
   30   15   16 1     
   31   16   21 ar    
   32   16   17 ar    
   33   17   18 ar    
   34   17   35 1     
   35   18   19 ar    
   36   18   36 1     
   37   19   20 ar    
   38   19   37 1     
   39   20   21 ar    
   40   20   38 1     
   41   21   39 1     
   42    3   40 1     
   43   13   41 1     
   44   13   42 1     
   45   15   43 1     
   46   15   44 1     
@<TRIPOS>SUBSTRUCTURE
      1 S1             1
@<TRIPOS>SET
LONE_PAIRS      STATIC     ATOMS    <user>   **** ""
5 40 41 42 43 44
DONOR_HYDROGENS      STATIC     ATOMS    <user>   **** ""
1 32
ATOM$BLUE        STATIC     ATOMS    COLORGROUP SYSTEM
5 40 41 42 43 44
ATOM$RED        STATIC     ATOMS    COLORGROUP SYSTEM
1 32
