#       Name:                AV-unprocessed.smi:2710
#       Creating user name   scv26
#       Creation time:       Fri Mar 27 14:50:40 2020


#       File generated by GOLD software.
#

@<TRIPOS>MOLECULE
AV-unprocessed.smi:2710
    57    58     1
SMALL
NO_CHARGES


@<TRIPOS>ATOM
      1 ****        -3.5245  -5.3902  -1.6152 C.3            1 S1                 0.0000
      2 ****        -3.0172  -4.7502  -0.3122 C.3            1 S1                 0.0000
      3 ****        -3.3791  -3.3087  -0.1797 N.4            1 S1                 1.0000
      4 ****        -2.7021  -2.4733  -1.2127 C.3            1 S1                 0.0000
      5 ****        -3.1753  -1.0127  -1.1759 C.3            1 S1                 0.0000
      6 ****        -2.9671  -0.3830   0.2095 C.3            1 S1                 0.0000
      7 ****        -1.5514  -0.1777   0.5167 N.am           1 S1                 0.0000
      8 ****        -0.7917   0.8155   0.0327 C.2            1 S1                 0.0000
      9 ****        -1.2122   1.6649  -0.7512 O.2            1 S1                 0.0000
     10 ****         0.4605   0.7472   0.5163 N.am           1 S1                 0.0000
     11 ****         1.5710   1.5968   0.2564 C.ar           1 S1                 0.0000
     12 ****         1.5716   2.7212  -0.6049 C.ar           1 S1                 0.0000
     13 ****         2.6788   3.4707  -0.7904 N.ar           1 S1                 0.0000
     14 ****         3.7992   3.1017  -0.1566 C.ar           1 S1                 0.0000
     15 ****         5.0090   4.0469  -0.2624 C.3            1 S1                 0.0000
     16 ****         6.3374   3.2752  -0.0809 C.3            1 S1                 0.0000
     17 ****         4.8991   5.1424   0.8140 C.3            1 S1                 0.0000
     18 ****         5.0831   4.7009  -1.6624 C.3            1 S1                 0.0000
     19 ****         3.8918   2.0846   0.7099 N.ar           1 S1                 0.0000
     20 ****         2.7933   1.3257   0.9040 C.ar           1 S1                 0.0000
     21 ****        -3.6299  -1.2741   1.2689 C.3            1 S1                 0.0000
     22 ****        -3.1723  -2.7502   1.1973 C.3            1 S1                 0.0000
     23 ****        -3.9096  -3.5440   2.2961 C.3            1 S1                 0.0000
     24 ****        -3.3779  -6.4702  -1.5890 H              1 S1                 0.0000
     25 ****        -2.9949  -5.0242  -2.4940 H              1 S1                 0.0000
     26 ****        -4.5901  -5.2080  -1.7572 H              1 S1                 0.0000
     27 ****        -3.4634  -5.3309   0.4916 H              1 S1                 0.0000
     28 ****        -1.9372  -4.8738  -0.2213 H              1 S1                 0.0000
     29 ****        -1.6213  -2.5241  -1.0716 H              1 S1                 0.0000
     30 ****        -2.9032  -2.8563  -2.2114 H              1 S1                 0.0000
     31 ****        -2.6607  -0.4333  -1.9433 H              1 S1                 0.0000
     32 ****        -4.2347  -0.9750  -1.4328 H              1 S1                 0.0000
     33 ****        -3.4595   0.5912   0.2318 H              1 S1                 0.0000
     34 ****        -1.1244  -0.8275   1.1605 H              1 S1                 0.0000
     35 ****         0.6447  -0.0104   1.1574 H              1 S1                 0.0000
     36 ****         0.7033   3.0487  -1.1531 H              1 S1                 0.0000
     37 ****         7.1986   3.9329  -0.2048 H              1 S1                 0.0000
     38 ****         6.4322   2.4704  -0.8110 H              1 S1                 0.0000
     39 ****         6.4209   2.8325   0.9122 H              1 S1                 0.0000
     40 ****         4.8815   4.7118   1.8158 H              1 S1                 0.0000
     41 ****         3.9864   5.7268   0.6917 H              1 S1                 0.0000
     42 ****         5.7413   5.8334   0.7669 H              1 S1                 0.0000
     43 ****         5.9638   5.3370  -1.7580 H              1 S1                 0.0000
     44 ****         4.2171   5.3319  -1.8651 H              1 S1                 0.0000
     45 ****         5.1356   3.9485  -2.4503 H              1 S1                 0.0000
     46 ****         2.8918   0.4967   1.5896 H              1 S1                 0.0000
     47 ****        -3.4333  -0.8652   2.2612 H              1 S1                 0.0000
     48 ****        -4.7121  -1.2297   1.1372 H              1 S1                 0.0000
     49 ****        -2.1042  -2.7909   1.4172 H              1 S1                 0.0000
     50 ****        -3.8734  -3.0150   3.2491 H              1 S1                 0.0000
     51 ****        -3.4587  -4.5187   2.4788 H              1 S1                 0.0000
     52 ****        -4.9605  -3.6922   2.0452 H              1 S1                 0.0000
     53 ****        -4.3711  -3.2486  -0.3614 H              1 S1                 0.0000
     54 ****        -2.1636   1.6351  -1.0577 LP             1 S1                 0.0000
     55 ****        -0.6027   2.3854  -1.0820 LP             1 S1                 0.0000
     56 ****         2.6629   4.2764  -1.3826 LP             1 S1                 0.0000
     57 ****         4.7449   1.8945   1.1958 LP             1 S1                 0.0000
@<TRIPOS>BOND
    1    1    2 1     
    2    1   24 1     
    3    1   25 1     
    4    1   26 1     
    5    2    3 1     
    6    2   27 1     
    7    2   28 1     
    8    3   22 1     
    9    3    4 1     
   10    3   53 1     
   11    4    5 1     
   12    4   29 1     
   13    4   30 1     
   14    5    6 1     
   15    5   31 1     
   16    5   32 1     
   17    6    7 1     
   18    6   21 1     
   19    6   33 1     
   20    7    8 am    
   21    7   34 1     
   22    8    9 2     
   23    8   10 am    
   24   10   11 1     
   25   10   35 1     
   26   11   20 ar    
   27   11   12 ar    
   28   12   13 ar    
   29   12   36 1     
   30   13   14 ar    
   31   14   15 1     
   32   14   19 ar    
   33   15   16 1     
   34   15   17 1     
   35   15   18 1     
   36   16   37 1     
   37   16   38 1     
   38   16   39 1     
   39   17   40 1     
   40   17   41 1     
   41   17   42 1     
   42   18   43 1     
   43   18   44 1     
   44   18   45 1     
   45   19   20 ar    
   46   20   46 1     
   47   21   22 1     
   48   21   47 1     
   49   21   48 1     
   50   22   23 1     
   51   22   49 1     
   52   23   50 1     
   53   23   51 1     
   54   23   52 1     
   55    9   54 1     
   56    9   55 1     
   57   13   56 1     
   58   19   57 1     
@<TRIPOS>SUBSTRUCTURE
      1 S1             1
@<TRIPOS>SET
LONE_PAIRS      STATIC     ATOMS    <user>   **** ""
4 54 55 56 57
DONOR_HYDROGENS      STATIC     ATOMS    <user>   **** ""
3 53 34 35
ATOM$BLUE        STATIC     ATOMS    COLORGROUP SYSTEM
4 54 55 56 57
ATOM$RED        STATIC     ATOMS    COLORGROUP SYSTEM
3 53 34 35
