#       Name:                AV-unprocessed.smi:2460
#       Creating user name   scv26
#       Creation time:       Fri Mar 27 13:35:34 2020


#       File generated by GOLD software.
#

@<TRIPOS>MOLECULE
AV-unprocessed.smi:2460
    52    54     1
SMALL
NO_CHARGES


@<TRIPOS>ATOM
      1 ****        -5.0711  -0.5290  -2.1089 C.3            1 S1                 0.0000
      2 ****        -3.9829  -1.5844  -1.8483 C.3            1 S1                 0.0000
      3 ****        -4.3496  -2.9269  -2.4991 C.3            1 S1                 0.0000
      4 ****        -2.5933  -1.0928  -2.2727 C.3            1 S1                 0.0000
      5 ****        -2.0610  -0.4340  -1.0155 C.3            1 S1                 0.0000
      6 ****        -0.6000  -0.3934  -1.0050 N.am           1 S1                 0.0000
      7 ****         0.1412   0.5044  -0.3421 C.2            1 S1                 0.0000
      8 ****        -0.3364   1.4311   0.3118 O.2            1 S1                 0.0000
      9 ****         1.4520   0.2393  -0.4691 N.am           1 S1                 0.0000
     10 ****         2.5446   0.9297   0.1191 C.ar           1 S1                 0.0000
     11 ****         3.7827   0.2672   0.2537 C.ar           1 S1                 0.0000
     12 ****         4.8614   0.8699   0.7979 N.ar           1 S1                 0.0000
     13 ****         4.7042   2.1319   1.2072 C.ar           1 S1                 0.0000
     14 ****         5.9093   2.8073   1.7839 C.3            1 S1                 0.0000
     15 ****         6.6503   2.2014   2.9584 C.3            1 S1                 0.0000
     16 ****         5.8515   3.4603   3.1502 C.3            1 S1                 0.0000
     17 ****         3.5954   2.8698   1.1045 N.ar           1 S1                 0.0000
     18 ****         2.5106   2.2744   0.5635 C.ar           1 S1                 0.0000
     19 ****        -2.6688  -1.3099   0.1022 C.3            1 S1                 0.0000
     20 ****        -1.8424  -2.5676   0.4455 C.3            1 S1                 0.0000
     21 ****        -2.9815  -0.5025   1.3719 C.3            1 S1                 0.0000
     22 ****        -3.9063  -1.7729  -0.4361 O.3            1 S1                 0.0000
     23 ****        -5.1782  -0.3266  -3.1748 H              1 S1                 0.0000
     24 ****        -4.8406   0.4145  -1.6136 H              1 S1                 0.0000
     25 ****        -6.0394  -0.8644  -1.7366 H              1 S1                 0.0000
     26 ****        -4.3947  -2.8392  -3.5848 H              1 S1                 0.0000
     27 ****        -5.3212  -3.2800  -2.1525 H              1 S1                 0.0000
     28 ****        -3.6157  -3.6964  -2.2578 H              1 S1                 0.0000
     29 ****        -1.9602  -1.9380  -2.5474 H              1 S1                 0.0000
     30 ****        -2.6199  -0.4151  -3.1266 H              1 S1                 0.0000
     31 ****        -2.4700   0.5773  -0.9660 H              1 S1                 0.0000
     32 ****        -0.1222  -1.1222  -1.5143 H              1 S1                 0.0000
     33 ****         1.6906  -0.5984  -0.9794 H              1 S1                 0.0000
     34 ****         3.9101  -0.7551  -0.0709 H              1 S1                 0.0000
     35 ****         6.4971   3.2983   1.0106 H              1 S1                 0.0000
     36 ****         6.2532   1.2861   3.3931 H              1 S1                 0.0000
     37 ****         7.7348   2.2876   2.9644 H              1 S1                 0.0000
     38 ****         6.4009   4.3895   3.2857 H              1 S1                 0.0000
     39 ****         4.9232   3.3823   3.7129 H              1 S1                 0.0000
     40 ****         1.6329   2.8956   0.4770 H              1 S1                 0.0000
     41 ****        -0.8920  -2.3093   0.9133 H              1 S1                 0.0000
     42 ****        -1.6264  -3.1627  -0.4419 H              1 S1                 0.0000
     43 ****        -2.3818  -3.2093   1.1426 H              1 S1                 0.0000
     44 ****        -2.0705  -0.1234   1.8350 H              1 S1                 0.0000
     45 ****        -3.4970  -1.1156   2.1114 H              1 S1                 0.0000
     46 ****        -3.6221   0.3513   1.1497 H              1 S1                 0.0000
     47 ****        -1.3284   1.5438   0.3685 LP             1 S1                 0.0000
     48 ****         0.2675   2.0714   0.7864 LP             1 S1                 0.0000
     49 ****         5.7362   0.3944   0.8901 LP             1 S1                 0.0000
     50 ****         3.5697   3.8203   1.4142 LP             1 S1                 0.0000
     51 ****        -4.0001  -2.7481  -0.2357 LP             1 S1                 0.0000
     52 ****        -4.6543  -1.2701  -0.0029 LP             1 S1                 0.0000
@<TRIPOS>BOND
    1    1    2 1     
    2    1   23 1     
    3    1   24 1     
    4    1   25 1     
    5    2   22 1     
    6    2    3 1     
    7    2    4 1     
    8    3   26 1     
    9    3   27 1     
   10    3   28 1     
   11    4    5 1     
   12    4   29 1     
   13    4   30 1     
   14    5    6 1     
   15    5   19 1     
   16    5   31 1     
   17    6    7 am    
   18    6   32 1     
   19    7    8 2     
   20    7    9 am    
   21    9   10 1     
   22    9   33 1     
   23   10   18 ar    
   24   10   11 ar    
   25   11   12 ar    
   26   11   34 1     
   27   12   13 ar    
   28   13   14 1     
   29   13   17 ar    
   30   14   16 1     
   31   14   15 1     
   32   14   35 1     
   33   15   16 1     
   34   15   36 1     
   35   15   37 1     
   36   16   38 1     
   37   16   39 1     
   38   17   18 ar    
   39   18   40 1     
   40   19   20 1     
   41   19   21 1     
   42   19   22 1     
   43   20   41 1     
   44   20   42 1     
   45   20   43 1     
   46   21   44 1     
   47   21   45 1     
   48   21   46 1     
   49    8   47 1     
   50    8   48 1     
   51   12   49 1     
   52   17   50 1     
   53   22   51 1     
   54   22   52 1     
@<TRIPOS>SUBSTRUCTURE
      1 S1             1
@<TRIPOS>SET
LONE_PAIRS      STATIC     ATOMS    <user>   **** ""
6 47 48 49 50 51 52
DONOR_HYDROGENS      STATIC     ATOMS    <user>   **** ""
2 32 33
ATOM$BLUE        STATIC     ATOMS    COLORGROUP SYSTEM
6 47 48 49 50 51 52
ATOM$RED        STATIC     ATOMS    COLORGROUP SYSTEM
2 32 33
