#       Name:                AV-unprocessed.smi:3231
#       Creating user name   scv26
#       Creation time:       Fri Mar 27 18:19:19 2020


#       File generated by GOLD software.
#

@<TRIPOS>MOLECULE
AV-unprocessed.smi:3231
    47    48     1
SMALL
NO_CHARGES


@<TRIPOS>ATOM
      1 ****        -1.2801  -1.5146  -2.3859 O.3            1 S1                 0.0000
      2 ****        -0.8552  -0.9673  -1.1538 C.3            1 S1                 0.0000
      3 ****         0.6819  -0.8781  -1.2011 C.3            1 S1                 0.0000
      4 ****         1.2563  -0.5863   0.1281 N.4            1 S1                 1.0000
      5 ****         2.7249  -0.4419   0.1263 C.3            1 S1                 0.0000
      6 ****         3.2508  -0.1419   1.5372 C.3            1 S1                 0.0000
      7 ****         4.6916   0.0190   1.5497 N.pl3          1 S1                 0.0000
      8 ****         5.6489  -0.8444   2.0397 C.2            1 S1                 0.0000
      9 ****         6.8655  -0.2608   1.8313 C.2            1 S1                 0.0000
     10 ****         6.5454   0.9749   1.2027 C.2            1 S1                 0.0000
     11 ****         5.2428   1.1395   1.0363 N.2            1 S1                 0.0000
     12 ****        -1.5209   0.4152  -0.9702 C.3            1 S1                 0.0000
     13 ****        -3.0002   0.3465  -0.8405 N.4            1 S1                 1.0000
     14 ****        -3.4630  -0.1761   0.4698 C.3            1 S1                 0.0000
     15 ****        -4.9999  -0.2356   0.5153 C.3            1 S1                 0.0000
     16 ****        -5.5358   1.0552   0.2549 O.3            1 S1                 0.0000
     17 ****        -5.1783   1.5273  -1.0374 C.3            1 S1                 0.0000
     18 ****        -3.6479   1.6478  -1.1350 C.3            1 S1                 0.0000
     19 ****        -2.1991  -1.7274  -2.3304 H              1 S1                 0.0000
     20 ****        -1.1429  -1.6577  -0.3614 H              1 S1                 0.0000
     21 ****         1.0984  -1.8271  -1.5429 H              1 S1                 0.0000
     22 ****         0.9972  -0.1172  -1.9170 H              1 S1                 0.0000
     23 ****         0.8556   0.2739   0.4733 H              1 S1                 0.0000
     24 ****         3.1786  -1.3585  -0.2535 H              1 S1                 0.0000
     25 ****         3.0014   0.3624  -0.5568 H              1 S1                 0.0000
     26 ****         2.7982   0.7700   1.9300 H              1 S1                 0.0000
     27 ****         2.9859  -0.9487   2.2220 H              1 S1                 0.0000
     28 ****         5.3893  -1.7912   2.4903 H              1 S1                 0.0000
     29 ****         7.8369  -0.6555   2.0900 H              1 S1                 0.0000
     30 ****         7.2158   1.7516   0.8651 H              1 S1                 0.0000
     31 ****        -1.1151   0.9239  -0.0945 H              1 S1                 0.0000
     32 ****        -1.2622   1.0393  -1.8276 H              1 S1                 0.0000
     33 ****        -3.0631  -1.1730   0.6497 H              1 S1                 0.0000
     34 ****        -3.0946   0.4656   1.2718 H              1 S1                 0.0000
     35 ****        -5.3849  -0.9565  -0.2079 H              1 S1                 0.0000
     36 ****        -5.3336  -0.5641   1.4998 H              1 S1                 0.0000
     37 ****        -5.5678   0.8569  -1.8052 H              1 S1                 0.0000
     38 ****        -5.6427   2.5002  -1.1990 H              1 S1                 0.0000
     39 ****        -3.2881   2.4033  -0.4348 H              1 S1                 0.0000
     40 ****        -3.3727   1.9812  -2.1363 H              1 S1                 0.0000
     41 ****         1.0090  -1.3362   0.7582 H              1 S1                 0.0000
     42 ****        -3.3266  -0.2944  -1.5497 H              1 S1                 0.0000
     43 ****        -0.7560  -2.3433  -2.5824 LP             1 S1                 0.0000
     44 ****        -1.1347  -0.8473  -3.1163 LP             1 S1                 0.0000
     45 ****         4.7723   1.9191   0.6229 LP             1 S1                 0.0000
     46 ****        -5.1870   1.6943   0.9404 LP             1 S1                 0.0000
     47 ****        -6.5328   1.0100   0.3181 LP             1 S1                 0.0000
@<TRIPOS>BOND
    1    1    2 1     
    2    1   19 1     
    3    2    3 1     
    4    2   12 1     
    5    2   20 1     
    6    3    4 1     
    7    3   21 1     
    8    3   22 1     
    9    4    5 1     
   10    4   23 1     
   11    4   41 1     
   12    5    6 1     
   13    5   24 1     
   14    5   25 1     
   15    6    7 1     
   16    6   26 1     
   17    6   27 1     
   18    7   11 1     
   19    7    8 1     
   20    8    9 2     
   21    8   28 1     
   22    9   10 1     
   23    9   29 1     
   24   10   11 2     
   25   10   30 1     
   26   12   13 1     
   27   12   31 1     
   28   12   32 1     
   29   13   18 1     
   30   13   14 1     
   31   13   42 1     
   32   14   15 1     
   33   14   33 1     
   34   14   34 1     
   35   15   16 1     
   36   15   35 1     
   37   15   36 1     
   38   16   17 1     
   39   17   18 1     
   40   17   37 1     
   41   17   38 1     
   42   18   39 1     
   43   18   40 1     
   44    1   43 1     
   45    1   44 1     
   46   11   45 1     
   47   16   46 1     
   48   16   47 1     
@<TRIPOS>SUBSTRUCTURE
      1 S1             1
@<TRIPOS>SET
LONE_PAIRS      STATIC     ATOMS    <user>   **** ""
5 43 44 45 46 47
DONOR_HYDROGENS      STATIC     ATOMS    <user>   **** ""
4 19 23 41 42
ATOM$BLUE        STATIC     ATOMS    COLORGROUP SYSTEM
5 43 44 45 46 47
ATOM$RED        STATIC     ATOMS    COLORGROUP SYSTEM
4 19 23 41 42
