AV-unprocessed.smi:2772|AV-procd|sdf|10665|dock7
  -GOLD-   2272015113D 1   1.00000     0.00000
 Structure written by MMmdl.
 55 57  0  0  0  0  0  0  0  0  3 V2000
  138.7019  140.0723  153.7021 C   0  0  0  0  0  0  0  0  0  0  0  0
  139.4832  138.7768  153.6351 C   0  0  0  0  0  0  0  0  0  0  0  0
  138.8520  137.5368  153.8652 C   0  0  0  0  0  0  0  0  0  0  0  0
  139.6266  136.3632  153.7908 C   0  0  0  0  0  0  0  0  0  0  0  0
  141.0073  136.4719  153.4968 C   0  0  0  0  0  0  0  0  0  0  0  0
  141.8876  135.3635  153.3735 N   0  0  0  0  0  0  0  0  0  0  0  0
  143.0048  135.2622  152.6333 C   0  0  0  0  0  0  0  0  0  0  0  0
  143.4434  136.1345  151.8842 O   0  0  0  0  0  0  0  0  0  0  0  0
  143.5843  134.0641  152.7976 N   0  0  0  0  0  0  0  0  0  0  0  0
  144.8083  133.6103  152.1422 C   0  0  2  0  0  0  0  0  0  0  0  0
  144.5637  132.2556  151.4512 C   0  0  0  0  0  0  0  0  0  0  0  0
  145.8780  131.6611  150.9080 C   0  0  0  0  0  0  0  0  0  0  0  0
  146.9058  131.5136  151.9788 N   0  3  2  0  0  0  0  0  0  0  0  0
  146.6391  130.4243  152.9815 C   0  0  2  0  0  0  0  0  0  0  0  0
  147.8110  130.2435  153.9801 C   0  0  0  0  0  0  0  0  0  0  0  0
  147.5806  129.0777  154.9569 C   0  0  0  0  0  0  0  0  0  0  0  0
  147.3447  127.8093  154.2304 N   0  3  1  0  0  0  0  0  0  0  0  0
  147.2428  126.6477  155.1401 C   0  0  0  0  0  0  0  0  0  0  0  0
  146.1816  127.9190  153.3208 C   0  0  0  0  0  0  0  0  0  0  0  0
  146.3773  129.0555  152.3027 C   0  0  0  0  0  0  0  0  0  0  0  0
  147.1997  132.8572  152.5559 C   0  0  0  0  0  0  0  0  0  0  0  0
  145.9441  133.5001  153.1761 C   0  0  0  0  0  0  0  0  0  0  0  0
  141.5313  137.7621  153.2703 C   0  0  0  0  0  0  0  0  0  0  0  0
  140.7960  138.8922  153.3404 N   0  0  0  0  0  0  0  0  0  0  0  0
  137.6549  139.8919  153.9472 H   0  0  0  0  0  0  0  0  0  0  0  0
  138.7424  140.5896  152.7431 H   0  0  0  0  0  0  0  0  0  0  0  0
  139.1212  140.7291  154.4648 H   0  0  0  0  0  0  0  0  0  0  0  0
  137.7968  137.4816  154.0888 H   0  0  0  0  0  0  0  0  0  0  0  0
  139.1458  135.4097  153.9447 H   0  0  0  0  0  0  0  0  0  0  0  0
  141.6049  134.5315  153.8707 H   0  0  0  0  0  0  0  0  0  0  0  0
  143.1415  133.4144  153.4308 H   0  0  0  0  0  0  0  0  0  0  0  0
  145.1219  134.3250  151.3789 H   0  0  0  0  0  0  0  0  0  0  0  0
  144.0968  131.5552  152.1445 H   0  0  0  0  0  0  0  0  0  0  0  0
  143.8558  132.3852  150.6318 H   0  0  0  0  0  0  0  0  0  0  0  0
  145.6952  130.7282  150.3793 H   0  0  0  0  0  0  0  0  0  0  0  0
  146.2782  132.3313  150.1457 H   0  0  0  0  0  0  0  0  0  0  0  0
  145.7510  130.6864  153.5567 H   0  0  0  0  0  0  0  0  0  0  0  0
  148.7421  130.0830  153.4346 H   0  0  0  0  0  0  0  0  0  0  0  0
  147.9511  131.1373  154.5859 H   0  0  0  0  0  0  0  0  0  0  0  0
  148.4513  128.9695  155.6051 H   0  0  0  0  0  0  0  0  0  0  0  0
  146.7290  129.2925  155.6048 H   0  0  0  0  0  0  0  0  0  0  0  0
  146.3843  126.7443  155.8063 H   0  0  0  0  0  0  0  0  0  0  0  0
  148.1417  126.5572  155.7510 H   0  0  0  0  0  0  0  0  0  0  0  0
  147.1340  125.7227  154.5730 H   0  0  0  0  0  0  0  0  0  0  0  0
  146.0439  126.9759  152.7901 H   0  0  0  0  0  0  0  0  0  0  0  0
  145.2748  128.0887  153.9042 H   0  0  0  0  0  0  0  0  0  0  0  0
  145.4780  129.0870  151.6895 H   0  0  0  0  0  0  0  0  0  0  0  0
  147.2044  128.8083  151.6355 H   0  0  0  0  0  0  0  0  0  0  0  0
  148.0194  132.8301  153.2705 H   0  0  0  0  0  0  0  0  0  0  0  0
  147.5626  133.4989  151.7517 H   0  0  0  0  0  0  0  0  0  0  0  0
  146.1913  134.4922  153.5555 H   0  0  0  0  0  0  0  0  0  0  0  0
  145.6164  132.9203  154.0397 H   0  0  0  0  0  0  0  0  0  0  0  0
  142.5761  137.8944  153.0294 H   0  0  0  0  0  0  0  0  0  0  0  0
  147.7527  131.2335  151.5043 H   0  0  0  0  0  0  0  0  0  0  0  0
  148.1564  127.6467  153.6514 H   0  0  0  0  0  0  0  0  0  0  0  0
  1  2  1  0  0  0  0
  1 25  1  0  0  0  0
  1 26  1  0  0  0  0
  1 27  1  0  0  0  0
  2 24  1  0  0  0  0
  2  3  2  0  0  0  0
  3  4  1  0  0  0  0
  3 28  1  0  0  0  0
  4  5  2  0  0  0  0
  4 29  1  0  0  0  0
  5  6  1  0  0  0  0
  5 23  1  0  0  0  0
  6  7  1  0  0  0  0
  6 30  1  0  0  0  0
  7  8  2  0  0  0  0
  7  9  1  0  0  0  0
  9 10  1  0  0  0  0
  9 31  1  0  0  0  0
 10 22  1  0  0  0  0
 10 11  1  0  0  0  0
 10 32  1  0  0  0  0
 11 12  1  0  0  0  0
 11 33  1  0  0  0  0
 11 34  1  0  0  0  0
 12 13  1  0  0  0  0
 12 35  1  0  0  0  0
 12 36  1  0  0  0  0
 13 14  1  0  0  0  0
 13 21  1  0  0  0  0
 13 54  1  0  0  0  0
 14 20  1  0  0  0  0
 14 15  1  0  0  0  0
 14 37  1  0  0  0  0
 15 16  1  0  0  0  0
 15 38  1  0  0  0  0
 15 39  1  0  0  0  0
 16 17  1  0  0  0  0
 16 40  1  0  0  0  0
 16 41  1  0  0  0  0
 17 18  1  0  0  0  0
 17 19  1  0  0  0  0
 17 55  1  0  0  0  0
 18 42  1  0  0  0  0
 18 43  1  0  0  0  0
 18 44  1  0  0  0  0
 19 20  1  0  0  0  0
 19 45  1  0  0  0  0
 19 46  1  0  0  0  0
 20 47  1  0  0  0  0
 20 48  1  0  0  0  0
 21 22  1  0  0  0  0
 21 49  1  0  0  0  0
 21 50  1  0  0  0  0
 22 51  1  0  0  0  0
 22 52  1  0  0  0  0
 23 24  2  0  0  0  0
 23 53  1  0  0  0  0
M  CHG  1  13   1
M  CHG  1  17   1
M  END
> <s_m_source_file>
AV-unprocessed.smi

> <i_m_source_file_index>
2772

> <i_lp_mmshare_version>
43012

> <i_f3d_flags>
0

> <s_epik_input>
W0NIM11jMVtjSF1bY0hdYyhbY0hdbjEpW05IXUMoPU8pW05IXVtDSF0yW0NIMl1bQ0gyXU4oW0NIMl1bQ0gyXTIpW0NIXTNbQ0gyXVtDSDJdTihbQ0gzXSlbQ0gyXVtDSDJdMw==

> <s_epik_cmdline>
J2VwaWtfcHl0aG9uJywgJy1waCcsICc3LjAnLCAnLXRuJywgJzgnLCAnLW1hJywgJzIwMCcsICctbWV0YWxfYmluZGluZycsICctaW1hZScsICc8aW5maWxlLm1hZT4nLCAnLW9tYWUnLCAnPG91dGZpbGUubWFlPic=

> <r_epik_Ionization_Penalty>
0.196786

> <r_epik_Ionization_Penalty_Charging>
0.180787

> <r_epik_Ionization_Penalty_Neutral>
0.0159988

> <r_epik_State_Penalty>
0.163322

> <r_epik_Charging_Adjusted_Penalty>
0.344109

> <i_epik_Tot_Q>
2

> <i_epik_Tot_abs_Q>
2

> <r_epik_Metal_State_Penalty>
0.163596

> <b_epik_Metal_Only>
0

> <s_lp_Force_Field>
OPLS_2005

> <r_lp_Energy>
45.3322

> <b_lp_Chiralities_Consistent>
1

> <s_lp_Variant>
AV-unprocessed.smi:2772-2

> <Gold.Version>
5.8.1

> <Gold.Id.Protein>
6NUR|6NUR_protein|mol2

> <Gold.PLP.Fitness>
43.9045

> <Gold.PLP.PLP>
-38.5920

> <Gold.PLP.part.hbond>
-1.5671

> <Gold.PLP.part.metal>
0.0000

> <Gold.PLP.part.buried>
-8.1308

> <Gold.PLP.part.nonpolar>
-30.3688

> <Gold.PLP.part.repulsive>
0.9007

> <Gold.PLP.ligand.clash>
0.0000

> <Gold.PLP.ligand.torsion>
0.2508

> <Gold.PLP.Chemscore.Hbond>
1.6500

> <Gold.PLP.Chemscore.CHOScore>
0.2740

> <Gold.PLP.Chemscore.Metal>
0.0000

> <Gold.Chemscore.Hbonds>
donor molecule, donor type, donor heavy atom, donor atom, acceptor molecule, acceptor atom, score
      L1  H     9    31       P1 10957  0.62
      L1  H    13    54       P1 10747  1.00
      L1  C    23    53       P1 10175  0.26

> <Gold.PLP.Chemscore.Internal.Correction>
0.0421

> <Gold.Rescore>
     Score         DG    S(hbond)    S(metal)    S(lipo)     H(rot)  DE(clash)    DE(int)     intcor
     19.43     -21.08       1.84        0.00     107.29       1.21       0.11       1.55       ----

> <Gold.Chemscore.Fitness>
19.4262

> <Gold.Chemscore.DG>
-21.0784

> <Gold.Chemscore.ZeroCoef>
-5.4800

> <Gold.Chemscore.Hbond>
1.8386

> <Gold.Chemscore.Metal>
0.0000

> <Gold.Chemscore.Lipo>
107.2909

> <Gold.Chemscore.Internal_Hbond>
0.0000

> <Gold.Chemscore.DEClash>
0.1052

> <Gold.Chemscore.DEInternal>
1.5470

> <Gold.Chemscore.Rot>
1.2092

> <Gold.Chemscore.Internal.Correction>
   9.000000E+99

> <Gold.Chemscore.Hbonds>
donor molecule, donor type, donor heavy atom, donor atom, acceptor molecule, acceptor atom, score
      L1  H     9    31       P1 10957  0.62
      L1  H    13    54       P1 10747  1.00

> <Gold.Chemscore.Hbond.Weighted>
-6.1409

> <Gold.Chemscore.Metal.Weighted>
-0.0000

> <Gold.Chemscore.Lipo.Weighted>
-12.5530

> <Gold.Chemscore.Internal_Hbond.Weighted>
0.0000

> <Gold.Chemscore.DEClash.Weighted>
0.1052

> <Gold.Chemscore.DEInternal.Weighted>
1.5470

> <Gold.Chemscore.Rot.Weighted>
3.0955

> <Gold.Chemscore.Internal.Correction.Weighted>
   9.000000E+99

> <Gold.Protein.RotatedTorsions>
[ 6907 6896 6895 6894 ] final  -50.69 input  -60.11 | X-H torsion
[ 7974 7965 7964 7962 ] final   61.19 input  175.53 | X-H torsion
[ 8008 7997 7996 7995 ] final  -90.68 input   59.86 | X-H torsion
[ 10167 10162 10161 10158 ] final  107.49 input  -65.29 | X-H torsion
[ 10718 10713 10712 10709 ] final   79.82 input   66.30 | X-H torsion
[ 10763 10752 10751 10750 ] final  -36.42 input  -60.55 | X-H torsion
[ 11005 11000 10999 10996 ] final  104.84 input  -57.11 | X-H torsion

> <Gold.Protein.ActiveResidues>
 VAL166  LYS551  ARG553  GLY616  TRP617  ASP618  TYR619  PRO620  LYS621  CYS622 
 ASP623  PHE694  ASN695  SER759  ASP760  ASP761  ALA762  ILE779  LEU786  VAL792 
 PHE793  MET794  SER795  GLU796  ALA797  LYS798  CYS799  TRP800  GLU811  SER814 

> <Gold.Protein.RotatedAtoms>
  150.8683  134.8051  159.7135 H   0  0  0  0  0  0  0  0  0  0  0  0  # atno 6907 bound_to 6896
  152.4697  134.4988  159.9728 H   0  0  0  0  0  0  0  0  0  0  0  0  # atno 6908 bound_to 6896
  151.5080  133.3452  159.2915 H   0  0  0  0  0  0  0  0  0  0  0  0  # atno 6909 bound_to 6896
  145.8876  139.3488  143.0669 H   0  0  0  0  0  0  0  0  0  0  0  0  # atno 7974 bound_to 7965
  154.7014  140.0528  157.0462 H   0  0  0  0  0  0  0  0  0  0  0  0  # atno 8008 bound_to 7997
  155.0679  140.3196  155.4621 H   0  0  0  0  0  0  0  0  0  0  0  0  # atno 8009 bound_to 7997
  156.2761  140.2087  156.5806 H   0  0  0  0  0  0  0  0  0  0  0  0  # atno 8010 bound_to 7997
  139.6923  144.7106  151.1328 H   0  0  0  0  0  0  0  0  0  0  0  0  # atno 10167 bound_to 10162
  157.6788  130.9931  150.1988 H   0  0  0  0  0  0  0  0  0  0  0  0  # atno 10718 bound_to 10713
  153.8794  135.6823  153.4768 H   0  0  0  0  0  0  0  0  0  0  0  0  # atno 10763 bound_to 10752
  153.1242  135.4726  154.9243 H   0  0  0  0  0  0  0  0  0  0  0  0  # atno 10764 bound_to 10752
  154.7676  135.3229  154.8206 H   0  0  0  0  0  0  0  0  0  0  0  0  # atno 10765 bound_to 10752
  139.8796  134.9315  156.5423 H   0  0  0  0  0  0  0  0  0  0  0  0  # atno 11005 bound_to 11000
  145.8948  140.9281  143.0533 LP  0  0  0  0  0  0  0  0  0  0  0  0  # atno 17320 bound_to 7965
  144.6729  140.0953  143.7463 LP  0  0  0  0  0  0  0  0  0  0  0  0  # atno 17321 bound_to 7965
  140.7686  143.5542  150.9170 LP  0  0  0  0  0  0  0  0  0  0  0  0  # atno 17342 bound_to 10162
  139.9220  143.6595  152.3095 LP  0  0  0  0  0  0  0  0  0  0  0  0  # atno 17343 bound_to 10162
  156.2684  130.3719  149.8057 LP  0  0  0  0  0  0  0  0  0  0  0  0  # atno 17370 bound_to 10713
  156.5782  130.8454  151.3375 LP  0  0  0  0  0  0  0  0  0  0  0  0  # atno 17371 bound_to 10713
  140.8301  133.8285  155.8976 LP  0  0  0  0  0  0  0  0  0  0  0  0  # atno 17394 bound_to 11000
  140.9336  134.1990  157.4847 LP  0  0  0  0  0  0  0  0  0  0  0  0  # atno 17395 bound_to 11000

$$$$
