AV-unprocessed.smi:38|AV-procd|sdf|338|dock4
  -GOLD-   2262016173D 1   1.00000     0.00000
 Structure written by MMmdl.
 28 29  0  0  0  0  0  0  0  0  1 V2000
  152.7752  142.6244  161.3708 O   0  0  0  0  0  0  0  0  0  0  0  0
  152.4752  142.1752  160.2664 C   0  0  0  0  0  0  0  0  0  0  0  0
  153.0392  140.9771  159.8180 N   0  0  0  0  0  0  0  0  0  0  0  0
  152.7777  140.3665  158.5897 C   0  0  0  0  0  0  0  0  0  0  0  0
  153.3480  139.3174  158.2941 O   0  0  0  0  0  0  0  0  0  0  0  0
  151.8567  141.0105  157.7335 N   0  0  0  0  0  0  0  0  0  0  0  0
  151.5270  140.3962  156.3925 C   0  0  2  0  0  0  0  0  0  0  0  0
  150.5302  141.2685  155.6223 C   0  0  0  0  0  0  0  0  0  0  0  0
  149.6221  140.2337  154.9881 C   0  0  1  0  0  0  0  0  0  0  0  0
  150.1434  139.8098  153.7425 O   0  0  0  0  0  0  0  0  0  0  0  0
  149.6299  139.1125  156.0373 C   0  0  1  0  0  0  0  0  0  0  0  0
  149.2749  137.6976  155.5483 C   0  0  0  0  0  0  0  0  0  0  0  0
  150.0029  137.3861  154.3795 O   0  0  0  0  0  0  0  0  0  0  0  0
  150.9397  139.1445  156.5996 O   0  0  0  0  0  0  0  0  0  0  0  0
  151.2829  142.2104  158.1319 C   0  0  0  0  0  0  0  0  0  0  0  0
  151.5481  142.7946  159.3241 C   0  0  0  0  0  0  0  0  0  0  0  0
  150.9553  143.9588  159.6391 F   0  0  0  0  0  0  0  0  0  0  0  0
  153.6944  140.5168  160.4331 H   0  0  0  0  0  0  0  0  0  0  0  0
  152.4615  140.2313  155.8541 H   0  0  0  0  0  0  0  0  0  0  0  0
  148.6174  140.6244  154.8229 H   0  0  0  0  0  0  0  0  0  0  0  0
  148.9399  139.3905  156.8352 H   0  0  0  0  0  0  0  0  0  0  0  0
  149.9607  141.8820  156.3221 H   0  0  0  0  0  0  0  0  0  0  0  0
  151.0373  141.9242  154.9133 H   0  0  0  0  0  0  0  0  0  0  0  0
  149.5519  140.0894  153.0603 H   0  0  0  0  0  0  0  0  0  0  0  0
  149.4672  136.9468  156.3148 H   0  0  0  0  0  0  0  0  0  0  0  0
  148.2119  137.6436  155.3125 H   0  0  0  0  0  0  0  0  0  0  0  0
  149.3927  137.1245  153.7068 H   0  0  0  0  0  0  0  0  0  0  0  0
  150.5958  142.7140  157.4691 H   0  0  0  0  0  0  0  0  0  0  0  0
  1  2  2  0  0  0  0
  2 16  1  0  0  0  0
  2  3  1  0  0  0  0
  3 18  1  0  0  0  0
  3  4  1  0  0  0  0
  4  5  2  0  0  0  0
  4  6  1  0  0  0  0
  6  7  1  0  0  0  0
  6 15  1  0  0  0  0
  7 19  1  0  0  0  0
  7 14  1  0  0  0  0
  7  8  1  0  0  0  0
  8  9  1  0  0  0  0
  8 22  1  0  0  0  0
  8 23  1  0  0  0  0
  9 20  1  0  0  0  0
  9 10  1  0  0  0  0
  9 11  1  0  0  0  0
 10 24  1  0  0  0  0
 11 21  1  0  0  0  0
 11 12  1  0  0  0  0
 11 14  1  0  0  0  0
 12 13  1  0  0  0  0
 12 25  1  0  0  0  0
 12 26  1  0  0  0  0
 13 27  1  0  0  0  0
 15 16  2  0  0  0  0
 15 28  1  0  0  0  0
 16 17  1  0  0  0  0
M  END
> <s_m_source_file>
AV-unprocessed.smi

> <i_m_source_file_index>
38

> <i_lp_mmshare_version>
43012

> <i_f3d_flags>
0

> <s_epik_input>
Tz1jMVtuSF1jKD1PKW4oW2NIXWMxRilbQ0BIXTJbQ0gyXVtDQEhdKFtPSF0pW0NASF0oTzIpW0NIMl1bT0hd

> <s_epik_cmdline>
J2VwaWtfcHl0aG9uJywgJy1waCcsICc3LjAnLCAnLXRuJywgJzgnLCAnLW1hJywgJzIwMCcsICctbWV0YWxfYmluZGluZycsICctaW1hZScsICc8aW5maWxlLm1hZT4nLCAnLW9tYWUnLCAnPG91dGZpbGUubWFlPic=

> <r_lp_tautomer_probability>
0.999537

> <r_epik_Ionization_Penalty>
0.0357432

> <r_epik_Ionization_Penalty_Charging>
0.0357431

> <r_epik_Ionization_Penalty_Neutral>
1.19946e-07

> <r_epik_State_Penalty>
0.0298169

> <r_epik_Charging_Adjusted_Penalty>
0.06556

> <i_epik_Tot_Q>
0

> <i_epik_Tot_abs_Q>
0

> <r_epik_Metal_State_Penalty>
2.348

> <b_epik_Metal_Only>
0

> <s_epik_Chemistry_Notes>
This compound contains an acetal/aminal-like group ( X-CH(R)-Y where X, Y are N, S, or O) that may be acid/base labile, releasing an aldehyde.

> <s_lp_Force_Field>
OPLS_2005

> <r_lp_Energy>
29.3981

> <b_lp_Chiralities_Consistent>
1

> <s_lp_Variant>
AV-unprocessed.smi:38-4

> <Gold.Version>
5.8.1

> <Gold.Id.Protein>
6NUR|6NUR_protein|mol2

> <Gold.PLP.Fitness>
37.5549

> <Gold.PLP.PLP>
-27.3692

> <Gold.PLP.part.hbond>
-4.0000

> <Gold.PLP.part.metal>
0.0000

> <Gold.PLP.part.buried>
-4.0065

> <Gold.PLP.part.nonpolar>
-18.6167

> <Gold.PLP.part.repulsive>
0.1497

> <Gold.PLP.ligand.clash>
0.0000

> <Gold.PLP.ligand.torsion>
0.0777

> <Gold.PLP.Chemscore.Hbond>
3.4463

> <Gold.PLP.Chemscore.CHOScore>
0.0000

> <Gold.PLP.Chemscore.Metal>
0.0000

> <Gold.Chemscore.Hbonds>
donor molecule, donor type, donor heavy atom, donor atom, acceptor molecule, acceptor atom, score
      L1  H    10    24       P1  7957  0.67
      L1  H    13    27       P1  7948  0.89
      P1  H  7989  7998       L1    10  0.88
      P1  H  7997  8009       L1     5  0.95

> <Gold.PLP.Chemscore.Internal.Correction>
0.0023

> <Gold.Rescore>
     Score         DG    S(hbond)    S(metal)    S(lipo)     H(rot)  DE(clash)    DE(int)     intcor
     10.54     -11.72       2.85        0.00      35.62       2.91       0.03       1.15       ----

> <Gold.Chemscore.Fitness>
10.5400

> <Gold.Chemscore.DG>
-11.7166

> <Gold.Chemscore.ZeroCoef>
-5.4800

> <Gold.Chemscore.Hbond>
2.8531

> <Gold.Chemscore.Metal>
0.0000

> <Gold.Chemscore.Lipo>
35.6178

> <Gold.Chemscore.Internal_Hbond>
0.0000

> <Gold.Chemscore.DEClash>
0.0256

> <Gold.Chemscore.DEInternal>
1.1510

> <Gold.Chemscore.Rot>
2.9141

> <Gold.Chemscore.Internal.Correction>
   9.000000E+99

> <Gold.Chemscore.Hbonds>
donor molecule, donor type, donor heavy atom, donor atom, acceptor molecule, acceptor atom, score
      L1  H    10    24       P1  7957  0.68
      L1  H    13    27       P1  7948  0.79
      P1  H  7989  7998       L1    10  0.17
      P1  H  7997  8009       L1     5  0.21

> <Gold.Chemscore.Hbond.Weighted>
-9.5294

> <Gold.Chemscore.Metal.Weighted>
-0.0000

> <Gold.Chemscore.Lipo.Weighted>
-4.1673

> <Gold.Chemscore.Internal_Hbond.Weighted>
0.0000

> <Gold.Chemscore.DEClash.Weighted>
0.0256

> <Gold.Chemscore.DEInternal.Weighted>
1.1510

> <Gold.Chemscore.Rot.Weighted>
7.4601

> <Gold.Chemscore.Internal.Correction.Weighted>
   9.000000E+99

> <Gold.Protein.RotatedTorsions>
[ 6907 6896 6895 6894 ] final   48.24 input  -60.11 | X-H torsion
[ 7974 7965 7964 7962 ] final   41.66 input  175.53 | X-H torsion
[ 8008 7997 7996 7995 ] final  149.79 input   59.86 | X-H torsion
[ 10167 10162 10161 10158 ] final  144.41 input  -65.29 | X-H torsion
[ 10718 10713 10712 10709 ] final  -27.30 input   66.30 | X-H torsion
[ 10763 10752 10751 10750 ] final  -90.26 input  -60.55 | X-H torsion
[ 11005 11000 10999 10996 ] final  -50.72 input  -57.11 | X-H torsion

> <Gold.Protein.ActiveResidues>
 VAL166  LYS551  ARG553  GLY616  TRP617  ASP618  TYR619  PRO620  LYS621  CYS622 
 ASP623  PHE694  ASN695  SER759  ASP760  ASP761  ALA762  ILE779  LEU786  VAL792 
 PHE793  MET794  SER795  GLU796  ALA797  LYS798  CYS799  TRP800  GLU811  SER814 

> <Gold.Protein.RotatedAtoms>
  152.2773  134.7868  160.0403 H   0  0  0  0  0  0  0  0  0  0  0  0  # atno 6907 bound_to 6896
  151.8459  133.3426  159.3666 H   0  0  0  0  0  0  0  0  0  0  0  0  # atno 6908 bound_to 6896
  150.7175  134.5274  159.5727 H   0  0  0  0  0  0  0  0  0  0  0  0  # atno 6909 bound_to 6896
  146.0805  139.5390  142.9540 H   0  0  0  0  0  0  0  0  0  0  0  0  # atno 7974 bound_to 7965
  156.2741  140.2092  156.5914 H   0  0  0  0  0  0  0  0  0  0  0  0  # atno 8008 bound_to 7997
  154.6979  140.0524  157.0452 H   0  0  0  0  0  0  0  0  0  0  0  0  # atno 8009 bound_to 7997
  155.0775  140.3183  155.4614 H   0  0  0  0  0  0  0  0  0  0  0  0  # atno 8010 bound_to 7997
  139.4947  144.5974  151.6554 H   0  0  0  0  0  0  0  0  0  0  0  0  # atno 10167 bound_to 10162
  156.4400  130.4462  149.7059 H   0  0  0  0  0  0  0  0  0  0  0  0  # atno 10718 bound_to 10713
  154.6639  135.5311  153.8052 H   0  0  0  0  0  0  0  0  0  0  0  0  # atno 10763 bound_to 10752
  153.0459  135.6512  154.0830 H   0  0  0  0  0  0  0  0  0  0  0  0  # atno 10764 bound_to 10752
  154.0736  135.2952  155.3283 H   0  0  0  0  0  0  0  0  0  0  0  0  # atno 10765 bound_to 10752
  141.0832  133.6648  156.3772 H   0  0  0  0  0  0  0  0  0  0  0  0  # atno 11005 bound_to 11000
  145.6226  141.0319  143.1906 LP  0  0  0  0  0  0  0  0  0  0  0  0  # atno 17320 bound_to 7965
  144.7290  139.7784  143.7354 LP  0  0  0  0  0  0  0  0  0  0  0  0  # atno 17321 bound_to 7965
  140.5615  144.0261  150.6172 LP  0  0  0  0  0  0  0  0  0  0  0  0  # atno 17342 bound_to 10162
  140.3348  143.3055  152.0649 LP  0  0  0  0  0  0  0  0  0  0  0  0  # atno 17343 bound_to 10162
  156.3928  130.7635  151.2638 LP  0  0  0  0  0  0  0  0  0  0  0  0  # atno 17370 bound_to 10713
  157.7506  131.0263  150.3955 LP  0  0  0  0  0  0  0  0  0  0  0  0  # atno 17371 bound_to 10713
  140.5423  134.6109  157.5383 LP  0  0  0  0  0  0  0  0  0  0  0  0  # atno 17394 bound_to 11000
  139.9647  134.7393  156.0163 LP  0  0  0  0  0  0  0  0  0  0  0  0  # atno 17395 bound_to 11000

$$$$
