AV-unprocessed.smi:719|AV-procd|sdf|3493|dock10
  -GOLD-   22720 0493D 1   1.00000     0.00000
 Structure written by MMmdl.
 41 43  0  0  0  0  0  0  0  0  1 V2000
  153.8072  141.2878  161.8935 C   0  0  0  0  0  0  0  0  0  0  0  0
  153.0245  142.5666  161.5756 C   0  0  0  0  0  0  0  0  0  0  0  0
  152.4618  142.5576  160.1850 C   0  0  0  0  0  0  0  0  0  0  0  0
  152.4267  141.3578  159.4687 N   0  0  0  0  0  0  0  0  0  0  0  0
  151.9043  141.5003  158.2486 C   0  0  0  0  0  0  0  0  0  0  0  0
  151.6893  140.3635  157.3022 C   0  0  0  0  0  0  0  0  0  0  0  0
  150.2247  139.8951  157.2077 C   0  0  0  0  0  0  0  0  0  0  0  0
  149.4251  140.7253  156.3097 N   0  0  0  0  0  0  0  0  0  0  0  0
  149.5983  140.8300  154.9827 C   0  0  0  0  0  0  0  0  0  0  0  0
  150.4836  140.2391  154.3641 O   0  0  0  0  0  0  0  0  0  0  0  0
  148.6641  141.7868  154.3218 C   0  0  2  0  0  0  0  0  0  0  0  0
  147.1729  141.7240  154.6117 C   0  0  2  0  0  0  0  0  0  0  0  0
  146.4510  140.5649  155.2700 C   0  0  0  0  0  0  0  0  0  0  0  0
  146.7764  139.3120  154.4404 C   0  0  0  0  0  0  0  0  0  0  0  0
  147.2767  139.8221  153.0786 C   0  0  0  0  0  0  0  0  0  0  0  0
  147.6869  141.2690  153.2757 C   0  0  2  0  0  0  0  0  0  0  0  0
  151.4101  143.1497  157.8978 S   0  0  0  0  0  0  0  0  0  0  0  0
  151.9572  143.6281  159.4839 C   0  0  0  0  0  0  0  0  0  0  0  0
  151.8449  145.0465  159.9345 C   0  0  0  0  0  0  0  0  0  0  0  0
  154.2076  141.3182  162.9068 H   0  0  0  0  0  0  0  0  0  0  0  0
  154.6453  141.1602  161.2076 H   0  0  0  0  0  0  0  0  0  0  0  0
  153.1713  140.4055  161.8132 H   0  0  0  0  0  0  0  0  0  0  0  0
  152.2190  142.6837  162.3018 H   0  0  0  0  0  0  0  0  0  0  0  0
  153.6752  143.4303  161.7155 H   0  0  0  0  0  0  0  0  0  0  0  0
  152.0409  140.6664  156.3158 H   0  0  0  0  0  0  0  0  0  0  0  0
  152.3228  139.5303  157.6095 H   0  0  0  0  0  0  0  0  0  0  0  0
  150.1880  138.8493  156.8979 H   0  0  0  0  0  0  0  0  0  0  0  0
  149.7678  139.9323  158.1966 H   0  0  0  0  0  0  0  0  0  0  0  0
  148.6853  141.2681  156.7314 H   0  0  0  0  0  0  0  0  0  0  0  0
  149.0940  142.7633  154.1078 H   0  0  0  0  0  0  0  0  0  0  0  0
  146.6654  142.6842  154.6804 H   0  0  0  0  0  0  0  0  0  0  0  0
  146.7476  140.4619  156.3140 H   0  0  0  0  0  0  0  0  0  0  0  0
  145.3793  140.7633  155.2435 H   0  0  0  0  0  0  0  0  0  0  0  0
  147.5671  138.7438  154.9312 H   0  0  0  0  0  0  0  0  0  0  0  0
  145.9178  138.6474  154.3417 H   0  0  0  0  0  0  0  0  0  0  0  0
  148.1046  139.2293  152.6892 H   0  0  0  0  0  0  0  0  0  0  0  0
  146.4684  139.7887  152.3474 H   0  0  0  0  0  0  0  0  0  0  0  0
  147.5377  141.9120  152.4105 H   0  0  0  0  0  0  0  0  0  0  0  0
  152.7966  145.4050  160.3269 H   0  0  0  0  0  0  0  0  0  0  0  0
  151.0969  145.1417  160.7215 H   0  0  0  0  0  0  0  0  0  0  0  0
  151.5532  145.7005  159.1125 H   0  0  0  0  0  0  0  0  0  0  0  0
  1  2  1  0  0  0  0
  1 20  1  0  0  0  0
  1 21  1  0  0  0  0
  1 22  1  0  0  0  0
  2  3  1  0  0  0  0
  2 23  1  0  0  0  0
  2 24  1  0  0  0  0
  3 18  2  0  0  0  0
  3  4  1  0  0  0  0
  4  5  2  0  0  0  0
  5  6  1  0  0  0  0
  5 17  1  0  0  0  0
  6  7  1  0  0  0  0
  6 25  1  0  0  0  0
  6 26  1  0  0  0  0
  7  8  1  0  0  0  0
  7 27  1  0  0  0  0
  7 28  1  0  0  0  0
  8  9  1  0  0  0  0
  8 29  1  0  0  0  0
  9 10  2  0  0  0  0
  9 11  1  0  0  0  0
 11 16  1  0  0  0  0
 11 12  1  0  0  0  0
 11 30  1  0  0  0  0
 12 16  1  0  0  0  0
 12 13  1  0  0  0  0
 12 31  1  0  0  0  0
 13 14  1  0  0  0  0
 13 32  1  0  0  0  0
 13 33  1  0  0  0  0
 14 15  1  0  0  0  0
 14 34  1  0  0  0  0
 14 35  1  0  0  0  0
 15 16  1  0  0  0  0
 15 36  1  0  0  0  0
 15 37  1  0  0  0  0
 16 38  1  0  0  0  0
 17 18  1  0  0  0  0
 18 19  1  0  0  0  0
 19 39  1  0  0  0  0
 19 40  1  0  0  0  0
 19 41  1  0  0  0  0
M  END
> <s_m_source_file>
AV-unprocessed.smi

> <i_m_source_file_index>
719

> <i_lp_mmshare_version>
43012

> <i_f3d_flags>
0

> <s_epik_input>
W0NIM11bQ0gyXWMxbmMoc2MxW0NIM10pW0NIMl1bQ0gyXVtOSF1DKD1PKVtDQEhdMltDQEhdKFtDQEBIXTIzKVtDSDJdW0NIMl1bQ0gyXTM=

> <s_epik_cmdline>
J2VwaWtfcHl0aG9uJywgJy1waCcsICc3LjAnLCAnLXRuJywgJzgnLCAnLW1hJywgJzIwMCcsICctbWV0YWxfYmluZGluZycsICctaW1hZScsICc8aW5maWxlLm1hZT4nLCAnLW9tYWUnLCAnPG91dGZpbGUubWFlPic=

> <r_epik_Ionization_Penalty>
0.00247473

> <r_epik_Ionization_Penalty_Charging>
0

> <r_epik_Ionization_Penalty_Neutral>
0.00247473

> <r_epik_State_Penalty>
0.00171502

> <r_epik_Charging_Adjusted_Penalty>
0.00171502

> <i_epik_Tot_Q>
0

> <i_epik_Tot_abs_Q>
0

> <r_epik_Metal_State_Penalty>
-0

> <b_epik_Metal_Only>
0

> <s_lp_Force_Field>
OPLS_2005

> <r_lp_Energy>
22.4904

> <b_lp_Chiralities_Consistent>
1

> <s_lp_Variant>
AV-unprocessed.smi:719-1

> <Gold.Version>
5.8.1

> <Gold.Id.Protein>
6NUR|6NUR_protein|mol2

> <Gold.PLP.Fitness>
44.5895

> <Gold.PLP.PLP>
-42.7981

> <Gold.PLP.part.hbond>
-1.0000

> <Gold.PLP.part.metal>
0.0000

> <Gold.PLP.part.buried>
-4.2114

> <Gold.PLP.part.nonpolar>
-37.2262

> <Gold.PLP.part.repulsive>
0.1260

> <Gold.PLP.ligand.clash>
0.0000

> <Gold.PLP.ligand.torsion>
0.6577

> <Gold.PLP.Chemscore.Hbond>
1.0000

> <Gold.PLP.Chemscore.CHOScore>
0.0000

> <Gold.PLP.Chemscore.Metal>
0.0000

> <Gold.Chemscore.Hbonds>
donor molecule, donor type, donor heavy atom, donor atom, acceptor molecule, acceptor atom, score
      P1  H  7989  7998       L1    10  1.00

> <Gold.PLP.Chemscore.Internal.Correction>
0.1068

> <Gold.Rescore>
     Score         DG    S(hbond)    S(metal)    S(lipo)     H(rot)  DE(clash)    DE(int)     intcor
     18.56     -19.21       0.99        0.00     120.25       1.42       0.08       0.58       ----

> <Gold.Chemscore.Fitness>
18.5569

> <Gold.Chemscore.DG>
-19.2121

> <Gold.Chemscore.ZeroCoef>
-5.4800

> <Gold.Chemscore.Hbond>
0.9883

> <Gold.Chemscore.Metal>
0.0000

> <Gold.Chemscore.Lipo>
120.2455

> <Gold.Chemscore.Internal_Hbond>
0.0000

> <Gold.Chemscore.DEClash>
0.0789

> <Gold.Chemscore.DEInternal>
0.5763

> <Gold.Chemscore.Rot>
1.4209

> <Gold.Chemscore.Internal.Correction>
   9.000000E+99

> <Gold.Chemscore.Hbonds>
donor molecule, donor type, donor heavy atom, donor atom, acceptor molecule, acceptor atom, score
      P1  H  7989  7998       L1    10  0.95

> <Gold.Chemscore.Hbond.Weighted>
-3.3009

> <Gold.Chemscore.Metal.Weighted>
-0.0000

> <Gold.Chemscore.Lipo.Weighted>
-14.0687

> <Gold.Chemscore.Internal_Hbond.Weighted>
0.0000

> <Gold.Chemscore.DEClash.Weighted>
0.0789

> <Gold.Chemscore.DEInternal.Weighted>
0.5763

> <Gold.Chemscore.Rot.Weighted>
3.6376

> <Gold.Chemscore.Internal.Correction.Weighted>
   9.000000E+99

> <Gold.Protein.RotatedTorsions>
[ 6907 6896 6895 6894 ] final  117.61 input  -60.11 | X-H torsion
[ 7974 7965 7964 7962 ] final   21.65 input  175.53 | X-H torsion
[ 8008 7997 7996 7995 ] final  -62.67 input   59.86 | X-H torsion
[ 10167 10162 10161 10158 ] final   93.79 input  -65.29 | X-H torsion
[ 10718 10713 10712 10709 ] final  -25.82 input   66.30 | X-H torsion
[ 10763 10752 10751 10750 ] final -130.46 input  -60.55 | X-H torsion
[ 11005 11000 10999 10996 ] final   25.44 input  -57.11 | X-H torsion

> <Gold.Protein.ActiveResidues>
 VAL166  LYS551  ARG553  GLY616  TRP617  ASP618  TYR619  PRO620  LYS621  CYS622 
 ASP623  PHE694  ASN695  SER759  ASP760  ASP761  ALA762  ILE779  LEU786  VAL792 
 PHE793  MET794  SER795  GLU796  ALA797  LYS798  CYS799  TRP800  GLU811  SER814 

> <Gold.Protein.RotatedAtoms>
  152.4600  133.7802  159.6846 H   0  0  0  0  0  0  0  0  0  0  0  0  # atno 6907 bound_to 6896
  150.8540  133.7733  159.3021 H   0  0  0  0  0  0  0  0  0  0  0  0  # atno 6908 bound_to 6896
  151.5320  135.1071  159.9957 H   0  0  0  0  0  0  0  0  0  0  0  0  # atno 6909 bound_to 6896
  146.2062  139.7996  142.8724 H   0  0  0  0  0  0  0  0  0  0  0  0  # atno 7974 bound_to 7965
  154.4512  140.0991  156.6622 H   0  0  0  0  0  0  0  0  0  0  0  0  # atno 8008 bound_to 7997
  155.5280  140.3480  155.4402 H   0  0  0  0  0  0  0  0  0  0  0  0  # atno 8009 bound_to 7997
  156.0684  140.1343  156.9847 H   0  0  0  0  0  0  0  0  0  0  0  0  # atno 8010 bound_to 7997
  139.8146  144.6758  150.9597 H   0  0  0  0  0  0  0  0  0  0  0  0  # atno 10167 bound_to 10162
  156.4593  130.4500  149.6939 H   0  0  0  0  0  0  0  0  0  0  0  0  # atno 10718 bound_to 10713
  154.8755  135.3862  154.4086 H   0  0  0  0  0  0  0  0  0  0  0  0  # atno 10763 bound_to 10752
  153.4802  135.7030  153.5947 H   0  0  0  0  0  0  0  0  0  0  0  0  # atno 10764 bound_to 10752
  153.4366  135.3866  155.2170 H   0  0  0  0  0  0  0  0  0  0  0  0  # atno 10765 bound_to 10752
  140.3478  134.2262  155.7683 H   0  0  0  0  0  0  0  0  0  0  0  0  # atno 11005 bound_to 11000
  145.3310  141.0266  143.3446 LP  0  0  0  0  0  0  0  0  0  0  0  0  # atno 17320 bound_to 7965
  144.8799  139.4919  143.6728 LP  0  0  0  0  0  0  0  0  0  0  0  0  # atno 17321 bound_to 7965
  140.7816  143.4151  151.0930 LP  0  0  0  0  0  0  0  0  0  0  0  0  # atno 17342 bound_to 10162
  139.7816  143.8347  152.3138 LP  0  0  0  0  0  0  0  0  0  0  0  0  # atno 17343 bound_to 10162
  156.3733  130.7542  151.2527 LP  0  0  0  0  0  0  0  0  0  0  0  0  # atno 17370 bound_to 10713
  157.7499  131.0317  150.4192 LP  0  0  0  0  0  0  0  0  0  0  0  0  # atno 17371 bound_to 10713
  141.2020  133.7947  157.0410 LP  0  0  0  0  0  0  0  0  0  0  0  0  # atno 17394 bound_to 11000
  140.0727  134.9693  157.1495 LP  0  0  0  0  0  0  0  0  0  0  0  0  # atno 17395 bound_to 11000

$$$$
