AV-unprocessed.smi:3199|AV-procd|sdf|12233|dock3
  -GOLD-   2272018 63D 1   1.00000     0.00000
 Structure written by MMmdl.
 36 37  0  0  0  0  0  0  0  0  2 V2000
  146.5502  138.7509  152.3680 C   0  0  0  0  0  0  0  0  0  0  0  0
  147.5969  139.4604  153.2006 C   0  0  0  0  0  0  0  0  0  0  0  0
  147.3183  140.6487  153.9099 C   0  0  0  0  0  0  0  0  0  0  0  0
  148.3422  141.2553  154.6673 C   0  0  0  0  0  0  0  0  0  0  0  0
  149.6234  140.6621  154.6996 C   0  0  0  0  0  0  0  0  0  0  0  0
  150.7487  141.2855  155.5018 C   0  0  0  0  0  0  0  0  0  0  0  0
  150.9598  140.5797  156.8518 C   0  0  0  0  0  0  0  0  0  0  0  0
  151.3624  141.5187  157.8918 N   0  0  0  0  0  0  0  0  0  0  0  0
  152.6011  141.6201  158.4005 C   0  0  0  0  0  0  0  0  0  0  0  0
  153.5397  140.9218  158.0159 O   0  0  0  0  0  0  0  0  0  0  0  0
  152.8280  142.6810  159.4879 C   0  0  2  0  0  0  0  0  0  0  0  0
  153.4342  142.1348  160.7954 C   0  0  0  0  0  0  0  0  0  0  0  0
  152.4661  142.5910  161.8747 C   0  0  0  0  0  0  0  0  0  0  0  0
  151.7183  143.7340  161.2022 C   0  0  0  0  0  0  0  0  0  0  0  0
  151.5861  143.2691  159.8705 O   0  0  0  0  0  0  0  0  0  0  0  0
  149.8429  139.4728  153.9721 C   0  0  0  0  0  0  0  0  0  0  0  0
  148.8358  138.9222  153.2595 N   0  3  0  0  0  0  0  0  0  0  0  0
  145.6946  139.4003  152.1797 H   0  0  0  0  0  0  0  0  0  0  0  0
  146.1962  137.8594  152.8860 H   0  0  0  0  0  0  0  0  0  0  0  0
  146.9641  138.4487  151.4055 H   0  0  0  0  0  0  0  0  0  0  0  0
  146.3334  141.0916  153.8758 H   0  0  0  0  0  0  0  0  0  0  0  0
  148.1434  142.1648  155.2155 H   0  0  0  0  0  0  0  0  0  0  0  0
  151.6607  141.2442  154.9046 H   0  0  0  0  0  0  0  0  0  0  0  0
  150.5359  142.3433  155.6622 H   0  0  0  0  0  0  0  0  0  0  0  0
  150.0353  140.0956  157.1679 H   0  0  0  0  0  0  0  0  0  0  0  0
  151.7080  139.7905  156.7599 H   0  0  0  0  0  0  0  0  0  0  0  0
  150.6496  142.1307  158.2630 H   0  0  0  0  0  0  0  0  0  0  0  0
  153.4702  143.4657  159.0849 H   0  0  0  0  0  0  0  0  0  0  0  0
  153.5479  141.0500  160.8119 H   0  0  0  0  0  0  0  0  0  0  0  0
  154.4211  142.5696  160.9571 H   0  0  0  0  0  0  0  0  0  0  0  0
  151.7703  141.7853  162.1126 H   0  0  0  0  0  0  0  0  0  0  0  0
  152.9647  142.8928  162.7962 H   0  0  0  0  0  0  0  0  0  0  0  0
  150.7488  143.9324  161.6594 H   0  0  0  0  0  0  0  0  0  0  0  0
  152.3064  144.6530  161.2174 H   0  0  0  0  0  0  0  0  0  0  0  0
  150.7868  138.9479  153.9400 H   0  0  0  0  0  0  0  0  0  0  0  0
  149.0185  138.0618  152.7424 H   0  0  0  0  0  0  0  0  0  0  0  0
  1  2  1  0  0  0  0
  1 18  1  0  0  0  0
  1 19  1  0  0  0  0
  1 20  1  0  0  0  0
  2 17  1  0  0  0  0
  2  3  2  0  0  0  0
  3  4  1  0  0  0  0
  3 21  1  0  0  0  0
  4  5  2  0  0  0  0
  4 22  1  0  0  0  0
  5  6  1  0  0  0  0
  5 16  1  0  0  0  0
  6  7  1  0  0  0  0
  6 23  1  0  0  0  0
  6 24  1  0  0  0  0
  7  8  1  0  0  0  0
  7 25  1  0  0  0  0
  7 26  1  0  0  0  0
  8  9  1  0  0  0  0
  8 27  1  0  0  0  0
  9 10  2  0  0  0  0
  9 11  1  0  0  0  0
 11 15  1  0  0  0  0
 11 12  1  0  0  0  0
 11 28  1  0  0  0  0
 12 13  1  0  0  0  0
 12 29  1  0  0  0  0
 12 30  1  0  0  0  0
 13 14  1  0  0  0  0
 13 31  1  0  0  0  0
 13 32  1  0  0  0  0
 14 15  1  0  0  0  0
 14 33  1  0  0  0  0
 14 34  1  0  0  0  0
 16 17  2  0  0  0  0
 16 35  1  0  0  0  0
 17 36  1  0  0  0  0
M  CHG  1  17   1
M  END
> <s_m_source_file>
AV-unprocessed.smi

> <i_m_source_file_index>
3199

> <i_lp_mmshare_version>
43012

> <i_f3d_flags>
0

> <s_epik_input>
W0NIM11jMVtjSF1bY0hdYyhbY0hdbjEpW0NIMl1bQ0gyXVtOSF1DKD1PKVtDQEBIXTJbQ0gyXVtDSDJdW0NIMl1PMg==

> <s_epik_cmdline>
J2VwaWtfcHl0aG9uJywgJy1waCcsICc3LjAnLCAnLXRuJywgJzgnLCAnLW1hJywgJzIwMCcsICctbWV0YWxfYmluZGluZycsICctaW1hZScsICc8aW5maWxlLm1hZT4nLCAnLW9tYWUnLCAnPG91dGZpbGUubWFlPic=

> <r_epik_Ionization_Penalty>
1.4683

> <r_epik_Ionization_Penalty_Charging>
1.4683

> <r_epik_Ionization_Penalty_Neutral>
5.71603e-08

> <r_epik_State_Penalty>
1.5559

> <r_epik_Charging_Adjusted_Penalty>
3.0242

> <i_epik_Tot_Q>
1

> <i_epik_Tot_abs_Q>
1

> <r_epik_Metal_State_Penalty>
1.60421

> <b_epik_Metal_Only>
0

> <s_lp_Force_Field>
OPLS_2005

> <r_lp_Energy>
23.6243

> <b_lp_Chiralities_Consistent>
1

> <s_lp_Variant>
AV-unprocessed.smi:3199-3

> <Gold.Version>
5.8.1

> <Gold.Id.Protein>
6NUR|6NUR_protein|mol2

> <Gold.PLP.Fitness>
47.8136

> <Gold.PLP.PLP>
-40.1100

> <Gold.PLP.part.hbond>
-3.0000

> <Gold.PLP.part.metal>
0.0000

> <Gold.PLP.part.buried>
-0.7661

> <Gold.PLP.part.nonpolar>
-36.4543

> <Gold.PLP.part.repulsive>
0.1282

> <Gold.PLP.ligand.clash>
0.0000

> <Gold.PLP.ligand.torsion>
0.6506

> <Gold.PLP.Chemscore.Hbond>
3.0000

> <Gold.PLP.Chemscore.CHOScore>
0.0000

> <Gold.PLP.Chemscore.Metal>
0.0000

> <Gold.Chemscore.Hbonds>
donor molecule, donor type, donor heavy atom, donor atom, acceptor molecule, acceptor atom, score
      L1  H    17    36       P1  7948  2.00
      P1  H  7997  8010       L1    10  0.40

> <Gold.PLP.Chemscore.Internal.Correction>
0.0049

> <Gold.Rescore>
     Score         DG    S(hbond)    S(metal)    S(lipo)     H(rot)  DE(clash)    DE(int)     intcor
     18.46     -19.07       1.92        0.00      95.51       1.56       0.02       0.59       ----

> <Gold.Chemscore.Fitness>
18.4586

> <Gold.Chemscore.DG>
-19.0702

> <Gold.Chemscore.ZeroCoef>
-5.4800

> <Gold.Chemscore.Hbond>
1.9198

> <Gold.Chemscore.Metal>
0.0000

> <Gold.Chemscore.Lipo>
95.5114

> <Gold.Chemscore.Internal_Hbond>
0.0000

> <Gold.Chemscore.DEClash>
0.0217

> <Gold.Chemscore.DEInternal>
0.5899

> <Gold.Chemscore.Rot>
1.5613

> <Gold.Chemscore.Internal.Correction>
   9.000000E+99

> <Gold.Chemscore.Hbonds>
donor molecule, donor type, donor heavy atom, donor atom, acceptor molecule, acceptor atom, score
      L1  H    17    36       P1  7948  0.95
      P1  H  7997  8010       L1    10  0.40

> <Gold.Chemscore.Hbond.Weighted>
-6.4123

> <Gold.Chemscore.Metal.Weighted>
-0.0000

> <Gold.Chemscore.Lipo.Weighted>
-11.1748

> <Gold.Chemscore.Internal_Hbond.Weighted>
0.0000

> <Gold.Chemscore.DEClash.Weighted>
0.0217

> <Gold.Chemscore.DEInternal.Weighted>
0.5899

> <Gold.Chemscore.Rot.Weighted>
3.9969

> <Gold.Chemscore.Internal.Correction.Weighted>
   9.000000E+99

> <Gold.Protein.RotatedTorsions>
[ 6907 6896 6895 6894 ] final   -7.24 input  -60.11 | X-H torsion
[ 7974 7965 7964 7962 ] final  -87.64 input  175.53 | X-H torsion
[ 8008 7997 7996 7995 ] final   23.87 input   59.86 | X-H torsion
[ 10167 10162 10161 10158 ] final  158.02 input  -65.29 | X-H torsion
[ 10718 10713 10712 10709 ] final  151.99 input   66.30 | X-H torsion
[ 10763 10752 10751 10750 ] final   69.21 input  -60.55 | X-H torsion
[ 11005 11000 10999 10996 ] final  -55.77 input  -57.11 | X-H torsion

> <Gold.Protein.ActiveResidues>
 VAL166  LYS551  ARG553  GLY616  TRP617  ASP618  TYR619  PRO620  LYS621  CYS622 
 ASP623  PHE694  ASN695  SER759  ASP760  ASP761  ALA762  ILE779  LEU786  VAL792 
 PHE793  MET794  SER795  GLU796  ALA797  LYS798  CYS799  TRP800  GLU811  SER814 

> <Gold.Protein.RotatedAtoms>
  151.4527  135.1031  159.9702 H   0  0  0  0  0  0  0  0  0  0  0  0  # atno 6907 bound_to 6896
  152.4882  133.8425  159.7170 H   0  0  0  0  0  0  0  0  0  0  0  0  # atno 6908 bound_to 6896
  150.9011  133.7058  159.2906 H   0  0  0  0  0  0  0  0  0  0  0  0  # atno 6909 bound_to 6896
  145.4638  140.9560  143.1955 H   0  0  0  0  0  0  0  0  0  0  0  0  # atno 7974 bound_to 7965
  154.9876  140.3110  155.4920 H   0  0  0  0  0  0  0  0  0  0  0  0  # atno 8008 bound_to 7997
  156.2944  140.2255  156.4919 H   0  0  0  0  0  0  0  0  0  0  0  0  # atno 8009 bound_to 7997
  154.7732  140.0451  157.1056 H   0  0  0  0  0  0  0  0  0  0  0  0  # atno 8010 bound_to 7997
  139.4825  144.4864  151.8372 H   0  0  0  0  0  0  0  0  0  0  0  0  # atno 10167 bound_to 10162
  157.2636  131.0803  151.1649 H   0  0  0  0  0  0  0  0  0  0  0  0  # atno 10718 bound_to 10713
  153.0275  135.5219  154.7253 H   0  0  0  0  0  0  0  0  0  0  0  0  # atno 10763 bound_to 10752
  154.6296  135.2898  155.0234 H   0  0  0  0  0  0  0  0  0  0  0  0  # atno 10764 bound_to 10752
  154.1190  135.6610  153.4952 H   0  0  0  0  0  0  0  0  0  0  0  0  # atno 10765 bound_to 10752
  141.1089  133.6611  156.4519 H   0  0  0  0  0  0  0  0  0  0  0  0  # atno 11005 bound_to 11000
  144.7987  139.6184  143.7081 LP  0  0  0  0  0  0  0  0  0  0  0  0  # atno 17320 bound_to 7965
  146.2436  139.6052  142.9475 LP  0  0  0  0  0  0  0  0  0  0  0  0  # atno 17321 bound_to 7965
  140.4344  144.2072  150.5889 LP  0  0  0  0  0  0  0  0  0  0  0  0  # atno 17342 bound_to 10162
  140.4747  143.2400  151.9040 LP  0  0  0  0  0  0  0  0  0  0  0  0  # atno 17343 bound_to 10162
  157.3149  130.6908  149.6236 LP  0  0  0  0  0  0  0  0  0  0  0  0  # atno 17370 bound_to 10713
  155.9664  130.4352  150.5084 LP  0  0  0  0  0  0  0  0  0  0  0  0  # atno 17371 bound_to 10713
  140.4828  134.6649  157.5178 LP  0  0  0  0  0  0  0  0  0  0  0  0  # atno 17394 bound_to 11000
  139.9973  134.6891  155.9588 LP  0  0  0  0  0  0  0  0  0  0  0  0  # atno 17395 bound_to 11000

$$$$
