AV-unprocessed.smi:1232|AV-procd|sdf|5169|dock4
  -GOLD-   22720 4243D 1   1.00000     0.00000
 Structure written by MMmdl.
 53 54  0  0  0  0  0  0  0  0  1 V2000
  148.1935  135.0240  159.2741 C   0  0  0  0  0  0  0  0  0  0  0  0
  148.5984  134.9495  157.8062 C   0  0  0  0  0  0  0  0  0  0  0  0
  149.4844  134.1740  157.4484 O   0  0  0  0  0  0  0  0  0  0  0  0
  147.9372  135.7605  156.9652 N   0  0  0  0  0  0  0  0  0  0  0  0
  148.1666  135.8600  155.5224 C   0  0  2  0  0  0  0  0  0  0  0  0
  148.8362  137.2141  155.2197 C   0  0  0  0  0  0  0  0  0  0  0  0
  148.3445  138.2629  155.6397 O   0  0  0  0  0  0  0  0  0  0  0  0
  149.9482  137.1724  154.4696 N   0  0  0  0  0  0  0  0  0  0  0  0
  150.7077  138.3406  154.0375 C   0  0  0  0  0  0  0  0  0  0  0  0
  151.1198  139.2558  155.1804 C   0  0  0  0  0  0  0  0  0  0  0  0
  150.3800  140.4190  155.4688 C   0  0  0  0  0  0  0  0  0  0  0  0
  150.7934  141.2462  156.5306 C   0  0  0  0  0  0  0  0  0  0  0  0
  151.9375  140.8861  157.2822 C   0  0  0  0  0  0  0  0  0  0  0  0
  152.3743  141.7047  158.3460 N   0  0  0  0  0  0  0  0  0  0  0  0
  152.7062  141.0608  159.6151 C   0  0  0  0  0  0  0  0  0  0  0  0
  153.4321  142.0496  160.5414 C   0  0  0  0  0  0  0  0  0  0  0  0
  152.6396  143.2209  160.7063 O   0  0  0  0  0  0  0  0  0  0  0  0
  152.4191  143.8984  159.4721 C   0  0  2  0  0  0  0  0  0  0  0  0
  151.6399  145.1854  159.7632 C   0  0  0  0  0  0  0  0  0  0  0  0
  151.6582  142.9672  158.5083 C   0  0  0  0  0  0  0  0  0  0  0  0
  152.6446  139.7631  157.0033 N   0  0  0  0  0  0  0  0  0  0  0  0
  152.2417  138.9724  155.9872 C   0  0  0  0  0  0  0  0  0  0  0  0
  146.7952  135.7597  154.7902 C   0  0  0  0  0  0  0  0  0  0  0  0
  145.8668  136.9343  155.1568 C   0  0  0  0  0  0  0  0  0  0  0  0
  146.0571  134.4309  155.0552 C   0  0  0  0  0  0  0  0  0  0  0  0
  148.0375  136.0587  159.5812 H   0  0  0  0  0  0  0  0  0  0  0  0
  148.9682  134.5946  159.9102 H   0  0  0  0  0  0  0  0  0  0  0  0
  147.2684  134.4710  159.4384 H   0  0  0  0  0  0  0  0  0  0  0  0
  147.2291  136.3669  157.3527 H   0  0  0  0  0  0  0  0  0  0  0  0
  148.8130  135.0429  155.1946 H   0  0  0  0  0  0  0  0  0  0  0  0
  150.2869  136.2690  154.1707 H   0  0  0  0  0  0  0  0  0  0  0  0
  151.5870  138.0229  153.4741 H   0  0  0  0  0  0  0  0  0  0  0  0
  150.0889  138.9131  153.3463 H   0  0  0  0  0  0  0  0  0  0  0  0
  149.5127  140.6822  154.8812 H   0  0  0  0  0  0  0  0  0  0  0  0
  150.2429  142.1506  156.7426 H   0  0  0  0  0  0  0  0  0  0  0  0
  151.7907  140.7066  160.0912 H   0  0  0  0  0  0  0  0  0  0  0  0
  153.3434  140.1922  159.4434 H   0  0  0  0  0  0  0  0  0  0  0  0
  153.6009  141.5940  161.5172 H   0  0  0  0  0  0  0  0  0  0  0  0
  154.4118  142.3121  160.1391 H   0  0  0  0  0  0  0  0  0  0  0  0
  153.3829  144.1680  159.0360 H   0  0  0  0  0  0  0  0  0  0  0  0
  151.4552  145.7479  158.8477 H   0  0  0  0  0  0  0  0  0  0  0  0
  152.1946  145.8315  160.4439 H   0  0  0  0  0  0  0  0  0  0  0  0
  150.6754  144.9672  160.2226 H   0  0  0  0  0  0  0  0  0  0  0  0
  151.5224  143.4767  157.5554 H   0  0  0  0  0  0  0  0  0  0  0  0
  150.6617  142.7555  158.8986 H   0  0  0  0  0  0  0  0  0  0  0  0
  152.8380  138.0885  155.8146 H   0  0  0  0  0  0  0  0  0  0  0  0
  146.9726  135.8179  153.7148 H   0  0  0  0  0  0  0  0  0  0  0  0
  145.6646  136.9573  156.2283 H   0  0  0  0  0  0  0  0  0  0  0  0
  144.9092  136.8537  154.6415 H   0  0  0  0  0  0  0  0  0  0  0  0
  146.2956  137.8970  154.8784 H   0  0  0  0  0  0  0  0  0  0  0  0
  145.9164  134.2620  156.1233 H   0  0  0  0  0  0  0  0  0  0  0  0
  146.5956  133.5754  154.6482 H   0  0  0  0  0  0  0  0  0  0  0  0
  145.0722  134.4287  154.5876 H   0  0  0  0  0  0  0  0  0  0  0  0
  1  2  1  0  0  0  0
  1 26  1  0  0  0  0
  1 27  1  0  0  0  0
  1 28  1  0  0  0  0
  2  3  2  0  0  0  0
  2  4  1  0  0  0  0
  4  5  1  0  0  0  0
  4 29  1  0  0  0  0
  5  6  1  0  0  0  0
  5 23  1  0  0  0  0
  5 30  1  0  0  0  0
  6  7  2  0  0  0  0
  6  8  1  0  0  0  0
  8  9  1  0  0  0  0
  8 31  1  0  0  0  0
  9 10  1  0  0  0  0
  9 32  1  0  0  0  0
  9 33  1  0  0  0  0
 10 22  1  0  0  0  0
 10 11  2  0  0  0  0
 11 12  1  0  0  0  0
 11 34  1  0  0  0  0
 12 13  2  0  0  0  0
 12 35  1  0  0  0  0
 13 14  1  0  0  0  0
 13 21  1  0  0  0  0
 14 20  1  0  0  0  0
 14 15  1  0  0  0  0
 15 16  1  0  0  0  0
 15 36  1  0  0  0  0
 15 37  1  0  0  0  0
 16 17  1  0  0  0  0
 16 38  1  0  0  0  0
 16 39  1  0  0  0  0
 17 18  1  0  0  0  0
 18 19  1  0  0  0  0
 18 20  1  0  0  0  0
 18 40  1  0  0  0  0
 19 41  1  0  0  0  0
 19 42  1  0  0  0  0
 19 43  1  0  0  0  0
 20 44  1  0  0  0  0
 20 45  1  0  0  0  0
 21 22  2  0  0  0  0
 22 46  1  0  0  0  0
 23 24  1  0  0  0  0
 23 25  1  0  0  0  0
 23 47  1  0  0  0  0
 24 48  1  0  0  0  0
 24 49  1  0  0  0  0
 24 50  1  0  0  0  0
 25 51  1  0  0  0  0
 25 52  1  0  0  0  0
 25 53  1  0  0  0  0
M  END
> <s_m_source_file>
AV-unprocessed.smi

> <i_m_source_file_index>
1232

> <i_lp_mmshare_version>
43012

> <i_f3d_flags>
0

> <s_epik_input>
W0NIM11DKD1PKVtOSF1bQ0BASF0oW0NIXShbQ0gzXSlbQ0gzXSlDKD1PKVtOSF1bQ0gyXWMxW2NIXVtjSF1jKG5bY0hdMSlOMltDSDJdW0NIMl1PW0NAQEhdKFtDSDNdKVtDSDJdMg==

> <s_epik_cmdline>
J2VwaWtfcHl0aG9uJywgJy1waCcsICc3LjAnLCAnLXRuJywgJzgnLCAnLW1hJywgJzIwMCcsICctbWV0YWxfYmluZGluZycsICctaW1hZScsICc8aW5maWxlLm1hZT4nLCAnLW9tYWUnLCAnPG91dGZpbGUubWFlPic=

> <r_lp_tautomer_probability>
1

> <r_epik_Ionization_Penalty>
0.00557618

> <r_epik_Ionization_Penalty_Charging>
0

> <r_epik_Ionization_Penalty_Neutral>
0.00557618

> <r_epik_State_Penalty>
0.00408363

> <r_epik_Charging_Adjusted_Penalty>
0.00408363

> <i_epik_Tot_Q>
0

> <i_epik_Tot_abs_Q>
0

> <r_epik_Metal_State_Penalty>
-0

> <b_epik_Metal_Only>
0

> <s_lp_Force_Field>
OPLS_2005

> <r_lp_Energy>
16.2808

> <b_lp_Chiralities_Consistent>
1

> <s_lp_Variant>
AV-unprocessed.smi:1232-3

> <Gold.Version>
5.8.1

> <Gold.Id.Protein>
6NUR|6NUR_protein|mol2

> <Gold.PLP.Fitness>
44.1805

> <Gold.PLP.PLP>
-39.2741

> <Gold.PLP.part.hbond>
-2.6880

> <Gold.PLP.part.metal>
0.0000

> <Gold.PLP.part.buried>
-5.0773

> <Gold.PLP.part.nonpolar>
-31.3253

> <Gold.PLP.part.repulsive>
0.1485

> <Gold.PLP.ligand.clash>
0.0000

> <Gold.PLP.ligand.torsion>
0.7405

> <Gold.PLP.Chemscore.Hbond>
1.9760

> <Gold.PLP.Chemscore.CHOScore>
0.0000

> <Gold.PLP.Chemscore.Metal>
0.0000

> <Gold.Chemscore.Hbonds>
donor molecule, donor type, donor heavy atom, donor atom, acceptor molecule, acceptor atom, score
      P1  H  6896  6909       L1     3  0.50
      P1  H  7997  8009       L1    21  0.82

> <Gold.PLP.Chemscore.Internal.Correction>
0.4593

> <Gold.Rescore>
     Score         DG    S(hbond)    S(metal)    S(lipo)     H(rot)  DE(clash)    DE(int)     intcor
     14.32     -16.40       1.38        0.00     100.67       2.13       0.00       2.08       ----

> <Gold.Chemscore.Fitness>
14.3195

> <Gold.Chemscore.DG>
-16.3992

> <Gold.Chemscore.ZeroCoef>
-5.4800

> <Gold.Chemscore.Hbond>
1.3765

> <Gold.Chemscore.Metal>
0.0000

> <Gold.Chemscore.Lipo>
100.6727

> <Gold.Chemscore.Internal_Hbond>
0.0000

> <Gold.Chemscore.DEClash>
0.0000

> <Gold.Chemscore.DEInternal>
2.0797

> <Gold.Chemscore.Rot>
2.1317

> <Gold.Chemscore.Internal.Correction>
   9.000000E+99

> <Gold.Chemscore.Hbonds>
donor molecule, donor type, donor heavy atom, donor atom, acceptor molecule, acceptor atom, score
      P1  H  6896  6909       L1     3  0.13
      P1  H  7997  8009       L1    21  0.57

> <Gold.Chemscore.Hbond.Weighted>
-4.5977

> <Gold.Chemscore.Metal.Weighted>
-0.0000

> <Gold.Chemscore.Lipo.Weighted>
-11.7787

> <Gold.Chemscore.Internal_Hbond.Weighted>
0.0000

> <Gold.Chemscore.DEClash.Weighted>
0.0000

> <Gold.Chemscore.DEInternal.Weighted>
2.0797

> <Gold.Chemscore.Rot.Weighted>
5.4572

> <Gold.Chemscore.Internal.Correction.Weighted>
   9.000000E+99

> <Gold.Protein.RotatedTorsions>
[ 6907 6896 6895 6894 ] final   17.53 input  -60.11 | X-H torsion
[ 7974 7965 7964 7962 ] final   34.90 input  175.53 | X-H torsion
[ 8008 7997 7996 7995 ] final  156.78 input   59.86 | X-H torsion
[ 10167 10162 10161 10158 ] final  114.65 input  -65.29 | X-H torsion
[ 10718 10713 10712 10709 ] final  154.88 input   66.30 | X-H torsion
[ 10763 10752 10751 10750 ] final   46.05 input  -60.55 | X-H torsion
[ 11005 11000 10999 10996 ] final   50.95 input  -57.11 | X-H torsion

> <Gold.Protein.ActiveResidues>
 VAL166  LYS551  ARG553  GLY616  TRP617  ASP618  TYR619  PRO620  LYS621  CYS622 
 ASP623  PHE694  ASN695  SER759  ASP760  ASP761  ALA762  ILE779  LEU786  VAL792 
 PHE793  MET794  SER795  GLU796  ALA797  LYS798  CYS799  TRP800  GLU811  SER814 

> <Gold.Protein.RotatedAtoms>
  151.8510  135.0557  160.0458 H   0  0  0  0  0  0  0  0  0  0  0  0  # atno 6907 bound_to 6896
  152.2736  133.5401  159.5463 H   0  0  0  0  0  0  0  0  0  0  0  0  # atno 6908 bound_to 6896
  150.7161  134.0579  159.3863 H   0  0  0  0  0  0  0  0  0  0  0  0  # atno 6909 bound_to 6896
  146.1321  139.6211  142.9220 H   0  0  0  0  0  0  0  0  0  0  0  0  # atno 7974 bound_to 7965
  156.2402  140.1903  156.7008 H   0  0  0  0  0  0  0  0  0  0  0  0  # atno 8008 bound_to 7997
  154.6183  140.0612  156.9609 H   0  0  0  0  0  0  0  0  0  0  0  0  # atno 8009 bound_to 7997
  155.1903  140.3284  155.4362 H   0  0  0  0  0  0  0  0  0  0  0  0  # atno 8010 bound_to 7997
  139.6373  144.7121  151.2308 H   0  0  0  0  0  0  0  0  0  0  0  0  # atno 10167 bound_to 10162
  157.2257  131.0728  151.1884 H   0  0  0  0  0  0  0  0  0  0  0  0  # atno 10718 bound_to 10713
  152.9816  135.6020  154.3536 H   0  0  0  0  0  0  0  0  0  0  0  0  # atno 10763 bound_to 10752
  154.3223  135.2769  155.2515 H   0  0  0  0  0  0  0  0  0  0  0  0  # atno 10764 bound_to 10752
  154.4676  135.5950  153.6354 H   0  0  0  0  0  0  0  0  0  0  0  0  # atno 10765 bound_to 10752
  140.0974  134.5127  155.8794 H   0  0  0  0  0  0  0  0  0  0  0  0  # atno 11005 bound_to 11000
  145.5238  141.0430  143.2421 LP  0  0  0  0  0  0  0  0  0  0  0  0  # atno 17320 bound_to 7965
  144.7701  139.6754  143.7198 LP  0  0  0  0  0  0  0  0  0  0  0  0  # atno 17321 bound_to 7965
  140.7472  143.6373  150.8367 LP  0  0  0  0  0  0  0  0  0  0  0  0  # atno 17342 bound_to 10162
  140.0006  143.5748  152.2877 LP  0  0  0  0  0  0  0  0  0  0  0  0  # atno 17343 bound_to 10162
  157.3530  130.7092  149.6453 LP  0  0  0  0  0  0  0  0  0  0  0  0  # atno 17370 bound_to 10713
  155.9679  130.4247  150.4620 LP  0  0  0  0  0  0  0  0  0  0  0  0  # atno 17371 bound_to 10713
  141.2096  133.6685  156.6450 LP  0  0  0  0  0  0  0  0  0  0  0  0  # atno 17394 bound_to 11000
  140.3267  134.7962  157.4295 LP  0  0  0  0  0  0  0  0  0  0  0  0  # atno 17395 bound_to 11000

$$$$
