AV-unprocessed.smi:287|AV-procd|sdf|2200|dock1
  -GOLD-   2262022 13D 1   1.00000     0.00000
 Structure written by MMmdl.
 55 58  0  0  0  0  0  0  0  0  1 V2000
  141.6568  136.4798  162.7597 C   0  0  0  0  0  0  0  0  0  0  0  0
  143.0856  136.1112  162.5516 C   0  0  0  0  0  0  0  0  0  0  0  0
  144.2268  136.8313  162.3491 C   0  0  0  0  0  0  0  0  0  0  0  0
  145.3026  135.9007  162.2319 C   0  0  0  0  0  0  0  0  0  0  0  0
  146.7689  136.2372  161.9958 C   0  0  2  0  0  0  0  0  0  0  0  0
  147.6101  135.7458  163.1849 C   0  0  0  0  0  0  0  0  0  0  0  0
  147.0003  137.6308  161.9192 O   0  0  0  0  0  0  0  0  0  0  0  0
  147.3180  135.6485  160.6753 C   0  0  0  0  0  0  0  0  0  0  0  0
  146.7072  136.2426  159.4905 N   0  0  0  0  0  0  0  0  0  0  0  0
  147.3931  137.1351  158.7470 C   0  0  0  0  0  0  0  0  0  0  0  0
  148.4917  137.7626  159.2418 N   0  0  0  0  0  0  0  0  0  0  0  0
  149.1494  138.6481  158.4874 C   0  0  0  0  0  0  0  0  0  0  0  0
  148.8833  139.0418  157.2403 N   0  0  0  0  0  0  0  0  0  0  0  0
  147.7831  138.4102  156.7370 C   0  0  0  0  0  0  0  0  0  0  0  0
  146.9891  137.4505  157.4244 C   0  0  0  0  0  0  0  0  0  0  0  0
  145.9520  137.0227  156.6061 N   0  0  0  0  0  0  0  0  0  0  0  0
  146.1257  137.6953  155.5001 C   0  0  0  0  0  0  0  0  0  0  0  0
  147.2039  138.5523  155.4921 N   0  0  0  0  0  0  0  0  0  0  0  0
  147.6471  139.4447  154.3797 C   0  0  1  0  0  0  0  0  0  0  0  0
  146.6937  140.4453  154.2188 O   0  0  0  0  0  0  0  0  0  0  0  0
  147.3456  141.6432  153.8239 C   0  0  1  0  0  0  0  0  0  0  0  0
  146.4449  142.8669  154.0671 C   0  0  0  0  0  0  0  0  0  0  0  0
  145.0867  142.4945  153.9721 O   0  0  0  0  0  0  0  0  0  0  0  0
  148.6577  141.6098  154.6239 C   0  0  1  0  0  0  0  0  0  0  0  0
  148.4955  142.1550  155.9200 O   0  0  0  0  0  0  0  0  0  0  0  0
  148.9905  140.1209  154.7068 C   0  0  2  0  0  0  0  0  0  0  0  0
  149.9665  139.8034  153.7342 O   0  0  0  0  0  0  0  0  0  0  0  0
  144.7117  134.6660  162.3514 C   0  0  0  0  0  0  0  0  0  0  0  0
  145.2240  133.2643  162.3010 C   0  0  0  0  0  0  0  0  0  0  0  0
  143.3696  134.7848  162.5528 O   0  0  0  0  0  0  0  0  0  0  0  0
  147.6802  138.8034  153.4976 H   0  0  0  0  0  0  0  0  0  0  0  0
  147.5940  141.5644  152.7635 H   0  0  0  0  0  0  0  0  0  0  0  0
  149.4381  142.1868  154.1256 H   0  0  0  0  0  0  0  0  0  0  0  0
  149.3558  139.8275  155.6928 H   0  0  0  0  0  0  0  0  0  0  0  0
  141.5278  137.5620  162.7444 H   0  0  0  0  0  0  0  0  0  0  0  0
  141.2988  136.1105  163.7209 H   0  0  0  0  0  0  0  0  0  0  0  0
  141.0293  136.0531  161.9772 H   0  0  0  0  0  0  0  0  0  0  0  0
  144.2863  137.9085  162.2997 H   0  0  0  0  0  0  0  0  0  0  0  0
  147.5230  134.6659  163.3094 H   0  0  0  0  0  0  0  0  0  0  0  0
  147.2875  136.2104  164.1179 H   0  0  0  0  0  0  0  0  0  0  0  0
  148.6678  135.9754  163.0498 H   0  0  0  0  0  0  0  0  0  0  0  0
  147.4502  137.9034  162.7040 H   0  0  0  0  0  0  0  0  0  0  0  0
  148.4044  135.7416  160.6340 H   0  0  0  0  0  0  0  0  0  0  0  0
  147.0960  134.5805  160.6457 H   0  0  0  0  0  0  0  0  0  0  0  0
  145.7848  135.9071  159.2509 H   0  0  0  0  0  0  0  0  0  0  0  0
  150.0111  139.1075  158.9481 H   0  0  0  0  0  0  0  0  0  0  0  0
  145.4664  137.5824  154.6519 H   0  0  0  0  0  0  0  0  0  0  0  0
  146.6456  143.3212  155.0380 H   0  0  0  0  0  0  0  0  0  0  0  0
  146.6267  143.6260  153.3061 H   0  0  0  0  0  0  0  0  0  0  0  0
  145.0378  141.6296  153.5944 H   0  0  0  0  0  0  0  0  0  0  0  0
  148.7928  143.0518  155.9101 H   0  0  0  0  0  0  0  0  0  0  0  0
  149.5734  139.8802  152.8782 H   0  0  0  0  0  0  0  0  0  0  0  0
  145.8176  133.1023  161.4012 H   0  0  0  0  0  0  0  0  0  0  0  0
  144.4057  132.5440  162.2962 H   0  0  0  0  0  0  0  0  0  0  0  0
  145.8535  133.0522  163.1650 H   0  0  0  0  0  0  0  0  0  0  0  0
  1  2  1  0  0  0  0
  1 35  1  0  0  0  0
  1 36  1  0  0  0  0
  1 37  1  0  0  0  0
  2 30  1  0  0  0  0
  2  3  2  0  0  0  0
  3  4  1  0  0  0  0
  3 38  1  0  0  0  0
  4  5  1  0  0  0  0
  4 28  2  0  0  0  0
  5  6  1  0  0  0  0
  5  7  1  0  0  0  0
  5  8  1  0  0  0  0
  6 39  1  0  0  0  0
  6 40  1  0  0  0  0
  6 41  1  0  0  0  0
  7 42  1  0  0  0  0
  8  9  1  0  0  0  0
  8 43  1  0  0  0  0
  8 44  1  0  0  0  0
  9 10  1  0  0  0  0
  9 45  1  0  0  0  0
 10 15  1  0  0  0  0
 10 11  2  0  0  0  0
 11 12  1  0  0  0  0
 12 13  2  0  0  0  0
 12 46  1  0  0  0  0
 13 14  1  0  0  0  0
 14 18  1  0  0  0  0
 14 15  2  0  0  0  0
 15 16  1  0  0  0  0
 16 17  2  0  0  0  0
 17 18  1  0  0  0  0
 17 47  1  0  0  0  0
 18 19  1  0  0  0  0
 19 31  1  0  0  0  0
 19 26  1  0  0  0  0
 19 20  1  0  0  0  0
 20 21  1  0  0  0  0
 21 32  1  0  0  0  0
 21 22  1  0  0  0  0
 21 24  1  0  0  0  0
 22 23  1  0  0  0  0
 22 48  1  0  0  0  0
 22 49  1  0  0  0  0
 23 50  1  0  0  0  0
 24 33  1  0  0  0  0
 24 25  1  0  0  0  0
 24 26  1  0  0  0  0
 25 51  1  0  0  0  0
 26 34  1  0  0  0  0
 26 27  1  0  0  0  0
 27 52  1  0  0  0  0
 28 29  1  0  0  0  0
 28 30  1  0  0  0  0
 29 53  1  0  0  0  0
 29 54  1  0  0  0  0
 29 55  1  0  0  0  0
M  END
> <s_m_source_file>
AV-unprocessed.smi

> <i_m_source_file_index>
287

> <i_lp_mmshare_version>
43012

> <i_f3d_flags>
0

> <s_epik_input>
W0NIM11jMVtjSF1jKGMobzEpW0NIM10pW0NAQF0oW0NIM10pKFtPSF0pW0NIMl1bTkhdYyhuW2NIXW4yKWMoYzIzKW5bY0hdbjNbQ0BASF00T1tDQEhdKFtDSDJdW09IXSlbQ0BASF0oW09IXSlbQ0BIXTRbT0hd

> <s_epik_cmdline>
J2VwaWtfcHl0aG9uJywgJy1waCcsICc3LjAnLCAnLXRuJywgJzgnLCAnLW1hJywgJzIwMCcsICctbWV0YWxfYmluZGluZycsICctaW1hZScsICc8aW5maWxlLm1hZT4nLCAnLW9tYWUnLCAnPG91dGZpbGUubWFlPic=

> <r_lp_tautomer_probability>
1

> <r_epik_Ionization_Penalty>
0.000992612

> <r_epik_Ionization_Penalty_Charging>
0

> <r_epik_Ionization_Penalty_Neutral>
0.000992612

> <r_epik_State_Penalty>
-0

> <r_epik_Charging_Adjusted_Penalty>
0

> <i_epik_Tot_Q>
0

> <i_epik_Tot_abs_Q>
0

> <r_epik_Metal_State_Penalty>
-0

> <b_epik_Metal_Only>
0

> <s_epik_Chemistry_Notes>
This compound contains an acetal/aminal-like group ( X-CH(R)-Y where X, Y are N, S, or O) that may be acid/base labile, releasing an aldehyde.

> <s_lp_Force_Field>
OPLS_2005

> <r_lp_Energy>
38.4634

> <b_lp_Chiralities_Consistent>
1

> <s_lp_Variant>
AV-unprocessed.smi:287-24

> <Gold.Version>
5.8.1

> <Gold.Id.Protein>
6NUR|6NUR_protein|mol2

> <Gold.PLP.Fitness>
53.9658

> <Gold.PLP.PLP>
-43.1524

> <Gold.PLP.part.hbond>
-7.5677

> <Gold.PLP.part.metal>
0.0000

> <Gold.PLP.part.buried>
-6.3758

> <Gold.PLP.part.nonpolar>
-29.2125

> <Gold.PLP.part.repulsive>
0.2444

> <Gold.PLP.ligand.clash>
0.0000

> <Gold.PLP.ligand.torsion>
0.7408

> <Gold.PLP.Chemscore.Hbond>
4.0106

> <Gold.PLP.Chemscore.CHOScore>
0.0000

> <Gold.PLP.Chemscore.Metal>
0.0000

> <Gold.Chemscore.Hbonds>
donor molecule, donor type, donor heavy atom, donor atom, acceptor molecule, acceptor atom, score
      L1  H    23    50       P1 10175  0.43
      L1  H    25    51       P1  8028  1.00
      L1  H    27    52       P1  7957  1.00
      P1  H  6934  6947       L1     7  0.74
      P1  H  7989  7998       L1    27  0.83

> <Gold.PLP.Chemscore.Internal.Correction>
0.2632

> <Gold.Rescore>
     Score         DG    S(hbond)    S(metal)    S(lipo)     H(rot)  DE(clash)    DE(int)     intcor
      8.50     -10.74       2.77        0.00      81.05       5.27       0.01       2.23       ----

> <Gold.Chemscore.Fitness>
8.5027

> <Gold.Chemscore.DG>
-10.7436

> <Gold.Chemscore.ZeroCoef>
-5.4800

> <Gold.Chemscore.Hbond>
2.7738

> <Gold.Chemscore.Metal>
0.0000

> <Gold.Chemscore.Lipo>
81.0505

> <Gold.Chemscore.Internal_Hbond>
0.0000

> <Gold.Chemscore.DEClash>
0.0122

> <Gold.Chemscore.DEInternal>
2.2287

> <Gold.Chemscore.Rot>
5.2672

> <Gold.Chemscore.Internal.Correction>
   9.000000E+99

> <Gold.Chemscore.Hbonds>
donor molecule, donor type, donor heavy atom, donor atom, acceptor molecule, acceptor atom, score
      L1  H    23    50       P1 10175  0.04
      L1  H    25    51       P1  8028  1.00
      L1  H    27    52       P1  7957  0.98
      P1  H  6934  6947       L1     7  0.19
      P1  H  7989  7998       L1    27  0.20

> <Gold.Chemscore.Hbond.Weighted>
-9.2646

> <Gold.Chemscore.Metal.Weighted>
-0.0000

> <Gold.Chemscore.Lipo.Weighted>
-9.4829

> <Gold.Chemscore.Internal_Hbond.Weighted>
0.0000

> <Gold.Chemscore.DEClash.Weighted>
0.0122

> <Gold.Chemscore.DEInternal.Weighted>
2.2287

> <Gold.Chemscore.Rot.Weighted>
13.4839

> <Gold.Chemscore.Internal.Correction.Weighted>
   9.000000E+99

> <Gold.Protein.RotatedTorsions>
[ 6907 6896 6895 6894 ] final  -35.04 input  -60.11 | X-H torsion
[ 7974 7965 7964 7962 ] final -162.28 input  175.53 | X-H torsion
[ 8008 7997 7996 7995 ] final -160.57 input   59.86 | X-H torsion
[ 10167 10162 10161 10158 ] final   75.41 input  -65.29 | X-H torsion
[ 10718 10713 10712 10709 ] final  161.10 input   66.30 | X-H torsion
[ 10763 10752 10751 10750 ] final -162.02 input  -60.55 | X-H torsion
[ 11005 11000 10999 10996 ] final  -64.75 input  -57.11 | X-H torsion

> <Gold.Protein.ActiveResidues>
 VAL166  LYS551  ARG553  GLY616  TRP617  ASP618  TYR619  PRO620  LYS621  CYS622 
 ASP623  PHE694  ASN695  SER759  ASP760  ASP761  ALA762  ILE779  LEU786  VAL792 
 PHE793  MET794  SER795  GLU796  ALA797  LYS798  CYS799  TRP800  GLU811  SER814 

> <Gold.Protein.RotatedAtoms>
  151.0449  134.9633  159.8181 H   0  0  0  0  0  0  0  0  0  0  0  0  # atno 6907 bound_to 6896
  152.5371  134.2610  159.8945 H   0  0  0  0  0  0  0  0  0  0  0  0  # atno 6908 bound_to 6896
  151.2624  133.4253  159.2650 H   0  0  0  0  0  0  0  0  0  0  0  0  # atno 6909 bound_to 6896
  144.7362  140.3275  143.6159 H   0  0  0  0  0  0  0  0  0  0  0  0  # atno 7974 bound_to 7965
  155.7794  140.0863  157.2067 H   0  0  0  0  0  0  0  0  0  0  0  0  # atno 8008 bound_to 7997
  154.3991  140.1510  156.3092 H   0  0  0  0  0  0  0  0  0  0  0  0  # atno 8009 bound_to 7997
  155.8669  140.3427  155.5797 H   0  0  0  0  0  0  0  0  0  0  0  0  # atno 8010 bound_to 7997
  140.0032  144.5670  150.7720 H   0  0  0  0  0  0  0  0  0  0  0  0  # atno 10167 bound_to 10162
  157.1412  131.0541  151.2325 H   0  0  0  0  0  0  0  0  0  0  0  0  # atno 10718 bound_to 10713
  154.7252  135.3034  154.8983 H   0  0  0  0  0  0  0  0  0  0  0  0  # atno 10763 bound_to 10752
  153.9843  135.6726  153.4755 H   0  0  0  0  0  0  0  0  0  0  0  0  # atno 10764 bound_to 10752
  153.0868  135.4980  154.8532 H   0  0  0  0  0  0  0  0  0  0  0  0  # atno 10765 bound_to 10752
  141.1434  133.6670  156.5881 H   0  0  0  0  0  0  0  0  0  0  0  0  # atno 11005 bound_to 11000
  145.7506  139.1792  143.2324 LP  0  0  0  0  0  0  0  0  0  0  0  0  # atno 17320 bound_to 7965
  146.1064  140.7482  142.9524 LP  0  0  0  0  0  0  0  0  0  0  0  0  # atno 17321 bound_to 7965
  140.7410  143.2813  151.3591 LP  0  0  0  0  0  0  0  0  0  0  0  0  # atno 17342 bound_to 10162
  139.6257  144.0819  152.2432 LP  0  0  0  0  0  0  0  0  0  0  0  0  # atno 17343 bound_to 10162
  157.4305  130.7488  149.6986 LP  0  0  0  0  0  0  0  0  0  0  0  0  # atno 17370 bound_to 10713
  155.9788  130.4047  150.3625 LP  0  0  0  0  0  0  0  0  0  0  0  0  # atno 17371 bound_to 10713
  140.3785  134.7544  157.4645 LP  0  0  0  0  0  0  0  0  0  0  0  0  # atno 17394 bound_to 11000
  140.0656  134.5934  155.8699 LP  0  0  0  0  0  0  0  0  0  0  0  0  # atno 17395 bound_to 11000

$$$$
