#       Name:                AV-unprocessed.smi:315
#       Creating user name   scv26
#       Creation time:       Thu Mar 26 22:22:31 2020


#       File generated by GOLD software.
#

@<TRIPOS>MOLECULE
AV-unprocessed.smi:315
    52    54     1
SMALL
NO_CHARGES


@<TRIPOS>ATOM
      1 ****        -1.8021   3.9565  -0.5310 C.3            1 S1                 0.0000
      2 ****        -0.3264   4.3621  -0.5585 C.3            1 S1                 0.0000
      3 ****         0.4665   3.1843  -0.4570 O.3            1 S1                 0.0000
      4 ****         1.8433   3.3029  -0.4817 C.ar           1 S1                 0.0000
      5 ****         2.3855   4.5399  -0.6059 N.ar           1 S1                 0.0000
      6 ****         3.7299   4.6511  -0.6282 C.ar           1 S1                 0.0000
      7 ****         4.5966   3.5475  -0.5217 C.ar           1 S1                 0.0000
      8 ****         4.0358   2.2632  -0.3922 C.ar           1 S1                 0.0000
      9 ****         2.6265   2.1303  -0.3819 C.ar           1 S1                 0.0000
     10 ****         1.9462   0.8913  -0.2404 N.am           1 S1                 0.0000
     11 ****         2.3788  -0.3538  -0.5147 C.2            1 S1                 0.0000
     12 ****         3.5148  -0.6391  -0.8853 O.2            1 S1                 0.0000
     13 ****         1.4376  -1.3018  -0.3602 N.am           1 S1                 0.0000
     14 ****         1.5736  -2.7439  -0.5735 C.3            1 S1                 0.0000
     15 ****         2.4097  -3.4687   0.5017 C.3            1 S1                 0.0000
     16 ****         1.6994  -4.8162   0.7358 C.3            1 S1                 0.0000
     17 ****         0.5991  -4.8524  -0.2462 N.4            1 S1                 1.0000
     18 ****        -0.5617  -5.7127   0.0710 C.3            1 S1                 0.0000
     19 ****        -1.5576  -5.6757  -1.1060 C.3            1 S1                 0.0000
     20 ****        -1.9453  -4.2310  -1.4836 C.3            1 S1                 0.0000
     21 ****        -0.6940  -3.3609  -1.7113 C.3            1 S1                 0.0000
     22 ****         0.2221  -3.4504  -0.4802 C.3            1 S1                 0.0000
     23 ****        -2.4482   4.8312  -0.6064 H              1 S1                 0.0000
     24 ****        -2.0483   3.4372   0.3955 H              1 S1                 0.0000
     25 ****        -2.0401   3.2922  -1.3622 H              1 S1                 0.0000
     26 ****        -0.1097   4.8904  -1.4884 H              1 S1                 0.0000
     27 ****        -0.1144   5.0362   0.2728 H              1 S1                 0.0000
     28 ****         4.1270   5.6503  -0.7282 H              1 S1                 0.0000
     29 ****         5.6678   3.6833  -0.5347 H              1 S1                 0.0000
     30 ****         4.6941   1.4149  -0.2903 H              1 S1                 0.0000
     31 ****         0.9700   0.9699   0.0040 H              1 S1                 0.0000
     32 ****         0.5270  -0.9835  -0.0611 H              1 S1                 0.0000
     33 ****         2.0035  -2.9367  -1.5587 H              1 S1                 0.0000
     34 ****         3.4400  -3.6071   0.1719 H              1 S1                 0.0000
     35 ****         2.4379  -2.9009   1.4330 H              1 S1                 0.0000
     36 ****         2.3673  -5.6674   0.6004 H              1 S1                 0.0000
     37 ****         1.2994  -4.8563   1.7504 H              1 S1                 0.0000
     38 ****        -0.2235  -6.7343   0.2476 H              1 S1                 0.0000
     39 ****        -1.0411  -5.3673   0.9882 H              1 S1                 0.0000
     40 ****        -1.1092  -6.1641  -1.9723 H              1 S1                 0.0000
     41 ****        -2.4508  -6.2498  -0.8585 H              1 S1                 0.0000
     42 ****        -2.5705  -4.2309  -2.3768 H              1 S1                 0.0000
     43 ****        -2.5476  -3.7975  -0.6841 H              1 S1                 0.0000
     44 ****        -0.1634  -3.7008  -2.6019 H              1 S1                 0.0000
     45 ****        -0.9844  -2.3259  -1.8945 H              1 S1                 0.0000
     46 ****        -0.3139  -3.0843   0.3989 H              1 S1                 0.0000
     47 ****         0.9972  -5.1896  -1.1110 H              1 S1                 0.0000
     48 ****         0.2092   2.5905  -1.2194 LP             1 S1                 0.0000
     49 ****         0.2254   2.7415   0.4065 LP             1 S1                 0.0000
     50 ****         1.8032   5.3496  -0.6792 LP             1 S1                 0.0000
     51 ****         4.1979   0.0816  -1.0036 LP             1 S1                 0.0000
     52 ****         3.7564  -1.5920  -1.0687 LP             1 S1                 0.0000
@<TRIPOS>BOND
    1    1    2 1     
    2    1   23 1     
    3    1   24 1     
    4    1   25 1     
    5    2    3 1     
    6    2   26 1     
    7    2   27 1     
    8    3    4 1     
    9    4    9 ar    
   10    4    5 ar    
   11    5    6 ar    
   12    6    7 ar    
   13    6   28 1     
   14    7    8 ar    
   15    7   29 1     
   16    8    9 ar    
   17    8   30 1     
   18    9   10 1     
   19   10   11 am    
   20   10   31 1     
   21   11   12 2     
   22   11   13 am    
   23   13   14 1     
   24   13   32 1     
   25   14   22 1     
   26   14   15 1     
   27   14   33 1     
   28   15   16 1     
   29   15   34 1     
   30   15   35 1     
   31   16   17 1     
   32   16   36 1     
   33   16   37 1     
   34   17   22 1     
   35   17   18 1     
   36   17   47 1     
   37   18   19 1     
   38   18   38 1     
   39   18   39 1     
   40   19   20 1     
   41   19   40 1     
   42   19   41 1     
   43   20   21 1     
   44   20   42 1     
   45   20   43 1     
   46   21   22 1     
   47   21   44 1     
   48   21   45 1     
   49   22   46 1     
   50    3   48 1     
   51    3   49 1     
   52    5   50 1     
   53   12   51 1     
   54   12   52 1     
@<TRIPOS>SUBSTRUCTURE
      1 S1             1
@<TRIPOS>SET
LONE_PAIRS      STATIC     ATOMS    <user>   **** ""
5 48 49 50 51 52
DONOR_HYDROGENS      STATIC     ATOMS    <user>   **** ""
3 31 32 47
ATOM$BLUE        STATIC     ATOMS    COLORGROUP SYSTEM
5 48 49 50 51 52
ATOM$RED        STATIC     ATOMS    COLORGROUP SYSTEM
3 31 32 47
