AV-unprocessed.smi:1292|AV-procd|sdf|5396|dock8
  -GOLD-   22720 4553D 1   1.00000     0.00000
 Structure written by MMmdl.
 40 41  0  0  0  0  0  0  0  0  1 V2000
  146.8749  138.9680  152.3788 C   0  0  0  0  0  0  0  0  0  0  0  0
  147.4131  140.1010  153.2632 C   0  0  1  0  0  0  0  0  0  0  0  0
  146.4556  141.3029  153.2813 C   0  0  0  0  0  0  0  0  0  0  0  0
  147.0277  142.4272  154.1537 C   0  0  0  0  0  0  0  0  0  0  0  0
  147.3700  141.9370  155.5713 C   0  0  0  0  0  0  0  0  0  0  0  0
  148.1831  140.7030  155.5555 N   0  0  0  0  0  0  0  0  0  0  0  0
  149.8377  140.6879  156.0922 S   0  0  0  0  0  0  0  0  0  0  0  0
  149.9643  139.8146  157.2693 O   0  0  0  0  0  0  0  0  0  0  0  0
  150.6907  140.4973  154.9094 O   0  0  0  0  0  0  0  0  0  0  0  0
  150.0181  142.3303  156.5927 N   0  0  0  0  0  0  0  0  0  0  0  0
  150.1081  142.7196  158.0010 C   0  0  0  0  0  0  0  0  0  0  0  0
  151.3533  143.5861  158.2449 C   0  0  0  0  0  0  0  0  0  0  0  0
  152.0299  143.2795  159.5699 C   0  0  0  0  0  0  0  0  0  0  0  0
  151.9429  144.1828  160.6511 C   0  0  0  0  0  0  0  0  0  0  0  0
  152.5666  143.8379  161.8655 C   0  0  0  0  0  0  0  0  0  0  0  0
  153.2498  142.6097  161.9522 C   0  0  0  0  0  0  0  0  0  0  0  0
  153.2808  141.7784  160.8149 C   0  0  0  0  0  0  0  0  0  0  0  0
  152.6859  142.0994  159.6456 N   0  0  0  0  0  0  0  0  0  0  0  0
  147.6765  139.6129  154.7008 C   0  0  0  0  0  0  0  0  0  0  0  0
  145.9221  138.5916  152.7521 H   0  0  0  0  0  0  0  0  0  0  0  0
  147.5738  138.1317  152.3450 H   0  0  0  0  0  0  0  0  0  0  0  0
  146.7205  139.3092  151.3548 H   0  0  0  0  0  0  0  0  0  0  0  0
  148.3607  140.4242  152.8319 H   0  0  0  0  0  0  0  0  0  0  0  0
  146.2901  141.6715  152.2684 H   0  0  0  0  0  0  0  0  0  0  0  0
  145.4816  140.9978  153.6663 H   0  0  0  0  0  0  0  0  0  0  0  0
  147.9108  142.8497  153.6810 H   0  0  0  0  0  0  0  0  0  0  0  0
  146.3081  143.2439  154.2157 H   0  0  0  0  0  0  0  0  0  0  0  0
  147.8761  142.7238  156.1293 H   0  0  0  0  0  0  0  0  0  0  0  0
  146.4466  141.7249  156.1110 H   0  0  0  0  0  0  0  0  0  0  0  0
  149.5760  143.0124  155.9769 H   0  0  0  0  0  0  0  0  0  0  0  0
  149.2149  143.2751  158.2784 H   0  0  0  0  0  0  0  0  0  0  0  0
  150.1483  141.8279  158.6264 H   0  0  0  0  0  0  0  0  0  0  0  0
  152.0724  143.4264  157.4404 H   0  0  0  0  0  0  0  0  0  0  0  0
  151.0869  144.6433  158.2061 H   0  0  0  0  0  0  0  0  0  0  0  0
  151.4043  145.1143  160.5557 H   0  0  0  0  0  0  0  0  0  0  0  0
  152.5186  144.5020  162.7159 H   0  0  0  0  0  0  0  0  0  0  0  0
  153.7375  142.3114  162.8685 H   0  0  0  0  0  0  0  0  0  0  0  0
  153.7949  140.8292  160.8459 H   0  0  0  0  0  0  0  0  0  0  0  0
  146.7560  139.2275  155.1409 H   0  0  0  0  0  0  0  0  0  0  0  0
  148.3872  138.7862  154.6952 H   0  0  0  0  0  0  0  0  0  0  0  0
  1  2  1  0  0  0  0
  1 20  1  0  0  0  0
  1 21  1  0  0  0  0
  1 22  1  0  0  0  0
  2 19  1  0  0  0  0
  2  3  1  0  0  0  0
  2 23  1  0  0  0  0
  3  4  1  0  0  0  0
  3 24  1  0  0  0  0
  3 25  1  0  0  0  0
  4  5  1  0  0  0  0
  4 26  1  0  0  0  0
  4 27  1  0  0  0  0
  5  6  1  0  0  0  0
  5 28  1  0  0  0  0
  5 29  1  0  0  0  0
  6  7  1  0  0  0  0
  6 19  1  0  0  0  0
  7  8  2  0  0  0  0
  7  9  2  0  0  0  0
  7 10  1  0  0  0  0
 10 11  1  0  0  0  0
 10 30  1  0  0  0  0
 11 12  1  0  0  0  0
 11 31  1  0  0  0  0
 11 32  1  0  0  0  0
 12 13  1  0  0  0  0
 12 33  1  0  0  0  0
 12 34  1  0  0  0  0
 13 18  1  0  0  0  0
 13 14  2  0  0  0  0
 14 15  1  0  0  0  0
 14 35  1  0  0  0  0
 15 16  2  0  0  0  0
 15 36  1  0  0  0  0
 16 17  1  0  0  0  0
 16 37  1  0  0  0  0
 17 18  2  0  0  0  0
 17 38  1  0  0  0  0
 19 39  1  0  0  0  0
 19 40  1  0  0  0  0
M  END
> <s_m_source_file>
AV-unprocessed.smi

> <i_m_source_file_index>
1292

> <i_lp_mmshare_version>
43012

> <i_f3d_flags>
0

> <s_epik_input>
W0NIM11bQ0BASF0xW0NIMl1bQ0gyXVtDSDJdTihbQ0gyXTEpUyg9TykoPU8pW05IXVtDSDJdW0NIMl1jMltjSF1bY0hdW2NIXVtjSF1uMg==

> <s_epik_cmdline>
J2VwaWtfcHl0aG9uJywgJy1waCcsICc3LjAnLCAnLXRuJywgJzgnLCAnLW1hJywgJzIwMCcsICctbWV0YWxfYmluZGluZycsICctaW1hZScsICc8aW5maWxlLm1hZT4nLCAnLW9tYWUnLCAnPG91dGZpbGUubWFlPic=

> <r_epik_Ionization_Penalty>
0.0252758

> <r_epik_Ionization_Penalty_Charging>
0

> <r_epik_Ionization_Penalty_Neutral>
0.0252758

> <r_epik_State_Penalty>
0.0138562

> <r_epik_Charging_Adjusted_Penalty>
0.0138562

> <i_epik_Tot_Q>
0

> <i_epik_Tot_abs_Q>
0

> <r_epik_Metal_State_Penalty>
0.204365

> <b_epik_Metal_Only>
0

> <s_lp_Force_Field>
OPLS_2005

> <r_lp_Energy>
8.19125

> <b_lp_Chiralities_Consistent>
1

> <s_lp_Variant>
AV-unprocessed.smi:1292-2

> <Gold.Version>
5.8.1

> <Gold.Id.Protein>
6NUR|6NUR_protein|mol2

> <Gold.PLP.Fitness>
43.3833

> <Gold.PLP.PLP>
-38.7690

> <Gold.PLP.part.hbond>
-2.0000

> <Gold.PLP.part.metal>
0.0000

> <Gold.PLP.part.buried>
-0.2665

> <Gold.PLP.part.nonpolar>
-35.0883

> <Gold.PLP.part.repulsive>
0.1290

> <Gold.PLP.ligand.clash>
0.0000

> <Gold.PLP.ligand.torsion>
2.1868

> <Gold.PLP.Chemscore.Hbond>
2.0000

> <Gold.PLP.Chemscore.CHOScore>
0.0000

> <Gold.PLP.Chemscore.Metal>
0.0000

> <Gold.Chemscore.Hbonds>
donor molecule, donor type, donor heavy atom, donor atom, acceptor molecule, acceptor atom, score
      L1  H    10    30       P1  8028  1.00
      P1  H  7989  7998       L1     9  1.00

> <Gold.PLP.Chemscore.Internal.Correction>
2.9878

> <Gold.Rescore>
     Score         DG    S(hbond)    S(metal)    S(lipo)     H(rot)  DE(clash)    DE(int)     intcor
     19.21     -21.75       1.94        0.00     112.32       1.30       0.35       2.19       ----

> <Gold.Chemscore.Fitness>
19.2124

> <Gold.Chemscore.DG>
-21.7529

> <Gold.Chemscore.ZeroCoef>
-5.4800

> <Gold.Chemscore.Hbond>
1.9370

> <Gold.Chemscore.Metal>
0.0000

> <Gold.Chemscore.Lipo>
112.3170

> <Gold.Chemscore.Internal_Hbond>
0.0000

> <Gold.Chemscore.DEClash>
0.3515

> <Gold.Chemscore.DEInternal>
2.1889

> <Gold.Chemscore.Rot>
1.3039

> <Gold.Chemscore.Internal.Correction>
   9.000000E+99

> <Gold.Chemscore.Hbonds>
donor molecule, donor type, donor heavy atom, donor atom, acceptor molecule, acceptor atom, score
      L1  H    10    30       P1  8028  0.95
      P1  H  7989  7998       L1     9  0.96

> <Gold.Chemscore.Hbond.Weighted>
-6.4697

> <Gold.Chemscore.Metal.Weighted>
-0.0000

> <Gold.Chemscore.Lipo.Weighted>
-13.1411

> <Gold.Chemscore.Internal_Hbond.Weighted>
0.0000

> <Gold.Chemscore.DEClash.Weighted>
0.3515

> <Gold.Chemscore.DEInternal.Weighted>
2.1889

> <Gold.Chemscore.Rot.Weighted>
3.3379

> <Gold.Chemscore.Internal.Correction.Weighted>
   9.000000E+99

> <Gold.Protein.RotatedTorsions>
[ 6907 6896 6895 6894 ] final  -83.44 input  -60.11 | X-H torsion
[ 7974 7965 7964 7962 ] final    6.45 input  175.53 | X-H torsion
[ 8008 7997 7996 7995 ] final -156.21 input   59.86 | X-H torsion
[ 10167 10162 10161 10158 ] final -129.72 input  -65.29 | X-H torsion
[ 10718 10713 10712 10709 ] final   23.61 input   66.30 | X-H torsion
[ 10763 10752 10751 10750 ] final  159.89 input  -60.55 | X-H torsion
[ 11005 11000 10999 10996 ] final   77.81 input  -57.11 | X-H torsion

> <Gold.Protein.ActiveResidues>
 VAL166  LYS551  ARG553  GLY616  TRP617  ASP618  TYR619  PRO620  LYS621  CYS622 
 ASP623  PHE694  ASN695  SER759  ASP760  ASP761  ALA762  ILE779  LEU786  VAL792 
 PHE793  MET794  SER795  GLU796  ALA797  LYS798  CYS799  TRP800  GLU811  SER814 

> <Gold.Protein.RotatedAtoms>
  150.6885  134.3511  159.4909 H   0  0  0  0  0  0  0  0  0  0  0  0  # atno 6907 bound_to 6896
  152.1352  134.9102  160.0566 H   0  0  0  0  0  0  0  0  0  0  0  0  # atno 6908 bound_to 6896
  152.0257  133.3882  159.4313 H   0  0  0  0  0  0  0  0  0  0  0  0  # atno 6909 bound_to 6896
  146.2434  140.0232  142.8396 H   0  0  0  0  0  0  0  0  0  0  0  0  # atno 7974 bound_to 7965
  155.7137  140.0781  157.2360 H   0  0  0  0  0  0  0  0  0  0  0  0  # atno 8008 bound_to 7997
  154.4055  140.1625  156.2378 H   0  0  0  0  0  0  0  0  0  0  0  0  # atno 8009 bound_to 7997
  155.9260  140.3394  155.6213 H   0  0  0  0  0  0  0  0  0  0  0  0  # atno 8010 bound_to 7997
  139.9368  143.6209  152.2515 H   0  0  0  0  0  0  0  0  0  0  0  0  # atno 10167 bound_to 10162
  157.1684  130.6748  149.6069 H   0  0  0  0  0  0  0  0  0  0  0  0  # atno 10718 bound_to 10713
  154.2388  135.2775  155.2862 H   0  0  0  0  0  0  0  0  0  0  0  0  # atno 10763 bound_to 10752
  154.5562  135.5660  153.6970 H   0  0  0  0  0  0  0  0  0  0  0  0  # atno 10764 bound_to 10752
  153.0004  135.6286  154.2532 H   0  0  0  0  0  0  0  0  0  0  0  0  # atno 10765 bound_to 10752
  139.9239  134.7713  156.1569 H   0  0  0  0  0  0  0  0  0  0  0  0  # atno 11005 bound_to 11000
  145.1222  140.9469  143.4593 LP  0  0  0  0  0  0  0  0  0  0  0  0  # atno 17320 bound_to 7965
  145.0470  139.3213  143.5948 LP  0  0  0  0  0  0  0  0  0  0  0  0  # atno 17321 bound_to 7965
  139.6737  144.7659  151.1735 LP  0  0  0  0  0  0  0  0  0  0  0  0  # atno 17342 bound_to 10162
  140.7622  143.5827  150.8878 LP  0  0  0  0  0  0  0  0  0  0  0  0  # atno 17343 bound_to 10162
  155.9742  130.4687  150.6370 LP  0  0  0  0  0  0  0  0  0  0  0  0  # atno 17370 bound_to 10713
  157.4066  131.0817  151.1259 LP  0  0  0  0  0  0  0  0  0  0  0  0  # atno 17371 bound_to 10713
  141.0781  133.6766  156.2279 LP  0  0  0  0  0  0  0  0  0  0  0  0  # atno 17394 bound_to 11000
  140.6394  134.5181  157.5568 LP  0  0  0  0  0  0  0  0  0  0  0  0  # atno 17395 bound_to 11000

$$$$
