AV-unprocessed.smi:561|AV-procd|sdf|2936|dock1
  -GOLD-   2262023433D 1   1.00000     0.00000
 Structure written by MMmdl.
 37 38  0  0  0  0  0  0  0  0  2 V2000
  146.9667  141.3025  154.1142 C   0  0  0  0  0  0  0  0  0  0  0  0
  148.3388  140.6160  154.1082 C   0  0  2  0  0  0  0  0  0  0  0  0
  148.1977  139.0790  154.1180 C   0  0  0  0  0  0  0  0  0  0  0  0
  147.0822  138.6008  153.2947 N   0  0  0  0  0  0  0  0  0  0  0  0
  146.1792  137.6175  153.6088 C   0  0  0  0  0  0  0  0  0  0  0  0
  145.3315  137.5089  152.5369 C   0  0  0  0  0  0  0  0  0  0  0  0
  145.7498  138.4325  151.6167 N   0  3  0  0  0  0  0  0  0  0  0  0
  146.8120  139.0983  152.0810 C   0  0  0  0  0  0  0  0  0  0  0  0
  149.1061  141.0767  155.2647 N   0  0  0  0  0  0  0  0  0  0  0  0
  150.3768  140.7376  155.5531 C   0  0  0  0  0  0  0  0  0  0  0  0
  151.0474  139.9798  154.8515 O   0  0  0  0  0  0  0  0  0  0  0  0
  150.9404  141.3308  156.7929 C   0  0  0  0  0  0  0  0  0  0  0  0
  151.0259  142.6182  156.9150 N   0  0  0  0  0  0  0  0  0  0  0  0
  151.5307  143.2153  158.0524 N   0  0  0  0  0  0  0  0  0  0  0  0
  151.2740  144.6536  158.1221 C   0  0  0  0  0  0  0  0  0  0  0  0
  152.2293  142.5616  159.0170 C   0  0  0  0  0  0  0  0  0  0  0  0
  152.6717  143.0971  160.0330 O   0  0  0  0  0  0  0  0  0  0  0  0
  152.4879  141.0705  158.7790 C   0  0  0  0  0  0  0  0  0  0  0  0
  151.3907  140.4187  157.9151 C   0  0  0  0  0  0  0  0  0  0  0  0
  146.3768  141.0064  153.2462 H   0  0  0  0  0  0  0  0  0  0  0  0
  147.0699  142.3879  154.0856 H   0  0  0  0  0  0  0  0  0  0  0  0
  146.3961  141.0450  155.0072 H   0  0  0  0  0  0  0  0  0  0  0  0
  148.8416  140.9165  153.1873 H   0  0  0  0  0  0  0  0  0  0  0  0
  149.1118  138.6036  153.7592 H   0  0  0  0  0  0  0  0  0  0  0  0
  148.0317  138.7179  155.1341 H   0  0  0  0  0  0  0  0  0  0  0  0
  146.2107  137.0779  154.5445 H   0  0  0  0  0  0  0  0  0  0  0  0
  144.4849  136.8606  152.3645 H   0  0  0  0  0  0  0  0  0  0  0  0
  147.3511  139.8775  151.5721 H   0  0  0  0  0  0  0  0  0  0  0  0
  148.6363  141.7079  155.8982 H   0  0  0  0  0  0  0  0  0  0  0  0
  151.6553  145.1276  159.0274 H   0  0  0  0  0  0  0  0  0  0  0  0
  150.2005  144.8437  158.0846 H   0  0  0  0  0  0  0  0  0  0  0  0
  151.7332  145.1578  157.2712 H   0  0  0  0  0  0  0  0  0  0  0  0
  153.4522  140.9810  158.2776 H   0  0  0  0  0  0  0  0  0  0  0  0
  152.5798  140.5486  159.7321 H   0  0  0  0  0  0  0  0  0  0  0  0
  150.5322  140.1592  158.5357 H   0  0  0  0  0  0  0  0  0  0  0  0
  151.7767  139.4804  157.5146 H   0  0  0  0  0  0  0  0  0  0  0  0
  145.3198  138.5901  150.7138 H   0  0  0  0  0  0  0  0  0  0  0  0
  1  2  1  0  0  0  0
  1 20  1  0  0  0  0
  1 21  1  0  0  0  0
  1 22  1  0  0  0  0
  2  3  1  0  0  0  0
  2  9  1  0  0  0  0
  2 23  1  0  0  0  0
  3  4  1  0  0  0  0
  3 24  1  0  0  0  0
  3 25  1  0  0  0  0
  4  8  1  0  0  0  0
  4  5  1  0  0  0  0
  5  6  2  0  0  0  0
  5 26  1  0  0  0  0
  6  7  1  0  0  0  0
  6 27  1  0  0  0  0
  7  8  2  0  0  0  0
  7 37  1  0  0  0  0
  8 28  1  0  0  0  0
  9 10  1  0  0  0  0
  9 29  1  0  0  0  0
 10 11  2  0  0  0  0
 10 12  1  0  0  0  0
 12 19  1  0  0  0  0
 12 13  2  0  0  0  0
 13 14  1  0  0  0  0
 14 15  1  0  0  0  0
 14 16  1  0  0  0  0
 15 30  1  0  0  0  0
 15 31  1  0  0  0  0
 15 32  1  0  0  0  0
 16 17  2  0  0  0  0
 16 18  1  0  0  0  0
 18 19  1  0  0  0  0
 18 33  1  0  0  0  0
 18 34  1  0  0  0  0
 19 35  1  0  0  0  0
 19 36  1  0  0  0  0
M  CHG  1   7   1
M  END
> <s_m_source_file>
AV-unprocessed.smi

> <i_m_source_file_index>
561

> <i_lp_mmshare_version>
43012

> <i_f3d_flags>
0

> <s_epik_input>
W2NIXTFuW2NIXVtjSF1uMVtDSDJdW0NAQEhdKFtDSDNdKVtOSF1DKD1PKUMyPU5OKFtDSDNdKUMoPU8pW0NIMl1bQ0gyXTI=

> <s_epik_cmdline>
J2VwaWtfcHl0aG9uJywgJy1waCcsICc3LjAnLCAnLXRuJywgJzgnLCAnLW1hJywgJzIwMCcsICctbWV0YWxfYmluZGluZycsICctaW1hZScsICc8aW5maWxlLm1hZT4nLCAnLW9tYWUnLCAnPG91dGZpbGUubWFlPic=

> <r_lp_tautomer_probability>
1

> <r_epik_Ionization_Penalty>
0.358595

> <r_epik_Ionization_Penalty_Charging>
0

> <r_epik_Ionization_Penalty_Neutral>
0.358595

> <r_epik_State_Penalty>
0.355181

> <r_epik_Charging_Adjusted_Penalty>
0.355181

> <i_epik_Tot_Q>
1

> <i_epik_Tot_abs_Q>
1

> <r_epik_Metal_State_Penalty>
0.718565

> <b_epik_Metal_Only>
0

> <s_epik_Chemistry_Notes>
This compound has an imine and may undergo hydrolysis.

> <s_lp_Force_Field>
OPLS_2005

> <r_lp_Energy>
20.1569

> <b_lp_Chiralities_Consistent>
1

> <s_lp_Variant>
AV-unprocessed.smi:561-1

> <Gold.Version>
5.8.1

> <Gold.Id.Protein>
6NUR|6NUR_protein|mol2

> <Gold.PLP.Fitness>
42.8963

> <Gold.PLP.PLP>
-37.0204

> <Gold.PLP.part.hbond>
-3.0000

> <Gold.PLP.part.metal>
0.0000

> <Gold.PLP.part.buried>
-5.7108

> <Gold.PLP.part.nonpolar>
-29.4651

> <Gold.PLP.part.repulsive>
0.3495

> <Gold.PLP.ligand.clash>
0.0000

> <Gold.PLP.ligand.torsion>
1.5876

> <Gold.PLP.Chemscore.Hbond>
2.0000

> <Gold.PLP.Chemscore.CHOScore>
1.0000

> <Gold.PLP.Chemscore.Metal>
0.0000

> <Gold.Chemscore.Hbonds>
donor molecule, donor type, donor heavy atom, donor atom, acceptor molecule, acceptor atom, score
      L1  H     7    37       P1 10171  0.94
      P1  H  7989  7998       L1    11  1.00
      L1  C     8    28       P1  7957  0.99

> <Gold.PLP.Chemscore.Internal.Correction>
0.0512

> <Gold.Rescore>
     Score         DG    S(hbond)    S(metal)    S(lipo)     H(rot)  DE(clash)    DE(int)     intcor
     12.50     -13.90       1.96        0.00      54.62       1.76       0.01       1.39       ----

> <Gold.Chemscore.Fitness>
12.4957

> <Gold.Chemscore.DG>
-13.8999

> <Gold.Chemscore.ZeroCoef>
-5.4800

> <Gold.Chemscore.Hbond>
1.9556

> <Gold.Chemscore.Metal>
0.0000

> <Gold.Chemscore.Lipo>
54.6228

> <Gold.Chemscore.Internal_Hbond>
0.0000

> <Gold.Chemscore.DEClash>
0.0104

> <Gold.Chemscore.DEInternal>
1.3938

> <Gold.Chemscore.Rot>
1.7589

> <Gold.Chemscore.Internal.Correction>
   9.000000E+99

> <Gold.Chemscore.Hbonds>
donor molecule, donor type, donor heavy atom, donor atom, acceptor molecule, acceptor atom, score
      L1  H     7    37       P1 10171  0.91
      P1  H  7989  7998       L1    11  0.65

> <Gold.Chemscore.Hbond.Weighted>
-6.5319

> <Gold.Chemscore.Metal.Weighted>
-0.0000

> <Gold.Chemscore.Lipo.Weighted>
-6.3909

> <Gold.Chemscore.Internal_Hbond.Weighted>
0.0000

> <Gold.Chemscore.DEClash.Weighted>
0.0104

> <Gold.Chemscore.DEInternal.Weighted>
1.3938

> <Gold.Chemscore.Rot.Weighted>
4.5028

> <Gold.Chemscore.Internal.Correction.Weighted>
   9.000000E+99

> <Gold.Protein.RotatedTorsions>
[ 6907 6896 6895 6894 ] final   47.26 input  -60.11 | X-H torsion
[ 7974 7965 7964 7962 ] final   62.61 input  175.53 | X-H torsion
[ 8008 7997 7996 7995 ] final  -28.16 input   59.86 | X-H torsion
[ 10167 10162 10161 10158 ] final  106.34 input  -65.29 | X-H torsion
[ 10718 10713 10712 10709 ] final  -88.51 input   66.30 | X-H torsion
[ 10763 10752 10751 10750 ] final  -89.65 input  -60.55 | X-H torsion
[ 11005 11000 10999 10996 ] final -112.90 input  -57.11 | X-H torsion

> <Gold.Protein.ActiveResidues>
 VAL166  LYS551  ARG553  GLY616  TRP617  ASP618  TYR619  PRO620  LYS621  CYS622 
 ASP623  PHE694  ASN695  SER759  ASP760  ASP761  ALA762  ILE779  LEU786  VAL792 
 PHE793  MET794  SER795  GLU796  ALA797  LYS798  CYS799  TRP800  GLU811  SER814 

> <Gold.Protein.RotatedAtoms>
  152.2660  134.7984  160.0422 H   0  0  0  0  0  0  0  0  0  0  0  0  # atno 6907 bound_to 6896
  151.8613  133.3452  159.3713 H   0  0  0  0  0  0  0  0  0  0  0  0  # atno 6908 bound_to 6896
  150.7134  134.5131  159.5661 H   0  0  0  0  0  0  0  0  0  0  0  0  # atno 6909 bound_to 6896
  145.8714  139.3381  143.0760 H   0  0  0  0  0  0  0  0  0  0  0  0  # atno 7974 bound_to 7965
  154.4344  140.1852  156.1046 H   0  0  0  0  0  0  0  0  0  0  0  0  # atno 8008 bound_to 7997
  156.0265  140.3335  155.7068 H   0  0  0  0  0  0  0  0  0  0  0  0  # atno 8009 bound_to 7997
  155.5901  140.0630  157.2751 H   0  0  0  0  0  0  0  0  0  0  0  0  # atno 8010 bound_to 7997
  139.7017  144.7093  151.1174 H   0  0  0  0  0  0  0  0  0  0  0  0  # atno 10167 bound_to 10162
  155.9983  130.4838  150.5031 H   0  0  0  0  0  0  0  0  0  0  0  0  # atno 10718 bound_to 10713
  154.6575  135.5333  153.7976 H   0  0  0  0  0  0  0  0  0  0  0  0  # atno 10763 bound_to 10752
  153.0422  135.6497  154.0923 H   0  0  0  0  0  0  0  0  0  0  0  0  # atno 10764 bound_to 10752
  154.0835  135.2945  155.3265 H   0  0  0  0  0  0  0  0  0  0  0  0  # atno 10765 bound_to 10752
  141.0647  133.9478  157.2601 H   0  0  0  0  0  0  0  0  0  0  0  0  # atno 11005 bound_to 11000
  145.9132  140.9166  143.0443 LP  0  0  0  0  0  0  0  0  0  0  0  0  # atno 17320 bound_to 7965
  144.6726  140.1188  143.7451 LP  0  0  0  0  0  0  0  0  0  0  0  0  # atno 17321 bound_to 7965
  140.7711  143.5414  150.9308 LP  0  0  0  0  0  0  0  0  0  0  0  0  # atno 17342 bound_to 10162
  139.9096  143.6736  152.3117 LP  0  0  0  0  0  0  0  0  0  0  0  0  # atno 17343 bound_to 10162
  157.3013  131.0646  151.2066 LP  0  0  0  0  0  0  0  0  0  0  0  0  # atno 17370 bound_to 10713
  157.3044  130.6859  149.6181 LP  0  0  0  0  0  0  0  0  0  0  0  0  # atno 17371 bound_to 10713
  139.9465  135.0183  156.8867 LP  0  0  0  0  0  0  0  0  0  0  0  0  # atno 17394 bound_to 11000
  140.5798  134.0363  155.7460 LP  0  0  0  0  0  0  0  0  0  0  0  0  # atno 17395 bound_to 11000

$$$$
