AV-unprocessed.smi:1252|AV-procd|sdf|5264|dock9
  -GOLD-   22720 4373D 1   1.00000     0.00000
 Structure written by MMmdl.
 43 44  0  0  0  0  0  0  0  0  1 V2000
  145.5938  135.9835  151.1412 C   0  0  0  0  0  0  0  0  0  0  0  0
  144.9979  134.7531  151.8481 C   0  0  2  0  0  0  0  0  0  0  0  0
  145.7531  134.4016  153.1382 C   0  0  0  0  0  0  0  0  0  0  0  0
  145.1371  134.1771  154.1811 O   0  0  0  0  0  0  0  0  0  0  0  0
  147.0914  134.3564  153.0477 N   0  0  0  0  0  0  0  0  0  0  0  0
  148.0147  134.0229  154.1316 C   0  0  0  0  0  0  0  0  0  0  0  0
  148.2201  132.4882  154.3093 C   0  0  0  0  0  0  0  0  0  0  0  0
  146.8139  131.8528  154.4297 C   0  0  0  0  0  0  0  0  0  0  0  0
  148.8401  131.9650  152.9888 C   0  0  0  0  0  0  0  0  0  0  0  0
  149.1006  132.1805  155.4718 N   0  0  0  0  0  0  0  0  0  0  0  0
  150.4858  132.6473  155.3382 C   0  0  0  0  0  0  0  0  0  0  0  0
  151.3664  132.1888  156.5131 C   0  0  0  0  0  0  0  0  0  0  0  0
  150.8044  132.6428  157.7383 O   0  0  0  0  0  0  0  0  0  0  0  0
  149.4801  132.1636  157.9372 C   0  0  0  0  0  0  0  0  0  0  0  0
  148.5830  132.6189  156.7734 C   0  0  0  0  0  0  0  0  0  0  0  0
  144.9571  133.6059  150.9519 N   0  0  0  0  0  0  0  0  0  0  0  0
  144.0645  133.2462  150.0243 C   0  0  0  0  0  0  0  0  0  0  0  0
  144.3578  132.1098  149.4081 N   0  0  0  0  0  0  0  0  0  0  0  0
  145.5213  131.7963  150.0515 C   0  0  0  0  0  0  0  0  0  0  0  0
  145.9226  132.6564  150.9875 N   0  0  0  0  0  0  0  0  0  0  0  0
  145.6367  136.8422  151.8124 H   0  0  0  0  0  0  0  0  0  0  0  0
  144.9847  136.2689  150.2830 H   0  0  0  0  0  0  0  0  0  0  0  0
  146.6048  135.7935  150.7786 H   0  0  0  0  0  0  0  0  0  0  0  0
  143.9708  135.0017  152.1238 H   0  0  0  0  0  0  0  0  0  0  0  0
  147.5071  134.5506  152.1483 H   0  0  0  0  0  0  0  0  0  0  0  0
  148.9618  134.5179  153.9191 H   0  0  0  0  0  0  0  0  0  0  0  0
  147.6798  134.4738  155.0677 H   0  0  0  0  0  0  0  0  0  0  0  0
  146.2027  132.0894  153.5578 H   0  0  0  0  0  0  0  0  0  0  0  0
  146.2707  132.2169  155.3014 H   0  0  0  0  0  0  0  0  0  0  0  0
  146.8568  130.7659  154.4959 H   0  0  0  0  0  0  0  0  0  0  0  0
  148.3049  132.3441  152.1173 H   0  0  0  0  0  0  0  0  0  0  0  0
  148.8028  130.8781  152.9170 H   0  0  0  0  0  0  0  0  0  0  0  0
  149.8835  132.2651  152.8861 H   0  0  0  0  0  0  0  0  0  0  0  0
  150.9368  132.2733  154.4210 H   0  0  0  0  0  0  0  0  0  0  0  0
  150.5133  133.7357  155.2838 H   0  0  0  0  0  0  0  0  0  0  0  0
  151.4579  131.1014  156.5261 H   0  0  0  0  0  0  0  0  0  0  0  0
  152.3732  132.5939  156.4116 H   0  0  0  0  0  0  0  0  0  0  0  0
  149.4866  131.0755  158.0166 H   0  0  0  0  0  0  0  0  0  0  0  0
  149.0990  132.5510  158.8823 H   0  0  0  0  0  0  0  0  0  0  0  0
  148.4991  133.7053  156.7999 H   0  0  0  0  0  0  0  0  0  0  0  0
  147.5862  132.2195  156.9504 H   0  0  0  0  0  0  0  0  0  0  0  0
  143.1822  133.8269  149.7973 H   0  0  0  0  0  0  0  0  0  0  0  0
  146.0887  130.9056  149.8247 H   0  0  0  0  0  0  0  0  0  0  0  0
  1  2  1  0  0  0  0
  1 21  1  0  0  0  0
  1 22  1  0  0  0  0
  1 23  1  0  0  0  0
  2  3  1  0  0  0  0
  2 16  1  0  0  0  0
  2 24  1  0  0  0  0
  3  4  2  0  0  0  0
  3  5  1  0  0  0  0
  5  6  1  0  0  0  0
  5 25  1  0  0  0  0
  6  7  1  0  0  0  0
  6 26  1  0  0  0  0
  6 27  1  0  0  0  0
  7  8  1  0  0  0  0
  7  9  1  0  0  0  0
  7 10  1  0  0  0  0
  8 28  1  0  0  0  0
  8 29  1  0  0  0  0
  8 30  1  0  0  0  0
  9 31  1  0  0  0  0
  9 32  1  0  0  0  0
  9 33  1  0  0  0  0
 10 15  1  0  0  0  0
 10 11  1  0  0  0  0
 11 12  1  0  0  0  0
 11 34  1  0  0  0  0
 11 35  1  0  0  0  0
 12 13  1  0  0  0  0
 12 36  1  0  0  0  0
 12 37  1  0  0  0  0
 13 14  1  0  0  0  0
 14 15  1  0  0  0  0
 14 38  1  0  0  0  0
 14 39  1  0  0  0  0
 15 40  1  0  0  0  0
 15 41  1  0  0  0  0
 16 20  1  0  0  0  0
 16 17  1  0  0  0  0
 17 18  2  0  0  0  0
 17 42  1  0  0  0  0
 18 19  1  0  0  0  0
 19 20  2  0  0  0  0
 19 43  1  0  0  0  0
M  END
> <s_m_source_file>
AV-unprocessed.smi

> <i_m_source_file_index>
1252

> <i_lp_mmshare_version>
43012

> <i_f3d_flags>
0

> <s_epik_input>
bjFbY0hdbltjSF1uMVtDQEhdKFtDSDNdKUMoPU8pW05IXVtDSDJdQyhbQ0gzXSkoW0NIM10pTjJbQ0gyXVtDSDJdT1tDSDJdW0NIMl0y

> <s_epik_cmdline>
J2VwaWtfcHl0aG9uJywgJy1waCcsICc3LjAnLCAnLXRuJywgJzgnLCAnLW1hJywgJzIwMCcsICctbWV0YWxfYmluZGluZycsICctaW1hZScsICc8aW5maWxlLm1hZT4nLCAnLW9tYWUnLCAnPG91dGZpbGUubWFlPic=

> <r_lp_tautomer_probability>
1

> <r_epik_Ionization_Penalty>
0.211373

> <r_epik_Ionization_Penalty_Charging>
0

> <r_epik_Ionization_Penalty_Neutral>
0.211373

> <r_epik_State_Penalty>
0.201459

> <r_epik_Charging_Adjusted_Penalty>
0.201459

> <i_epik_Tot_Q>
0

> <i_epik_Tot_abs_Q>
0

> <r_epik_Metal_State_Penalty>
0.201458

> <b_epik_Metal_Only>
0

> <s_lp_Force_Field>
OPLS_2005

> <r_lp_Energy>
48.0219

> <b_lp_Chiralities_Consistent>
1

> <s_lp_Variant>
AV-unprocessed.smi:1252-1

> <Gold.Version>
5.8.1

> <Gold.Id.Protein>
6NUR|6NUR_protein|mol2

> <Gold.PLP.Fitness>
34.8880

> <Gold.PLP.PLP>
-27.0180

> <Gold.PLP.part.hbond>
-2.4505

> <Gold.PLP.part.metal>
0.0000

> <Gold.PLP.part.buried>
-2.4173

> <Gold.PLP.part.nonpolar>
-21.3621

> <Gold.PLP.part.repulsive>
0.4408

> <Gold.PLP.ligand.clash>
0.0000

> <Gold.PLP.ligand.torsion>
1.2659

> <Gold.PLP.Chemscore.Hbond>
1.4950

> <Gold.PLP.Chemscore.CHOScore>
1.9290

> <Gold.PLP.Chemscore.Metal>
0.0000

> <Gold.Chemscore.Hbonds>
donor molecule, donor type, donor heavy atom, donor atom, acceptor molecule, acceptor atom, score
      L1  H     5    25       P1  7948  0.28
      P1  H  6896  6908       L1    13  1.00
      P1  H 10785 10796       L1    18  0.09
      L1  C    17    42       P1 10186  1.00
      L1  C    19    43       P1 10747  0.05

> <Gold.PLP.Chemscore.Internal.Correction>
0.1297

> <Gold.Rescore>
     Score         DG    S(hbond)    S(metal)    S(lipo)     H(rot)  DE(clash)    DE(int)     intcor
      7.93     -10.33       1.86        0.00      43.43       2.52       0.20       2.20       ----

> <Gold.Chemscore.Fitness>
7.9274

> <Gold.Chemscore.DG>
-10.3342

> <Gold.Chemscore.ZeroCoef>
-5.4800

> <Gold.Chemscore.Hbond>
1.8600

> <Gold.Chemscore.Metal>
0.0000

> <Gold.Chemscore.Lipo>
43.4275

> <Gold.Chemscore.Internal_Hbond>
0.0000

> <Gold.Chemscore.DEClash>
0.2038

> <Gold.Chemscore.DEInternal>
2.2030

> <Gold.Chemscore.Rot>
2.5153

> <Gold.Chemscore.Internal.Correction>
   9.000000E+99

> <Gold.Chemscore.Hbonds>
donor molecule, donor type, donor heavy atom, donor atom, acceptor molecule, acceptor atom, score
      L1  H     5    25       P1  7948  0.19
      P1  H  6896  6908       L1    13  0.55
      P1  H 10785 10796       L1    18  0.08

> <Gold.Chemscore.Hbond.Weighted>
-6.2123

> <Gold.Chemscore.Metal.Weighted>
-0.0000

> <Gold.Chemscore.Lipo.Weighted>
-5.0810

> <Gold.Chemscore.Internal_Hbond.Weighted>
0.0000

> <Gold.Chemscore.DEClash.Weighted>
0.2038

> <Gold.Chemscore.DEInternal.Weighted>
2.2030

> <Gold.Chemscore.Rot.Weighted>
6.4392

> <Gold.Chemscore.Internal.Correction.Weighted>
   9.000000E+99

> <Gold.Protein.RotatedTorsions>
[ 6907 6896 6895 6894 ] final   83.58 input  -60.11 | X-H torsion
[ 7974 7965 7964 7962 ] final  -67.50 input  175.53 | X-H torsion
[ 8008 7997 7996 7995 ] final  133.53 input   59.86 | X-H torsion
[ 10167 10162 10161 10158 ] final   66.70 input  -65.29 | X-H torsion
[ 10718 10713 10712 10709 ] final    1.42 input   66.30 | X-H torsion
[ 10763 10752 10751 10750 ] final -176.71 input  -60.55 | X-H torsion
[ 11005 11000 10999 10996 ] final  122.23 input  -57.11 | X-H torsion

> <Gold.Protein.ActiveResidues>
 VAL166  LYS551  ARG553  GLY616  TRP617  ASP618  TYR619  PRO620  LYS621  CYS622 
 ASP623  PHE694  ASN695  SER759  ASP760  ASP761  ALA762  ILE779  LEU786  VAL792 
 PHE793  MET794  SER795  GLU796  ALA797  LYS798  CYS799  TRP800  GLU811  SER814 

> <Gold.Protein.RotatedAtoms>
  152.5331  134.2874  159.9029 H   0  0  0  0  0  0  0  0  0  0  0  0  # atno 6907 bound_to 6896
  151.2827  133.4196  159.2635 H   0  0  0  0  0  0  0  0  0  0  0  0  # atno 6908 bound_to 6896
  151.0270  134.9526  159.8147 H   0  0  0  0  0  0  0  0  0  0  0  0  # atno 6909 bound_to 6896
  145.7284  140.9007  143.0593 H   0  0  0  0  0  0  0  0  0  0  0  0  # atno 7974 bound_to 7965
  156.2993  140.2519  156.3268 H   0  0  0  0  0  0  0  0  0  0  0  0  # atno 8008 bound_to 7997
  154.9183  140.0401  157.2003 H   0  0  0  0  0  0  0  0  0  0  0  0  # atno 8009 bound_to 7997
  154.8336  140.2879  155.5710 H   0  0  0  0  0  0  0  0  0  0  0  0  # atno 8010 bound_to 7997
  140.0976  144.4933  150.7058 H   0  0  0  0  0  0  0  0  0  0  0  0  # atno 10167 bound_to 10162
  156.8479  130.5543  149.5672 H   0  0  0  0  0  0  0  0  0  0  0  0  # atno 10718 bound_to 10713
  154.5690  135.2826  155.0846 H   0  0  0  0  0  0  0  0  0  0  0  0  # atno 10763 bound_to 10752
  154.2226  135.6388  153.5153 H   0  0  0  0  0  0  0  0  0  0  0  0  # atno 10764 bound_to 10752
  153.0052  135.5518  154.6307 H   0  0  0  0  0  0  0  0  0  0  0  0  # atno 10765 bound_to 10752
  139.9259  134.9640  156.8077 H   0  0  0  0  0  0  0  0  0  0  0  0  # atno 11005 bound_to 11000
  144.6899  139.9298  143.7471 LP  0  0  0  0  0  0  0  0  0  0  0  0  # atno 17320 bound_to 7965
  146.0560  139.3557  143.0610 LP  0  0  0  0  0  0  0  0  0  0  0  0  # atno 17321 bound_to 7965
  140.6995  143.2425  151.4904 LP  0  0  0  0  0  0  0  0  0  0  0  0  # atno 17342 bound_to 10162
  139.5689  144.1975  152.1807 LP  0  0  0  0  0  0  0  0  0  0  0  0  # atno 17343 bound_to 10162
  156.0844  130.5846  150.9622 LP  0  0  0  0  0  0  0  0  0  0  0  0  # atno 17370 bound_to 10713
  157.6320  131.0920  150.8423 LP  0  0  0  0  0  0  0  0  0  0  0  0  # atno 17371 bound_to 10713
  140.6337  133.9882  155.7674 LP  0  0  0  0  0  0  0  0  0  0  0  0  # atno 17394 bound_to 11000
  141.0816  134.0053  157.3377 LP  0  0  0  0  0  0  0  0  0  0  0  0  # atno 17395 bound_to 11000

$$$$
