AV-unprocessed.smi:2748|AV-procd|sdf|10582|dock2
  -GOLD-   2272015 33D 1   1.00000     0.00000
 Structure written by MMmdl.
 30 32  0  0  0  0  0  0  0  0  1 V2000
  146.9907  139.2810  152.5955 O   0  0  0  0  0  0  0  0  0  0  0  0
  147.9073  139.6572  153.3235 C   0  0  0  0  0  0  0  0  0  0  0  0
  149.0020  138.8184  153.5536 N   0  0  0  0  0  0  0  0  0  0  0  0
  150.1041  139.1223  154.3533 C   0  0  0  0  0  0  0  0  0  0  0  0
  151.0081  138.2982  154.4921 O   0  0  0  0  0  0  0  0  0  0  0  0
  150.1094  140.3928  154.9733 N   0  0  0  0  0  0  0  0  0  0  0  0
  151.2271  140.7263  155.8214 C   0  0  0  0  0  0  0  0  0  0  0  0
  150.8276  140.9095  157.2985 C   0  0  1  0  0  0  0  0  0  0  0  0
  152.0531  140.9140  158.2508 C   0  0  0  0  0  0  0  0  0  0  0  0
  151.9461  142.2588  158.8796 C   0  0  0  0  0  0  0  0  0  0  0  0
  152.7897  142.8431  159.8396 C   0  0  0  0  0  0  0  0  0  0  0  0
  152.4800  144.1483  160.2821 C   0  0  0  0  0  0  0  0  0  0  0  0
  151.3529  144.8319  159.7656 C   0  0  0  0  0  0  0  0  0  0  0  0
  150.5219  144.2196  158.8003 C   0  0  0  0  0  0  0  0  0  0  0  0
  150.8432  142.9203  158.3697 C   0  0  0  0  0  0  0  0  0  0  0  0
  150.1568  142.1758  157.4529 O   0  0  0  0  0  0  0  0  0  0  0  0
  149.0397  141.2536  154.7818 C   0  0  0  0  0  0  0  0  0  0  0  0
  147.9715  140.9490  154.0059 C   0  0  0  0  0  0  0  0  0  0  0  0
  146.6749  142.0745  153.8170 Cl  0  0  0  0  0  0  0  0  0  0  0  0
  148.9918  137.9134  153.1061 H   0  0  0  0  0  0  0  0  0  0  0  0
  151.9835  139.9503  155.6862 H   0  0  0  0  0  0  0  0  0  0  0  0
  151.6579  141.6436  155.4162 H   0  0  0  0  0  0  0  0  0  0  0  0
  150.1389  140.1220  157.6074 H   0  0  0  0  0  0  0  0  0  0  0  0
  151.9851  140.1307  159.0064 H   0  0  0  0  0  0  0  0  0  0  0  0
  153.0019  140.8163  157.7222 H   0  0  0  0  0  0  0  0  0  0  0  0
  153.6473  142.3123  160.2259 H   0  0  0  0  0  0  0  0  0  0  0  0
  153.1074  144.6279  161.0190 H   0  0  0  0  0  0  0  0  0  0  0  0
  151.1260  145.8293  160.1126 H   0  0  0  0  0  0  0  0  0  0  0  0
  149.6608  144.7367  158.4036 H   0  0  0  0  0  0  0  0  0  0  0  0
  149.0526  142.2143  155.2770 H   0  0  0  0  0  0  0  0  0  0  0  0
  1  2  2  0  0  0  0
  2 18  1  0  0  0  0
  2  3  1  0  0  0  0
  3 20  1  0  0  0  0
  3  4  1  0  0  0  0
  4  5  2  0  0  0  0
  4  6  1  0  0  0  0
  6  7  1  0  0  0  0
  6 17  1  0  0  0  0
  7  8  1  0  0  0  0
  7 21  1  0  0  0  0
  7 22  1  0  0  0  0
  8 16  1  0  0  0  0
  8  9  1  0  0  0  0
  8 23  1  0  0  0  0
  9 10  1  0  0  0  0
  9 24  1  0  0  0  0
  9 25  1  0  0  0  0
 10 15  2  0  0  0  0
 10 11  1  0  0  0  0
 11 12  2  0  0  0  0
 11 26  1  0  0  0  0
 12 13  1  0  0  0  0
 12 27  1  0  0  0  0
 13 14  2  0  0  0  0
 13 28  1  0  0  0  0
 14 15  1  0  0  0  0
 14 29  1  0  0  0  0
 15 16  1  0  0  0  0
 17 18  2  0  0  0  0
 17 30  1  0  0  0  0
 18 19  1  0  0  0  0
M  END
> <s_m_source_file>
AV-unprocessed.smi

> <i_m_source_file_index>
2748

> <i_lp_mmshare_version>
43012

> <i_f3d_flags>
0

> <s_epik_input>
Tz1jMVtuSF1jKD1PKW4oW2NIXWMxQ2wpW0NIMl1bQ0BIXShbQ0gyXTIpT2MoYzIzKVtjSF1bY0hdW2NIXVtjSF0z

> <s_epik_cmdline>
J2VwaWtfcHl0aG9uJywgJy1waCcsICc3LjAnLCAnLXRuJywgJzgnLCAnLW1hJywgJzIwMCcsICctbWV0YWxfYmluZGluZycsICctaW1hZScsICc8aW5maWxlLm1hZT4nLCAnLW9tYWUnLCAnPG91dGZpbGUubWFlPic=

> <r_lp_tautomer_probability>
0.999537

> <r_epik_Ionization_Penalty>
0.0203523

> <r_epik_Ionization_Penalty_Charging>
0.0203523

> <r_epik_Ionization_Penalty_Neutral>
0

> <r_epik_State_Penalty>
0.0163078

> <r_epik_Charging_Adjusted_Penalty>
0.0366602

> <i_epik_Tot_Q>
0

> <i_epik_Tot_abs_Q>
0

> <r_epik_Metal_State_Penalty>
1.99317

> <b_epik_Metal_Only>
0

> <s_lp_Force_Field>
OPLS_2005

> <r_lp_Energy>
20.6728

> <b_lp_Chiralities_Consistent>
1

> <s_lp_Variant>
AV-unprocessed.smi:2748-2

> <Gold.Version>
5.8.1

> <Gold.Id.Protein>
6NUR|6NUR_protein|mol2

> <Gold.PLP.Fitness>
47.3878

> <Gold.PLP.PLP>
-41.9447

> <Gold.PLP.part.hbond>
-1.8881

> <Gold.PLP.part.metal>
0.0000

> <Gold.PLP.part.buried>
-3.4122

> <Gold.PLP.part.nonpolar>
-36.7252

> <Gold.PLP.part.repulsive>
1.1272

> <Gold.PLP.ligand.clash>
0.0000

> <Gold.PLP.ligand.torsion>
0.1250

> <Gold.PLP.Chemscore.Hbond>
0.9100

> <Gold.PLP.Chemscore.CHOScore>
0.9870

> <Gold.PLP.Chemscore.Metal>
0.0000

> <Gold.Chemscore.Hbonds>
donor molecule, donor type, donor heavy atom, donor atom, acceptor molecule, acceptor atom, score
      L1  H     3    20       P1  7948  0.91
      L1  C    17    30       P1  8028  0.99

> <Gold.PLP.Chemscore.Internal.Correction>
0.0021

> <Gold.Rescore>
     Score         DG    S(hbond)    S(metal)    S(lipo)     H(rot)  DE(clash)    DE(int)     intcor
     16.22     -17.55       0.96        0.00     104.47       1.31       0.18       1.15       ----

> <Gold.Chemscore.Fitness>
16.2191

> <Gold.Chemscore.DG>
-17.5530

> <Gold.Chemscore.ZeroCoef>
-5.4800

> <Gold.Chemscore.Hbond>
0.9614

> <Gold.Chemscore.Metal>
0.0000

> <Gold.Chemscore.Lipo>
104.4680

> <Gold.Chemscore.Internal_Hbond>
0.0000

> <Gold.Chemscore.DEClash>
0.1818

> <Gold.Chemscore.DEInternal>
1.1521

> <Gold.Chemscore.Rot>
1.3129

> <Gold.Chemscore.Internal.Correction>
   9.000000E+99

> <Gold.Chemscore.Hbonds>
donor molecule, donor type, donor heavy atom, donor atom, acceptor molecule, acceptor atom, score
      L1  H     3    20       P1  7948  0.87

> <Gold.Chemscore.Hbond.Weighted>
-3.2112

> <Gold.Chemscore.Metal.Weighted>
-0.0000

> <Gold.Chemscore.Lipo.Weighted>
-12.2228

> <Gold.Chemscore.Internal_Hbond.Weighted>
0.0000

> <Gold.Chemscore.DEClash.Weighted>
0.1818

> <Gold.Chemscore.DEInternal.Weighted>
1.1521

> <Gold.Chemscore.Rot.Weighted>
3.3610

> <Gold.Chemscore.Internal.Correction.Weighted>
   9.000000E+99

> <Gold.Protein.RotatedTorsions>
[ 6907 6896 6895 6894 ] final -104.50 input  -60.11 | X-H torsion
[ 7974 7965 7964 7962 ] final  143.76 input  175.53 | X-H torsion
[ 8008 7997 7996 7995 ] final -102.06 input   59.86 | X-H torsion
[ 10167 10162 10161 10158 ] final  -96.06 input  -65.29 | X-H torsion
[ 10718 10713 10712 10709 ] final  100.26 input   66.30 | X-H torsion
[ 10763 10752 10751 10750 ] final  172.16 input  -60.55 | X-H torsion
[ 11005 11000 10999 10996 ] final -159.78 input  -57.11 | X-H torsion

> <Gold.Protein.ActiveResidues>
 VAL166  LYS551  ARG553  GLY616  TRP617  ASP618  TYR619  PRO620  LYS621  CYS622 
 ASP623  PHE694  ASN695  SER759  ASP760  ASP761  ALA762  ILE779  LEU786  VAL792 
 PHE793  MET794  SER795  GLU796  ALA797  LYS798  CYS799  TRP800  GLU811  SER814 

> <Gold.Protein.RotatedAtoms>
  150.7290  134.0268  159.3719 H   0  0  0  0  0  0  0  0  0  0  0  0  # atno 6907 bound_to 6896
  151.8236  135.0642  160.0437 H   0  0  0  0  0  0  0  0  0  0  0  0  # atno 6908 bound_to 6896
  152.2986  133.5596  159.5640 H   0  0  0  0  0  0  0  0  0  0  0  0  # atno 6909 bound_to 6896
  144.8893  139.5582  143.5806 H   0  0  0  0  0  0  0  0  0  0  0  0  # atno 7974 bound_to 7965
  154.8513  140.0430  157.1605 H   0  0  0  0  0  0  0  0  0  0  0  0  # atno 8008 bound_to 7997
  154.8940  140.2990  155.5334 H   0  0  0  0  0  0  0  0  0  0  0  0  # atno 8009 bound_to 7997
  156.2996  140.2388  156.3959 H   0  0  0  0  0  0  0  0  0  0  0  0  # atno 8010 bound_to 7997
  140.2977  143.3181  152.0280 H   0  0  0  0  0  0  0  0  0  0  0  0  # atno 10167 bound_to 10162
  157.6858  131.0693  150.5073 H   0  0  0  0  0  0  0  0  0  0  0  0  # atno 10718 bound_to 10713
  154.4222  135.2758  155.1968 H   0  0  0  0  0  0  0  0  0  0  0  0  # atno 10763 bound_to 10752
  154.3909  135.6066  153.5846 H   0  0  0  0  0  0  0  0  0  0  0  0  # atno 10764 bound_to 10752
  152.9833  135.5903  154.4520 H   0  0  0  0  0  0  0  0  0  0  0  0  # atno 10765 bound_to 10752
  140.6387  134.4574  157.5232 H   0  0  0  0  0  0  0  0  0  0  0  0  # atno 11005 bound_to 11000
  146.3044  139.7531  142.9067 LP  0  0  0  0  0  0  0  0  0  0  0  0  # atno 17320 bound_to 7965
  145.3811  141.0358  143.3177 LP  0  0  0  0  0  0  0  0  0  0  0  0  # atno 17321 bound_to 7965
  139.4922  144.6478  151.6740 LP  0  0  0  0  0  0  0  0  0  0  0  0  # atno 17342 bound_to 10162
  140.5678  144.0161  150.6201 LP  0  0  0  0  0  0  0  0  0  0  0  0  # atno 17343 bound_to 10162
  156.5392  130.4204  149.6162 LP  0  0  0  0  0  0  0  0  0  0  0  0  # atno 17370 bound_to 10713
  156.3001  130.7172  151.2041 LP  0  0  0  0  0  0  0  0  0  0  0  0  # atno 17371 bound_to 10713
  139.9088  134.8390  156.1604 LP  0  0  0  0  0  0  0  0  0  0  0  0  # atno 17394 bound_to 11000
  141.0622  133.6836  156.1975 LP  0  0  0  0  0  0  0  0  0  0  0  0  # atno 17395 bound_to 11000

$$$$
