AV-unprocessed.smi:249|AV-procd|sdf|1911|dock8
  -GOLD-   2262021 03D 1   1.00000     0.00000
 Structure written by MMmdl.
 64 67  0  0  0  0  0  0  0  0  2 V2000
  145.2533  131.3790  151.7698 C   0  0  0  0  0  0  0  0  0  0  0  0
  145.2290  132.8612  152.1737 C   0  0  0  0  0  0  0  0  0  0  0  0
  145.1176  133.0669  153.6481 N   0  3  1  0  0  0  0  0  0  0  0  0
  146.2060  132.4236  154.4379 C   0  0  0  0  0  0  0  0  0  0  0  0
  147.5450  133.1725  154.2919 C   0  0  0  0  0  0  0  0  0  0  0  0
  147.3892  134.6559  154.6783 C   0  0  1  0  0  0  0  0  0  0  0  0
  148.6411  135.4026  154.5253 N   0  0  0  0  0  0  0  0  0  0  0  0
  149.8752  134.7255  154.1325 C   0  0  0  0  0  0  0  0  0  0  0  0
  148.7422  136.6293  155.1000 C   0  0  0  0  0  0  0  0  0  0  0  0
  147.6688  137.1358  155.7629 N   0  0  0  0  0  0  0  0  0  0  0  0
  147.7321  138.3425  156.3329 C   0  0  0  0  0  0  0  0  0  0  0  0
  148.7563  139.1965  156.3655 N   0  0  0  0  0  0  0  0  0  0  0  0
  149.8425  138.6895  155.7163 C   0  0  0  0  0  0  0  0  0  0  0  0
  149.9225  137.4274  155.0616 C   0  0  0  0  0  0  0  0  0  0  0  0
  151.1949  137.2567  154.5258 N   0  0  0  0  0  0  0  0  0  0  0  0
  151.8229  138.3594  154.8297 C   0  0  0  0  0  0  0  0  0  0  0  0
  151.0823  139.2774  155.5380 N   0  0  0  0  0  0  0  0  0  0  0  0
  151.5308  140.5794  155.9988 C   0  0  0  0  0  0  0  0  0  0  0  0
  151.5178  140.7375  157.5425 C   0  0  1  0  0  0  0  0  0  0  0  0
  152.3031  139.6083  158.2587 C   0  0  0  0  0  0  0  0  0  0  0  0
  153.6681  139.6023  157.8945 O   0  0  0  0  0  0  0  0  0  0  0  0
  152.0587  142.1336  157.9487 C   0  0  1  0  0  0  0  0  0  0  0  0
  151.1588  143.3024  157.5808 C   0  0  0  0  0  0  0  0  0  0  0  0
  151.6824  144.4078  158.4876 C   0  0  0  0  0  0  0  0  0  0  0  0
  152.0453  143.7528  159.6951 O   0  0  0  0  0  0  0  0  0  0  0  0
  152.2020  142.3558  159.4618 C   0  0  0  0  0  0  0  0  0  0  0  0
  146.2276  135.3026  153.9001 C   0  0  0  0  0  0  0  0  0  0  0  0
  144.9304  134.4869  154.0786 C   0  0  1  0  0  0  0  0  0  0  0  0
  143.7097  135.1714  153.4372 C   0  0  0  0  0  0  0  0  0  0  0  0
  145.1815  131.2796  150.6864 H   0  0  0  0  0  0  0  0  0  0  0  0
  144.4145  130.8356  152.2056 H   0  0  0  0  0  0  0  0  0  0  0  0
  146.1754  130.8838  152.0719 H   0  0  0  0  0  0  0  0  0  0  0  0
  146.1032  133.3733  151.7723 H   0  0  0  0  0  0  0  0  0  0  0  0
  144.3663  133.2988  151.6754 H   0  0  0  0  0  0  0  0  0  0  0  0
  145.9106  132.4216  155.4879 H   0  0  0  0  0  0  0  0  0  0  0  0
  146.3246  131.3746  154.1720 H   0  0  0  0  0  0  0  0  0  0  0  0
  148.2962  132.7036  154.9287 H   0  0  0  0  0  0  0  0  0  0  0  0
  147.9117  133.0753  153.2702 H   0  0  0  0  0  0  0  0  0  0  0  0
  147.1045  134.6530  155.7296 H   0  0  0  0  0  0  0  0  0  0  0  0
  150.5386  135.4106  153.6035 H   0  0  0  0  0  0  0  0  0  0  0  0
  149.6748  133.8835  153.4712 H   0  0  0  0  0  0  0  0  0  0  0  0
  150.4001  134.3463  155.0098 H   0  0  0  0  0  0  0  0  0  0  0  0
  146.8329  138.6711  156.8331 H   0  0  0  0  0  0  0  0  0  0  0  0
  152.8487  138.5378  154.5410 H   0  0  0  0  0  0  0  0  0  0  0  0
  152.5345  140.7593  155.6117 H   0  0  0  0  0  0  0  0  0  0  0  0
  150.8854  141.3221  155.5300 H   0  0  0  0  0  0  0  0  0  0  0  0
  150.4801  140.6871  157.8769 H   0  0  0  0  0  0  0  0  0  0  0  0
  152.2131  139.6988  159.3415 H   0  0  0  0  0  0  0  0  0  0  0  0
  151.9153  138.6259  157.9949 H   0  0  0  0  0  0  0  0  0  0  0  0
  154.0347  138.7635  158.1292 H   0  0  0  0  0  0  0  0  0  0  0  0
  153.0324  142.2934  157.4820 H   0  0  0  0  0  0  0  0  0  0  0  0
  151.2125  143.5755  156.5267 H   0  0  0  0  0  0  0  0  0  0  0  0
  150.1194  143.0784  157.8257 H   0  0  0  0  0  0  0  0  0  0  0  0
  152.5732  144.8646  158.0547 H   0  0  0  0  0  0  0  0  0  0  0  0
  150.9471  145.1934  158.6618 H   0  0  0  0  0  0  0  0  0  0  0  0
  151.4179  141.8316  160.0098 H   0  0  0  0  0  0  0  0  0  0  0  0
  153.1641  142.0110  159.8411 H   0  0  0  0  0  0  0  0  0  0  0  0
  146.0744  136.3197  154.2625 H   0  0  0  0  0  0  0  0  0  0  0  0
  146.4679  135.3903  152.8406 H   0  0  0  0  0  0  0  0  0  0  0  0
  144.7161  134.4489  155.1480 H   0  0  0  0  0  0  0  0  0  0  0  0
  143.4948  136.1159  153.9378 H   0  0  0  0  0  0  0  0  0  0  0  0
  142.8181  134.5490  153.5181 H   0  0  0  0  0  0  0  0  0  0  0  0
  143.8709  135.4036  152.3844 H   0  0  0  0  0  0  0  0  0  0  0  0
  144.2671  132.5913  153.9145 H   0  0  0  0  0  0  0  0  0  0  0  0
  1  2  1  0  0  0  0
  1 30  1  0  0  0  0
  1 31  1  0  0  0  0
  1 32  1  0  0  0  0
  2  3  1  0  0  0  0
  2 33  1  0  0  0  0
  2 34  1  0  0  0  0
  3 28  1  0  0  0  0
  3  4  1  0  0  0  0
  3 64  1  0  0  0  0
  4  5  1  0  0  0  0
  4 35  1  0  0  0  0
  4 36  1  0  0  0  0
  5  6  1  0  0  0  0
  5 37  1  0  0  0  0
  5 38  1  0  0  0  0
  6  7  1  0  0  0  0
  6 27  1  0  0  0  0
  6 39  1  0  0  0  0
  7  8  1  0  0  0  0
  7  9  1  0  0  0  0
  8 40  1  0  0  0  0
  8 41  1  0  0  0  0
  8 42  1  0  0  0  0
  9 14  1  0  0  0  0
  9 10  2  0  0  0  0
 10 11  1  0  0  0  0
 11 12  2  0  0  0  0
 11 43  1  0  0  0  0
 12 13  1  0  0  0  0
 13 17  1  0  0  0  0
 13 14  2  0  0  0  0
 14 15  1  0  0  0  0
 15 16  2  0  0  0  0
 16 17  1  0  0  0  0
 16 44  1  0  0  0  0
 17 18  1  0  0  0  0
 18 19  1  0  0  0  0
 18 45  1  0  0  0  0
 18 46  1  0  0  0  0
 19 20  1  0  0  0  0
 19 22  1  0  0  0  0
 19 47  1  0  0  0  0
 20 21  1  0  0  0  0
 20 48  1  0  0  0  0
 20 49  1  0  0  0  0
 21 50  1  0  0  0  0
 22 26  1  0  0  0  0
 22 23  1  0  0  0  0
 22 51  1  0  0  0  0
 23 24  1  0  0  0  0
 23 52  1  0  0  0  0
 23 53  1  0  0  0  0
 24 25  1  0  0  0  0
 24 54  1  0  0  0  0
 24 55  1  0  0  0  0
 25 26  1  0  0  0  0
 26 56  1  0  0  0  0
 26 57  1  0  0  0  0
 27 28  1  0  0  0  0
 27 58  1  0  0  0  0
 27 59  1  0  0  0  0
 28 29  1  0  0  0  0
 28 60  1  0  0  0  0
 29 61  1  0  0  0  0
 29 62  1  0  0  0  0
 29 63  1  0  0  0  0
M  CHG  1   3   1
M  END
> <s_m_source_file>
AV-unprocessed.smi

> <i_m_source_file_index>
249

> <i_lp_mmshare_version>
43012

> <i_f3d_flags>
0

> <s_epik_input>
W0NIM11bQ0gyXU4xW0NIMl1bQ0gyXVtDQEhdKFtDSDJdW0NASF0xW0NIM10pTihbQ0gzXSljKG5bY0hdbjIpYyhjMjMpbltjSF1uM1tDSDJdW0NASF0oW0NIMl1bT0hdKVtDQEBIXTRbQ0gyXVtDSDJdT1tDSDJdNA==

> <s_epik_cmdline>
J2VwaWtfcHl0aG9uJywgJy1waCcsICc3LjAnLCAnLXRuJywgJzgnLCAnLW1hJywgJzIwMCcsICctbWV0YWxfYmluZGluZycsICctaW1hZScsICc8aW5maWxlLm1hZT4nLCAnLW9tYWUnLCAnPG91dGZpbGUubWFlPic=

> <r_lp_tautomer_probability>
1

> <r_epik_Ionization_Penalty>
0.00294688

> <r_epik_Ionization_Penalty_Charging>
0.00169971

> <r_epik_Ionization_Penalty_Neutral>
0.00124717

> <r_epik_State_Penalty>
-0

> <r_epik_Charging_Adjusted_Penalty>
0.00169971

> <i_epik_Tot_Q>
1

> <i_epik_Tot_abs_Q>
1

> <r_epik_Metal_State_Penalty>
-0

> <b_epik_Metal_Only>
0

> <s_lp_Force_Field>
OPLS_2005

> <r_lp_Energy>
53.8972

> <b_lp_Chiralities_Consistent>
1

> <s_lp_Variant>
AV-unprocessed.smi:249-14

> <Gold.Version>
5.8.1

> <Gold.Id.Protein>
6NUR|6NUR_protein|mol2

> <Gold.PLP.Fitness>
48.7890

> <Gold.PLP.PLP>
-36.8896

> <Gold.PLP.part.hbond>
-3.0000

> <Gold.PLP.part.metal>
0.0000

> <Gold.PLP.part.buried>
-6.0711

> <Gold.PLP.part.nonpolar>
-28.3797

> <Gold.PLP.part.repulsive>
0.1851

> <Gold.PLP.ligand.clash>
0.0000

> <Gold.PLP.ligand.torsion>
0.3641

> <Gold.PLP.Chemscore.Hbond>
4.0000

> <Gold.PLP.Chemscore.CHOScore>
0.0000

> <Gold.PLP.Chemscore.Metal>
0.0000

> <Gold.Chemscore.Hbonds>
donor molecule, donor type, donor heavy atom, donor atom, acceptor molecule, acceptor atom, score
      L1  H     3    64       P1 10957  2.00
      P1  H  7997  8008       L1    21  0.48
      P1  H 10752 10765       L1    15  0.15

> <Gold.PLP.Chemscore.Internal.Correction>
0.6276

> <Gold.Rescore>
     Score         DG    S(hbond)    S(metal)    S(lipo)     H(rot)  DE(clash)    DE(int)     intcor
     13.98     -17.30       2.18        0.00      96.74       2.65       0.23       3.09       ----

> <Gold.Chemscore.Fitness>
13.9777

> <Gold.Chemscore.DG>
-17.2971

> <Gold.Chemscore.ZeroCoef>
-5.4800

> <Gold.Chemscore.Hbond>
2.1817

> <Gold.Chemscore.Metal>
0.0000

> <Gold.Chemscore.Lipo>
96.7356

> <Gold.Chemscore.Internal_Hbond>
0.0000

> <Gold.Chemscore.DEClash>
0.2342

> <Gold.Chemscore.DEInternal>
3.0853

> <Gold.Chemscore.Rot>
2.6515

> <Gold.Chemscore.Internal.Correction>
   9.000000E+99

> <Gold.Chemscore.Hbonds>
donor molecule, donor type, donor heavy atom, donor atom, acceptor molecule, acceptor atom, score
      L1  H     3    64       P1 10957  0.63
      P1  H  7997  8008       L1    21  0.10
      P1  H 10752 10765       L1    15  0.07

> <Gold.Chemscore.Hbond.Weighted>
-7.2870

> <Gold.Chemscore.Metal.Weighted>
-0.0000

> <Gold.Chemscore.Lipo.Weighted>
-11.3181

> <Gold.Chemscore.Internal_Hbond.Weighted>
0.0000

> <Gold.Chemscore.DEClash.Weighted>
0.2342

> <Gold.Chemscore.DEInternal.Weighted>
3.0853

> <Gold.Chemscore.Rot.Weighted>
6.7880

> <Gold.Chemscore.Internal.Correction.Weighted>
   9.000000E+99

> <Gold.Protein.RotatedTorsions>
[ 6907 6896 6895 6894 ] final  -10.36 input  -60.11 | X-H torsion
[ 7974 7965 7964 7962 ] final  -45.34 input  175.53 | X-H torsion
[ 8008 7997 7996 7995 ] final  -93.02 input   59.86 | X-H torsion
[ 10167 10162 10161 10158 ] final  -60.53 input  -65.29 | X-H torsion
[ 10718 10713 10712 10709 ] final   27.99 input   66.30 | X-H torsion
[ 10763 10752 10751 10750 ] final  167.17 input  -60.55 | X-H torsion
[ 11005 11000 10999 10996 ] final -165.39 input  -57.11 | X-H torsion

> <Gold.Protein.ActiveResidues>
 VAL166  LYS551  ARG553  GLY616  TRP617  ASP618  TYR619  PRO620  LYS621  CYS622 
 ASP623  PHE694  ASN695  SER759  ASP760  ASP761  ALA762  ILE779  LEU786  VAL792 
 PHE793  MET794  SER795  GLU796  ALA797  LYS798  CYS799  TRP800  GLU811  SER814 

> <Gold.Protein.RotatedAtoms>
  151.4031  135.0974  159.9561 H   0  0  0  0  0  0  0  0  0  0  0  0  # atno 6907 bound_to 6896
  152.5044  133.8869  159.7384 H   0  0  0  0  0  0  0  0  0  0  0  0  # atno 6908 bound_to 6896
  150.9347  133.6669  159.2831 H   0  0  0  0  0  0  0  0  0  0  0  0  # atno 6909 bound_to 6896
  145.9830  140.7263  142.9354 H   0  0  0  0  0  0  0  0  0  0  0  0  # atno 7974 bound_to 7965
  154.7304  140.0503  157.0721 H   0  0  0  0  0  0  0  0  0  0  0  0  # atno 8008 bound_to 7997
  155.0309  140.3158  155.4740 H   0  0  0  0  0  0  0  0  0  0  0  0  # atno 8009 bound_to 7997
  156.2840  140.2150  156.5430 H   0  0  0  0  0  0  0  0  0  0  0  0  # atno 8010 bound_to 7997
  140.6065  143.2375  151.5809 H   0  0  0  0  0  0  0  0  0  0  0  0  # atno 10167 bound_to 10162
  157.2275  130.7008  149.6298 H   0  0  0  0  0  0  0  0  0  0  0  0  # atno 10718 bound_to 10713
  154.3499  135.2753  155.2378 H   0  0  0  0  0  0  0  0  0  0  0  0  # atno 10763 bound_to 10752
  154.4612  135.5906  153.6260 H   0  0  0  0  0  0  0  0  0  0  0  0  # atno 10764 bound_to 10752
  152.9851  135.6065  154.3708 H   0  0  0  0  0  0  0  0  0  0  0  0  # atno 10765 bound_to 10752
  140.5763  134.5187  157.5171 H   0  0  0  0  0  0  0  0  0  0  0  0  # atno 11005 bound_to 11000
  144.6867  140.2941  143.7273 LP  0  0  0  0  0  0  0  0  0  0  0  0  # atno 17320 bound_to 7965
  145.7741  139.1868  143.2195 LP  0  0  0  0  0  0  0  0  0  0  0  0  # atno 17321 bound_to 7965
  139.5329  144.2865  152.1187 LP  0  0  0  0  0  0  0  0  0  0  0  0  # atno 17342 bound_to 10162
  140.2055  144.4615  150.6410 LP  0  0  0  0  0  0  0  0  0  0  0  0  # atno 17343 bound_to 10162
  155.9677  130.4500  150.5679 LP  0  0  0  0  0  0  0  0  0  0  0  0  # atno 17370 bound_to 10713
  157.3512  131.0734  151.1711 LP  0  0  0  0  0  0  0  0  0  0  0  0  # atno 17371 bound_to 10713
  139.9338  134.7913  156.0858 LP  0  0  0  0  0  0  0  0  0  0  0  0  # atno 17394 bound_to 11000
  141.1025  133.6672  156.2786 LP  0  0  0  0  0  0  0  0  0  0  0  0  # atno 17395 bound_to 11000

$$$$
