#       Name:                AV-unprocessed.smi:12
#       Creating user name   scv26
#       Creation time:       Thu Mar 26 15:19:01 2020


#       File generated by GOLD software.
#

@<TRIPOS>MOLECULE
AV-unprocessed.smi:12
    52    55     1
SMALL
NO_CHARGES


@<TRIPOS>ATOM
      1 ****        -4.0638   1.4406  -2.3500 C.3            1 S1                 0.0000
      2 ****        -3.7902   0.5199  -1.1745 C.2            1 S1                 0.0000
      3 ****        -3.0143   0.9055  -0.1341 C.2            1 S1                 0.0000
      4 ****        -2.7906   0.0344   0.8952 N.pl3          1 S1                 0.0000
      5 ****        -3.3858  -1.2454   0.8705 C.2            1 S1                 0.0000
      6 ****        -4.1411  -1.6876  -0.0863 N.2            1 S1                 0.0000
      7 ****        -4.3922  -0.8371  -1.1801 C.2            1 S1                 0.0000
      8 ****        -5.0965  -1.2148  -2.1153 O.2            1 S1                 0.0000
      9 ****        -3.0373  -1.9145   2.0035 O.3            1 S1                 0.0000
     10 ****        -2.1737  -1.0970   2.8068 C.3            1 S1                 0.0000
     11 ****        -0.7606  -1.6745   2.8101 C.3            1 S1                 0.0000
     12 ****        -0.1467  -1.4781   4.0702 O.3            1 S1                 0.0000
     13 ****        -0.0538  -0.9030   1.6869 C.3            1 S1                 0.0000
     14 ****         1.4741  -0.8120   1.7968 C.3            1 S1                 0.0000
     15 ****         1.9903  -0.3007   0.5792 O.3            1 S1                 0.0000
     16 ****         3.3196  -0.1691   0.4101 C.2            1 S1                 0.0000
     17 ****         4.1507  -0.4822   1.2651 O.2            1 S1                 0.0000
     18 ****         3.6805   0.3916  -0.9240 C.ar           1 S1                 0.0000
     19 ****         5.0443   0.5217  -1.2759 C.ar           1 S1                 0.0000
     20 ****         5.4147   1.0474  -2.5289 C.ar           1 S1                 0.0000
     21 ****         4.4258   1.4514  -3.4447 C.ar           1 S1                 0.0000
     22 ****         3.0657   1.3284  -3.1061 C.ar           1 S1                 0.0000
     23 ****         2.6932   0.8016  -1.8539 C.ar           1 S1                 0.0000
     24 ****        -0.6525   0.3852   1.7531 O.3            1 S1                 0.0000
     25 ****        -1.9977   0.2666   2.1068 C.3            1 S1                 0.0000
     26 ****        -3.5726   2.4053  -2.2201 H              1 S1                 0.0000
     27 ****        -5.1344   1.6189  -2.4556 H              1 S1                 0.0000
     28 ****        -3.6952   0.9964  -3.2751 H              1 S1                 0.0000
     29 ****        -2.5637   1.8869  -0.1086 H              1 S1                 0.0000
     30 ****        -2.5906  -0.9682   3.8069 H              1 S1                 0.0000
     31 ****        -0.7637  -2.7470   2.6118 H              1 S1                 0.0000
     32 ****         0.7260  -1.8396   4.0399 H              1 S1                 0.0000
     33 ****        -0.3230  -1.3598   0.7326 H              1 S1                 0.0000
     34 ****         1.7671  -0.1759   2.6332 H              1 S1                 0.0000
     35 ****         1.8908  -1.8050   1.9717 H              1 S1                 0.0000
     36 ****         5.8213   0.2183  -0.5891 H              1 S1                 0.0000
     37 ****         6.4593   1.1399  -2.7871 H              1 S1                 0.0000
     38 ****         4.7101   1.8552  -4.4053 H              1 S1                 0.0000
     39 ****         2.3053   1.6386  -3.8076 H              1 S1                 0.0000
     40 ****         1.6404   0.7228  -1.6253 H              1 S1                 0.0000
     41 ****        -2.4404   1.1332   2.5986 H              1 S1                 0.0000
     42 ****        -4.5340  -2.6063  -0.0485 LP             1 S1                 0.0000
     43 ****        -5.2713  -0.6044  -2.8879 LP             1 S1                 0.0000
     44 ****        -5.4942  -2.1322  -2.1030 LP             1 S1                 0.0000
     45 ****        -2.5605  -2.7582   1.7570 LP             1 S1                 0.0000
     46 ****        -3.8616  -2.1373   2.5239 LP             1 S1                 0.0000
     47 ****        -0.6784  -1.9404   4.7797 LP             1 S1                 0.0000
     48 ****        -0.0994  -0.5000   4.2731 LP             1 S1                 0.0000
     49 ****         3.8493  -0.8570   2.1418 LP             1 S1                 0.0000
     50 ****         5.1264  -0.3613   1.0819 LP             1 S1                 0.0000
     51 ****        -0.5824   0.8297   0.8600 LP             1 S1                 0.0000
     52 ****        -0.1769   0.9370   2.4382 LP             1 S1                 0.0000
@<TRIPOS>BOND
    1    1    2 1     
    2    1   26 1     
    3    1   27 1     
    4    1   28 1     
    5    2    7 1     
    6    2    3 2     
    7    3    4 1     
    8    3   29 1     
    9    4   25 1     
   10    4    5 1     
   11    5    6 2     
   12    5    9 1     
   13    6    7 1     
   14    7    8 2     
   15    9   10 1     
   16   10   25 1     
   17   10   11 1     
   18   10   30 1     
   19   11   12 1     
   20   11   13 1     
   21   11   31 1     
   22   12   32 1     
   23   13   14 1     
   24   13   24 1     
   25   13   33 1     
   26   14   15 1     
   27   14   34 1     
   28   14   35 1     
   29   15   16 1     
   30   16   17 2     
   31   16   18 1     
   32   18   23 ar    
   33   18   19 ar    
   34   19   20 ar    
   35   19   36 1     
   36   20   21 ar    
   37   20   37 1     
   38   21   22 ar    
   39   21   38 1     
   40   22   23 ar    
   41   22   39 1     
   42   23   40 1     
   43   24   25 1     
   44   25   41 1     
   45    6   42 1     
   46    8   43 1     
   47    8   44 1     
   48    9   45 1     
   49    9   46 1     
   50   12   47 1     
   51   12   48 1     
   52   17   49 1     
   53   17   50 1     
   54   24   51 1     
   55   24   52 1     
@<TRIPOS>SUBSTRUCTURE
      1 S1             1
@<TRIPOS>SET
LONE_PAIRS      STATIC     ATOMS    <user>   **** ""
11 42 43 44 45 46 47 48 49 50 51 52
DONOR_HYDROGENS      STATIC     ATOMS    <user>   **** ""
1 32
ATOM$BLUE        STATIC     ATOMS    COLORGROUP SYSTEM
11 42 43 44 45 46 47 48 49 50 51 52
ATOM$RED        STATIC     ATOMS    COLORGROUP SYSTEM
1 32
