#       Name:                AV-unprocessed.smi:2424
#       Creating user name   scv26
#       Creation time:       Fri Mar 27 13:20:02 2020


#       File generated by GOLD software.
#

@<TRIPOS>MOLECULE
AV-unprocessed.smi:2424
    56    57     1
SMALL
NO_CHARGES


@<TRIPOS>ATOM
      1 ****        -1.5752  -0.0187  -2.2949 C.3            1 S1                 0.0000
      2 ****        -2.5095  -0.5791  -1.2111 C.3            1 S1                 0.0000
      3 ****        -1.8038  -1.2230   0.0046 C.3            1 S1                 0.0000
      4 ****        -0.9785  -2.4447  -0.4796 C.3            1 S1                 0.0000
      5 ****        -1.7951  -3.5718  -1.1333 C.3            1 S1                 0.0000
      6 ****        -1.0749  -0.2188   0.9385 C.3            1 S1                 0.0000
      7 ****         0.3807  -0.2245   0.8161 N.am           1 S1                 0.0000
      8 ****         1.1245   0.8001   0.3790 C.2            1 S1                 0.0000
      9 ****         0.6519   1.8878   0.0507 O.2            1 S1                 0.0000
     10 ****         2.4268   0.4662   0.3548 N.am           1 S1                 0.0000
     11 ****         3.5183   1.2315  -0.0745 C.2            1 S1                 0.0000
     12 ****         4.8037   0.7470   0.0586 C.2            1 S1                 0.0000
     13 ****         5.9701   1.3299  -0.2932 N.pl3          1 S1                -1.0000
     14 ****         5.9230   2.5673  -0.8650 C.2            1 S1                 0.0000
     15 ****         6.9446   3.1614  -1.2077 O.2            1 S1                 0.0000
     16 ****         4.6075   3.2044  -1.0768 C.2            1 S1                 0.0000
     17 ****         4.5582   4.5787  -1.7225 C.3            1 S1                 0.0000
     18 ****         3.4788   2.5551  -0.6959 C.2            1 S1                 0.0000
     19 ****        -1.5572  -1.0164   2.1533 C.3            1 S1                 0.0000
     20 ****        -1.8692  -0.2973   3.4596 C.3            1 S1                 0.0000
     21 ****        -2.6971  -1.5108   1.2487 C.3            1 S1                 0.0000
     22 ****        -3.8305  -0.6577   1.3635 O.3            1 S1                 0.0000
     23 ****        -5.0329  -1.2739   0.9342 C.3            1 S1                 0.0000
     24 ****        -2.1516   0.4984  -3.0622 H              1 S1                 0.0000
     25 ****        -1.0089  -0.8036  -2.7949 H              1 S1                 0.0000
     26 ****        -0.8688   0.6996  -1.8815 H              1 S1                 0.0000
     27 ****        -3.1286   0.2524  -0.8737 H              1 S1                 0.0000
     28 ****        -3.2102  -1.2754  -1.6697 H              1 S1                 0.0000
     29 ****        -0.1907  -2.1342  -1.1653 H              1 S1                 0.0000
     30 ****        -0.4444  -2.8875   0.3610 H              1 S1                 0.0000
     31 ****        -1.1603  -4.4355  -1.3313 H              1 S1                 0.0000
     32 ****        -2.2204  -3.2645  -2.0882 H              1 S1                 0.0000
     33 ****        -2.6102  -3.9051  -0.4913 H              1 S1                 0.0000
     34 ****        -1.5288   0.7750   0.9139 H              1 S1                 0.0000
     35 ****         0.8548  -1.0788   1.0691 H              1 S1                 0.0000
     36 ****         2.6613  -0.4593   0.6826 H              1 S1                 0.0000
     37 ****         4.9113  -0.2580   0.5212 H              1 S1                 0.0000
     38 ****         3.5324   4.9326  -1.8291 H              1 S1                 0.0000
     39 ****         5.0094   4.5504  -2.7147 H              1 S1                 0.0000
     40 ****         5.1031   5.3033  -1.1166 H              1 S1                 0.0000
     41 ****         2.5367   3.0473  -0.8738 H              1 S1                 0.0000
     42 ****        -0.8812  -1.8520   2.3448 H              1 S1                 0.0000
     43 ****        -2.5003   0.5767   3.2971 H              1 S1                 0.0000
     44 ****        -0.9555   0.0465   3.9447 H              1 S1                 0.0000
     45 ****        -2.3871  -0.9552   4.1576 H              1 S1                 0.0000
     46 ****        -2.9281  -2.5628   1.4247 H              1 S1                 0.0000
     47 ****        -5.8537  -0.5600   1.0006 H              1 S1                 0.0000
     48 ****        -5.2792  -2.1283   1.5657 H              1 S1                 0.0000
     49 ****        -4.9654  -1.6148  -0.0988 H              1 S1                 0.0000
     50 ****        -0.3349   2.0406   0.1036 LP             1 S1                 0.0000
     51 ****         1.2547   2.6189  -0.2689 LP             1 S1                 0.0000
     52 ****         6.8433   0.8675  -0.1389 LP             1 S1                 0.0000
     53 ****         7.8397   2.7376  -1.0692 LP             1 S1                 0.0000
     54 ****         6.8797   4.0680  -1.6246 LP             1 S1                 0.0000
     55 ****        -3.6735   0.1576   0.8062 LP             1 S1                 0.0000
     56 ****        -3.9333  -0.3915   2.3219 LP             1 S1                 0.0000
@<TRIPOS>BOND
    1    1    2 1     
    2    1   24 1     
    3    1   25 1     
    4    1   26 1     
    5    2    3 1     
    6    2   27 1     
    7    2   28 1     
    8    3   21 1     
    9    3    4 1     
   10    3    6 1     
   11    4    5 1     
   12    4   29 1     
   13    4   30 1     
   14    5   31 1     
   15    5   32 1     
   16    5   33 1     
   17    6    7 1     
   18    6   19 1     
   19    6   34 1     
   20    7    8 am    
   21    7   35 1     
   22    8    9 2     
   23    8   10 am    
   24   10   11 1     
   25   10   36 1     
   26   11   18 1     
   27   11   12 2     
   28   12   13 1     
   29   12   37 1     
   30   13   14 1     
   31   14   15 2     
   32   14   16 1     
   33   16   17 1     
   34   16   18 2     
   35   17   38 1     
   36   17   39 1     
   37   17   40 1     
   38   18   41 1     
   39   19   20 1     
   40   19   21 1     
   41   19   42 1     
   42   20   43 1     
   43   20   44 1     
   44   20   45 1     
   45   21   22 1     
   46   21   46 1     
   47   22   23 1     
   48   23   47 1     
   49   23   48 1     
   50   23   49 1     
   51    9   50 1     
   52    9   51 1     
   53   13   52 1     
   54   15   53 1     
   55   15   54 1     
   56   22   55 1     
   57   22   56 1     
@<TRIPOS>SUBSTRUCTURE
      1 S1             1
@<TRIPOS>SET
LONE_PAIRS      STATIC     ATOMS    <user>   **** ""
7 50 51 52 53 54 55 56
DONOR_HYDROGENS      STATIC     ATOMS    <user>   **** ""
2 35 36
ATOM$BLUE        STATIC     ATOMS    COLORGROUP SYSTEM
7 50 51 52 53 54 55 56
ATOM$RED        STATIC     ATOMS    COLORGROUP SYSTEM
2 35 36
