AV-unprocessed.smi:285|AV-procd|sdf|2167|dock2
  -GOLD-   2262021523D 1   1.00000     0.00000
 Structure written by MMmdl.
 31 33  0  0  0  0  0  0  0  0  1 V2000
  154.8139  140.8436  161.0272 N   0  0  0  0  0  0  0  0  0  0  0  0
  153.7301  141.5410  160.6602 C   0  0  0  0  0  0  0  0  0  0  0  0
  153.3151  142.5520  161.4588 N   0  0  0  0  0  0  0  0  0  0  0  0
  152.2385  143.2655  161.1131 C   0  0  0  0  0  0  0  0  0  0  0  0
  151.4582  143.1324  160.0374 N   0  0  0  0  0  0  0  0  0  0  0  0
  151.8754  142.1103  159.2333 C   0  0  0  0  0  0  0  0  0  0  0  0
  153.0011  141.2695  159.4750 C   0  0  0  0  0  0  0  0  0  0  0  0
  153.1347  140.3391  158.4519 N   0  0  0  0  0  0  0  0  0  0  0  0
  152.1383  140.6337  157.6643 C   0  0  0  0  0  0  0  0  0  0  0  0
  151.8583  139.6512  156.0567 Br  0  0  0  0  0  0  0  0  0  0  0  0
  151.3248  141.6779  158.0424 N   0  0  0  0  0  0  0  0  0  0  0  0
  150.1254  142.2367  157.3465 C   0  0  2  0  0  0  0  0  0  0  0  0
  148.8447  141.8633  158.0872 C   0  0  0  0  0  0  0  0  0  0  0  0
  147.8667  141.7878  156.9360 C   0  0  2  0  0  0  0  0  0  0  0  0
  146.7542  140.9870  157.2779 O   0  0  0  0  0  0  0  0  0  0  0  0
  148.7356  141.1565  155.8407 C   0  0  1  0  0  0  0  0  0  0  0  0
  148.2980  141.4817  154.4044 C   0  0  0  0  0  0  0  0  0  0  0  0
  148.6243  142.8159  154.0772 O   0  0  0  0  0  0  0  0  0  0  0  0
  150.0439  141.6811  156.0682 O   0  0  0  0  0  0  0  0  0  0  0  0
  155.1436  140.0855  160.4471 H   0  0  0  0  0  0  0  0  0  0  0  0
  155.3010  141.0800  161.8794 H   0  0  0  0  0  0  0  0  0  0  0  0
  151.9631  144.0567  161.7949 H   0  0  0  0  0  0  0  0  0  0  0  0
  150.2868  143.3116  157.2712 H   0  0  0  0  0  0  0  0  0  0  0  0
  148.9613  140.8889  158.5656 H   0  0  0  0  0  0  0  0  0  0  0  0
  148.5899  142.6074  158.8423 H   0  0  0  0  0  0  0  0  0  0  0  0
  147.5421  142.7892  156.6492 H   0  0  0  0  0  0  0  0  0  0  0  0
  146.9034  140.6198  158.1363 H   0  0  0  0  0  0  0  0  0  0  0  0
  148.7958  140.0759  155.9843 H   0  0  0  0  0  0  0  0  0  0  0  0
  148.7639  140.8030  153.6895 H   0  0  0  0  0  0  0  0  0  0  0  0
  147.2188  141.3615  154.3072 H   0  0  0  0  0  0  0  0  0  0  0  0
  148.7103  143.3093  154.8787 H   0  0  0  0  0  0  0  0  0  0  0  0
  1  2  1  0  0  0  0
  1 20  1  0  0  0  0
  1 21  1  0  0  0  0
  2  7  1  0  0  0  0
  2  3  2  0  0  0  0
  3  4  1  0  0  0  0
  4  5  2  0  0  0  0
  4 22  1  0  0  0  0
  5  6  1  0  0  0  0
  6 11  1  0  0  0  0
  6  7  2  0  0  0  0
  7  8  1  0  0  0  0
  8  9  2  0  0  0  0
  9 10  1  0  0  0  0
  9 11  1  0  0  0  0
 11 12  1  0  0  0  0
 12 19  1  0  0  0  0
 12 13  1  0  0  0  0
 12 23  1  0  0  0  0
 13 14  1  0  0  0  0
 13 24  1  0  0  0  0
 13 25  1  0  0  0  0
 14 15  1  0  0  0  0
 14 16  1  0  0  0  0
 14 26  1  0  0  0  0
 15 27  1  0  0  0  0
 16 17  1  0  0  0  0
 16 19  1  0  0  0  0
 16 28  1  0  0  0  0
 17 18  1  0  0  0  0
 17 29  1  0  0  0  0
 17 30  1  0  0  0  0
 18 31  1  0  0  0  0
M  END
> <s_m_source_file>
AV-unprocessed.smi

> <i_m_source_file_index>
285

> <i_lp_mmshare_version>
43012

> <i_f3d_flags>
0

> <s_epik_input>
bjFbY0hdbmMoW05IMl0pYyhjMTIpbmMoQnIpbjJbQ0BASF0zW0NIMl1bQ0BASF0oW09IXSlbQ0BIXShPMylbQ0gyXVtPSF0=

> <s_epik_cmdline>
J2VwaWtfcHl0aG9uJywgJy1waCcsICc3LjAnLCAnLXRuJywgJzgnLCAnLW1hJywgJzIwMCcsICctbWV0YWxfYmluZGluZycsICctaW1hZScsICc8aW5maWxlLm1hZT4nLCAnLW9tYWUnLCAnPG91dGZpbGUubWFlPic=

> <r_lp_tautomer_probability>
1

> <r_epik_Ionization_Penalty>
0.000103242

> <r_epik_Ionization_Penalty_Charging>
0

> <r_epik_Ionization_Penalty_Neutral>
0.000103242

> <r_epik_State_Penalty>
-0

> <r_epik_Charging_Adjusted_Penalty>
0

> <i_epik_Tot_Q>
0

> <i_epik_Tot_abs_Q>
0

> <r_epik_Metal_State_Penalty>
-0

> <b_epik_Metal_Only>
0

> <s_epik_Chemistry_Notes>
This compound contains an acetal/aminal-like group ( X-CH(R)-Y where X, Y are N, S, or O) that may be acid/base labile, releasing an aldehyde.

> <s_lp_Force_Field>
OPLS_2005

> <r_lp_Energy>
29.9109

> <b_lp_Chiralities_Consistent>
1

> <s_lp_Variant>
AV-unprocessed.smi:285-3

> <Gold.Version>
5.8.1

> <Gold.Id.Protein>
6NUR|6NUR_protein|mol2

> <Gold.PLP.Fitness>
38.1027

> <Gold.PLP.PLP>
-33.3637

> <Gold.PLP.part.hbond>
-4.5995

> <Gold.PLP.part.metal>
0.0000

> <Gold.PLP.part.buried>
-2.9140

> <Gold.PLP.part.nonpolar>
-23.6924

> <Gold.PLP.part.repulsive>
0.1778

> <Gold.PLP.ligand.clash>
0.0000

> <Gold.PLP.ligand.torsion>
0.3458

> <Gold.PLP.Chemscore.Hbond>
1.8080

> <Gold.PLP.Chemscore.CHOScore>
0.0000

> <Gold.PLP.Chemscore.Metal>
0.0000

> <Gold.Chemscore.Hbonds>
donor molecule, donor type, donor heavy atom, donor atom, acceptor molecule, acceptor atom, score
      L1  H    18    31       P1  8028  0.98
      P1  H  7997  8009       L1     8  0.84

> <Gold.PLP.Chemscore.Internal.Correction>
0.0066

> <Gold.Rescore>
     Score         DG    S(hbond)    S(metal)    S(lipo)     H(rot)  DE(clash)    DE(int)     intcor
      5.01      -7.07       1.73        0.00      31.17       3.06       0.14       1.92       ----

> <Gold.Chemscore.Fitness>
5.0100

> <Gold.Chemscore.DG>
-7.0654

> <Gold.Chemscore.ZeroCoef>
-5.4800

> <Gold.Chemscore.Hbond>
1.7289

> <Gold.Chemscore.Metal>
0.0000

> <Gold.Chemscore.Lipo>
31.1652

> <Gold.Chemscore.Internal_Hbond>
0.0000

> <Gold.Chemscore.DEClash>
0.1358

> <Gold.Chemscore.DEInternal>
1.9197

> <Gold.Chemscore.Rot>
3.0607

> <Gold.Chemscore.Internal.Correction>
   9.000000E+99

> <Gold.Chemscore.Hbonds>
donor molecule, donor type, donor heavy atom, donor atom, acceptor molecule, acceptor atom, score
      L1  H    18    31       P1  8028  0.92
      P1  H  7997  8009       L1     8  0.20
      P1  H  8011  8017       L1    18  0.01

> <Gold.Chemscore.Hbond.Weighted>
-5.7744

> <Gold.Chemscore.Metal.Weighted>
-0.0000

> <Gold.Chemscore.Lipo.Weighted>
-3.6463

> <Gold.Chemscore.Internal_Hbond.Weighted>
0.0000

> <Gold.Chemscore.DEClash.Weighted>
0.1358

> <Gold.Chemscore.DEInternal.Weighted>
1.9197

> <Gold.Chemscore.Rot.Weighted>
7.8354

> <Gold.Chemscore.Internal.Correction.Weighted>
   9.000000E+99

> <Gold.Protein.RotatedTorsions>
[ 6907 6896 6895 6894 ] final   59.53 input  -60.11 | X-H torsion
[ 7974 7965 7964 7962 ] final  159.70 input  175.53 | X-H torsion
[ 8008 7997 7996 7995 ] final  151.49 input   59.86 | X-H torsion
[ 10167 10162 10161 10158 ] final  152.18 input  -65.29 | X-H torsion
[ 10718 10713 10712 10709 ] final -124.58 input   66.30 | X-H torsion
[ 10763 10752 10751 10750 ] final   40.08 input  -60.55 | X-H torsion
[ 11005 11000 10999 10996 ] final -120.48 input  -57.11 | X-H torsion

> <Gold.Protein.ActiveResidues>
 VAL166  LYS551  ARG553  GLY616  TRP617  ASP618  TYR619  PRO620  LYS621  CYS622 
 ASP623  PHE694  ASN695  SER759  ASP760  ASP761  ALA762  ILE779  LEU786  VAL792 
 PHE793  MET794  SER795  GLU796  ALA797  LYS798  CYS799  TRP800  GLU811  SER814 

> <Gold.Protein.RotatedAtoms>
  152.3923  134.6421  160.0102 H   0  0  0  0  0  0  0  0  0  0  0  0  # atno 6907 bound_to 6896
  151.6651  133.3310  159.3191 H   0  0  0  0  0  0  0  0  0  0  0  0  # atno 6908 bound_to 6896
  150.7837  134.6847  159.6508 H   0  0  0  0  0  0  0  0  0  0  0  0  # atno 6909 bound_to 6896
  144.7776  139.7654  143.6272 H   0  0  0  0  0  0  0  0  0  0  0  0  # atno 7974 bound_to 7965
  156.2671  140.2046  156.6184 H   0  0  0  0  0  0  0  0  0  0  0  0  # atno 8008 bound_to 7997
  154.6776  140.0543  157.0256 H   0  0  0  0  0  0  0  0  0  0  0  0  # atno 8009 bound_to 7997
  155.1047  140.3209  155.4540 H   0  0  0  0  0  0  0  0  0  0  0  0  # atno 8010 bound_to 7997
  139.4835  144.5380  151.7613 H   0  0  0  0  0  0  0  0  0  0  0  0  # atno 10167 bound_to 10162
  156.1600  130.6595  151.0036 H   0  0  0  0  0  0  0  0  0  0  0  0  # atno 10718 bound_to 10713
  152.9947  135.6202  154.2569 H   0  0  0  0  0  0  0  0  0  0  0  0  # atno 10763 bound_to 10752
  154.2306  135.2792  155.2893 H   0  0  0  0  0  0  0  0  0  0  0  0  # atno 10764 bound_to 10752
  154.5452  135.5749  153.6932 H   0  0  0  0  0  0  0  0  0  0  0  0  # atno 10765 bound_to 10752
  141.0140  134.0222  157.3374 H   0  0  0  0  0  0  0  0  0  0  0  0  # atno 11005 bound_to 11000
  146.1965  139.5234  142.9771 LP  0  0  0  0  0  0  0  0  0  0  0  0  # atno 17320 bound_to 7965
  145.6142  141.0334  143.1950 LP  0  0  0  0  0  0  0  0  0  0  0  0  # atno 17321 bound_to 7965
  140.4915  144.1303  150.5951 LP  0  0  0  0  0  0  0  0  0  0  0  0  # atno 17342 bound_to 10162
  140.4166  143.2631  151.9767 LP  0  0  0  0  0  0  0  0  0  0  0  0  # atno 17343 bound_to 10162
  157.6725  131.0858  150.7577 LP  0  0  0  0  0  0  0  0  0  0  0  0  # atno 17370 bound_to 10713
  156.7641  130.4808  149.5431 LP  0  0  0  0  0  0  0  0  0  0  0  0  # atno 17371 bound_to 10713
  139.9106  135.0189  156.7676 LP  0  0  0  0  0  0  0  0  0  0  0  0  # atno 17394 bound_to 11000
  140.6685  133.9581  155.7843 LP  0  0  0  0  0  0  0  0  0  0  0  0  # atno 17395 bound_to 11000

$$$$
