AV-unprocessed.smi:36|AV-procd|sdf|300|dock3
  -GOLD-   2262016103D 1   1.00000     0.00000
 Structure written by MMmdl.
 63 66  0  0  0  0  0  0  0  0  2 V2000
  145.5818  131.8070  152.3100 C   0  0  0  0  0  0  0  0  0  0  0  0
  145.5139  133.3259  152.0805 C   0  0  0  0  0  0  0  0  0  0  0  0
  146.3040  133.7003  150.8152 C   0  0  0  0  0  0  0  0  0  0  0  0
  144.0489  133.7667  151.9260 C   0  0  0  0  0  0  0  0  0  0  0  0
  146.2811  134.2287  153.5787 Si  0  0  0  0  0  0  0  0  0  0  0  0
  145.2661  133.9367  155.1578 C   0  0  0  0  0  0  0  0  0  0  0  0
  148.0774  133.6721  153.8621 C   0  0  0  0  0  0  0  0  0  0  0  0
  146.2741  135.8889  153.2505 O   0  0  0  0  0  0  0  0  0  0  0  0
  146.3104  136.8765  154.2596 C   0  0  0  0  0  0  0  0  0  0  0  0
  146.0999  138.2670  153.6440 C   0  0  1  0  0  0  0  0  0  0  0  0
  146.7517  139.2072  154.4998 O   0  0  0  0  0  0  0  0  0  0  0  0
  147.6431  139.9816  153.7642 C   0  0  1  0  0  0  0  0  0  0  0  0
  148.8216  140.2956  154.6234 N   0  0  0  0  0  0  0  0  0  0  0  0
  149.3119  141.5114  154.9364 C   0  0  0  0  0  0  0  0  0  0  0  0
  150.3790  141.5562  155.7314 N   0  0  0  0  0  0  0  0  0  0  0  0
  150.6083  140.2090  155.9697 C   0  0  0  0  0  0  0  0  0  0  0  0
  151.5946  139.5249  156.7322 C   0  0  0  0  0  0  0  0  0  0  0  0
  152.5546  140.1649  157.4162 N   0  5  0  0  0  0  0  0  0  0  0  0
  152.4783  140.2537  158.7683 C   0  0  0  0  0  0  0  0  0  0  0  0
  152.4692  139.3321  159.5875 O   0  0  0  0  0  0  0  0  0  0  0  0
  152.3218  141.6668  159.2639 C   0  0  0  0  0  0  0  0  0  0  0  0
  151.9555  142.6895  158.3592 C   0  0  0  0  0  0  0  0  0  0  0  0
  151.7815  144.0137  158.8067 C   0  0  0  0  0  0  0  0  0  0  0  0
  151.9635  144.3283  160.1663 C   0  0  0  0  0  0  0  0  0  0  0  0
  152.3140  143.3162  161.0792 C   0  0  0  0  0  0  0  0  0  0  0  0
  152.4877  141.9916  160.6325 C   0  0  0  0  0  0  0  0  0  0  0  0
  151.5195  138.1699  156.7626 N   0  0  0  0  0  0  0  0  0  0  0  0
  150.5589  137.5310  156.0852 C   0  0  0  0  0  0  0  0  0  0  0  0
  149.5844  138.0419  155.3273 N   0  0  0  0  0  0  0  0  0  0  0  0
  149.6444  139.4054  155.2949 C   0  0  0  0  0  0  0  0  0  0  0  0
  148.0449  139.1513  152.5504 C   0  0  0  0  0  0  0  0  0  0  0  0
  146.7481  138.4270  152.2552 C   0  0  2  0  0  0  0  0  0  0  0  0
  145.9214  139.2099  151.4165 O   0  0  0  0  0  0  0  0  0  0  0  0
  145.1495  131.2600  151.4715 H   0  0  0  0  0  0  0  0  0  0  0  0
  145.0366  131.5160  153.2082 H   0  0  0  0  0  0  0  0  0  0  0  0
  146.6116  131.4683  152.4261 H   0  0  0  0  0  0  0  0  0  0  0  0
  147.3464  133.3898  150.8897 H   0  0  0  0  0  0  0  0  0  0  0  0
  146.2938  134.7777  150.6458 H   0  0  0  0  0  0  0  0  0  0  0  0
  145.8830  133.2236  149.9292 H   0  0  0  0  0  0  0  0  0  0  0  0
  143.5793  133.2886  151.0657 H   0  0  0  0  0  0  0  0  0  0  0  0
  143.9732  134.8454  151.7856 H   0  0  0  0  0  0  0  0  0  0  0  0
  143.4603  133.5076  152.8064 H   0  0  0  0  0  0  0  0  0  0  0  0
  145.2196  132.8787  155.4145 H   0  0  0  0  0  0  0  0  0  0  0  0
  144.2414  134.2902  155.0471 H   0  0  0  0  0  0  0  0  0  0  0  0
  145.6982  134.4593  156.0111 H   0  0  0  0  0  0  0  0  0  0  0  0
  148.1348  132.6067  154.0836 H   0  0  0  0  0  0  0  0  0  0  0  0
  148.5354  134.2005  154.6979 H   0  0  0  0  0  0  0  0  0  0  0  0
  148.6983  133.8538  152.9853 H   0  0  0  0  0  0  0  0  0  0  0  0
  145.5245  136.6617  154.9840 H   0  0  0  0  0  0  0  0  0  0  0  0
  147.2576  136.8344  154.7966 H   0  0  0  0  0  0  0  0  0  0  0  0
  145.0317  138.4875  153.6102 H   0  0  0  0  0  0  0  0  0  0  0  0
  147.1945  140.9415  153.5041 H   0  0  0  0  0  0  0  0  0  0  0  0
  148.8622  142.4169  154.5565 H   0  0  0  0  0  0  0  0  0  0  0  0
  151.8105  142.4651  157.3125 H   0  0  0  0  0  0  0  0  0  0  0  0
  151.5074  144.7881  158.1057 H   0  0  0  0  0  0  0  0  0  0  0  0
  151.8299  145.3435  160.5093 H   0  0  0  0  0  0  0  0  0  0  0  0
  152.4476  143.5540  162.1240 H   0  0  0  0  0  0  0  0  0  0  0  0
  152.7471  141.2280  161.3518 H   0  0  0  0  0  0  0  0  0  0  0  0
  150.5740  136.4540  156.1598 H   0  0  0  0  0  0  0  0  0  0  0  0
  148.4138  139.7779  151.7374 H   0  0  0  0  0  0  0  0  0  0  0  0
  148.8183  138.4337  152.8252 H   0  0  0  0  0  0  0  0  0  0  0  0
  146.9241  137.4731  151.7585 H   0  0  0  0  0  0  0  0  0  0  0  0
  145.2706  139.6372  151.9518 H   0  0  0  0  0  0  0  0  0  0  0  0
  1  2  1  0  0  0  0
  1 34  1  0  0  0  0
  1 35  1  0  0  0  0
  1 36  1  0  0  0  0
  2  3  1  0  0  0  0
  2  4  1  0  0  0  0
  2  5  1  0  0  0  0
  3 37  1  0  0  0  0
  3 38  1  0  0  0  0
  3 39  1  0  0  0  0
  4 40  1  0  0  0  0
  4 41  1  0  0  0  0
  4 42  1  0  0  0  0
  5  6  1  0  0  0  0
  5  7  1  0  0  0  0
  5  8  1  0  0  0  0
  6 43  1  0  0  0  0
  6 44  1  0  0  0  0
  6 45  1  0  0  0  0
  7 46  1  0  0  0  0
  7 47  1  0  0  0  0
  7 48  1  0  0  0  0
  8  9  1  0  0  0  0
  9 10  1  0  0  0  0
  9 49  1  0  0  0  0
  9 50  1  0  0  0  0
 10 32  1  0  0  0  0
 10 11  1  0  0  0  0
 10 51  1  0  0  0  0
 11 12  1  0  0  0  0
 12 13  1  0  0  0  0
 12 31  1  0  0  0  0
 12 52  1  0  0  0  0
 13 30  1  0  0  0  0
 13 14  1  0  0  0  0
 14 15  2  0  0  0  0
 14 53  1  0  0  0  0
 15 16  1  0  0  0  0
 16 30  2  0  0  0  0
 16 17  1  0  0  0  0
 17 18  1  0  0  0  0
 17 27  2  0  0  0  0
 18 19  1  0  0  0  0
 19 20  2  0  0  0  0
 19 21  1  0  0  0  0
 21 26  1  0  0  0  0
 21 22  2  0  0  0  0
 22 23  1  0  0  0  0
 22 54  1  0  0  0  0
 23 24  2  0  0  0  0
 23 55  1  0  0  0  0
 24 25  1  0  0  0  0
 24 56  1  0  0  0  0
 25 26  2  0  0  0  0
 25 57  1  0  0  0  0
 26 58  1  0  0  0  0
 27 28  1  0  0  0  0
 28 29  2  0  0  0  0
 28 59  1  0  0  0  0
 29 30  1  0  0  0  0
 31 32  1  0  0  0  0
 31 60  1  0  0  0  0
 31 61  1  0  0  0  0
 32 33  1  0  0  0  0
 32 62  1  0  0  0  0
 33 63  1  0  0  0  0
M  CHG  1  18  -1
M  END
> <s_m_source_file>
AV-unprocessed.smi

> <i_m_source_file_index>
36

> <i_lp_mmshare_version>
43012

> <i_f3d_flags>
0

> <s_epik_input>
W0NIM11DKFtDSDNdKShbQ0gzXSlbU2ldKFtDSDNdKShbQ0gzXSlPW0NIMl1bQ0BASF0xT1tDQEhdKFtDSDJdW0NASF0xW09IXSluKFtjSF1uMiljKGMyMyluW2NIXW5jM1tOSF1DKD1PKWM0W2NIXVtjSF1bY0hdW2NIXVtjSF00

> <s_epik_cmdline>
J2VwaWtfcHl0aG9uJywgJy1waCcsICc3LjAnLCAnLXRuJywgJzgnLCAnLW1hJywgJzIwMCcsICctbWV0YWxfYmluZGluZycsICctaW1hZScsICc8aW5maWxlLm1hZT4nLCAnLW9tYWUnLCAnPG91dGZpbGUubWFlPic=

> <r_lp_tautomer_probability>
1

> <r_epik_Ionization_Penalty>
4.75685

> <r_epik_Ionization_Penalty_Charging>
3.55822

> <r_epik_Ionization_Penalty_Neutral>
1.19863

> <r_epik_State_Penalty>
3.564

> <r_epik_Charging_Adjusted_Penalty>
7.12222

> <i_epik_Tot_Q>
-1

> <i_epik_Tot_abs_Q>
1

> <r_epik_Metal_State_Penalty>
0.523258

> <b_epik_Metal_Only>
1

> <s_epik_Chemistry_Notes>
This compound contains an acetal/aminal-like group ( X-CH(R)-Y where X, Y are N, S, or O) that may be acid/base labile, releasing an aldehyde.

> <s_lp_Force_Field>
OPLS_2005

> <r_lp_Energy>
29.6254

> <b_lp_Chiralities_Consistent>
1

> <s_lp_Variant>
AV-unprocessed.smi:36-22

> <Gold.Version>
5.8.1

> <Gold.Id.Protein>
6NUR|6NUR_protein|mol2

> <Gold.PLP.Fitness>
56.1415

> <Gold.PLP.PLP>
-47.6325

> <Gold.PLP.part.hbond>
-3.1995

> <Gold.PLP.part.metal>
0.0000

> <Gold.PLP.part.buried>
2.9562

> <Gold.PLP.part.nonpolar>
-47.5287

> <Gold.PLP.part.repulsive>
1.3823

> <Gold.PLP.ligand.clash>
0.0000

> <Gold.PLP.ligand.torsion>
2.1130

> <Gold.PLP.Chemscore.Hbond>
3.0000

> <Gold.PLP.Chemscore.CHOScore>
1.0000

> <Gold.PLP.Chemscore.Metal>
0.0000

> <Gold.Chemscore.Hbonds>
donor molecule, donor type, donor heavy atom, donor atom, acceptor molecule, acceptor atom, score
      L1  H    33    63       P1 10175  1.00
      P1  H  7997  8009       L1    18  2.00
      L1  C    14    53       P1  8028  0.95

> <Gold.PLP.Chemscore.Internal.Correction>
0.7350

> <Gold.Rescore>
     Score         DG    S(hbond)    S(metal)    S(lipo)     H(rot)  DE(clash)    DE(int)     intcor
     15.19     -19.01       1.81        0.00     122.44       2.67       1.81       2.01       ----

> <Gold.Chemscore.Fitness>
15.1942

> <Gold.Chemscore.DG>
-19.0079

> <Gold.Chemscore.ZeroCoef>
-5.4800

> <Gold.Chemscore.Hbond>
1.8079

> <Gold.Chemscore.Metal>
0.0000

> <Gold.Chemscore.Lipo>
122.4381

> <Gold.Chemscore.Internal_Hbond>
0.0000

> <Gold.Chemscore.DEClash>
1.8082

> <Gold.Chemscore.DEInternal>
2.0056

> <Gold.Chemscore.Rot>
2.6702

> <Gold.Chemscore.Internal.Correction>
   9.000000E+99

> <Gold.Chemscore.Hbonds>
donor molecule, donor type, donor heavy atom, donor atom, acceptor molecule, acceptor atom, score
      L1  H    33    63       P1 10175  0.88
      P1  H  7997  8009       L1    18  0.72

> <Gold.Chemscore.Hbond.Weighted>
-6.0384

> <Gold.Chemscore.Metal.Weighted>
-0.0000

> <Gold.Chemscore.Lipo.Weighted>
-14.3253

> <Gold.Chemscore.Internal_Hbond.Weighted>
0.0000

> <Gold.Chemscore.DEClash.Weighted>
1.8082

> <Gold.Chemscore.DEInternal.Weighted>
2.0056

> <Gold.Chemscore.Rot.Weighted>
6.8358

> <Gold.Chemscore.Internal.Correction.Weighted>
   9.000000E+99

> <Gold.Protein.RotatedTorsions>
[ 6907 6896 6895 6894 ] final   82.40 input  -60.11 | X-H torsion
[ 7974 7965 7964 7962 ] final -134.50 input  175.53 | X-H torsion
[ 8008 7997 7996 7995 ] final  169.85 input   59.86 | X-H torsion
[ 10167 10162 10161 10158 ] final -170.16 input  -65.29 | X-H torsion
[ 10718 10713 10712 10709 ] final -115.73 input   66.30 | X-H torsion
[ 10763 10752 10751 10750 ] final -122.51 input  -60.55 | X-H torsion
[ 11005 11000 10999 10996 ] final -124.27 input  -57.11 | X-H torsion

> <Gold.Protein.ActiveResidues>
 VAL166  LYS551  ARG553  GLY616  TRP617  ASP618  TYR619  PRO620  LYS621  CYS622 
 ASP623  PHE694  ASN695  SER759  ASP760  ASP761  ALA762  ILE779  LEU786  VAL792 
 PHE793  MET794  SER795  GLU796  ALA797  LYS798  CYS799  TRP800  GLU811  SER814 

> <Gold.Protein.RotatedAtoms>
  152.5298  134.3055  159.9093 H   0  0  0  0  0  0  0  0  0  0  0  0  # atno 6907 bound_to 6896
  151.3005  133.4118  159.2647 H   0  0  0  0  0  0  0  0  0  0  0  0  # atno 6908 bound_to 6896
  151.0123  134.9422  159.8071 H   0  0  0  0  0  0  0  0  0  0  0  0  # atno 6909 bound_to 6896
  144.9097  140.6879  143.5033 H   0  0  0  0  0  0  0  0  0  0  0  0  # atno 7974 bound_to 7965
  156.1419  140.1553  156.8906 H   0  0  0  0  0  0  0  0  0  0  0  0  # atno 8008 bound_to 7997
  154.4995  140.0829  156.7806 H   0  0  0  0  0  0  0  0  0  0  0  0  # atno 8009 bound_to 7997
  155.4061  140.3416  155.4262 H   0  0  0  0  0  0  0  0  0  0  0  0  # atno 8010 bound_to 7997
  139.5878  144.1279  152.1597 H   0  0  0  0  0  0  0  0  0  0  0  0  # atno 10167 bound_to 10162
  156.0915  130.6097  150.8944 H   0  0  0  0  0  0  0  0  0  0  0  0  # atno 10718 bound_to 10713
  154.8691  135.4130  154.2793 H   0  0  0  0  0  0  0  0  0  0  0  0  # atno 10763 bound_to 10752
  153.3689  135.7006  153.6659 H   0  0  0  0  0  0  0  0  0  0  0  0  # atno 10764 bound_to 10752
  153.5529  135.3625  155.2739 H   0  0  0  0  0  0  0  0  0  0  0  0  # atno 10765 bound_to 10752
  140.9854  134.0614  157.3717 H   0  0  0  0  0  0  0  0  0  0  0  0  # atno 11005 bound_to 11000
  145.3475  139.1715  143.4452 LP  0  0  0  0  0  0  0  0  0  0  0  0  # atno 17320 bound_to 7965
  146.3152  140.3524  142.8657 LP  0  0  0  0  0  0  0  0  0  0  0  0  # atno 17321 bound_to 7965
  140.0847  144.5671  150.7097 LP  0  0  0  0  0  0  0  0  0  0  0  0  # atno 17342 bound_to 10162
  140.7147  143.2534  151.4472 LP  0  0  0  0  0  0  0  0  0  0  0  0  # atno 17343 bound_to 10162
  157.6066  131.0938  150.8869 LP  0  0  0  0  0  0  0  0  0  0  0  0  # atno 17370 bound_to 10713
  156.9016  130.5249  149.5282 LP  0  0  0  0  0  0  0  0  0  0  0  0  # atno 17371 bound_to 10713
  139.8968  135.0147  156.7070 LP  0  0  0  0  0  0  0  0  0  0  0  0  # atno 17394 bound_to 11000
  140.7123  133.9213  155.8092 LP  0  0  0  0  0  0  0  0  0  0  0  0  # atno 17395 bound_to 11000

$$$$
