AV-unprocessed.smi:2438|AV-procd|sdf|9599|dock7
  -GOLD-   2272013233D 1   1.00000     0.00000
 Structure written by MMmdl.
 44 45  0  0  0  0  0  0  0  0  2 V2000
  141.7969  133.8932  152.5995 C   0  0  0  0  0  0  0  0  0  0  0  0
  142.5068  134.8454  153.4448 N   0  0  0  0  0  0  0  0  0  0  0  0
  141.7437  136.0053  153.8864 C   0  0  0  0  0  0  0  0  0  0  0  0
  143.8385  135.1389  153.0884 C   0  0  0  0  0  0  0  0  0  0  0  0
  144.0501  136.0419  152.1034 N   0  0  0  0  0  0  0  0  0  0  0  0
  145.2997  136.3609  151.7506 C   0  0  0  0  0  0  0  0  0  0  0  0
  146.3798  135.8178  152.3272 N   0  3  0  0  0  0  0  0  0  0  0  0
  146.2235  134.9056  153.3154 C   0  0  0  0  0  0  0  0  0  0  0  0
  144.9311  134.5285  153.7503 C   0  0  0  0  0  0  0  0  0  0  0  0
  144.7016  133.5471  154.7554 N   0  0  0  0  0  0  0  0  0  0  0  0
  145.3937  133.3466  155.8884 C   0  0  0  0  0  0  0  0  0  0  0  0
  146.4081  133.9612  156.2172 O   0  0  0  0  0  0  0  0  0  0  0  0
  144.8228  132.3971  156.6422 N   0  0  0  0  0  0  0  0  0  0  0  0
  145.2812  131.9738  157.9647 C   0  0  2  0  0  0  0  0  0  0  0  0
  146.2047  130.7468  157.8408 C   0  0  0  0  0  0  0  0  0  0  0  0
  145.4338  129.4799  157.4316 C   0  0  0  0  0  0  0  0  0  0  0  0
  144.2610  129.2028  158.3857 C   0  0  0  0  0  0  0  0  0  0  0  0
  143.3064  130.4115  158.4823 C   0  0  1  0  0  0  0  0  0  0  0  0
  142.1122  130.1364  159.4183 C   0  0  0  0  0  0  0  0  0  0  0  0
  141.3815  129.1156  158.9691 F   0  0  0  0  0  0  0  0  0  0  0  0
  142.5509  129.8474  160.6435 F   0  0  0  0  0  0  0  0  0  0  0  0
  141.3382  131.2187  159.4994 F   0  0  0  0  0  0  0  0  0  0  0  0
  144.0934  131.6724  158.9054 C   0  0  0  0  0  0  0  0  0  0  0  0
  142.4166  133.0207  152.3897 H   0  0  0  0  0  0  0  0  0  0  0  0
  141.5077  134.3511  151.6528 H   0  0  0  0  0  0  0  0  0  0  0  0
  140.8917  133.5478  153.0995 H   0  0  0  0  0  0  0  0  0  0  0  0
  142.3365  136.6794  154.5048 H   0  0  0  0  0  0  0  0  0  0  0  0
  140.8812  135.6863  154.4724 H   0  0  0  0  0  0  0  0  0  0  0  0
  141.3804  136.5691  153.0264 H   0  0  0  0  0  0  0  0  0  0  0  0
  145.4772  137.0806  150.9651 H   0  0  0  0  0  0  0  0  0  0  0  0
  147.1468  134.5033  153.7036 H   0  0  0  0  0  0  0  0  0  0  0  0
  143.8497  133.0140  154.6533 H   0  0  0  0  0  0  0  0  0  0  0  0
  143.9925  131.9451  156.2877 H   0  0  0  0  0  0  0  0  0  0  0  0
  145.8663  132.7898  158.3929 H   0  0  0  0  0  0  0  0  0  0  0  0
  147.0053  130.9454  157.1272 H   0  0  0  0  0  0  0  0  0  0  0  0
  146.6925  130.5699  158.8002 H   0  0  0  0  0  0  0  0  0  0  0  0
  145.0589  129.5875  156.4132 H   0  0  0  0  0  0  0  0  0  0  0  0
  146.1100  128.6246  157.4193 H   0  0  0  0  0  0  0  0  0  0  0  0
  143.7180  128.3218  158.0425 H   0  0  0  0  0  0  0  0  0  0  0  0
  144.6488  128.9585  159.3754 H   0  0  0  0  0  0  0  0  0  0  0  0
  142.8962  130.5896  157.4871 H   0  0  0  0  0  0  0  0  0  0  0  0
  144.4735  131.5347  159.9184 H   0  0  0  0  0  0  0  0  0  0  0  0
  143.4267  132.5338  158.9544 H   0  0  0  0  0  0  0  0  0  0  0  0
  147.3191  136.0786  152.0260 H   0  0  0  0  0  0  0  0  0  0  0  0
  1  2  1  0  0  0  0
  1 24  1  0  0  0  0
  1 25  1  0  0  0  0
  1 26  1  0  0  0  0
  2  3  1  0  0  0  0
  2  4  1  0  0  0  0
  3 27  1  0  0  0  0
  3 28  1  0  0  0  0
  3 29  1  0  0  0  0
  4  9  1  0  0  0  0
  4  5  2  0  0  0  0
  5  6  1  0  0  0  0
  6  7  2  0  0  0  0
  6 30  1  0  0  0  0
  7  8  1  0  0  0  0
  7 44  1  0  0  0  0
  8  9  2  0  0  0  0
  8 31  1  0  0  0  0
  9 10  1  0  0  0  0
 10 11  1  0  0  0  0
 10 32  1  0  0  0  0
 11 12  2  0  0  0  0
 11 13  1  0  0  0  0
 13 14  1  0  0  0  0
 13 33  1  0  0  0  0
 14 23  1  0  0  0  0
 14 15  1  0  0  0  0
 14 34  1  0  0  0  0
 15 16  1  0  0  0  0
 15 35  1  0  0  0  0
 15 36  1  0  0  0  0
 16 17  1  0  0  0  0
 16 37  1  0  0  0  0
 16 38  1  0  0  0  0
 17 18  1  0  0  0  0
 17 39  1  0  0  0  0
 17 40  1  0  0  0  0
 18 19  1  0  0  0  0
 18 23  1  0  0  0  0
 18 41  1  0  0  0  0
 19 20  1  0  0  0  0
 19 21  1  0  0  0  0
 19 22  1  0  0  0  0
 23 42  1  0  0  0  0
 23 43  1  0  0  0  0
M  CHG  1   7   1
M  END
> <s_m_source_file>
AV-unprocessed.smi

> <i_m_source_file_index>
2438

> <i_lp_mmshare_version>
43012

> <i_f3d_flags>
0

> <s_epik_input>
W0NIM11OKFtDSDNdKWMxbltjSF1uW2NIXWMxW05IXUMoPU8pW05IXVtDQEBIXTJbQ0gyXVtDSDJdW0NIMl1bQ0BASF0oQyhGKShGKUYpW0NIMl0y

> <s_epik_cmdline>
J2VwaWtfcHl0aG9uJywgJy1waCcsICc3LjAnLCAnLXRuJywgJzgnLCAnLW1hJywgJzIwMCcsICctbWV0YWxfYmluZGluZycsICctaW1hZScsICc8aW5maWxlLm1hZT4nLCAnLW9tYWUnLCAnPG91dGZpbGUubWFlPic=

> <r_lp_tautomer_probability>
0.999336

> <r_epik_Ionization_Penalty>
2.11643

> <r_epik_Ionization_Penalty_Charging>
2.11639

> <r_epik_Ionization_Penalty_Neutral>
4.47523e-05

> <r_epik_State_Penalty>
2.25369

> <r_epik_Charging_Adjusted_Penalty>
4.37008

> <i_epik_Tot_Q>
1

> <i_epik_Tot_abs_Q>
1

> <r_epik_Metal_State_Penalty>
2.27019

> <b_epik_Metal_Only>
0

> <s_lp_Force_Field>
OPLS_2005

> <r_lp_Energy>
15.0376

> <b_lp_Chiralities_Consistent>
1

> <s_lp_Variant>
AV-unprocessed.smi:2438-5

> <Gold.Version>
5.8.1

> <Gold.Id.Protein>
6NUR|6NUR_protein|mol2

> <Gold.PLP.Fitness>
41.3966

> <Gold.PLP.PLP>
-27.9033

> <Gold.PLP.part.hbond>
-3.0000

> <Gold.PLP.part.metal>
0.0000

> <Gold.PLP.part.buried>
-4.5428

> <Gold.PLP.part.nonpolar>
-20.4433

> <Gold.PLP.part.repulsive>
0.3621

> <Gold.PLP.ligand.clash>
0.0000

> <Gold.PLP.ligand.torsion>
0.9341

> <Gold.PLP.Chemscore.Hbond>
3.9920

> <Gold.PLP.Chemscore.CHOScore>
0.9963

> <Gold.PLP.Chemscore.Metal>
0.0000

> <Gold.Chemscore.Hbonds>
donor molecule, donor type, donor heavy atom, donor atom, acceptor molecule, acceptor atom, score
      L1  H     7    44       P1  7948  2.00
      L1  H    10    32       P1 10957  1.00
      L1  H    13    33       P1 10957  0.99
      L1  C     6    30       P1 10171  1.00

> <Gold.PLP.Chemscore.Internal.Correction>
0.3965

> <Gold.Rescore>
     Score         DG    S(hbond)    S(metal)    S(lipo)     H(rot)  DE(clash)    DE(int)     intcor
     13.65     -15.36       2.82        0.00      32.66       1.31       0.07       1.64       ----

> <Gold.Chemscore.Fitness>
13.6479

> <Gold.Chemscore.DG>
-15.3648

> <Gold.Chemscore.ZeroCoef>
-5.4800

> <Gold.Chemscore.Hbond>
2.8179

> <Gold.Chemscore.Metal>
0.0000

> <Gold.Chemscore.Lipo>
32.6590

> <Gold.Chemscore.Internal_Hbond>
0.0000

> <Gold.Chemscore.DEClash>
0.0733

> <Gold.Chemscore.DEInternal>
1.6436

> <Gold.Chemscore.Rot>
1.3078

> <Gold.Chemscore.Internal.Correction>
   9.000000E+99

> <Gold.Chemscore.Hbonds>
donor molecule, donor type, donor heavy atom, donor atom, acceptor molecule, acceptor atom, score
      L1  H     7    44       P1  7948  0.99
      L1  H    10    32       P1 10957  1.00
      L1  H    13    33       P1 10957  0.81

> <Gold.Chemscore.Hbond.Weighted>
-9.4117

> <Gold.Chemscore.Metal.Weighted>
-0.0000

> <Gold.Chemscore.Lipo.Weighted>
-3.8211

> <Gold.Chemscore.Internal_Hbond.Weighted>
0.0000

> <Gold.Chemscore.DEClash.Weighted>
0.0733

> <Gold.Chemscore.DEInternal.Weighted>
1.6436

> <Gold.Chemscore.Rot.Weighted>
3.3481

> <Gold.Chemscore.Internal.Correction.Weighted>
   9.000000E+99

> <Gold.Protein.RotatedTorsions>
[ 6907 6896 6895 6894 ] final  170.79 input  -60.11 | X-H torsion
[ 7974 7965 7964 7962 ] final   75.28 input  175.53 | X-H torsion
[ 8008 7997 7996 7995 ] final -136.66 input   59.86 | X-H torsion
[ 10167 10162 10161 10158 ] final -177.25 input  -65.29 | X-H torsion
[ 10718 10713 10712 10709 ] final -103.84 input   66.30 | X-H torsion
[ 10763 10752 10751 10750 ] final  174.58 input  -60.55 | X-H torsion
[ 11005 11000 10999 10996 ] final -153.43 input  -57.11 | X-H torsion

> <Gold.Protein.ActiveResidues>
 VAL166  LYS551  ARG553  GLY616  TRP617  ASP618  TYR619  PRO620  LYS621  CYS622 
 ASP623  PHE694  ASN695  SER759  ASP760  ASP761  ALA762  ILE779  LEU786  VAL792 
 PHE793  MET794  SER795  GLU796  ALA797  LYS798  CYS799  TRP800  GLU811  SER814 

> <Gold.Protein.RotatedAtoms>
  151.8106  133.3381  159.3553 H   0  0  0  0  0  0  0  0  0  0  0  0  # atno 6907 bound_to 6896
  150.7327  134.5668  159.5879 H   0  0  0  0  0  0  0  0  0  0  0  0  # atno 6908 bound_to 6896
  152.3078  134.7535  160.0394 H   0  0  0  0  0  0  0  0  0  0  0  0  # atno 6909 bound_to 6896
  145.7176  139.2637  143.1615 H   0  0  0  0  0  0  0  0  0  0  0  0  # atno 7974 bound_to 7965
  155.3989  140.0504  157.3037 H   0  0  0  0  0  0  0  0  0  0  0  0  # atno 8008 bound_to 7997
  154.5000  140.2153  155.9327 H   0  0  0  0  0  0  0  0  0  0  0  0  # atno 8009 bound_to 7997
  156.1455  140.3146  155.8568 H   0  0  0  0  0  0  0  0  0  0  0  0  # atno 8010 bound_to 7997
  139.5489  144.2161  152.1041 H   0  0  0  0  0  0  0  0  0  0  0  0  # atno 10167 bound_to 10162
  156.0281  130.5487  150.7311 H   0  0  0  0  0  0  0  0  0  0  0  0  # atno 10718 bound_to 10713
  154.4559  135.2766  155.1748 H   0  0  0  0  0  0  0  0  0  0  0  0  # atno 10763 bound_to 10752
  154.3556  135.6140  153.5668 H   0  0  0  0  0  0  0  0  0  0  0  0  # atno 10764 bound_to 10752
  152.9850  135.5822  154.4912 H   0  0  0  0  0  0  0  0  0  0  0  0  # atno 10765 bound_to 10752
  140.7082  134.3862  157.5201 H   0  0  0  0  0  0  0  0  0  0  0  0  # atno 11005 bound_to 11000
  146.0655  140.7925  142.9713 LP  0  0  0  0  0  0  0  0  0  0  0  0  # atno 17320 bound_to 7965
  144.6925  140.3262  143.7224 LP  0  0  0  0  0  0  0  0  0  0  0  0  # atno 17321 bound_to 7965
  140.1652  144.4988  150.6610 LP  0  0  0  0  0  0  0  0  0  0  0  0  # atno 17342 bound_to 10162
  140.6746  143.2300  151.5539 LP  0  0  0  0  0  0  0  0  0  0  0  0  # atno 17343 bound_to 10162
  157.4903  131.0910  151.0434 LP  0  0  0  0  0  0  0  0  0  0  0  0  # atno 17370 bound_to 10713
  157.0843  130.5916  149.5426 LP  0  0  0  0  0  0  0  0  0  0  0  0  # atno 17371 bound_to 10713
  139.8878  134.8872  156.2506 LP  0  0  0  0  0  0  0  0  0  0  0  0  # atno 17394 bound_to 11000
  141.0106  133.7097  156.1106 LP  0  0  0  0  0  0  0  0  0  0  0  0  # atno 17395 bound_to 11000

$$$$
