AV-unprocessed.smi:713|AV-procd|sdf|3476|dock6
  -GOLD-   22720 0463D 1   1.00000     0.00000
 Structure written by MMmdl.
 41 42  0  0  0  0  0  0  0  0  1 V2000
  148.0594  145.0025  161.6262 C   0  0  0  0  0  0  0  0  0  0  0  0
  148.4340  144.7563  160.1504 C   0  0  2  0  0  0  0  0  0  0  0  0
  147.5974  143.6429  159.5013 C   0  0  0  0  0  0  0  0  0  0  0  0
  146.9412  142.8626  160.1924 O   0  0  0  0  0  0  0  0  0  0  0  0
  147.6406  143.5761  158.1610 N   0  0  0  0  0  0  0  0  0  0  0  0
  146.9664  142.5728  157.3440 C   0  0  1  0  0  0  0  0  0  0  0  0
  145.8601  143.2450  156.5114 C   0  0  0  0  0  0  0  0  0  0  0  0
  145.1673  142.2347  155.5848 C   0  0  0  0  0  0  0  0  0  0  0  0
  146.1832  141.5282  154.6747 C   0  0  0  0  0  0  0  0  0  0  0  0
  147.2904  140.8426  155.4955 C   0  0  1  0  0  0  0  0  0  0  0  0
  148.5082  140.0420  154.3550 S   0  0  0  0  0  0  0  0  0  0  0  0
  147.4291  139.0776  153.2177 C   0  0  0  0  0  0  0  0  0  0  0  0
  149.1744  141.0983  153.5781 O   0  0  0  0  0  0  0  0  0  0  0  0
  149.3196  139.0886  155.1269 O   0  0  0  0  0  0  0  0  0  0  0  0
  147.9816  141.8534  156.4322 C   0  0  0  0  0  0  0  0  0  0  0  0
  149.8560  144.4808  159.9785 N   0  0  0  0  0  0  0  0  0  0  0  0
  150.5435  144.2797  158.7987 C   0  0  0  0  0  0  0  0  0  0  0  0
  151.8428  144.0104  159.1203 C   0  0  0  0  0  0  0  0  0  0  0  0
  151.8552  144.0560  160.5418 C   0  0  0  0  0  0  0  0  0  0  0  0
  150.6659  144.3284  161.0525 N   0  0  0  0  0  0  0  0  0  0  0  0
  147.0047  145.2615  161.7253 H   0  0  0  0  0  0  0  0  0  0  0  0
  148.6375  145.8293  162.0399 H   0  0  0  0  0  0  0  0  0  0  0  0
  148.2436  144.1267  162.2497 H   0  0  0  0  0  0  0  0  0  0  0  0
  148.2199  145.6792  159.6089 H   0  0  0  0  0  0  0  0  0  0  0  0
  148.2035  144.2565  157.6717 H   0  0  0  0  0  0  0  0  0  0  0  0
  146.4965  141.8369  157.9994 H   0  0  0  0  0  0  0  0  0  0  0  0
  145.1222  143.7041  157.1705 H   0  0  0  0  0  0  0  0  0  0  0  0
  146.2852  144.0514  155.9117 H   0  0  0  0  0  0  0  0  0  0  0  0
  144.6349  141.4940  156.1829 H   0  0  0  0  0  0  0  0  0  0  0  0
  144.4154  142.7411  154.9790 H   0  0  0  0  0  0  0  0  0  0  0  0
  145.6691  140.7951  154.0527 H   0  0  0  0  0  0  0  0  0  0  0  0
  146.6273  142.2542  153.9923 H   0  0  0  0  0  0  0  0  0  0  0  0
  146.8448  140.0464  156.0929 H   0  0  0  0  0  0  0  0  0  0  0  0
  148.0402  138.6403  152.4286 H   0  0  0  0  0  0  0  0  0  0  0  0
  146.6840  139.7366  152.7725 H   0  0  0  0  0  0  0  0  0  0  0  0
  146.9320  138.2769  153.7636 H   0  0  0  0  0  0  0  0  0  0  0  0
  148.5252  142.5908  155.8394 H   0  0  0  0  0  0  0  0  0  0  0  0
  148.7236  141.3450  157.0470 H   0  0  0  0  0  0  0  0  0  0  0  0
  150.0551  144.3432  157.8374 H   0  0  0  0  0  0  0  0  0  0  0  0
  152.6592  143.8061  158.4439 H   0  0  0  0  0  0  0  0  0  0  0  0
  152.6858  143.8957  161.2133 H   0  0  0  0  0  0  0  0  0  0  0  0
  1  2  1  0  0  0  0
  1 21  1  0  0  0  0
  1 22  1  0  0  0  0
  1 23  1  0  0  0  0
  2  3  1  0  0  0  0
  2 16  1  0  0  0  0
  2 24  1  0  0  0  0
  3  4  2  0  0  0  0
  3  5  1  0  0  0  0
  5  6  1  0  0  0  0
  5 25  1  0  0  0  0
  6 15  1  0  0  0  0
  6  7  1  0  0  0  0
  6 26  1  0  0  0  0
  7  8  1  0  0  0  0
  7 27  1  0  0  0  0
  7 28  1  0  0  0  0
  8  9  1  0  0  0  0
  8 29  1  0  0  0  0
  8 30  1  0  0  0  0
  9 10  1  0  0  0  0
  9 31  1  0  0  0  0
  9 32  1  0  0  0  0
 10 11  1  0  0  0  0
 10 15  1  0  0  0  0
 10 33  1  0  0  0  0
 11 12  1  0  0  0  0
 11 13  2  0  0  0  0
 11 14  2  0  0  0  0
 12 34  1  0  0  0  0
 12 35  1  0  0  0  0
 12 36  1  0  0  0  0
 15 37  1  0  0  0  0
 15 38  1  0  0  0  0
 16 20  1  0  0  0  0
 16 17  1  0  0  0  0
 17 18  2  0  0  0  0
 17 39  1  0  0  0  0
 18 19  1  0  0  0  0
 18 40  1  0  0  0  0
 19 20  2  0  0  0  0
 19 41  1  0  0  0  0
M  END
> <s_m_source_file>
AV-unprocessed.smi

> <i_m_source_file_index>
713

> <i_lp_mmshare_version>
43012

> <i_f3d_flags>
0

> <s_epik_input>
bjFbY0hdW2NIXVtjSF1uMVtDQEhdKFtDSDNdKUMoPU8pW05IXVtDQEBIXTJbQ0gyXVtDSDJdW0NIMl1bQ0BIXShbQ0gyXTIpUyg9TykoPU8pW0NIM10=

> <s_epik_cmdline>
J2VwaWtfcHl0aG9uJywgJy1waCcsICc3LjAnLCAnLXRuJywgJzgnLCAnLW1hJywgJzIwMCcsICctbWV0YWxfYmluZGluZycsICctaW1hZScsICc8aW5maWxlLm1hZT4nLCAnLW9tYWUnLCAnPG91dGZpbGUubWFlPic=

> <r_lp_tautomer_probability>
1

> <r_epik_Ionization_Penalty>
4.07816e-05

> <r_epik_Ionization_Penalty_Charging>
0

> <r_epik_Ionization_Penalty_Neutral>
4.07816e-05

> <r_epik_State_Penalty>
-0

> <r_epik_Charging_Adjusted_Penalty>
0

> <i_epik_Tot_Q>
0

> <i_epik_Tot_abs_Q>
0

> <r_epik_Metal_State_Penalty>
-0

> <b_epik_Metal_Only>
0

> <s_lp_Force_Field>
OPLS_2005

> <r_lp_Energy>
6.63175

> <b_lp_Chiralities_Consistent>
1

> <s_lp_Variant>
AV-unprocessed.smi:713-3

> <Gold.Version>
5.8.1

> <Gold.Id.Protein>
6NUR|6NUR_protein|mol2

> <Gold.PLP.Fitness>
41.9327

> <Gold.PLP.PLP>
-30.8317

> <Gold.PLP.part.hbond>
-6.1615

> <Gold.PLP.part.metal>
0.0000

> <Gold.PLP.part.buried>
-2.1117

> <Gold.PLP.part.nonpolar>
-25.4476

> <Gold.PLP.part.repulsive>
3.4408

> <Gold.PLP.ligand.clash>
0.0000

> <Gold.PLP.ligand.torsion>
0.5882

> <Gold.PLP.Chemscore.Hbond>
2.9172

> <Gold.PLP.Chemscore.CHOScore>
1.0914

> <Gold.PLP.Chemscore.Metal>
0.0000

> <Gold.Chemscore.Hbonds>
donor molecule, donor type, donor heavy atom, donor atom, acceptor molecule, acceptor atom, score
      L1  H     5    25       P1  8029  0.25
      P1  H  6933  6944       L1     4  0.66
      P1  H  6934  6946       L1     4  0.83
      P1  H  8011  8017       L1    13  1.00
      L1  C    17    39       P1  8028  0.95
      L1  C    17    39       P1  8029  0.15

> <Gold.PLP.Chemscore.Internal.Correction>
0.2512

> <Gold.Rescore>
     Score         DG    S(hbond)    S(metal)    S(lipo)     H(rot)  DE(clash)    DE(int)     intcor
     13.34     -16.44       2.10        0.00      71.57       1.72       2.54       0.56       ----

> <Gold.Chemscore.Fitness>
13.3387

> <Gold.Chemscore.DG>
-16.4374

> <Gold.Chemscore.ZeroCoef>
-5.4800

> <Gold.Chemscore.Hbond>
2.0957

> <Gold.Chemscore.Metal>
0.0000

> <Gold.Chemscore.Lipo>
71.5698

> <Gold.Chemscore.Internal_Hbond>
0.0000

> <Gold.Chemscore.DEClash>
2.5395

> <Gold.Chemscore.DEInternal>
0.5592

> <Gold.Chemscore.Rot>
1.7249

> <Gold.Chemscore.Internal.Correction>
   9.000000E+99

> <Gold.Chemscore.Hbonds>
donor molecule, donor type, donor heavy atom, donor atom, acceptor molecule, acceptor atom, score
      L1  H     5    25       P1  8029  0.01
      P1  H  6933  6944       L1     4  0.09
      P1  H  6934  6946       L1     4  0.78
      P1  H  7989  7998       L1    13  0.02
      P1  H  8011  8017       L1    13  0.95

> <Gold.Chemscore.Hbond.Weighted>
-6.9995

> <Gold.Chemscore.Metal.Weighted>
-0.0000

> <Gold.Chemscore.Lipo.Weighted>
-8.3737

> <Gold.Chemscore.Internal_Hbond.Weighted>
0.0000

> <Gold.Chemscore.DEClash.Weighted>
2.5395

> <Gold.Chemscore.DEInternal.Weighted>
0.5592

> <Gold.Chemscore.Rot.Weighted>
4.4157

> <Gold.Chemscore.Internal.Correction.Weighted>
   9.000000E+99

> <Gold.Protein.RotatedTorsions>
[ 6907 6896 6895 6894 ] final   41.64 input  -60.11 | X-H torsion
[ 7974 7965 7964 7962 ] final   28.08 input  175.53 | X-H torsion
[ 8008 7997 7996 7995 ] final    0.87 input   59.86 | X-H torsion
[ 10167 10162 10161 10158 ] final  -33.39 input  -65.29 | X-H torsion
[ 10718 10713 10712 10709 ] final   36.25 input   66.30 | X-H torsion
[ 10763 10752 10751 10750 ] final  -12.57 input  -60.55 | X-H torsion
[ 11005 11000 10999 10996 ] final  -68.47 input  -57.11 | X-H torsion

> <Gold.Protein.ActiveResidues>
 VAL166  LYS551  ARG553  GLY616  TRP617  ASP618  TYR619  PRO620  LYS621  CYS622 
 ASP623  PHE694  ASN695  SER759  ASP760  ASP761  ALA762  ILE779  LEU786  VAL792 
 PHE793  MET794  SER795  GLU796  ALA797  LYS798  CYS799  TRP800  GLU811  SER814 

> <Gold.Protein.RotatedAtoms>
  152.1979  134.8614  160.0510 H   0  0  0  0  0  0  0  0  0  0  0  0  # atno 6907 bound_to 6896
  151.9479  133.3652  159.3997 H   0  0  0  0  0  0  0  0  0  0  0  0  # atno 6908 bound_to 6896
  150.6948  134.4295  159.5286 H   0  0  0  0  0  0  0  0  0  0  0  0  # atno 6909 bound_to 6896
  146.1749  139.7104  142.8942 H   0  0  0  0  0  0  0  0  0  0  0  0  # atno 7974 bound_to 7965
  154.6732  140.2616  155.6986 H   0  0  0  0  0  0  0  0  0  0  0  0  # atno 8008 bound_to 7997
  156.2667  140.2825  156.1170 H   0  0  0  0  0  0  0  0  0  0  0  0  # atno 8009 bound_to 7997
  155.1139  140.0376  157.2721 H   0  0  0  0  0  0  0  0  0  0  0  0  # atno 8010 bound_to 7997
  140.7205  143.3624  151.1937 H   0  0  0  0  0  0  0  0  0  0  0  0  # atno 10167 bound_to 10162
  157.3326  130.7506  149.6857 H   0  0  0  0  0  0  0  0  0  0  0  0  # atno 10718 bound_to 10713
  153.5004  135.7017  153.5835 H   0  0  0  0  0  0  0  0  0  0  0  0  # atno 10763 bound_to 10752
  153.3968  135.3882  155.1961 H   0  0  0  0  0  0  0  0  0  0  0  0  # atno 10764 bound_to 10752
  154.8711  135.3872  154.4474 H   0  0  0  0  0  0  0  0  0  0  0  0  # atno 10765 bound_to 10752
  141.1533  133.6741  156.6451 H   0  0  0  0  0  0  0  0  0  0  0  0  # atno 11005 bound_to 11000
  145.4240  141.0409  143.2948 LP  0  0  0  0  0  0  0  0  0  0  0  0  # atno 17320 bound_to 7965
  144.8220  139.5775  143.6982 LP  0  0  0  0  0  0  0  0  0  0  0  0  # atno 17321 bound_to 7965
  139.7178  143.9271  152.2974 LP  0  0  0  0  0  0  0  0  0  0  0  0  # atno 17342 bound_to 10162
  139.9018  144.6907  150.8657 LP  0  0  0  0  0  0  0  0  0  0  0  0  # atno 17343 bound_to 10162
  155.9697  130.4191  150.4358 LP  0  0  0  0  0  0  0  0  0  0  0  0  # atno 17370 bound_to 10713
  157.2392  131.0521  151.2446 LP  0  0  0  0  0  0  0  0  0  0  0  0  # atno 17371 bound_to 10713
  140.3363  134.7886  157.4364 LP  0  0  0  0  0  0  0  0  0  0  0  0  # atno 17394 bound_to 11000
  140.0975  134.5518  155.8385 LP  0  0  0  0  0  0  0  0  0  0  0  0  # atno 17395 bound_to 11000

$$$$
