#       Name:                AV-unprocessed.smi:2087
#       Creating user name   scv26
#       Creation time:       Fri Mar 27 11:24:23 2020


#       File generated by GOLD software.
#

@<TRIPOS>MOLECULE
AV-unprocessed.smi:2087
    59    60     1
SMALL
NO_CHARGES


@<TRIPOS>ATOM
      1 ****        -5.0716  -2.9645  -0.9297 C.3            1 S1                 0.0000
      2 ****        -4.4226  -2.9868  -2.3242 C.3            1 S1                 0.0000
      3 ****        -3.4439  -4.1603  -2.5042 C.3            1 S1                 0.0000
      4 ****        -3.8484  -1.6182  -2.7677 C.3            1 S1                 0.0000
      5 ****        -3.1873  -0.7945  -1.7501 N.3            1 S1                 0.0000
      6 ****        -2.9471   0.5521  -2.2591 C.3            1 S1                 0.0000
      7 ****        -2.2566   1.4490  -1.2198 C.3            1 S1                 0.0000
      8 ****        -1.0375   0.8401  -0.8131 O.3            1 S1                 0.0000
      9 ****        -1.2244  -0.4544  -0.2465 C.3            1 S1                 0.0000
     10 ****         0.1440  -1.0180   0.1730 C.3            1 S1                 0.0000
     11 ****         0.7120  -0.2741   1.2925 N.am           1 S1                 0.0000
     12 ****         1.5471   0.7708   1.1882 C.2            1 S1                 0.0000
     13 ****         1.9302   1.2265   0.1096 O.2            1 S1                 0.0000
     14 ****         1.9948   1.4054   2.5120 C.3            1 S1                 0.0000
     15 ****         3.2581   2.1473   2.4019 N.am           1 S1                 0.0000
     16 ****         3.2333   3.5235   2.2639 C.2            1 S1                 0.0000
     17 ****         4.3457   4.2808   2.1476 C.2            1 S1                 0.0000
     18 ****         5.6692   3.6708   2.1645 C.2            1 S1                 0.0000
     19 ****         6.7133   4.3148   2.0502 O.2            1 S1                 0.0000
     20 ****         5.6681   2.2651   2.3160 N.am           1 S1                 0.0000
     21 ****         6.9604   1.6113   2.3224 C.3            1 S1                 0.0000
     22 ****         4.4998   1.4749   2.4241 C.2            1 S1                 0.0000
     23 ****         4.5405   0.2469   2.5297 O.2            1 S1                 0.0000
     24 ****        -1.9201  -1.3555  -1.2875 C.3            1 S1                 0.0000
     25 ****        -4.3339  -2.8117  -0.1417 H              1 S1                 0.0000
     26 ****        -5.5828  -3.9049  -0.7220 H              1 S1                 0.0000
     27 ****        -5.8101  -2.1658  -0.8550 H              1 S1                 0.0000
     28 ****        -5.2317  -3.1947  -3.0260 H              1 S1                 0.0000
     29 ****        -2.6179  -4.1333  -1.7964 H              1 S1                 0.0000
     30 ****        -3.0213  -4.1689  -3.5093 H              1 S1                 0.0000
     31 ****        -3.9565  -5.1119  -2.3605 H              1 S1                 0.0000
     32 ****        -3.1877  -1.7537  -3.6253 H              1 S1                 0.0000
     33 ****        -4.6954  -1.0470  -3.1509 H              1 S1                 0.0000
     34 ****        -2.3283   0.5033  -3.1567 H              1 S1                 0.0000
     35 ****        -3.8910   1.0105  -2.5561 H              1 S1                 0.0000
     36 ****        -2.0403   2.4281  -1.6473 H              1 S1                 0.0000
     37 ****        -2.9006   1.6100  -0.3540 H              1 S1                 0.0000
     38 ****        -1.8612  -0.3693   0.6363 H              1 S1                 0.0000
     39 ****         0.0291  -2.0528   0.4970 H              1 S1                 0.0000
     40 ****         0.8307  -1.0369  -0.6753 H              1 S1                 0.0000
     41 ****         0.4463  -0.5753   2.2188 H              1 S1                 0.0000
     42 ****         1.2012   2.0718   2.8525 H              1 S1                 0.0000
     43 ****         2.0807   0.6348   3.2805 H              1 S1                 0.0000
     44 ****         2.2748   4.0217   2.2425 H              1 S1                 0.0000
     45 ****         4.2551   5.3516   2.0384 H              1 S1                 0.0000
     46 ****         6.8772   0.5839   2.6756 H              1 S1                 0.0000
     47 ****         7.6132   2.1604   3.0034 H              1 S1                 0.0000
     48 ****         7.3361   1.6407   1.2985 H              1 S1                 0.0000
     49 ****        -2.0900  -2.3256  -0.8263 H              1 S1                 0.0000
     50 ****        -1.2544  -1.5179  -2.1367 H              1 S1                 0.0000
     51 ****        -3.8120  -0.7698  -0.9696 LP             1 S1                 0.0000
     52 ****        -0.6002   1.4265  -0.1312 LP             1 S1                 0.0000
     53 ****        -0.4414   0.7556  -1.6115 LP             1 S1                 0.0000
     54 ****         1.6176   0.8148  -0.7464 LP             1 S1                 0.0000
     55 ****         2.5538   2.0080   0.0902 LP             1 S1                 0.0000
     56 ****         6.6786   5.3080   1.9390 LP             1 S1                 0.0000
     57 ****         7.5956   3.8443   2.0688 LP             1 S1                 0.0000
     58 ****         3.6918  -0.2773   2.6001 LP             1 S1                 0.0000
     59 ****         5.4222  -0.2247   2.5450 LP             1 S1                 0.0000
@<TRIPOS>BOND
    1    1    2 1     
    2    1   25 1     
    3    1   26 1     
    4    1   27 1     
    5    2    3 1     
    6    2    4 1     
    7    2   28 1     
    8    3   29 1     
    9    3   30 1     
   10    3   31 1     
   11    4    5 1     
   12    4   32 1     
   13    4   33 1     
   14    5   24 1     
   15    5    6 1     
   16    6    7 1     
   17    6   34 1     
   18    6   35 1     
   19    7    8 1     
   20    7   36 1     
   21    7   37 1     
   22    8    9 1     
   23    9   10 1     
   24    9   24 1     
   25    9   38 1     
   26   10   11 1     
   27   10   39 1     
   28   10   40 1     
   29   11   12 am    
   30   11   41 1     
   31   12   13 2     
   32   12   14 1     
   33   14   15 1     
   34   14   42 1     
   35   14   43 1     
   36   15   22 am    
   37   15   16 1     
   38   16   17 2     
   39   16   44 1     
   40   17   18 1     
   41   17   45 1     
   42   18   19 2     
   43   18   20 am    
   44   20   21 1     
   45   20   22 am    
   46   21   46 1     
   47   21   47 1     
   48   21   48 1     
   49   22   23 2     
   50   24   49 1     
   51   24   50 1     
   52    5   51 1     
   53    8   52 1     
   54    8   53 1     
   55   13   54 1     
   56   13   55 1     
   57   19   56 1     
   58   19   57 1     
   59   23   58 1     
   60   23   59 1     
@<TRIPOS>SUBSTRUCTURE
      1 S1             1
@<TRIPOS>SET
LONE_PAIRS      STATIC     ATOMS    <user>   **** ""
9 51 52 53 54 55 56 57 58 59
DONOR_HYDROGENS      STATIC     ATOMS    <user>   **** ""
1 41
ATOM$BLUE        STATIC     ATOMS    COLORGROUP SYSTEM
9 51 52 53 54 55 56 57 58 59
ATOM$RED        STATIC     ATOMS    COLORGROUP SYSTEM
1 41
