AV-unprocessed.smi:1006|AV-procd|sdf|4394|dock1
  -GOLD-   22720 2323D 1   1.00000     0.00000
 Structure written by MMmdl.
 46 48  0  0  0  0  0  0  0  0  2 V2000
  145.8393  143.5957  161.8930 C   0  0  0  0  0  0  0  0  0  0  0  0
  145.9022  143.4651  160.3861 C   0  0  0  0  0  0  0  0  0  0  0  0
  144.9855  144.1362  159.5472 C   0  0  0  0  0  0  0  0  0  0  0  0
  145.1483  143.9381  158.1599 C   0  0  0  0  0  0  0  0  0  0  0  0
  144.2964  144.5548  157.2473 N   0  0  0  0  0  0  0  0  0  0  0  0
  146.1284  143.1534  157.6627 N   0  0  0  0  0  0  0  0  0  0  0  0
  146.9295  142.5701  158.5577 C   0  0  0  0  0  0  0  0  0  0  0  0
  148.2383  141.5687  157.9027 S   0  0  0  0  0  0  0  0  0  0  0  0
  147.8017  141.6664  156.1457 C   0  0  0  0  0  0  0  0  0  0  0  0
  148.9322  142.2543  155.2810 C   0  0  2  0  0  0  0  0  0  0  0  0
  148.3858  142.7970  154.0962 O   0  0  0  0  0  0  0  0  0  0  0  0
  150.0072  141.2246  154.8773 C   0  0  0  0  0  0  0  0  0  0  0  0
  150.6884  140.6238  156.0328 N   0  0  0  0  0  0  0  0  0  0  0  0
  150.9494  139.3150  156.2978 C   0  0  0  0  0  0  0  0  0  0  0  0
  151.6126  139.2604  157.4858 N   0  3  0  0  0  0  0  0  0  0  0  0
  151.7789  140.5530  157.9871 C   0  0  0  0  0  0  0  0  0  0  0  0
  152.3915  141.0059  159.1495 C   0  0  0  0  0  0  0  0  0  0  0  0
  152.4043  142.4017  159.3702 C   0  0  0  0  0  0  0  0  0  0  0  0
  153.0718  142.9310  160.6281 C   0  0  0  0  0  0  0  0  0  0  0  0
  151.8114  143.2932  158.4391 C   0  0  0  0  0  0  0  0  0  0  0  0
  151.8403  144.7929  158.6800 C   0  0  0  0  0  0  0  0  0  0  0  0
  151.1854  142.8119  157.2674 C   0  0  0  0  0  0  0  0  0  0  0  0
  151.1850  141.4337  157.0621 C   0  0  0  0  0  0  0  0  0  0  0  0
  146.8811  142.6782  159.8868 N   0  0  0  0  0  0  0  0  0  0  0  0
  145.0269  144.2560  162.1973 H   0  0  0  0  0  0  0  0  0  0  0  0
  146.7737  144.0058  162.2772 H   0  0  0  0  0  0  0  0  0  0  0  0
  145.6761  142.6204  162.3519 H   0  0  0  0  0  0  0  0  0  0  0  0
  144.2024  144.7648  159.9459 H   0  0  0  0  0  0  0  0  0  0  0  0
  143.5444  145.1562  157.5514 H   0  0  0  0  0  0  0  0  0  0  0  0
  144.3409  144.3394  156.2619 H   0  0  0  0  0  0  0  0  0  0  0  0
  147.5635  140.6544  155.8200 H   0  0  0  0  0  0  0  0  0  0  0  0
  146.8915  142.2581  156.0412 H   0  0  0  0  0  0  0  0  0  0  0  0
  149.4115  143.0672  155.8282 H   0  0  0  0  0  0  0  0  0  0  0  0
  148.1430  142.0874  153.5213 H   0  0  0  0  0  0  0  0  0  0  0  0
  149.5854  140.4335  154.2569 H   0  0  0  0  0  0  0  0  0  0  0  0
  150.7750  141.7083  154.2719 H   0  0  0  0  0  0  0  0  0  0  0  0
  150.6828  138.4728  155.6755 H   0  0  0  0  0  0  0  0  0  0  0  0
  152.8440  140.3211  159.8517 H   0  0  0  0  0  0  0  0  0  0  0  0
  152.3677  143.5175  161.2191 H   0  0  0  0  0  0  0  0  0  0  0  0
  153.9221  143.5640  160.3718 H   0  0  0  0  0  0  0  0  0  0  0  0
  153.4374  142.1189  161.2577 H   0  0  0  0  0  0  0  0  0  0  0  0
  151.3732  145.3380  157.8591 H   0  0  0  0  0  0  0  0  0  0  0  0
  152.8674  145.1471  158.7707 H   0  0  0  0  0  0  0  0  0  0  0  0
  151.3039  145.0440  159.5952 H   0  0  0  0  0  0  0  0  0  0  0  0
  150.7377  143.4938  156.5599 H   0  0  0  0  0  0  0  0  0  0  0  0
  151.9314  138.4026  157.9179 H   0  0  0  0  0  0  0  0  0  0  0  0
  1  2  1  0  0  0  0
  1 25  1  0  0  0  0
  1 26  1  0  0  0  0
  1 27  1  0  0  0  0
  2 24  1  0  0  0  0
  2  3  2  0  0  0  0
  3  4  1  0  0  0  0
  3 28  1  0  0  0  0
  4  5  1  0  0  0  0
  4  6  2  0  0  0  0
  5 29  1  0  0  0  0
  5 30  1  0  0  0  0
  6  7  1  0  0  0  0
  7  8  1  0  0  0  0
  7 24  2  0  0  0  0
  8  9  1  0  0  0  0
  9 10  1  0  0  0  0
  9 31  1  0  0  0  0
  9 32  1  0  0  0  0
 10 11  1  0  0  0  0
 10 12  1  0  0  0  0
 10 33  1  0  0  0  0
 11 34  1  0  0  0  0
 12 13  1  0  0  0  0
 12 35  1  0  0  0  0
 12 36  1  0  0  0  0
 13 23  1  0  0  0  0
 13 14  1  0  0  0  0
 14 15  2  0  0  0  0
 14 37  1  0  0  0  0
 15 16  1  0  0  0  0
 15 46  1  0  0  0  0
 16 23  2  0  0  0  0
 16 17  1  0  0  0  0
 17 18  2  0  0  0  0
 17 38  1  0  0  0  0
 18 19  1  0  0  0  0
 18 20  1  0  0  0  0
 19 39  1  0  0  0  0
 19 40  1  0  0  0  0
 19 41  1  0  0  0  0
 20 21  1  0  0  0  0
 20 22  2  0  0  0  0
 21 42  1  0  0  0  0
 21 43  1  0  0  0  0
 21 44  1  0  0  0  0
 22 23  1  0  0  0  0
 22 45  1  0  0  0  0
M  CHG  1  15   1
M  END
> <s_m_source_file>
AV-unprocessed.smi

> <i_m_source_file_index>
1006

> <i_lp_mmshare_version>
43012

> <i_f3d_flags>
0

> <s_epik_input>
W0NIM11jMVtjSF1jKFtOSDJdKW5jKG4xKVNbQ0gyXVtDQEhdKFtPSF0pW0NIMl1uKFtjSF1uMiljKGMyMylbY0hdYyhbQ0gzXSljKFtjSF0zKVtDSDNd

> <s_epik_cmdline>
J2VwaWtfcHl0aG9uJywgJy1waCcsICc3LjAnLCAnLXRuJywgJzgnLCAnLW1hJywgJzIwMCcsICctbWV0YWxfYmluZGluZycsICctaW1hZScsICc8aW5maWxlLm1hZT4nLCAnLW9tYWUnLCAnPG91dGZpbGUubWFlPic=

> <r_epik_Ionization_Penalty>
1.4378

> <r_epik_Ionization_Penalty_Charging>
1.06724

> <r_epik_Ionization_Penalty_Neutral>
0.370564

> <r_epik_State_Penalty>
1.48666

> <r_epik_Charging_Adjusted_Penalty>
2.5539

> <i_epik_Tot_Q>
1

> <i_epik_Tot_abs_Q>
1

> <r_epik_Metal_State_Penalty>
1.38026

> <b_epik_Metal_Only>
0

> <s_lp_Force_Field>
OPLS_2005

> <r_lp_Energy>
8.71661

> <b_lp_Chiralities_Consistent>
1

> <s_lp_Variant>
AV-unprocessed.smi:1006-5

> <Gold.Version>
5.8.1

> <Gold.Id.Protein>
6NUR|6NUR_protein|mol2

> <Gold.PLP.Fitness>
46.7647

> <Gold.PLP.PLP>
-41.1745

> <Gold.PLP.part.hbond>
-4.7473

> <Gold.PLP.part.metal>
0.0000

> <Gold.PLP.part.buried>
1.3077

> <Gold.PLP.part.nonpolar>
-37.1423

> <Gold.PLP.part.repulsive>
0.2519

> <Gold.PLP.ligand.clash>
0.0000

> <Gold.PLP.ligand.torsion>
0.7639

> <Gold.PLP.Chemscore.Hbond>
2.3148

> <Gold.PLP.Chemscore.CHOScore>
0.0000

> <Gold.PLP.Chemscore.Metal>
0.0000

> <Gold.Chemscore.Hbonds>
donor molecule, donor type, donor heavy atom, donor atom, acceptor molecule, acceptor atom, score
      P1  H  6933  6944       L1    24  0.33
      P1  H  6934  6946       L1    24  0.94
      P1  H  8022  8030       L1    11  1.00

> <Gold.PLP.Chemscore.Internal.Correction>
0.1736

> <Gold.Rescore>
     Score         DG    S(hbond)    S(metal)    S(lipo)     H(rot)  DE(clash)    DE(int)     intcor
     14.70     -17.99       2.01        0.00     112.88       2.89       1.79       1.51       ----

> <Gold.Chemscore.Fitness>
14.6959

> <Gold.Chemscore.DG>
-17.9926

> <Gold.Chemscore.ZeroCoef>
-5.4800

> <Gold.Chemscore.Hbond>
2.0079

> <Gold.Chemscore.Metal>
0.0000

> <Gold.Chemscore.Lipo>
112.8828

> <Gold.Chemscore.Internal_Hbond>
0.0000

> <Gold.Chemscore.DEClash>
1.7864

> <Gold.Chemscore.DEInternal>
1.5103

> <Gold.Chemscore.Rot>
2.8910

> <Gold.Chemscore.Internal.Correction>
   9.000000E+99

> <Gold.Chemscore.Hbonds>
donor molecule, donor type, donor heavy atom, donor atom, acceptor molecule, acceptor atom, score
      P1  H  6933  6944       L1    24  0.25
      P1  H  6934  6946       L1    24  0.56
      P1  H  8022  8030       L1    11  0.89

> <Gold.Chemscore.Hbond.Weighted>
-6.7063

> <Gold.Chemscore.Metal.Weighted>
-0.0000

> <Gold.Chemscore.Lipo.Weighted>
-13.2073

> <Gold.Chemscore.Internal_Hbond.Weighted>
0.0000

> <Gold.Chemscore.DEClash.Weighted>
1.7864

> <Gold.Chemscore.DEInternal.Weighted>
1.5103

> <Gold.Chemscore.Rot.Weighted>
7.4009

> <Gold.Chemscore.Internal.Correction.Weighted>
   9.000000E+99

> <Gold.Protein.RotatedTorsions>
[ 6907 6896 6895 6894 ] final -125.42 input  -60.11 | X-H torsion
[ 7974 7965 7964 7962 ] final  133.04 input  175.53 | X-H torsion
[ 8008 7997 7996 7995 ] final -131.78 input   59.86 | X-H torsion
[ 10167 10162 10161 10158 ] final   65.75 input  -65.29 | X-H torsion
[ 10718 10713 10712 10709 ] final -168.39 input   66.30 | X-H torsion
[ 10763 10752 10751 10750 ] final   51.50 input  -60.55 | X-H torsion
[ 11005 11000 10999 10996 ] final  139.55 input  -57.11 | X-H torsion

> <Gold.Protein.ActiveResidues>
 VAL166  LYS551  ARG553  GLY616  TRP617  ASP618  TYR619  PRO620  LYS621  CYS622 
 ASP623  PHE694  ASN695  SER759  ASP760  ASP761  ALA762  ILE779  LEU786  VAL792 
 PHE793  MET794  SER795  GLU796  ALA797  LYS798  CYS799  TRP800  GLU811  SER814 

> <Gold.Protein.RotatedAtoms>
  150.8866  133.7299  159.2916 H   0  0  0  0  0  0  0  0  0  0  0  0  # atno 6907 bound_to 6896
  151.4863  135.1053  159.9801 H   0  0  0  0  0  0  0  0  0  0  0  0  # atno 6908 bound_to 6896
  152.4794  133.8170  159.7089 H   0  0  0  0  0  0  0  0  0  0  0  0  # atno 6909 bound_to 6896
  144.9906  139.4411  143.5341 H   0  0  0  0  0  0  0  0  0  0  0  0  # atno 7974 bound_to 7965
  155.3181  140.0460  157.3038 H   0  0  0  0  0  0  0  0  0  0  0  0  # atno 8008 bound_to 7997
  154.5395  140.2283  155.8631 H   0  0  0  0  0  0  0  0  0  0  0  0  # atno 8009 bound_to 7997
  156.1867  140.3060  155.9260 H   0  0  0  0  0  0  0  0  0  0  0  0  # atno 8010 bound_to 7997
  140.1079  144.4845  150.6996 H   0  0  0  0  0  0  0  0  0  0  0  0  # atno 10167 bound_to 10162
  156.6962  130.9178  151.3074 H   0  0  0  0  0  0  0  0  0  0  0  0  # atno 10718 bound_to 10713
  152.9785  135.5844  154.4425 H   0  0  0  0  0  0  0  0  0  0  0  0  # atno 10763 bound_to 10752
  154.4025  135.2769  155.2090 H   0  0  0  0  0  0  0  0  0  0  0  0  # atno 10764 bound_to 10752
  154.3915  135.6124  153.5900 H   0  0  0  0  0  0  0  0  0  0  0  0  # atno 10765 bound_to 10752
  140.0263  134.9373  157.0574 H   0  0  0  0  0  0  0  0  0  0  0  0  # atno 11005 bound_to 11000
  146.3430  139.9235  142.8763 LP  0  0  0  0  0  0  0  0  0  0  0  0  # atno 17320 bound_to 7965
  145.2291  140.9966  143.4001 LP  0  0  0  0  0  0  0  0  0  0  0  0  # atno 17321 bound_to 7965
  140.6942  143.2394  151.5047 LP  0  0  0  0  0  0  0  0  0  0  0  0  # atno 17342 bound_to 10162
  139.5635  144.2098  152.1729 LP  0  0  0  0  0  0  0  0  0  0  0  0  # atno 17343 bound_to 10162
  157.6990  130.9313  150.0730 LP  0  0  0  0  0  0  0  0  0  0  0  0  # atno 17370 bound_to 10713
  156.1762  130.3648  149.9098 LP  0  0  0  0  0  0  0  0  0  0  0  0  # atno 17371 bound_to 10713
  140.4301  134.1789  155.7168 LP  0  0  0  0  0  0  0  0  0  0  0  0  # atno 17394 bound_to 11000
  141.1804  133.8425  157.1276 LP  0  0  0  0  0  0  0  0  0  0  0  0  # atno 17395 bound_to 11000

$$$$
