AV-unprocessed.smi:718|AV-procd|sdf|3491|dock4
  -GOLD-   22720 0483D 1   1.00000     0.00000
 Structure written by MMmdl.
 27 28  0  0  0  0  0  0  0  0  1 V2000
  151.9674  139.7584  158.1314 O   0  0  0  0  0  0  0  0  0  0  0  0
  151.5963  140.7886  157.5677 C   0  0  0  0  0  0  0  0  0  0  0  0
  151.5271  141.9951  158.1628 N   0  0  0  0  0  0  0  0  0  0  0  0
  151.8726  142.3448  159.4949 C   0  0  0  0  0  0  0  0  0  0  0  0
  152.8767  141.5429  160.0822 C   0  0  0  0  0  0  0  0  0  0  0  0
  153.2926  141.8059  161.4022 C   0  0  0  0  0  0  0  0  0  0  0  0
  154.5199  140.8311  162.1288 Cl  0  0  0  0  0  0  0  0  0  0  0  0
  152.6900  142.8701  162.1031 C   0  0  0  0  0  0  0  0  0  0  0  0
  153.1413  143.2599  163.7242 Cl  0  0  0  0  0  0  0  0  0  0  0  0
  151.6980  143.6187  161.4431 C   0  0  0  0  0  0  0  0  0  0  0  0
  151.2994  143.3665  160.1785 N   0  0  0  0  0  0  0  0  0  0  0  0
  151.1470  140.7397  156.0991 C   0  0  2  0  0  0  0  0  0  0  0  0
  149.8615  141.5584  155.8364 C   0  0  0  0  0  0  0  0  0  0  0  0
  149.4935  141.4318  154.4690 O   0  0  0  0  0  0  0  0  0  0  0  0
  149.2506  140.0762  154.1207 C   0  0  0  0  0  0  0  0  0  0  0  0
  150.5305  139.2616  154.3674 C   0  0  0  0  0  0  0  0  0  0  0  0
  150.8995  139.3831  155.7346 O   0  0  0  0  0  0  0  0  0  0  0  0
  151.1980  142.7540  157.5839 H   0  0  0  0  0  0  0  0  0  0  0  0
  153.3268  140.7315  159.5285 H   0  0  0  0  0  0  0  0  0  0  0  0
  151.2100  144.4431  161.9417 H   0  0  0  0  0  0  0  0  0  0  0  0
  151.9644  141.1318  155.4914 H   0  0  0  0  0  0  0  0  0  0  0  0
  149.0421  141.2251  156.4757 H   0  0  0  0  0  0  0  0  0  0  0  0
  150.0256  142.6154  156.0487 H   0  0  0  0  0  0  0  0  0  0  0  0
  148.4174  139.6794  154.7026 H   0  0  0  0  0  0  0  0  0  0  0  0
  148.9637  140.0241  153.0704 H   0  0  0  0  0  0  0  0  0  0  0  0
  150.3606  138.2099  154.1365 H   0  0  0  0  0  0  0  0  0  0  0  0
  151.3425  139.6059  153.7249 H   0  0  0  0  0  0  0  0  0  0  0  0
  1  2  2  0  0  0  0
  2  3  1  0  0  0  0
  2 12  1  0  0  0  0
  3  4  1  0  0  0  0
  3 18  1  0  0  0  0
  4 11  1  0  0  0  0
  4  5  2  0  0  0  0
  5  6  1  0  0  0  0
  5 19  1  0  0  0  0
  6  7  1  0  0  0  0
  6  8  2  0  0  0  0
  8  9  1  0  0  0  0
  8 10  1  0  0  0  0
 10 11  2  0  0  0  0
 10 20  1  0  0  0  0
 12 17  1  0  0  0  0
 12 13  1  0  0  0  0
 12 21  1  0  0  0  0
 13 14  1  0  0  0  0
 13 22  1  0  0  0  0
 13 23  1  0  0  0  0
 14 15  1  0  0  0  0
 15 16  1  0  0  0  0
 15 24  1  0  0  0  0
 15 25  1  0  0  0  0
 16 17  1  0  0  0  0
 16 26  1  0  0  0  0
 16 27  1  0  0  0  0
M  END
> <s_m_source_file>
AV-unprocessed.smi

> <i_m_source_file_index>
718

> <i_lp_mmshare_version>
43012

> <i_f3d_flags>
0

> <s_epik_input>
TzFbQ0gyXVtDSDJdT1tDSDJdW0NASF0xQyg9TylbTkhdYzJbY0hdYyhDbCljKENsKVtjSF1uMg==

> <s_epik_cmdline>
J2VwaWtfcHl0aG9uJywgJy1waCcsICc3LjAnLCAnLXRuJywgJzgnLCAnLW1hJywgJzIwMCcsICctbWV0YWxfYmluZGluZycsICctaW1hZScsICc8aW5maWxlLm1hZT4nLCAnLW9tYWUnLCAnPG91dGZpbGUubWFlPic=

> <r_lp_tautomer_probability>
1

> <r_epik_Ionization_Penalty>
4.81693e-06

> <r_epik_Ionization_Penalty_Charging>
0

> <r_epik_Ionization_Penalty_Neutral>
4.81693e-06

> <r_epik_State_Penalty>
-0

> <r_epik_Charging_Adjusted_Penalty>
0

> <i_epik_Tot_Q>
0

> <i_epik_Tot_abs_Q>
0

> <r_epik_Metal_State_Penalty>
-0

> <b_epik_Metal_Only>
0

> <s_lp_Force_Field>
OPLS_2005

> <r_lp_Energy>
11.6855

> <b_lp_Chiralities_Consistent>
1

> <s_lp_Variant>
AV-unprocessed.smi:718-1

> <Gold.Version>
5.8.1

> <Gold.Id.Protein>
6NUR|6NUR_protein|mol2

> <Gold.PLP.Fitness>
39.1132

> <Gold.PLP.PLP>
-39.5283

> <Gold.PLP.part.hbond>
-2.0000

> <Gold.PLP.part.metal>
0.0000

> <Gold.PLP.part.buried>
-0.5273

> <Gold.PLP.part.nonpolar>
-35.3373

> <Gold.PLP.part.repulsive>
0.2954

> <Gold.PLP.ligand.clash>
0.0000

> <Gold.PLP.ligand.torsion>
0.6034

> <Gold.PLP.Chemscore.Hbond>
0.2633

> <Gold.PLP.Chemscore.CHOScore>
0.0000

> <Gold.PLP.Chemscore.Metal>
0.0000

> <Gold.Chemscore.Hbonds>
donor molecule, donor type, donor heavy atom, donor atom, acceptor molecule, acceptor atom, score
      P1  H  8011  8017       L1    14  0.10

> <Gold.PLP.Chemscore.Internal.Correction>
0.0018

> <Gold.Rescore>
     Score         DG    S(hbond)    S(metal)    S(lipo)     H(rot)  DE(clash)    DE(int)     intcor
     12.40     -14.24       0.00        0.00      96.72       1.00       0.08       1.76       ----

> <Gold.Chemscore.Fitness>
12.4023

> <Gold.Chemscore.DG>
-14.2391

> <Gold.Chemscore.ZeroCoef>
-5.4800

> <Gold.Chemscore.Hbond>
0.0010

> <Gold.Chemscore.Metal>
0.0000

> <Gold.Chemscore.Lipo>
96.7155

> <Gold.Chemscore.Internal_Hbond>
0.0000

> <Gold.Chemscore.DEClash>
0.0761

> <Gold.Chemscore.DEInternal>
1.7607

> <Gold.Chemscore.Rot>
1.0000

> <Gold.Chemscore.Internal.Correction>
   9.000000E+99

> <Gold.Chemscore.Hbonds>
donor molecule, donor type, donor heavy atom, donor atom, acceptor molecule, acceptor atom, score
      P1  H  8011  8017       L1    14  0.04

> <Gold.Chemscore.Hbond.Weighted>
-0.0034

> <Gold.Chemscore.Metal.Weighted>
-0.0000

> <Gold.Chemscore.Lipo.Weighted>
-11.3157

> <Gold.Chemscore.Internal_Hbond.Weighted>
0.0000

> <Gold.Chemscore.DEClash.Weighted>
0.0761

> <Gold.Chemscore.DEInternal.Weighted>
1.7607

> <Gold.Chemscore.Rot.Weighted>
2.5600

> <Gold.Chemscore.Internal.Correction.Weighted>
   9.000000E+99

> <Gold.Protein.RotatedTorsions>
[ 6907 6896 6895 6894 ] final  -43.18 input  -60.11 | X-H torsion
[ 7974 7965 7964 7962 ] final  102.21 input  175.53 | X-H torsion
[ 8008 7997 7996 7995 ] final -163.01 input   59.86 | X-H torsion
[ 10167 10162 10161 10158 ] final  -73.91 input  -65.29 | X-H torsion
[ 10718 10713 10712 10709 ] final -114.38 input   66.30 | X-H torsion
[ 10763 10752 10751 10750 ] final  -65.68 input  -60.55 | X-H torsion
[ 11005 11000 10999 10996 ] final -131.38 input  -57.11 | X-H torsion

> <Gold.Protein.ActiveResidues>
 VAL166  LYS551  ARG553  GLY616  TRP617  ASP618  TYR619  PRO620  LYS621  CYS622 
 ASP623  PHE694  ASN695  SER759  ASP760  ASP761  ALA762  ILE779  LEU786  VAL792 
 PHE793  MET794  SER795  GLU796  ALA797  LYS798  CYS799  TRP800  GLU811  SER814 

> <Gold.Protein.RotatedAtoms>
  150.9468  134.8872  159.7646 H   0  0  0  0  0  0  0  0  0  0  0  0  # atno 6907 bound_to 6896
  152.5103  134.3863  159.9378 H   0  0  0  0  0  0  0  0  0  0  0  0  # atno 6908 bound_to 6896
  151.3881  133.3758  159.2752 H   0  0  0  0  0  0  0  0  0  0  0  0  # atno 6909 bound_to 6896
  145.3621  139.2416  143.3501 H   0  0  0  0  0  0  0  0  0  0  0  0  # atno 7974 bound_to 7965
  155.8151  140.0911  157.1881 H   0  0  0  0  0  0  0  0  0  0  0  0  # atno 8008 bound_to 7997
  154.3979  140.1447  156.3493 H   0  0  0  0  0  0  0  0  0  0  0  0  # atno 8009 bound_to 7997
  155.8325  140.3442  155.5583 H   0  0  0  0  0  0  0  0  0  0  0  0  # atno 8010 bound_to 7997
  140.5071  143.2351  151.7656 H   0  0  0  0  0  0  0  0  0  0  0  0  # atno 10167 bound_to 10162
  156.0826  130.6024  150.8767 H   0  0  0  0  0  0  0  0  0  0  0  0  # atno 10718 bound_to 10713
  154.3486  135.6141  153.5631 H   0  0  0  0  0  0  0  0  0  0  0  0  # atno 10763 bound_to 10752
  152.9799  135.5787  154.4769 H   0  0  0  0  0  0  0  0  0  0  0  0  # atno 10764 bound_to 10752
  154.4486  135.2852  155.1774 H   0  0  0  0  0  0  0  0  0  0  0  0  # atno 10765 bound_to 10752
  140.9263  134.1378  157.4272 H   0  0  0  0  0  0  0  0  0  0  0  0  # atno 11005 bound_to 11000
  146.2923  140.4257  142.8735 LP  0  0  0  0  0  0  0  0  0  0  0  0  # atno 17320 bound_to 7965
  144.8639  140.7178  143.6090 LP  0  0  0  0  0  0  0  0  0  0  0  0  # atno 17321 bound_to 7965
  139.4886  144.4443  151.9729 LP  0  0  0  0  0  0  0  0  0  0  0  0  # atno 17342 bound_to 10162
  140.3533  144.3062  150.5945 LP  0  0  0  0  0  0  0  0  0  0  0  0  # atno 17343 bound_to 10162
  157.5949  131.0943  150.9057 LP  0  0  0  0  0  0  0  0  0  0  0  0  # atno 17370 bound_to 10713
  156.9226  130.5320  149.5279 LP  0  0  0  0  0  0  0  0  0  0  0  0  # atno 17371 bound_to 10713
  139.8786  134.9989  156.5927 LP  0  0  0  0  0  0  0  0  0  0  0  0  # atno 17394 bound_to 11000
  140.7921  133.8573  155.8655 LP  0  0  0  0  0  0  0  0  0  0  0  0  # atno 17395 bound_to 11000

$$$$
