AV-unprocessed.smi:3032|AV-procd|sdf|11559|dock9
  -GOLD-   2272016523D 1   1.00000     0.00000
 Structure written by MMmdl.
 37 38  0  0  0  0  0  0  0  0  1 V2000
  151.4646  144.7160  158.6036 C   0  0  0  0  0  0  0  0  0  0  0  0
  151.7684  143.3716  159.2801 C   0  0  2  0  0  0  0  0  0  0  0  0
  153.0187  143.4620  160.1765 C   0  0  0  0  0  0  0  0  0  0  0  0
  153.3277  142.1162  160.8506 C   0  0  0  0  0  0  0  0  0  0  0  0
  153.4820  140.9950  159.8116 C   0  0  0  0  0  0  0  0  0  0  0  0
  152.2294  140.8863  158.9177 C   0  0  2  0  0  0  0  0  0  0  0  0
  152.4030  139.7753  157.8738 C   0  0  0  0  0  0  0  0  0  0  0  0
  153.4968  139.2313  157.7193 O   0  0  0  0  0  0  0  0  0  0  0  0
  151.3094  139.4362  157.1744 N   0  0  0  0  0  0  0  0  0  0  0  0
  151.2441  138.3692  156.1797 C   0  0  0  0  0  0  0  0  0  0  0  0
  151.1432  138.8985  154.7344 C   0  0  0  0  0  0  0  0  0  0  0  0
  150.0859  139.9402  154.5447 C   0  0  0  0  0  0  0  0  0  0  0  0
  149.0242  139.7441  153.7599 N   0  0  0  0  0  0  0  0  0  0  0  0
  148.2326  140.8361  153.7997 N   0  0  0  0  0  0  0  0  0  0  0  0
  148.9006  141.6338  154.6311 C   0  0  0  0  0  0  0  0  0  0  0  0
  150.0681  141.1309  155.1339 N   0  0  0  0  0  0  0  0  0  0  0  0
  151.9306  142.2426  158.2431 C   0  0  0  0  0  0  0  0  0  0  0  0
  148.8067  138.9230  153.2128 H   0  0  0  0  0  0  0  0  0  0  0  0
  152.2817  145.0257  157.9515 H   0  0  0  0  0  0  0  0  0  0  0  0
  151.3130  145.5023  159.3436 H   0  0  0  0  0  0  0  0  0  0  0  0
  150.5598  144.6552  157.9982 H   0  0  0  0  0  0  0  0  0  0  0  0
  150.9164  143.1251  159.9154 H   0  0  0  0  0  0  0  0  0  0  0  0
  153.8775  143.7752  159.5809 H   0  0  0  0  0  0  0  0  0  0  0  0
  152.8768  144.2281  160.9395 H   0  0  0  0  0  0  0  0  0  0  0  0
  154.2382  142.1992  161.4448 H   0  0  0  0  0  0  0  0  0  0  0  0
  152.5268  141.8630  161.5463 H   0  0  0  0  0  0  0  0  0  0  0  0
  154.3655  141.1901  159.2015 H   0  0  0  0  0  0  0  0  0  0  0  0
  153.6635  140.0481  160.3225 H   0  0  0  0  0  0  0  0  0  0  0  0
  151.3802  140.6297  159.5540 H   0  0  0  0  0  0  0  0  0  0  0  0
  150.4516  139.9345  157.3644 H   0  0  0  0  0  0  0  0  0  0  0  0
  152.1537  137.7770  156.2831 H   0  0  0  0  0  0  0  0  0  0  0  0
  150.4127  137.6981  156.3996 H   0  0  0  0  0  0  0  0  0  0  0  0
  152.1031  139.3163  154.4290 H   0  0  0  0  0  0  0  0  0  0  0  0
  150.9437  138.0718  154.0512 H   0  0  0  0  0  0  0  0  0  0  0  0
  148.5322  142.6163  154.8874 H   0  0  0  0  0  0  0  0  0  0  0  0
  151.0220  142.1639  157.6440 H   0  0  0  0  0  0  0  0  0  0  0  0
  152.7335  142.5019  157.5504 H   0  0  0  0  0  0  0  0  0  0  0  0
  1  2  1  0  0  0  0
  1 19  1  0  0  0  0
  1 20  1  0  0  0  0
  1 21  1  0  0  0  0
  2 17  1  0  0  0  0
  2  3  1  0  0  0  0
  2 22  1  0  0  0  0
  3  4  1  0  0  0  0
  3 23  1  0  0  0  0
  3 24  1  0  0  0  0
  4  5  1  0  0  0  0
  4 25  1  0  0  0  0
  4 26  1  0  0  0  0
  5  6  1  0  0  0  0
  5 27  1  0  0  0  0
  5 28  1  0  0  0  0
  6  7  1  0  0  0  0
  6 17  1  0  0  0  0
  6 29  1  0  0  0  0
  7  8  2  0  0  0  0
  7  9  1  0  0  0  0
  9 10  1  0  0  0  0
  9 30  1  0  0  0  0
 10 11  1  0  0  0  0
 10 31  1  0  0  0  0
 10 32  1  0  0  0  0
 11 33  1  0  0  0  0
 11 34  1  0  0  0  0
 11 12  1  0  0  0  0
 12 16  2  0  0  0  0
 12 13  1  0  0  0  0
 13 18  1  0  0  0  0
 13 14  1  0  0  0  0
 14 15  2  0  0  0  0
 15 16  1  0  0  0  0
 15 35  1  0  0  0  0
 17 36  1  0  0  0  0
 17 37  1  0  0  0  0
M  END
> <s_m_source_file>
AV-unprocessed.smi

> <i_m_source_file_index>
3032

> <i_lp_mmshare_version>
43012

> <i_f3d_flags>
0

> <s_epik_input>
W0NIM11bQ0BASF0xW0NIMl1bQ0gyXVtDSDJdW0NASF0oW0NIMl0xKUMoPU8pW05IXVtDSDJdW0NIMl1jMm5uW2NIXVtuSF0y

> <s_epik_cmdline>
J2VwaWtfcHl0aG9uJywgJy1waCcsICc3LjAnLCAnLXRuJywgJzgnLCAnLW1hJywgJzIwMCcsICctbWV0YWxfYmluZGluZycsICctaW1hZScsICc8aW5maWxlLm1hZT4nLCAnLW9tYWUnLCAnPG91dGZpbGUubWFlPic=

> <r_lp_tautomer_probability>
0.948284

> <r_epik_Ionization_Penalty>
0.000474052

> <r_epik_Ionization_Penalty_Charging>
0

> <r_epik_Ionization_Penalty_Neutral>
0.000474052

> <r_epik_State_Penalty>
0.271807

> <r_epik_Charging_Adjusted_Penalty>
0.271807

> <i_epik_Tot_Q>
0

> <i_epik_Tot_abs_Q>
0

> <r_epik_Metal_State_Penalty>
0.397201

> <b_epik_Metal_Only>
0

> <s_lp_Force_Field>
OPLS_2005

> <r_lp_Energy>
10.6887

> <b_lp_Chiralities_Consistent>
1

> <s_lp_Variant>
AV-unprocessed.smi:3032-3

> <Gold.Version>
5.8.1

> <Gold.Id.Protein>
6NUR|6NUR_protein|mol2

> <Gold.PLP.Fitness>
41.7094

> <Gold.PLP.PLP>
-36.1723

> <Gold.PLP.part.hbond>
-3.0000

> <Gold.PLP.part.metal>
0.0000

> <Gold.PLP.part.buried>
-3.8819

> <Gold.PLP.part.nonpolar>
-29.4198

> <Gold.PLP.part.repulsive>
0.8973

> <Gold.PLP.ligand.clash>
0.0000

> <Gold.PLP.ligand.torsion>
0.2407

> <Gold.PLP.Chemscore.Hbond>
1.0000

> <Gold.PLP.Chemscore.CHOScore>
1.0000

> <Gold.PLP.Chemscore.Metal>
0.0000

> <Gold.Chemscore.Hbonds>
donor molecule, donor type, donor heavy atom, donor atom, acceptor molecule, acceptor atom, score
      P1  H  7997  8010       L1     8  1.00
      L1  C    15    35       P1  8028  1.00

> <Gold.PLP.Chemscore.Internal.Correction>
0.0186

> <Gold.Rescore>
     Score         DG    S(hbond)    S(metal)    S(lipo)     H(rot)  DE(clash)    DE(int)     intcor
     12.06     -13.12       0.96        0.00      87.03       2.25       0.00       1.05       ----

> <Gold.Chemscore.Fitness>
12.0627

> <Gold.Chemscore.DG>
-13.1176

> <Gold.Chemscore.ZeroCoef>
-5.4800

> <Gold.Chemscore.Hbond>
0.9626

> <Gold.Chemscore.Metal>
0.0000

> <Gold.Chemscore.Lipo>
87.0321

> <Gold.Chemscore.Internal_Hbond>
0.0000

> <Gold.Chemscore.DEClash>
0.0000

> <Gold.Chemscore.DEInternal>
1.0549

> <Gold.Chemscore.Rot>
2.2501

> <Gold.Chemscore.Internal.Correction>
   9.000000E+99

> <Gold.Chemscore.Hbonds>
donor molecule, donor type, donor heavy atom, donor atom, acceptor molecule, acceptor atom, score
      P1  H  7997  8010       L1     8  0.81

> <Gold.Chemscore.Hbond.Weighted>
-3.2151

> <Gold.Chemscore.Metal.Weighted>
-0.0000

> <Gold.Chemscore.Lipo.Weighted>
-10.1828

> <Gold.Chemscore.Internal_Hbond.Weighted>
0.0000

> <Gold.Chemscore.DEClash.Weighted>
0.0000

> <Gold.Chemscore.DEInternal.Weighted>
1.0549

> <Gold.Chemscore.Rot.Weighted>
5.7603

> <Gold.Chemscore.Internal.Correction.Weighted>
   9.000000E+99

> <Gold.Protein.RotatedTorsions>
[ 6907 6896 6895 6894 ] final   49.40 input  -60.11 | X-H torsion
[ 7974 7965 7964 7962 ] final  -15.32 input  175.53 | X-H torsion
[ 8008 7997 7996 7995 ] final   51.86 input   59.86 | X-H torsion
[ 10167 10162 10161 10158 ] final  114.84 input  -65.29 | X-H torsion
[ 10718 10713 10712 10709 ] final  144.39 input   66.30 | X-H torsion
[ 10763 10752 10751 10750 ] final -142.41 input  -60.55 | X-H torsion
[ 11005 11000 10999 10996 ] final   98.63 input  -57.11 | X-H torsion

> <Gold.Protein.ActiveResidues>
 VAL166  LYS551  ARG553  GLY616  TRP617  ASP618  TYR619  PRO620  LYS621  CYS622 
 ASP623  PHE694  ASN695  SER759  ASP760  ASP761  ALA762  ILE779  LEU786  VAL792 
 PHE793  MET794  SER795  GLU796  ALA797  LYS798  CYS799  TRP800  GLU811  SER814 

> <Gold.Protein.RotatedAtoms>
  152.2903  134.7729  160.0378 H   0  0  0  0  0  0  0  0  0  0  0  0  # atno 6907 bound_to 6896
  151.8277  133.3398  159.3612 H   0  0  0  0  0  0  0  0  0  0  0  0  # atno 6908 bound_to 6896
  150.7227  134.5441  159.5806 H   0  0  0  0  0  0  0  0  0  0  0  0  # atno 6909 bound_to 6896
  146.2037  140.3475  142.8414 H   0  0  0  0  0  0  0  0  0  0  0  0  # atno 7974 bound_to 7965
  155.4422  140.3455  155.4291 H   0  0  0  0  0  0  0  0  0  0  0  0  # atno 8008 bound_to 7997
  156.1272  140.1503  156.9149 H   0  0  0  0  0  0  0  0  0  0  0  0  # atno 8009 bound_to 7997
  154.4867  140.0853  156.7481 H   0  0  0  0  0  0  0  0  0  0  0  0  # atno 8010 bound_to 7997
  139.6359  144.7120  151.2335 H   0  0  0  0  0  0  0  0  0  0  0  0  # atno 10167 bound_to 10162
  157.3577  131.0960  151.0944 H   0  0  0  0  0  0  0  0  0  0  0  0  # atno 10718 bound_to 10713
  154.8510  135.3497  154.6023 H   0  0  0  0  0  0  0  0  0  0  0  0  # atno 10763 bound_to 10752
  153.6631  135.6988  153.5175 H   0  0  0  0  0  0  0  0  0  0  0  0  # atno 10764 bound_to 10752
  153.2801  135.4266  155.1028 H   0  0  0  0  0  0  0  0  0  0  0  0  # atno 10765 bound_to 10752
  139.8772  134.9058  156.4485 H   0  0  0  0  0  0  0  0  0  0  0  0  # atno 11005 bound_to 11000
  144.8742  140.7314  143.6027 LP  0  0  0  0  0  0  0  0  0  0  0  0  # atno 17320 bound_to 7965
  145.3395  139.1736  143.4493 LP  0  0  0  0  0  0  0  0  0  0  0  0  # atno 17321 bound_to 7965
  140.7465  143.6396  150.8347 LP  0  0  0  0  0  0  0  0  0  0  0  0  # atno 17342 bound_to 10162
  140.0027  143.5726  152.2869 LP  0  0  0  0  0  0  0  0  0  0  0  0  # atno 17343 bound_to 10162
  157.2095  130.6431  149.5769 LP  0  0  0  0  0  0  0  0  0  0  0  0  # atno 17370 bound_to 10713
  155.9732  130.4664  150.6289 LP  0  0  0  0  0  0  0  0  0  0  0  0  # atno 17371 bound_to 10713
  140.8949  133.7821  155.9613 LP  0  0  0  0  0  0  0  0  0  0  0  0  # atno 17394 bound_to 11000
  140.8714  134.2722  157.5189 LP  0  0  0  0  0  0  0  0  0  0  0  0  # atno 17395 bound_to 11000

$$$$
