#       Name:                AV-unprocessed.smi:283
#       Creating user name   scv26
#       Creation time:       Thu Mar 26 21:46:43 2020


#       File generated by GOLD software.
#

@<TRIPOS>MOLECULE
AV-unprocessed.smi:283
    59    62     1
SMALL
NO_CHARGES


@<TRIPOS>ATOM
      1 ****        -5.2924  -0.5004  -1.1264 C.3            1 S1                 0.0000
      2 ****        -3.7714  -0.4877  -0.9230 C.3            1 S1                 0.0000
      3 ****        -3.2641   0.8740  -1.0801 N.pl3          1 S1                 0.0000
      4 ****        -1.9471   1.1471  -0.9464 C.ar           1 S1                 0.0000
      5 ****        -1.6485   2.4095  -0.5576 N.ar           1 S1                 0.0000
      6 ****        -0.3767   2.7689  -0.3656 C.ar           1 S1                 0.0000
      7 ****         0.7271   2.0337  -0.5059 N.ar           1 S1                 0.0000
      8 ****         0.4380   0.7645  -0.9164 C.ar           1 S1                 0.0000
      9 ****        -0.8646   0.2441  -1.1644 C.ar           1 S1                 0.0000
     10 ****        -0.7574  -1.0787  -1.5790 N.2            1 S1                 0.0000
     11 ****         0.5231  -1.3264  -1.5526 C.2            1 S1                 0.0000
     12 ****         1.3159  -0.2743  -1.1579 N.pl3          1 S1                 0.0000
     13 ****         2.8056  -0.2637  -1.0148 C.3            1 S1                 0.0000
     14 ****         3.2946   0.9898  -1.3645 O.3            1 S1                 0.0000
     15 ****         4.4998   1.2440  -0.6501 C.3            1 S1                 0.0000
     16 ****         4.4971   2.7076  -0.1715 C.3            1 S1                 0.0000
     17 ****         3.6137   2.9083   0.9123 O.3            1 S1                 0.0000
     18 ****         4.6162   0.1737   0.4564 C.3            1 S1                 0.0000
     19 ****         5.6528  -0.7315   0.1263 O.3            1 S1                 0.0000
     20 ****         3.2744  -0.5471   0.4195 C.3            1 S1                 0.0000
     21 ****         2.3975  -0.0444   1.4111 O.3            1 S1                 0.0000
     22 ****        -3.4070  -1.1611   0.4039 C.ar           1 S1                 0.0000
     23 ****        -3.3533  -0.3967   1.5932 C.ar           1 S1                 0.0000
     24 ****        -3.0123  -0.9978   2.8191 C.ar           1 S1                 0.0000
     25 ****        -2.7311  -2.3746   2.8724 C.ar           1 S1                 0.0000
     26 ****        -2.7979  -3.1486   1.6995 C.ar           1 S1                 0.0000
     27 ****        -3.1372  -2.5516   0.4688 C.ar           1 S1                 0.0000
     28 ****        -3.2158  -3.5554  -0.9370 Cl             1 S1                 0.0000
     29 ****         3.1685  -1.0047  -1.7286 H              1 S1                 0.0000
     30 ****         5.3148   1.1316  -1.3674 H              1 S1                 0.0000
     31 ****         4.8380   0.5927   1.4389 H              1 S1                 0.0000
     32 ****         3.3652  -1.6240   0.5682 H              1 S1                 0.0000
     33 ****        -5.6831  -1.5181  -1.0999 H              1 S1                 0.0000
     34 ****        -5.5647  -0.0704  -2.0908 H              1 S1                 0.0000
     35 ****        -5.8019   0.0710  -0.3496 H              1 S1                 0.0000
     36 ****        -3.3416  -1.0620  -1.7418 H              1 S1                 0.0000
     37 ****        -3.9656   1.5953  -0.9970 H              1 S1                 0.0000
     38 ****        -0.2206   3.7899  -0.0501 H              1 S1                 0.0000
     39 ****         0.9263  -2.2935  -1.8158 H              1 S1                 0.0000
     40 ****         5.4974   2.9883   0.1592 H              1 S1                 0.0000
     41 ****         4.2304   3.3783  -0.9886 H              1 S1                 0.0000
     42 ****         2.7434   2.6581   0.6388 H              1 S1                 0.0000
     43 ****         6.4746  -0.2650   0.1438 H              1 S1                 0.0000
     44 ****         1.5382  -0.4087   1.2623 H              1 S1                 0.0000
     45 ****        -3.5697   0.6613   1.5722 H              1 S1                 0.0000
     46 ****        -2.9675  -0.4015   3.7185 H              1 S1                 0.0000
     47 ****        -2.4697  -2.8378   3.8123 H              1 S1                 0.0000
     48 ****        -2.5892  -4.2073   1.7455 H              1 S1                 0.0000
     49 ****        -2.3819   3.0740  -0.4140 LP             1 S1                 0.0000
     50 ****         1.6523   2.3707  -0.3318 LP             1 S1                 0.0000
     51 ****        -1.4961  -1.7006  -1.8390 LP             1 S1                 0.0000
     52 ****         2.6169   1.6883  -1.1345 LP             1 S1                 0.0000
     53 ****         3.4779   1.0141  -2.3472 LP             1 S1                 0.0000
     54 ****         3.6198   3.8721   1.1789 LP             1 S1                 0.0000
     55 ****         3.8984   2.3459   1.6886 LP             1 S1                 0.0000
     56 ****         5.4962  -1.1049  -0.7880 LP             1 S1                 0.0000
     57 ****         5.6740  -1.4775   0.7919 LP             1 S1                 0.0000
     58 ****         2.3564   0.9530   1.3513 LP             1 S1                 0.0000
     59 ****         2.7248  -0.3107   2.3177 LP             1 S1                 0.0000
@<TRIPOS>BOND
    1    1    2 1     
    2    1   33 1     
    3    1   34 1     
    4    1   35 1     
    5    2    3 1     
    6    2   22 1     
    7    2   36 1     
    8    3    4 1     
    9    3   37 1     
   10    4    9 ar    
   11    4    5 ar    
   12    5    6 ar    
   13    6    7 ar    
   14    6   38 1     
   15    7    8 ar    
   16    8   12 1     
   17    8    9 ar    
   18    9   10 1     
   19   10   11 2     
   20   11   12 1     
   21   11   39 1     
   22   12   13 1     
   23   13   29 1     
   24   13   20 1     
   25   13   14 1     
   26   14   15 1     
   27   15   30 1     
   28   15   16 1     
   29   15   18 1     
   30   16   17 1     
   31   16   40 1     
   32   16   41 1     
   33   17   42 1     
   34   18   31 1     
   35   18   19 1     
   36   18   20 1     
   37   19   43 1     
   38   20   32 1     
   39   20   21 1     
   40   21   44 1     
   41   22   27 ar    
   42   22   23 ar    
   43   23   24 ar    
   44   23   45 1     
   45   24   25 ar    
   46   24   46 1     
   47   25   26 ar    
   48   25   47 1     
   49   26   27 ar    
   50   26   48 1     
   51   27   28 1     
   52    5   49 1     
   53    7   50 1     
   54   10   51 1     
   55   14   52 1     
   56   14   53 1     
   57   17   54 1     
   58   17   55 1     
   59   19   56 1     
   60   19   57 1     
   61   21   58 1     
   62   21   59 1     
@<TRIPOS>SUBSTRUCTURE
      1 S1             1
@<TRIPOS>SET
LONE_PAIRS      STATIC     ATOMS    <user>   **** ""
11 49 50 51 52 53 54 55 56 57 58 59
DONOR_HYDROGENS      STATIC     ATOMS    <user>   **** ""
4 37 42 43 44
ATOM$BLUE        STATIC     ATOMS    COLORGROUP SYSTEM
11 49 50 51 52 53 54 55 56 57 58 59
ATOM$RED        STATIC     ATOMS    COLORGROUP SYSTEM
4 37 42 43 44
