AV-unprocessed.smi:109|AV-procd|sdf|1058|dock2
  -GOLD-   2262018123D 1   1.00000     0.00000
 Structure written by MMmdl.
 58 61  0  0  0  0  0  0  0  0  1 V2000
  149.4054  140.8100  153.7430 O   0  0  0  0  0  0  0  0  0  0  0  0
  149.7343  140.4608  155.0702 C   0  0  0  0  0  0  0  0  0  0  0  0
  150.2135  141.7054  155.8343 C   0  0  0  0  0  0  0  0  0  0  0  0
  150.8357  141.3678  157.2076 C   0  0  1  0  0  0  0  0  0  0  0  0
  151.6694  140.1715  157.0918 N   0  0  0  0  0  0  0  0  0  0  0  0
  151.2750  138.9788  157.5907 C   0  0  0  0  0  0  0  0  0  0  0  0
  151.2026  138.7591  158.9299 N   0  0  0  0  0  0  0  0  0  0  0  0
  150.8029  137.5708  159.3932 C   0  0  0  0  0  0  0  0  0  0  0  0
  150.4344  136.4875  158.7052 N   0  0  0  0  0  0  0  0  0  0  0  0
  150.5054  136.7052  157.3601 C   0  0  0  0  0  0  0  0  0  0  0  0
  150.9133  137.9120  156.7285 C   0  0  0  0  0  0  0  0  0  0  0  0
  150.8553  137.7621  155.3489 N   0  0  0  0  0  0  0  0  0  0  0  0
  150.4329  136.5374  155.1810 C   0  0  0  0  0  0  0  0  0  0  0  0
  150.2071  135.8268  156.3421 N   0  0  0  0  0  0  0  0  0  0  0  0
  149.7187  134.4232  156.5240 C   0  0  1  0  0  0  0  0  0  0  0  0
  148.5843  134.2534  155.7241 O   0  0  0  0  0  0  0  0  0  0  0  0
  148.9611  133.5779  154.5329 C   0  0  2  0  0  0  0  0  0  0  0  0
  147.7563  133.0995  153.6950 C   0  0  0  0  0  0  0  0  0  0  0  0
  146.9247  134.1480  153.2442 O   0  0  0  0  0  0  0  0  0  0  0  0
  150.0372  132.5855  154.9929 C   0  0  2  0  0  0  0  0  0  0  0  0
  149.4734  131.4183  155.5658 O   0  0  0  0  0  0  0  0  0  0  0  0
  150.7914  133.4290  156.0242 C   0  0  2  0  0  0  0  0  0  0  0  0
  151.3626  132.6547  157.0621 O   0  0  0  0  0  0  0  0  0  0  0  0
  151.6316  142.5390  157.8478 C   0  0  0  0  0  0  0  0  0  0  0  0
  152.3471  142.1307  159.1542 C   0  0  0  0  0  0  0  0  0  0  0  0
  153.2049  143.2801  159.7086 C   0  0  0  0  0  0  0  0  0  0  0  0
  152.3640  144.5478  159.9253 C   0  0  0  0  0  0  0  0  0  0  0  0
  151.6461  144.9637  158.6319 C   0  0  0  0  0  0  0  0  0  0  0  0
  150.7889  143.8148  158.0757 C   0  0  0  0  0  0  0  0  0  0  0  0
  149.4723  134.3434  157.5837 H   0  0  0  0  0  0  0  0  0  0  0  0
  149.4685  134.3237  153.9177 H   0  0  0  0  0  0  0  0  0  0  0  0
  150.6825  132.2824  154.1678 H   0  0  0  0  0  0  0  0  0  0  0  0
  151.5873  133.9798  155.5198 H   0  0  0  0  0  0  0  0  0  0  0  0
  149.5243  140.0497  153.1944 H   0  0  0  0  0  0  0  0  0  0  0  0
  148.8566  140.0286  155.5514 H   0  0  0  0  0  0  0  0  0  0  0  0
  150.5068  139.6917  155.0486 H   0  0  0  0  0  0  0  0  0  0  0  0
  150.9308  142.2529  155.2215 H   0  0  0  0  0  0  0  0  0  0  0  0
  149.3588  142.3674  155.9663 H   0  0  0  0  0  0  0  0  0  0  0  0
  150.0023  141.1377  157.8726 H   0  0  0  0  0  0  0  0  0  0  0  0
  152.5444  140.2957  156.6031 H   0  0  0  0  0  0  0  0  0  0  0  0
  150.7734  137.4751  160.4686 H   0  0  0  0  0  0  0  0  0  0  0  0
  150.2749  136.1230  154.1962 H   0  0  0  0  0  0  0  0  0  0  0  0
  148.1062  132.5337  152.8313 H   0  0  0  0  0  0  0  0  0  0  0  0
  147.1445  132.4203  154.2892 H   0  0  0  0  0  0  0  0  0  0  0  0
  147.4232  134.6978  152.6590 H   0  0  0  0  0  0  0  0  0  0  0  0
  148.7645  131.6764  156.1352 H   0  0  0  0  0  0  0  0  0  0  0  0
  150.7755  131.9408  157.2593 H   0  0  0  0  0  0  0  0  0  0  0  0
  152.4239  142.8058  157.1467 H   0  0  0  0  0  0  0  0  0  0  0  0
  151.6222  141.8365  159.9127 H   0  0  0  0  0  0  0  0  0  0  0  0
  152.9790  141.2600  158.9764 H   0  0  0  0  0  0  0  0  0  0  0  0
  153.6695  142.9774  160.6474 H   0  0  0  0  0  0  0  0  0  0  0  0
  154.0195  143.4957  159.0160 H   0  0  0  0  0  0  0  0  0  0  0  0
  151.6285  144.3691  160.7107 H   0  0  0  0  0  0  0  0  0  0  0  0
  152.9999  145.3610  160.2763 H   0  0  0  0  0  0  0  0  0  0  0  0
  151.0201  145.8366  158.8188 H   0  0  0  0  0  0  0  0  0  0  0  0
  152.3822  145.2658  157.8859 H   0  0  0  0  0  0  0  0  0  0  0  0
  150.3220  144.1320  157.1428 H   0  0  0  0  0  0  0  0  0  0  0  0
  149.9777  143.6110  158.7749 H   0  0  0  0  0  0  0  0  0  0  0  0
  1  2  1  0  0  0  0
  1 34  1  0  0  0  0
  2  3  1  0  0  0  0
  2 35  1  0  0  0  0
  2 36  1  0  0  0  0
  3  4  1  0  0  0  0
  3 37  1  0  0  0  0
  3 38  1  0  0  0  0
  4  5  1  0  0  0  0
  4 24  1  0  0  0  0
  4 39  1  0  0  0  0
  5  6  1  0  0  0  0
  5 40  1  0  0  0  0
  6 11  1  0  0  0  0
  6  7  2  0  0  0  0
  7  8  1  0  0  0  0
  8  9  2  0  0  0  0
  8 41  1  0  0  0  0
  9 10  1  0  0  0  0
 10 14  1  0  0  0  0
 10 11  2  0  0  0  0
 11 12  1  0  0  0  0
 12 13  2  0  0  0  0
 13 14  1  0  0  0  0
 13 42  1  0  0  0  0
 14 15  1  0  0  0  0
 15 30  1  0  0  0  0
 15 22  1  0  0  0  0
 15 16  1  0  0  0  0
 16 17  1  0  0  0  0
 17 31  1  0  0  0  0
 17 18  1  0  0  0  0
 17 20  1  0  0  0  0
 18 19  1  0  0  0  0
 18 43  1  0  0  0  0
 18 44  1  0  0  0  0
 19 45  1  0  0  0  0
 20 32  1  0  0  0  0
 20 21  1  0  0  0  0
 20 22  1  0  0  0  0
 21 46  1  0  0  0  0
 22 33  1  0  0  0  0
 22 23  1  0  0  0  0
 23 47  1  0  0  0  0
 24 29  1  0  0  0  0
 24 25  1  0  0  0  0
 24 48  1  0  0  0  0
 25 26  1  0  0  0  0
 25 49  1  0  0  0  0
 25 50  1  0  0  0  0
 26 27  1  0  0  0  0
 26 51  1  0  0  0  0
 26 52  1  0  0  0  0
 27 28  1  0  0  0  0
 27 53  1  0  0  0  0
 27 54  1  0  0  0  0
 28 29  1  0  0  0  0
 28 55  1  0  0  0  0
 28 56  1  0  0  0  0
 29 57  1  0  0  0  0
 29 58  1  0  0  0  0
M  END
> <s_m_source_file>
AV-unprocessed.smi

> <i_m_source_file_index>
109

> <i_lp_mmshare_version>
43012

> <i_f3d_flags>
0

> <s_epik_input>
W0NIMl0xW0NIMl1bQ0gyXVtDSDJdW0NIMl1bQ0hdMVtDQEhdKFtDSDJdW0NIMl1bT0hdKVtOSF1jKG5bY0hdbjIpYyhjMjMpbltjSF1uM1tDQEBIXTRPW0NASF0oW0NIMl1bT0hdKVtDQEBIXShbT0hdKVtDQEhdNFtPSF0=

> <s_epik_cmdline>
J2VwaWtfcHl0aG9uJywgJy1waCcsICc3LjAnLCAnLXRuJywgJzgnLCAnLW1hJywgJzIwMCcsICctbWV0YWxfYmluZGluZycsICctaW1hZScsICc8aW5maWxlLm1hZT4nLCAnLW9tYWUnLCAnPG91dGZpbGUubWFlPic=

> <r_lp_tautomer_probability>
1

> <r_epik_Ionization_Penalty>
0.000793976

> <r_epik_Ionization_Penalty_Charging>
0

> <r_epik_Ionization_Penalty_Neutral>
0.000793976

> <r_epik_State_Penalty>
-0

> <r_epik_Charging_Adjusted_Penalty>
0

> <i_epik_Tot_Q>
0

> <i_epik_Tot_abs_Q>
0

> <r_epik_Metal_State_Penalty>
-0

> <b_epik_Metal_Only>
0

> <s_epik_Chemistry_Notes>
This compound contains an acetal/aminal-like group ( X-CH(R)-Y where X, Y are N, S, or O) that may be acid/base labile, releasing an aldehyde.

> <s_lp_Force_Field>
OPLS_2005

> <r_lp_Energy>
57.9674

> <b_lp_Chiralities_Consistent>
1

> <s_lp_Variant>
AV-unprocessed.smi:109-28

> <Gold.Version>
5.8.1

> <Gold.Id.Protein>
6NUR|6NUR_protein|mol2

> <Gold.PLP.Fitness>
59.8791

> <Gold.PLP.PLP>
-48.6464

> <Gold.PLP.part.hbond>
-5.0000

> <Gold.PLP.part.metal>
0.0000

> <Gold.PLP.part.buried>
-7.5581

> <Gold.PLP.part.nonpolar>
-36.4970

> <Gold.PLP.part.repulsive>
0.2389

> <Gold.PLP.ligand.clash>
0.0000

> <Gold.PLP.ligand.torsion>
1.1269

> <Gold.PLP.Chemscore.Hbond>
3.6080

> <Gold.PLP.Chemscore.CHOScore>
0.8163

> <Gold.PLP.Chemscore.Metal>
0.0000

> <Gold.Chemscore.Hbonds>
donor molecule, donor type, donor heavy atom, donor atom, acceptor molecule, acceptor atom, score
      L1  H     1    34       P1  7957  0.52
      L1  H    19    45       P1  7948  0.39
      P1  H  6896  6908       L1    23  0.26
      P1  H  6896  6909       L1     9  1.00
      P1  H  8011  8017       L1     1  0.65
      L1  C    13    42       P1  7948  0.53
      L1  C    13    42       P1  7949  0.06

> <Gold.PLP.Chemscore.Internal.Correction>
0.2136

> <Gold.Rescore>
     Score         DG    S(hbond)    S(metal)    S(lipo)     H(rot)  DE(clash)    DE(int)     intcor
     10.02     -12.61       2.31        0.00     114.65       5.47       0.25       2.34       ----

> <Gold.Chemscore.Fitness>
10.0224

> <Gold.Chemscore.DG>
-12.6118

> <Gold.Chemscore.ZeroCoef>
-5.4800

> <Gold.Chemscore.Hbond>
2.3086

> <Gold.Chemscore.Metal>
0.0000

> <Gold.Chemscore.Lipo>
114.6537

> <Gold.Chemscore.Internal_Hbond>
0.0000

> <Gold.Chemscore.DEClash>
0.2516

> <Gold.Chemscore.DEInternal>
2.3378

> <Gold.Chemscore.Rot>
5.4662

> <Gold.Chemscore.Internal.Correction>
   9.000000E+99

> <Gold.Chemscore.Hbonds>
donor molecule, donor type, donor heavy atom, donor atom, acceptor molecule, acceptor atom, score
      L1  H     1    34       P1  7957  0.48
      L1  H    19    45       P1  7948  0.38
      P1  H  6896  6908       L1    23  0.02
      P1  H  6896  6909       L1     9  0.58
      P1  H  8011  8017       L1     1  0.19

> <Gold.Chemscore.Hbond.Weighted>
-7.7108

> <Gold.Chemscore.Metal.Weighted>
-0.0000

> <Gold.Chemscore.Lipo.Weighted>
-13.4145

> <Gold.Chemscore.Internal_Hbond.Weighted>
0.0000

> <Gold.Chemscore.DEClash.Weighted>
0.2516

> <Gold.Chemscore.DEInternal.Weighted>
2.3378

> <Gold.Chemscore.Rot.Weighted>
13.9935

> <Gold.Chemscore.Internal.Correction.Weighted>
   9.000000E+99

> <Gold.Protein.RotatedTorsions>
[ 6907 6896 6895 6894 ] final   79.55 input  -60.11 | X-H torsion
[ 7974 7965 7964 7962 ] final  -38.94 input  175.53 | X-H torsion
[ 8008 7997 7996 7995 ] final -144.83 input   59.86 | X-H torsion
[ 10167 10162 10161 10158 ] final  111.48 input  -65.29 | X-H torsion
[ 10718 10713 10712 10709 ] final  121.26 input   66.30 | X-H torsion
[ 10763 10752 10751 10750 ] final  -17.35 input  -60.55 | X-H torsion
[ 11005 11000 10999 10996 ] final   28.00 input  -57.11 | X-H torsion

> <Gold.Protein.ActiveResidues>
 VAL166  LYS551  ARG553  GLY616  TRP617  ASP618  TYR619  PRO620  LYS621  CYS622 
 ASP623  PHE694  ASN695  SER759  ASP760  ASP761  ALA762  ILE779  LEU786  VAL792 
 PHE793  MET794  SER795  GLU796  ALA797  LYS798  CYS799  TRP800  GLU811  SER814 

> <Gold.Protein.RotatedAtoms>
  152.5203  134.3493  159.9245 H   0  0  0  0  0  0  0  0  0  0  0  0  # atno 6907 bound_to 6896
  151.3444  133.3943  159.2682 H   0  0  0  0  0  0  0  0  0  0  0  0  # atno 6908 bound_to 6896
  150.9777  134.9157  159.7884 H   0  0  0  0  0  0  0  0  0  0  0  0  # atno 6909 bound_to 6896
  146.0441  140.6569  142.9073 H   0  0  0  0  0  0  0  0  0  0  0  0  # atno 7974 bound_to 7965
  155.5333  140.0601  157.2884 H   0  0  0  0  0  0  0  0  0  0  0  0  # atno 8008 bound_to 7997
  154.4477  140.1932  156.0561 H   0  0  0  0  0  0  0  0  0  0  0  0  # atno 8009 bound_to 7997
  156.0637  140.3269  155.7495 H   0  0  0  0  0  0  0  0  0  0  0  0  # atno 8010 bound_to 7997
  139.6608  144.7128  151.1870 H   0  0  0  0  0  0  0  0  0  0  0  0  # atno 10167 bound_to 10162
  157.5831  131.1073  150.8149 H   0  0  0  0  0  0  0  0  0  0  0  0  # atno 10718 bound_to 10713
  153.5726  135.7007  153.5498 H   0  0  0  0  0  0  0  0  0  0  0  0  # atno 10763 bound_to 10752
  153.3331  135.4042  155.1511 H   0  0  0  0  0  0  0  0  0  0  0  0  # atno 10764 bound_to 10752
  154.8631  135.3724  154.5249 H   0  0  0  0  0  0  0  0  0  0  0  0  # atno 10765 bound_to 10752
  140.3202  134.2552  155.7718 H   0  0  0  0  0  0  0  0  0  0  0  0  # atno 11005 bound_to 11000
  144.7089  140.3962  143.7096 LP  0  0  0  0  0  0  0  0  0  0  0  0  # atno 17320 bound_to 7965
  145.6835  139.1623  143.2687 LP  0  0  0  0  0  0  0  0  0  0  0  0  # atno 17321 bound_to 7965
  140.7579  143.5998  150.8711 LP  0  0  0  0  0  0  0  0  0  0  0  0  # atno 17342 bound_to 10162
  139.9655  143.6115  152.2989 LP  0  0  0  0  0  0  0  0  0  0  0  0  # atno 17343 bound_to 10162
  156.8590  130.5106  149.5305 LP  0  0  0  0  0  0  0  0  0  0  0  0  # atno 17370 bound_to 10713
  156.0878  130.5871  150.9679 LP  0  0  0  0  0  0  0  0  0  0  0  0  # atno 17371 bound_to 10713
  141.2088  133.7766  157.0035 LP  0  0  0  0  0  0  0  0  0  0  0  0  # atno 17394 bound_to 11000
  140.0948  134.9571  157.1833 LP  0  0  0  0  0  0  0  0  0  0  0  0  # atno 17395 bound_to 11000

$$$$
