AV-unprocessed.smi:2032|AV-procd|sdf|8232|dock10
  -GOLD-   2272010503D 1   1.00000     0.00000
 Structure written by MMmdl.
 42 43  0  0  0  0  0  0  0  0  1 V2000
  151.8875  137.8503  155.0411 C   0  0  0  0  0  0  0  0  0  0  0  0
  151.2155  139.2016  154.7744 C   0  0  1  0  0  0  0  0  0  0  0  0
  149.7594  139.0435  154.2982 C   0  0  0  0  0  0  0  0  0  0  0  0
  149.0792  140.3281  154.1010 N   0  0  0  0  0  0  0  0  0  0  0  0
  147.6725  140.1645  153.6659 C   0  0  2  0  0  0  0  0  0  0  0  0
  146.8053  141.4194  153.9404 C   0  0  0  0  0  0  0  0  0  0  0  0
  146.9721  138.9274  154.3001 C   0  0  0  0  0  0  0  0  0  0  0  0
  147.0833  137.7207  153.4847 N   0  0  0  0  0  0  0  0  0  0  0  0
  146.0474  136.9731  153.0774 C   0  0  0  0  0  0  0  0  0  0  0  0
  144.8749  137.2350  153.3485 O   0  0  0  0  0  0  0  0  0  0  0  0
  146.4613  135.9203  152.3506 N   0  0  0  0  0  0  0  0  0  0  0  0
  145.6710  134.9098  151.7422 C   0  0  0  0  0  0  0  0  0  0  0  0
  144.3361  134.8496  151.8152 N   0  0  0  0  0  0  0  0  0  0  0  0
  143.8215  133.7503  151.1235 C   0  0  0  0  0  0  0  0  0  0  0  0
  144.7858  132.9787  150.5244 C   0  0  0  0  0  0  0  0  0  0  0  0
  146.3880  133.6062  150.8066 S   0  0  0  0  0  0  0  0  0  0  0  0
  149.1960  141.0937  155.3477 C   0  0  0  0  0  0  0  0  0  0  0  0
  150.6510  141.2419  155.8325 C   0  0  1  0  0  0  0  0  0  0  0  0
  150.7392  141.9630  157.1818 C   0  0  0  0  0  0  0  0  0  0  0  0
  151.2302  139.9521  155.9815 O   0  0  0  0  0  0  0  0  0  0  0  0
  151.9079  137.2380  154.1395 H   0  0  0  0  0  0  0  0  0  0  0  0
  151.3586  137.2917  155.8140 H   0  0  0  0  0  0  0  0  0  0  0  0
  152.9167  137.9864  155.3736 H   0  0  0  0  0  0  0  0  0  0  0  0
  151.7920  139.7350  154.0166 H   0  0  0  0  0  0  0  0  0  0  0  0
  149.7896  138.4820  153.3658 H   0  0  0  0  0  0  0  0  0  0  0  0
  149.2035  138.4380  155.0159 H   0  0  0  0  0  0  0  0  0  0  0  0
  147.6762  140.0147  152.5850 H   0  0  0  0  0  0  0  0  0  0  0  0
  145.7592  141.2685  153.6762 H   0  0  0  0  0  0  0  0  0  0  0  0
  147.1248  142.2769  153.3498 H   0  0  0  0  0  0  0  0  0  0  0  0
  146.8401  141.7019  154.9930 H   0  0  0  0  0  0  0  0  0  0  0  0
  147.3765  138.6795  155.2800 H   0  0  0  0  0  0  0  0  0  0  0  0
  145.9132  139.1387  154.4521 H   0  0  0  0  0  0  0  0  0  0  0  0
  148.0143  137.4347  153.2192 H   0  0  0  0  0  0  0  0  0  0  0  0
  147.4575  135.8317  152.2150 H   0  0  0  0  0  0  0  0  0  0  0  0
  142.7533  133.5918  151.1100 H   0  0  0  0  0  0  0  0  0  0  0  0
  144.6509  132.0828  149.9369 H   0  0  0  0  0  0  0  0  0  0  0  0
  148.8056  142.1008  155.2195 H   0  0  0  0  0  0  0  0  0  0  0  0
  148.5984  140.6190  156.1278 H   0  0  0  0  0  0  0  0  0  0  0  0
  151.2254  141.8061  155.0957 H   0  0  0  0  0  0  0  0  0  0  0  0
  150.3164  142.9660  157.1199 H   0  0  0  0  0  0  0  0  0  0  0  0
  151.7760  142.0587  157.5052 H   0  0  0  0  0  0  0  0  0  0  0  0
  150.1977  141.4182  157.9557 H   0  0  0  0  0  0  0  0  0  0  0  0
  1  2  1  0  0  0  0
  1 21  1  0  0  0  0
  1 22  1  0  0  0  0
  1 23  1  0  0  0  0
  2 20  1  0  0  0  0
  2  3  1  0  0  0  0
  2 24  1  0  0  0  0
  3  4  1  0  0  0  0
  3 25  1  0  0  0  0
  3 26  1  0  0  0  0
  4  5  1  0  0  0  0
  4 17  1  0  0  0  0
  5  6  1  0  0  0  0
  5  7  1  0  0  0  0
  5 27  1  0  0  0  0
  6 28  1  0  0  0  0
  6 29  1  0  0  0  0
  6 30  1  0  0  0  0
  7  8  1  0  0  0  0
  7 31  1  0  0  0  0
  7 32  1  0  0  0  0
  8  9  1  0  0  0  0
  8 33  1  0  0  0  0
  9 10  2  0  0  0  0
  9 11  1  0  0  0  0
 11 12  1  0  0  0  0
 11 34  1  0  0  0  0
 12 16  1  0  0  0  0
 12 13  2  0  0  0  0
 13 14  1  0  0  0  0
 14 15  2  0  0  0  0
 14 35  1  0  0  0  0
 15 16  1  0  0  0  0
 15 36  1  0  0  0  0
 17 18  1  0  0  0  0
 17 37  1  0  0  0  0
 17 38  1  0  0  0  0
 18 19  1  0  0  0  0
 18 20  1  0  0  0  0
 18 39  1  0  0  0  0
 19 40  1  0  0  0  0
 19 41  1  0  0  0  0
 19 42  1  0  0  0  0
M  END
> <s_m_source_file>
AV-unprocessed.smi

> <i_m_source_file_index>
2032

> <i_lp_mmshare_version>
43012

> <i_f3d_flags>
0

> <s_epik_input>
W0NIM11bQ0BASF0xW0NIMl1OKFtDSDJdW0NASF0oTzEpW0NIM10pW0NASF0oW0NIM10pW0NIMl1bTkhdQyg9TylbTkhdYzJuW2NIXVtjSF1zMg==

> <s_epik_cmdline>
J2VwaWtfcHl0aG9uJywgJy1waCcsICc3LjAnLCAnLXRuJywgJzgnLCAnLW1hJywgJzIwMCcsICctbWV0YWxfYmluZGluZycsICctaW1hZScsICc8aW5maWxlLm1hZT4nLCAnLW9tYWUnLCAnPG91dGZpbGUubWFlPic=

> <r_lp_tautomer_probability>
0.999

> <r_epik_Ionization_Penalty>
0.219202

> <r_epik_Ionization_Penalty_Charging>
0

> <r_epik_Ionization_Penalty_Neutral>
0.219202

> <r_epik_State_Penalty>
0.209349

> <r_epik_Charging_Adjusted_Penalty>
0.209349

> <i_epik_Tot_Q>
0

> <i_epik_Tot_abs_Q>
0

> <r_epik_Metal_State_Penalty>
0.247737

> <b_epik_Metal_Only>
0

> <s_lp_Force_Field>
OPLS_2005

> <r_lp_Energy>
24.8092

> <b_lp_Chiralities_Consistent>
1

> <s_lp_Variant>
AV-unprocessed.smi:2032-2

> <Gold.Version>
5.8.1

> <Gold.Id.Protein>
6NUR|6NUR_protein|mol2

> <Gold.PLP.Fitness>
39.5570

> <Gold.PLP.PLP>
-33.0674

> <Gold.PLP.part.hbond>
-2.0000

> <Gold.PLP.part.metal>
0.0000

> <Gold.PLP.part.buried>
-4.8127

> <Gold.PLP.part.nonpolar>
-27.8595

> <Gold.PLP.part.repulsive>
1.2756

> <Gold.PLP.ligand.clash>
0.0000

> <Gold.PLP.ligand.torsion>
0.9972

> <Gold.PLP.Chemscore.Hbond>
1.8160

> <Gold.PLP.Chemscore.CHOScore>
1.0000

> <Gold.PLP.Chemscore.Metal>
0.0000

> <Gold.Chemscore.Hbonds>
donor molecule, donor type, donor heavy atom, donor atom, acceptor molecule, acceptor atom, score
      L1  H     8    33       P1  7948  0.79
      L1  H    11    34       P1  7948  1.00
      L1  C    14    35       P1 10186  1.00

> <Gold.PLP.Chemscore.Internal.Correction>
0.0361

> <Gold.Rescore>
     Score         DG    S(hbond)    S(metal)    S(lipo)     H(rot)  DE(clash)    DE(int)     intcor
     14.80     -17.24       1.90        0.00      80.87       1.57       0.17       2.27       ----

> <Gold.Chemscore.Fitness>
14.8026

> <Gold.Chemscore.DG>
-17.2420

> <Gold.Chemscore.ZeroCoef>
-5.4800

> <Gold.Chemscore.Hbond>
1.8958

> <Gold.Chemscore.Metal>
0.0000

> <Gold.Chemscore.Lipo>
80.8712

> <Gold.Chemscore.Internal_Hbond>
0.0000

> <Gold.Chemscore.DEClash>
0.1688

> <Gold.Chemscore.DEInternal>
2.2706

> <Gold.Chemscore.Rot>
1.5750

> <Gold.Chemscore.Internal.Correction>
   9.000000E+99

> <Gold.Chemscore.Hbonds>
donor molecule, donor type, donor heavy atom, donor atom, acceptor molecule, acceptor atom, score
      L1  H     8    33       P1  7948  0.73
      L1  H    11    34       P1  7948  0.96

> <Gold.Chemscore.Hbond.Weighted>
-6.3320

> <Gold.Chemscore.Metal.Weighted>
-0.0000

> <Gold.Chemscore.Lipo.Weighted>
-9.4619

> <Gold.Chemscore.Internal_Hbond.Weighted>
0.0000

> <Gold.Chemscore.DEClash.Weighted>
0.1688

> <Gold.Chemscore.DEInternal.Weighted>
2.2706

> <Gold.Chemscore.Rot.Weighted>
4.0319

> <Gold.Chemscore.Internal.Correction.Weighted>
   9.000000E+99

> <Gold.Protein.RotatedTorsions>
[ 6907 6896 6895 6894 ] final  124.42 input  -60.11 | X-H torsion
[ 7974 7965 7964 7962 ] final  136.28 input  175.53 | X-H torsion
[ 8008 7997 7996 7995 ] final  -84.09 input   59.86 | X-H torsion
[ 10167 10162 10161 10158 ] final  141.02 input  -65.29 | X-H torsion
[ 10718 10713 10712 10709 ] final  100.54 input   66.30 | X-H torsion
[ 10763 10752 10751 10750 ] final  -22.22 input  -60.55 | X-H torsion
[ 11005 11000 10999 10996 ] final  -88.69 input  -57.11 | X-H torsion

> <Gold.Protein.ActiveResidues>
 VAL166  LYS551  ARG553  GLY616  TRP617  ASP618  TYR619  PRO620  LYS621  CYS622 
 ASP623  PHE694  ASN695  SER759  ASP760  ASP761  ALA762  ILE779  LEU786  VAL792 
 PHE793  MET794  SER795  GLU796  ALA797  LYS798  CYS799  TRP800  GLU811  SER814 

> <Gold.Protein.RotatedAtoms>
  152.4080  133.6918  159.6372 H   0  0  0  0  0  0  0  0  0  0  0  0  # atno 6907 bound_to 6896
  150.7962  133.8675  159.3258 H   0  0  0  0  0  0  0  0  0  0  0  0  # atno 6908 bound_to 6896
  151.6425  135.1013  160.0195 H   0  0  0  0  0  0  0  0  0  0  0  0  # atno 6909 bound_to 6896
  144.9580  139.4743  143.5493 H   0  0  0  0  0  0  0  0  0  0  0  0  # atno 7974 bound_to 7965
  154.6260  140.0610  156.9674 H   0  0  0  0  0  0  0  0  0  0  0  0  # atno 8008 bound_to 7997
  155.1741  140.3293  155.4369 H   0  0  0  0  0  0  0  0  0  0  0  0  # atno 8009 bound_to 7997
  156.2457  140.1909  156.6841 H   0  0  0  0  0  0  0  0  0  0  0  0  # atno 8010 bound_to 7997
  139.5032  144.6198  151.6078 H   0  0  0  0  0  0  0  0  0  0  0  0  # atno 10167 bound_to 10162
  157.6851  131.0701  150.5115 H   0  0  0  0  0  0  0  0  0  0  0  0  # atno 10718 bound_to 10713
  153.6484  135.6982  153.5217 H   0  0  0  0  0  0  0  0  0  0  0  0  # atno 10763 bound_to 10752
  153.2726  135.4210  155.1001 H   0  0  0  0  0  0  0  0  0  0  0  0  # atno 10764 bound_to 10752
  154.8482  135.3582  154.6029 H   0  0  0  0  0  0  0  0  0  0  0  0  # atno 10765 bound_to 10752
  141.1597  133.7585  156.9487 H   0  0  0  0  0  0  0  0  0  0  0  0  # atno 11005 bound_to 11000
  146.3343  139.8710  142.8840 LP  0  0  0  0  0  0  0  0  0  0  0  0  # atno 17320 bound_to 7965
  145.2743  141.0118  143.3754 LP  0  0  0  0  0  0  0  0  0  0  0  0  # atno 17321 bound_to 7965
  140.5897  143.9802  150.6317 LP  0  0  0  0  0  0  0  0  0  0  0  0  # atno 17342 bound_to 10162
  140.2978  143.3281  152.1001 LP  0  0  0  0  0  0  0  0  0  0  0  0  # atno 17343 bound_to 10162
  156.5432  130.4213  149.6143 LP  0  0  0  0  0  0  0  0  0  0  0  0  # atno 17370 bound_to 10713
  156.2967  130.7154  151.2016 LP  0  0  0  0  0  0  0  0  0  0  0  0  # atno 17371 bound_to 10713
  140.1272  134.9379  157.2286 LP  0  0  0  0  0  0  0  0  0  0  0  0  # atno 17394 bound_to 11000
  140.2998  134.3145  155.7293 LP  0  0  0  0  0  0  0  0  0  0  0  0  # atno 17395 bound_to 11000

$$$$
