AV-unprocessed.smi:837|AV-procd|sdf|3907|dock2
  -GOLD-   22720 1363D 1   1.00000     0.00000
 Structure written by MMmdl.
 49 51  0  0  0  0  0  0  0  0  3 V2000
  149.8189  140.3179  156.5296 C   0  0  0  0  0  0  0  0  0  0  0  0
  151.0206  140.8529  157.3373 C   0  0  1  0  0  0  0  0  0  0  0  0
  150.6005  142.0559  158.2090 C   0  0  0  0  0  0  0  0  0  0  0  0
  151.8008  142.6806  158.9351 C   0  0  0  0  0  0  0  0  0  0  0  0
  152.5337  141.6383  159.7893 C   0  0  0  0  0  0  0  0  0  0  0  0
  152.9706  140.4311  158.9415 C   0  0  0  0  0  0  0  0  0  0  0  0
  151.7905  139.7793  158.1743 C   0  0  1  0  0  0  0  0  0  0  0  0
  150.9151  139.0786  159.1027 N   0  5  0  0  0  0  0  0  0  0  0  0
  150.9566  137.7547  158.8287 C   0  0  0  0  0  0  0  0  0  0  0  0
  150.3481  136.8627  159.4198 O   0  0  0  0  0  0  0  0  0  0  0  0
  151.7626  137.5010  157.7803 N   0  0  0  0  0  0  0  0  0  0  0  0
  151.9676  136.1738  157.1889 C   0  0  0  0  0  0  0  0  0  0  0  0
  150.6379  135.5537  156.7477 C   0  0  0  0  0  0  0  0  0  0  0  0
  149.7774  135.2685  157.5804 O   0  0  0  0  0  0  0  0  0  0  0  0
  150.4916  135.3475  155.4306 N   0  0  0  0  0  0  0  0  0  0  0  0
  149.3458  134.7098  154.7892 C   0  0  0  0  0  0  0  0  0  0  0  0
  149.6735  133.3404  154.1526 C   0  0  0  0  0  0  0  0  0  0  0  0
  148.4957  132.6667  153.4636 C   0  0  0  0  0  0  0  0  0  0  0  0
  147.8190  133.3143  152.4056 C   0  0  0  0  0  0  0  0  0  0  0  0
  146.7223  132.6766  151.7898 C   0  0  0  0  0  0  0  0  0  0  0  0
  146.3204  131.4070  152.2501 C   0  0  0  0  0  0  0  0  0  0  0  0
  146.9912  130.8165  153.2632 N   0  3  0  0  0  0  0  0  0  0  0  0
  148.0509  131.3909  153.8739 C   0  0  0  0  0  0  0  0  0  0  0  0
  152.3026  138.6321  157.3144 C   0  0  0  0  0  0  0  0  0  0  0  0
  153.0668  138.7606  156.3571 O   0  0  0  0  0  0  0  0  0  0  0  0
  149.0348  139.9470  157.1872 H   0  0  0  0  0  0  0  0  0  0  0  0
  150.1021  139.5092  155.8561 H   0  0  0  0  0  0  0  0  0  0  0  0
  149.3824  141.1065  155.9166 H   0  0  0  0  0  0  0  0  0  0  0  0
  151.7256  141.2422  156.6006 H   0  0  0  0  0  0  0  0  0  0  0  0
  150.1217  142.8148  157.5896 H   0  0  0  0  0  0  0  0  0  0  0  0
  149.8539  141.7428  158.9398 H   0  0  0  0  0  0  0  0  0  0  0  0
  152.4903  143.1052  158.2046 H   0  0  0  0  0  0  0  0  0  0  0  0
  151.4662  143.5066  159.5630 H   0  0  0  0  0  0  0  0  0  0  0  0
  153.4044  142.0927  160.2623 H   0  0  0  0  0  0  0  0  0  0  0  0
  151.8834  141.3060  160.5993 H   0  0  0  0  0  0  0  0  0  0  0  0
  153.7270  140.7664  158.2298 H   0  0  0  0  0  0  0  0  0  0  0  0
  153.4673  139.6986  159.5805 H   0  0  0  0  0  0  0  0  0  0  0  0
  152.6279  136.2351  156.3224 H   0  0  0  0  0  0  0  0  0  0  0  0
  152.4755  135.5231  157.9032 H   0  0  0  0  0  0  0  0  0  0  0  0
  151.2542  135.6226  154.8284 H   0  0  0  0  0  0  0  0  0  0  0  0
  148.5208  134.6158  155.4966 H   0  0  0  0  0  0  0  0  0  0  0  0
  149.0052  135.3923  154.0105 H   0  0  0  0  0  0  0  0  0  0  0  0
  150.4783  133.4674  153.4274 H   0  0  0  0  0  0  0  0  0  0  0  0
  150.0655  132.6663  154.9145 H   0  0  0  0  0  0  0  0  0  0  0  0
  148.1290  134.2944  152.0732 H   0  0  0  0  0  0  0  0  0  0  0  0
  146.1855  133.1621  150.9880 H   0  0  0  0  0  0  0  0  0  0  0  0
  145.4848  130.8540  151.8463 H   0  0  0  0  0  0  0  0  0  0  0  0
  148.4997  130.8206  154.6738 H   0  0  0  0  0  0  0  0  0  0  0  0
  146.6804  129.8995  153.5839 H   0  0  0  0  0  0  0  0  0  0  0  0
  1  2  1  0  0  0  0
  1 26  1  0  0  0  0
  1 27  1  0  0  0  0
  1 28  1  0  0  0  0
  2  7  1  0  0  0  0
  2  3  1  0  0  0  0
  2 29  1  0  0  0  0
  3  4  1  0  0  0  0
  3 30  1  0  0  0  0
  3 31  1  0  0  0  0
  4  5  1  0  0  0  0
  4 32  1  0  0  0  0
  4 33  1  0  0  0  0
  5  6  1  0  0  0  0
  5 34  1  0  0  0  0
  5 35  1  0  0  0  0
  6  7  1  0  0  0  0
  6 36  1  0  0  0  0
  6 37  1  0  0  0  0
  7 24  1  0  0  0  0
  7  8  1  0  0  0  0
  8  9  1  0  0  0  0
  9 10  2  0  0  0  0
  9 11  1  0  0  0  0
 11 12  1  0  0  0  0
 11 24  1  0  0  0  0
 12 13  1  0  0  0  0
 12 38  1  0  0  0  0
 12 39  1  0  0  0  0
 13 14  2  0  0  0  0
 13 15  1  0  0  0  0
 15 16  1  0  0  0  0
 15 40  1  0  0  0  0
 16 17  1  0  0  0  0
 16 41  1  0  0  0  0
 16 42  1  0  0  0  0
 17 18  1  0  0  0  0
 17 43  1  0  0  0  0
 17 44  1  0  0  0  0
 18 23  1  0  0  0  0
 18 19  2  0  0  0  0
 19 20  1  0  0  0  0
 19 45  1  0  0  0  0
 20 21  2  0  0  0  0
 20 46  1  0  0  0  0
 21 22  1  0  0  0  0
 21 47  1  0  0  0  0
 22 23  2  0  0  0  0
 22 49  1  0  0  0  0
 23 48  1  0  0  0  0
 24 25  2  0  0  0  0
M  CHG  1   8  -1
M  CHG  1  22   1
M  END
> <s_m_source_file>
AV-unprocessed.smi

> <i_m_source_file_index>
837

> <i_lp_mmshare_version>
43012

> <i_f3d_flags>
0

> <s_epik_input>
W0NIMl0xW0NIMl1bQ0gyXVtDSDJdW0NAQEhdKFtDSDNdKVtDQEBdMTJbTkhdQyg9TylOKEMyPU8pW0NIMl1DKD1PKVtOSF1bQ0gyXVtDSDJdYzNbY0hdW2NIXVtjSF1uW2NIXTM=

> <s_epik_cmdline>
J2VwaWtfcHl0aG9uJywgJy1waCcsICc3LjAnLCAnLXRuJywgJzgnLCAnLW1hJywgJzIwMCcsICctbWV0YWxfYmluZGluZycsICctaW1hZScsICc8aW5maWxlLm1hZT4nLCAnLW9tYWUnLCAnPG91dGZpbGUubWFlPic=

> <r_lp_tautomer_probability>
1

> <r_epik_Ionization_Penalty>
8.27169

> <r_epik_Ionization_Penalty_Charging>
8.27169

> <r_epik_Ionization_Penalty_Neutral>
1.56557e-07

> <r_epik_State_Penalty>
8.42098

> <r_epik_Charging_Adjusted_Penalty>
16.6927

> <i_epik_Tot_Q>
0

> <i_epik_Tot_abs_Q>
2

> <r_epik_Metal_State_Penalty>
4.38565

> <b_epik_Metal_Only>
1

> <s_lp_Force_Field>
OPLS_2005

> <r_lp_Energy>
17.1627

> <b_lp_Chiralities_Consistent>
1

> <s_lp_Variant>
AV-unprocessed.smi:837-16

> <Gold.Version>
5.8.1

> <Gold.Id.Protein>
6NUR|6NUR_protein|mol2

> <Gold.PLP.Fitness>
45.1773

> <Gold.PLP.PLP>
-39.2561

> <Gold.PLP.part.hbond>
-3.3481

> <Gold.PLP.part.metal>
0.0000

> <Gold.PLP.part.buried>
-5.4452

> <Gold.PLP.part.nonpolar>
-30.0368

> <Gold.PLP.part.repulsive>
0.0980

> <Gold.PLP.ligand.clash>
0.0000

> <Gold.PLP.ligand.torsion>
0.0577

> <Gold.PLP.Chemscore.Hbond>
2.0000

> <Gold.PLP.Chemscore.CHOScore>
0.0000

> <Gold.PLP.Chemscore.Metal>
0.0000

> <Gold.Chemscore.Hbonds>
donor molecule, donor type, donor heavy atom, donor atom, acceptor molecule, acceptor atom, score
      P1  H  6896  6908       L1    10  1.00
      P1  H  7997  8009       L1    25  1.00

> <Gold.PLP.Chemscore.Internal.Correction>
0.0366

> <Gold.Rescore>
     Score         DG    S(hbond)    S(metal)    S(lipo)     H(rot)  DE(clash)    DE(int)     intcor
     13.86     -17.57       1.94        0.00      90.04       1.92       0.05       3.66       ----

> <Gold.Chemscore.Fitness>
13.8636

> <Gold.Chemscore.DG>
-17.5719

> <Gold.Chemscore.ZeroCoef>
-5.4800

> <Gold.Chemscore.Hbond>
1.9360

> <Gold.Chemscore.Metal>
0.0000

> <Gold.Chemscore.Lipo>
90.0374

> <Gold.Chemscore.Internal_Hbond>
0.0000

> <Gold.Chemscore.DEClash>
0.0507

> <Gold.Chemscore.DEInternal>
3.6576

> <Gold.Chemscore.Rot>
1.9175

> <Gold.Chemscore.Internal.Correction>
   9.000000E+99

> <Gold.Chemscore.Hbonds>
donor molecule, donor type, donor heavy atom, donor atom, acceptor molecule, acceptor atom, score
      P1  H  6896  6908       L1    10  0.94
      P1  H  7997  8009       L1    25  0.85

> <Gold.Chemscore.Hbond.Weighted>
-6.4663

> <Gold.Chemscore.Metal.Weighted>
-0.0000

> <Gold.Chemscore.Lipo.Weighted>
-10.5344

> <Gold.Chemscore.Internal_Hbond.Weighted>
0.0000

> <Gold.Chemscore.DEClash.Weighted>
0.0507

> <Gold.Chemscore.DEInternal.Weighted>
3.6576

> <Gold.Chemscore.Rot.Weighted>
4.9087

> <Gold.Chemscore.Internal.Correction.Weighted>
   9.000000E+99

> <Gold.Protein.RotatedTorsions>
[ 6907 6896 6895 6894 ] final -162.83 input  -60.11 | X-H torsion
[ 7974 7965 7964 7962 ] final  -53.76 input  175.53 | X-H torsion
[ 8008 7997 7996 7995 ] final -178.69 input   59.86 | X-H torsion
[ 10167 10162 10161 10158 ] final  145.75 input  -65.29 | X-H torsion
[ 10718 10713 10712 10709 ] final   -1.61 input   66.30 | X-H torsion
[ 10763 10752 10751 10750 ] final  -79.23 input  -60.55 | X-H torsion
[ 11005 11000 10999 10996 ] final  109.56 input  -57.11 | X-H torsion

> <Gold.Protein.ActiveResidues>
 VAL166  LYS551  ARG553  GLY616  TRP617  ASP618  TYR619  PRO620  LYS621  CYS622 
 ASP623  PHE694  ASN695  SER759  ASP760  ASP761  ALA762  ILE779  LEU786  VAL792 
 PHE793  MET794  SER795  GLU796  ALA797  LYS798  CYS799  TRP800  GLU811  SER814 

> <Gold.Protein.RotatedAtoms>
  151.3865  133.3803  159.2715 H   0  0  0  0  0  0  0  0  0  0  0  0  # atno 6907 bound_to 6896
  150.9537  134.8935  159.7698 H   0  0  0  0  0  0  0  0  0  0  0  0  # atno 6908 bound_to 6896
  152.5122  134.3821  159.9407 H   0  0  0  0  0  0  0  0  0  0  0  0  # atno 6909 bound_to 6896
  145.8932  140.8054  142.9781 H   0  0  0  0  0  0  0  0  0  0  0  0  # atno 7974 bound_to 7965
  156.0218  140.1263  157.0349 H   0  0  0  0  0  0  0  0  0  0  0  0  # atno 8008 bound_to 7997
  154.4314  140.1067  156.6044 H   0  0  0  0  0  0  0  0  0  0  0  0  # atno 8009 bound_to 7997
  155.5933  140.3469  155.4575 H   0  0  0  0  0  0  0  0  0  0  0  0  # atno 8010 bound_to 7997
  139.4920  144.5879  151.6741 H   0  0  0  0  0  0  0  0  0  0  0  0  # atno 10167 bound_to 10162
  156.8031  130.5399  149.5719 H   0  0  0  0  0  0  0  0  0  0  0  0  # atno 10718 bound_to 10713
  154.5360  135.5702  153.6799 H   0  0  0  0  0  0  0  0  0  0  0  0  # atno 10763 bound_to 10752
  152.9951  135.6216  154.2565 H   0  0  0  0  0  0  0  0  0  0  0  0  # atno 10764 bound_to 10752
  154.2494  135.2859  155.2802 H   0  0  0  0  0  0  0  0  0  0  0  0  # atno 10765 bound_to 10752
  139.8864  134.9461  156.6144 H   0  0  0  0  0  0  0  0  0  0  0  0  # atno 11005 bound_to 11000
  144.6731  140.1562  143.7426 LP  0  0  0  0  0  0  0  0  0  0  0  0  # atno 17320 bound_to 7965
  145.8882  139.2361  143.1565 LP  0  0  0  0  0  0  0  0  0  0  0  0  # atno 17321 bound_to 7965
  140.5499  144.0442  150.6122 LP  0  0  0  0  0  0  0  0  0  0  0  0  # atno 17342 bound_to 10162
  140.3493  143.2973  152.0504 LP  0  0  0  0  0  0  0  0  0  0  0  0  # atno 17343 bound_to 10162
  156.1089  130.6025  151.0015 LP  0  0  0  0  0  0  0  0  0  0  0  0  # atno 17370 bound_to 10713
  157.6543  131.0892  150.7981 LP  0  0  0  0  0  0  0  0  0  0  0  0  # atno 17371 bound_to 10713
  140.7787  133.8678  155.8550 LP  0  0  0  0  0  0  0  0  0  0  0  0  # atno 17394 bound_to 11000
  140.9779  134.1444  157.4520 LP  0  0  0  0  0  0  0  0  0  0  0  0  # atno 17395 bound_to 11000

$$$$
