AV-unprocessed.smi:1607|AV-procd|sdf|6466|dock7
  -GOLD-   22720 7123D 1   1.00000     0.00000
 Structure written by MMmdl.
 39 40  0  0  0  0  0  0  0  0  2 V2000
  149.0644  145.0382  160.7010 C   0  0  0  0  0  0  0  0  0  0  0  0
  149.7535  144.7066  159.3696 C   0  0  1  0  0  0  0  0  0  0  0  0
  151.2501  145.0579  159.4099 C   0  0  0  0  0  0  0  0  0  0  0  0
  151.9170  144.6927  158.0782 C   0  0  0  0  0  0  0  0  0  0  0  0
  151.6733  143.2165  157.7279 C   0  0  0  0  0  0  0  0  0  0  0  0
  150.2206  142.9057  157.6921 N   0  3  1  0  0  0  0  0  0  0  0  0
  149.9568  141.5208  157.2252 C   0  0  0  0  0  0  0  0  0  0  0  0
  149.4596  141.4751  155.7709 C   0  0  0  0  0  0  0  0  0  0  0  0
  149.4903  140.1101  155.2641 N   0  0  0  0  0  0  0  0  0  0  0  0
  150.6036  139.4761  154.8643 C   0  0  0  0  0  0  0  0  0  0  0  0
  151.7151  140.0039  154.8651 O   0  0  0  0  0  0  0  0  0  0  0  0
  150.4449  138.0316  154.3819 C   0  0  0  0  0  0  0  0  0  0  0  0
  151.1438  137.0952  155.2440 N   0  0  0  0  0  0  0  0  0  0  0  0
  150.7203  135.9931  155.8660 C   0  0  0  0  0  0  0  0  0  0  0  0
  151.6872  135.4271  156.5717 N   0  0  0  0  0  0  0  0  0  0  0  0
  152.7711  136.2581  156.3433 N   0  0  0  0  0  0  0  0  0  0  0  0
  152.4556  137.2484  155.5544 N   0  0  0  0  0  0  0  0  0  0  0  0
  149.5622  143.2247  158.9881 C   0  0  0  0  0  0  0  0  0  0  0  0
  149.4857  144.4572  161.5222 H   0  0  0  0  0  0  0  0  0  0  0  0
  147.9963  144.8240  160.6552 H   0  0  0  0  0  0  0  0  0  0  0  0
  149.1771  146.0942  160.9489 H   0  0  0  0  0  0  0  0  0  0  0  0
  149.2838  145.3169  158.5966 H   0  0  0  0  0  0  0  0  0  0  0  0
  151.3848  146.1210  159.6127 H   0  0  0  0  0  0  0  0  0  0  0  0
  151.7378  144.5201  160.2243 H   0  0  0  0  0  0  0  0  0  0  0  0
  151.5238  145.3284  157.2837 H   0  0  0  0  0  0  0  0  0  0  0  0
  152.9879  144.8912  158.1317 H   0  0  0  0  0  0  0  0  0  0  0  0
  152.1216  143.0043  156.7563 H   0  0  0  0  0  0  0  0  0  0  0  0
  152.1678  142.5694  158.4542 H   0  0  0  0  0  0  0  0  0  0  0  0
  150.8807  140.9427  157.2809 H   0  0  0  0  0  0  0  0  0  0  0  0
  149.2476  141.0329  157.8959 H   0  0  0  0  0  0  0  0  0  0  0  0
  148.4379  141.8454  155.6884 H   0  0  0  0  0  0  0  0  0  0  0  0
  150.0867  142.1144  155.1470 H   0  0  0  0  0  0  0  0  0  0  0  0
  148.6137  139.6100  155.2261 H   0  0  0  0  0  0  0  0  0  0  0  0
  149.3867  137.7687  154.3559 H   0  0  0  0  0  0  0  0  0  0  0  0
  150.8286  137.9288  153.3657 H   0  0  0  0  0  0  0  0  0  0  0  0
  149.7116  135.6118  155.8070 H   0  0  0  0  0  0  0  0  0  0  0  0
  149.9667  142.5784  159.7691 H   0  0  0  0  0  0  0  0  0  0  0  0
  148.4953  143.0126  158.9281 H   0  0  0  0  0  0  0  0  0  0  0  0
  149.8204  143.5217  156.9988 H   0  0  0  0  0  0  0  0  0  0  0  0
  1  2  1  0  0  0  0
  1 19  1  0  0  0  0
  1 20  1  0  0  0  0
  1 21  1  0  0  0  0
  2 18  1  0  0  0  0
  2  3  1  0  0  0  0
  2 22  1  0  0  0  0
  3  4  1  0  0  0  0
  3 23  1  0  0  0  0
  3 24  1  0  0  0  0
  4  5  1  0  0  0  0
  4 25  1  0  0  0  0
  4 26  1  0  0  0  0
  5  6  1  0  0  0  0
  5 27  1  0  0  0  0
  5 28  1  0  0  0  0
  6  7  1  0  0  0  0
  6 18  1  0  0  0  0
  6 39  1  0  0  0  0
  7  8  1  0  0  0  0
  7 29  1  0  0  0  0
  7 30  1  0  0  0  0
  8  9  1  0  0  0  0
  8 31  1  0  0  0  0
  8 32  1  0  0  0  0
  9 10  1  0  0  0  0
  9 33  1  0  0  0  0
 10 11  2  0  0  0  0
 10 12  1  0  0  0  0
 12 13  1  0  0  0  0
 12 34  1  0  0  0  0
 12 35  1  0  0  0  0
 13 17  1  0  0  0  0
 13 14  1  0  0  0  0
 14 15  2  0  0  0  0
 14 36  1  0  0  0  0
 15 16  1  0  0  0  0
 16 17  2  0  0  0  0
 18 37  1  0  0  0  0
 18 38  1  0  0  0  0
M  CHG  1   6   1
M  END
> <s_m_source_file>
AV-unprocessed.smi

> <i_m_source_file_index>
1607

> <i_lp_mmshare_version>
43012

> <i_f3d_flags>
0

> <s_epik_input>
W0NIM11bQ0BASF0xW0NIMl1bQ0gyXVtDSDJdTihbQ0gyXTEpW0NIMl1bQ0gyXVtOSF1DKD1PKVtDSDJdbjJbY0hdbm5uMg==

> <s_epik_cmdline>
J2VwaWtfcHl0aG9uJywgJy1waCcsICc3LjAnLCAnLXRuJywgJzgnLCAnLW1hJywgJzIwMCcsICctbWV0YWxfYmluZGluZycsICctaW1hZScsICc8aW5maWxlLm1hZT4nLCAnLW9tYWUnLCAnPG91dGZpbGUubWFlPic=

> <r_lp_tautomer_probability>
1

> <r_epik_Ionization_Penalty>
0.00268321

> <r_epik_Ionization_Penalty_Charging>
0.00267875

> <r_epik_Ionization_Penalty_Neutral>
4.46125e-06

> <r_epik_State_Penalty>
0.00186642

> <r_epik_Charging_Adjusted_Penalty>
0.00454517

> <i_epik_Tot_Q>
1

> <i_epik_Tot_abs_Q>
1

> <r_epik_Metal_State_Penalty>
-0

> <b_epik_Metal_Only>
0

> <s_lp_Force_Field>
OPLS_2005

> <r_lp_Energy>
19.4205

> <b_lp_Chiralities_Consistent>
1

> <s_lp_Variant>
AV-unprocessed.smi:1607-4

> <Gold.Version>
5.8.1

> <Gold.Id.Protein>
6NUR|6NUR_protein|mol2

> <Gold.PLP.Fitness>
42.4046

> <Gold.PLP.PLP>
-32.1967

> <Gold.PLP.part.hbond>
-4.6563

> <Gold.PLP.part.metal>
0.0000

> <Gold.PLP.part.buried>
-4.7279

> <Gold.PLP.part.nonpolar>
-24.8805

> <Gold.PLP.part.repulsive>
0.1981

> <Gold.PLP.ligand.clash>
0.0000

> <Gold.PLP.ligand.torsion>
0.8842

> <Gold.PLP.Chemscore.Hbond>
3.9760

> <Gold.PLP.Chemscore.CHOScore>
0.0000

> <Gold.PLP.Chemscore.Metal>
0.0000

> <Gold.Chemscore.Hbonds>
donor molecule, donor type, donor heavy atom, donor atom, acceptor molecule, acceptor atom, score
      L1  H     6    39       P1  8028  2.00
      P1  H  7989  7998       L1    11  1.00
      P1  H 10752 10764       L1    16  0.93

> <Gold.PLP.Chemscore.Internal.Correction>
0.0484

> <Gold.Rescore>
     Score         DG    S(hbond)    S(metal)    S(lipo)     H(rot)  DE(clash)    DE(int)     intcor
     12.75     -14.85       2.30        0.00      73.35       2.69       0.09       2.01       ----

> <Gold.Chemscore.Fitness>
12.7509

> <Gold.Chemscore.DG>
-14.8508

> <Gold.Chemscore.ZeroCoef>
-5.4800

> <Gold.Chemscore.Hbond>
2.3003

> <Gold.Chemscore.Metal>
0.0000

> <Gold.Chemscore.Lipo>
73.3528

> <Gold.Chemscore.Internal_Hbond>
0.0000

> <Gold.Chemscore.DEClash>
0.0858

> <Gold.Chemscore.DEInternal>
2.0141

> <Gold.Chemscore.Rot>
2.6932

> <Gold.Chemscore.Internal.Correction>
   9.000000E+99

> <Gold.Chemscore.Hbonds>
donor molecule, donor type, donor heavy atom, donor atom, acceptor molecule, acceptor atom, score
      L1  H     6    39       P1  8028  0.93
      P1  H  7989  7998       L1    11  0.33
      P1  H 10752 10764       L1    16  0.05

> <Gold.Chemscore.Hbond.Weighted>
-7.6830

> <Gold.Chemscore.Metal.Weighted>
-0.0000

> <Gold.Chemscore.Lipo.Weighted>
-8.5823

> <Gold.Chemscore.Internal_Hbond.Weighted>
0.0000

> <Gold.Chemscore.DEClash.Weighted>
0.0858

> <Gold.Chemscore.DEInternal.Weighted>
2.0141

> <Gold.Chemscore.Rot.Weighted>
6.8945

> <Gold.Chemscore.Internal.Correction.Weighted>
   9.000000E+99

> <Gold.Protein.RotatedTorsions>
[ 6907 6896 6895 6894 ] final -147.68 input  -60.11 | X-H torsion
[ 7974 7965 7964 7962 ] final  -20.34 input  175.53 | X-H torsion
[ 8008 7997 7996 7995 ] final  133.91 input   59.86 | X-H torsion
[ 10167 10162 10161 10158 ] final  -72.51 input  -65.29 | X-H torsion
[ 10718 10713 10712 10709 ] final  -28.39 input   66.30 | X-H torsion
[ 10763 10752 10751 10750 ] final    1.50 input  -60.55 | X-H torsion
[ 11005 11000 10999 10996 ] final  149.87 input  -57.11 | X-H torsion

> <Gold.Protein.ActiveResidues>
 VAL166  LYS551  ARG553  GLY616  TRP617  ASP618  TYR619  PRO620  LYS621  CYS622 
 ASP623  PHE694  ASN695  SER759  ASP760  ASP761  ALA762  ILE779  LEU786  VAL792 
 PHE793  MET794  SER795  GLU796  ALA797  LYS798  CYS799  TRP800  GLU811  SER814 

> <Gold.Protein.RotatedAtoms>
  151.1591  133.4857  159.2594 H   0  0  0  0  0  0  0  0  0  0  0  0  # atno 6907 bound_to 6896
  151.1473  135.0209  159.8662 H   0  0  0  0  0  0  0  0  0  0  0  0  # atno 6908 bound_to 6896
  152.5463  134.1478  159.8559 H   0  0  0  0  0  0  0  0  0  0  0  0  # atno 6909 bound_to 6896
  146.1793  140.4188  142.8501 H   0  0  0  0  0  0  0  0  0  0  0  0  # atno 7974 bound_to 7965
  156.2996  140.2509  156.3331 H   0  0  0  0  0  0  0  0  0  0  0  0  # atno 8008 bound_to 7997
  154.9126  140.0403  157.1973 H   0  0  0  0  0  0  0  0  0  0  0  0  # atno 8009 bound_to 7997
  154.8390  140.2888  155.5676 H   0  0  0  0  0  0  0  0  0  0  0  0  # atno 8010 bound_to 7997
  140.5186  143.2334  151.7469 H   0  0  0  0  0  0  0  0  0  0  0  0  # atno 10167 bound_to 10162
  156.4259  130.4435  149.7151 H   0  0  0  0  0  0  0  0  0  0  0  0  # atno 10718 bound_to 10713
  153.3072  135.6960  153.7148 H   0  0  0  0  0  0  0  0  0  0  0  0  # atno 10763 bound_to 10752
  153.6039  135.3457  155.2956 H   0  0  0  0  0  0  0  0  0  0  0  0  # atno 10764 bound_to 10752
  154.8566  135.4347  154.2200 H   0  0  0  0  0  0  0  0  0  0  0  0  # atno 10765 bound_to 10752
  140.1082  134.8941  157.1897 H   0  0  0  0  0  0  0  0  0  0  0  0  # atno 11005 bound_to 11000
  144.8288  140.6673  143.6304 LP  0  0  0  0  0  0  0  0  0  0  0  0  # atno 17320 bound_to 7965
  145.4121  139.1578  143.4120 LP  0  0  0  0  0  0  0  0  0  0  0  0  # atno 17321 bound_to 7965
  139.4916  144.4288  151.9896 LP  0  0  0  0  0  0  0  0  0  0  0  0  # atno 17342 bound_to 10162
  140.3383  144.3234  150.5972 LP  0  0  0  0  0  0  0  0  0  0  0  0  # atno 17343 bound_to 10162
  156.4074  130.7705  151.2716 LP  0  0  0  0  0  0  0  0  0  0  0  0  # atno 17370 bound_to 10713
  157.7508  131.0222  150.3781 LP  0  0  0  0  0  0  0  0  0  0  0  0  # atno 17371 bound_to 10713
  140.3127  134.3005  155.7263 LP  0  0  0  0  0  0  0  0  0  0  0  0  # atno 17394 bound_to 11000
  141.2123  133.7660  156.9799 LP  0  0  0  0  0  0  0  0  0  0  0  0  # atno 17395 bound_to 11000

$$$$
