AV-unprocessed.smi:234|AV-procd|sdf|1797|dock10
  -GOLD-   2262020363D 1   1.00000     0.00000
 Structure written by MMmdl.
 59 62  0  0  0  0  0  0  0  0  1 V2000
  152.4482  145.3305  158.6312 C   0  0  0  0  0  0  0  0  0  0  0  0
  151.5391  144.1848  159.0962 C   0  0  0  0  0  0  0  0  0  0  0  0
  152.2225  143.2942  159.9664 O   0  0  0  0  0  0  0  0  0  0  0  0
  153.1931  142.4730  159.3230 C   0  0  2  0  0  0  0  0  0  0  0  0
  152.4959  141.4415  158.4353 C   0  0  0  0  0  0  0  0  0  0  0  0
  152.4681  140.5280  159.6690 C   0  0  1  0  0  0  0  0  0  0  0  0
  152.7141  139.1122  159.3748 N   0  0  0  0  0  0  0  0  0  0  0  0
  153.4509  138.3267  160.3595 C   0  0  0  0  0  0  0  0  0  0  0  0
  151.7120  138.3999  158.8030 C   0  0  0  0  0  0  0  0  0  0  0  0
  150.4146  138.7241  159.0495 N   0  0  0  0  0  0  0  0  0  0  0  0
  149.4278  138.0144  158.4945 C   0  0  0  0  0  0  0  0  0  0  0  0
  149.5136  136.9625  157.6780 N   0  0  0  0  0  0  0  0  0  0  0  0
  150.8136  136.6320  157.4302 C   0  0  0  0  0  0  0  0  0  0  0  0
  151.9630  137.2875  157.9541 C   0  0  0  0  0  0  0  0  0  0  0  0
  153.1169  136.6710  157.4864 N   0  0  0  0  0  0  0  0  0  0  0  0
  152.6745  135.7081  156.7243 C   0  0  0  0  0  0  0  0  0  0  0  0
  151.3038  135.6181  156.6258 N   0  0  0  0  0  0  0  0  0  0  0  0
  150.5495  134.6534  155.8394 C   0  0  0  0  0  0  0  0  0  0  0  0
  150.4827  133.2476  156.4929 C   0  0  2  0  0  0  0  0  0  0  0  0
  149.8045  133.3772  157.7319 O   0  0  0  0  0  0  0  0  0  0  0  0
  151.8520  132.6348  156.7711 C   0  0  0  0  0  0  0  0  0  0  0  0
  151.5698  131.1410  156.7336 C   0  0  0  0  0  0  0  0  0  0  0  0
  150.6593  131.0281  155.6540 O   0  0  0  0  0  0  0  0  0  0  0  0
  149.7622  132.1367  155.6780 C   0  0  2  0  0  0  0  0  0  0  0  0
  149.4072  132.4703  154.2206 C   0  0  0  0  0  0  0  0  0  0  0  0
  153.7000  141.3062  160.2105 C   0  0  0  0  0  0  0  0  0  0  0  0
  155.0962  140.7915  159.8236 C   0  0  0  0  0  0  0  0  0  0  0  0
  153.7344  141.5722  161.7181 C   0  0  0  0  0  0  0  0  0  0  0  0
  151.8955  146.0332  158.0077 H   0  0  0  0  0  0  0  0  0  0  0  0
  153.2924  144.9644  158.0468 H   0  0  0  0  0  0  0  0  0  0  0  0
  152.8448  145.8830  159.4832 H   0  0  0  0  0  0  0  0  0  0  0  0
  150.6949  144.6022  159.6452 H   0  0  0  0  0  0  0  0  0  0  0  0
  151.1188  143.6449  158.2461 H   0  0  0  0  0  0  0  0  0  0  0  0
  153.9829  143.0176  158.8021 H   0  0  0  0  0  0  0  0  0  0  0  0
  151.5147  141.7432  158.0670 H   0  0  0  0  0  0  0  0  0  0  0  0
  153.1329  141.0767  157.6276 H   0  0  0  0  0  0  0  0  0  0  0  0
  151.5774  140.6995  160.2764 H   0  0  0  0  0  0  0  0  0  0  0  0
  152.8476  137.5138  160.7675 H   0  0  0  0  0  0  0  0  0  0  0  0
  153.7710  138.9445  161.1977 H   0  0  0  0  0  0  0  0  0  0  0  0
  154.3402  137.8937  159.9014 H   0  0  0  0  0  0  0  0  0  0  0  0
  148.4264  138.3362  158.7396 H   0  0  0  0  0  0  0  0  0  0  0  0
  153.3401  135.0375  156.2004 H   0  0  0  0  0  0  0  0  0  0  0  0
  149.5450  135.0510  155.6890 H   0  0  0  0  0  0  0  0  0  0  0  0
  151.0106  134.5975  154.8530 H   0  0  0  0  0  0  0  0  0  0  0  0
  149.5109  132.5207  158.0030 H   0  0  0  0  0  0  0  0  0  0  0  0
  152.5426  132.8779  155.9630 H   0  0  0  0  0  0  0  0  0  0  0  0
  152.3044  132.9667  157.7067 H   0  0  0  0  0  0  0  0  0  0  0  0
  152.4673  130.5448  156.5681 H   0  0  0  0  0  0  0  0  0  0  0  0
  151.0943  130.8056  157.6564 H   0  0  0  0  0  0  0  0  0  0  0  0
  148.8518  131.8178  156.1889 H   0  0  0  0  0  0  0  0  0  0  0  0
  148.7082  133.3047  154.1608 H   0  0  0  0  0  0  0  0  0  0  0  0
  148.9345  131.6157  153.7360 H   0  0  0  0  0  0  0  0  0  0  0  0
  150.2945  132.7246  153.6402 H   0  0  0  0  0  0  0  0  0  0  0  0
  155.3786  139.9114  160.4016 H   0  0  0  0  0  0  0  0  0  0  0  0
  155.8592  141.5511  159.9968 H   0  0  0  0  0  0  0  0  0  0  0  0
  155.1552  140.5150  158.7706 H   0  0  0  0  0  0  0  0  0  0  0  0
  154.0193  140.6826  162.2798 H   0  0  0  0  0  0  0  0  0  0  0  0
  152.7616  141.8883  162.0948 H   0  0  0  0  0  0  0  0  0  0  0  0
  154.4492  142.3562  161.9684 H   0  0  0  0  0  0  0  0  0  0  0  0
  1  2  1  0  0  0  0
  1 29  1  0  0  0  0
  1 30  1  0  0  0  0
  1 31  1  0  0  0  0
  2  3  1  0  0  0  0
  2 32  1  0  0  0  0
  2 33  1  0  0  0  0
  3  4  1  0  0  0  0
  4 26  1  0  0  0  0
  4  5  1  0  0  0  0
  4 34  1  0  0  0  0
  5  6  1  0  0  0  0
  5 35  1  0  0  0  0
  5 36  1  0  0  0  0
  6  7  1  0  0  0  0
  6 26  1  0  0  0  0
  6 37  1  0  0  0  0
  7  8  1  0  0  0  0
  7  9  1  0  0  0  0
  8 38  1  0  0  0  0
  8 39  1  0  0  0  0
  8 40  1  0  0  0  0
  9 14  1  0  0  0  0
  9 10  2  0  0  0  0
 10 11  1  0  0  0  0
 11 12  2  0  0  0  0
 11 41  1  0  0  0  0
 12 13  1  0  0  0  0
 13 17  1  0  0  0  0
 13 14  2  0  0  0  0
 14 15  1  0  0  0  0
 15 16  2  0  0  0  0
 16 17  1  0  0  0  0
 16 42  1  0  0  0  0
 17 18  1  0  0  0  0
 18 19  1  0  0  0  0
 18 43  1  0  0  0  0
 18 44  1  0  0  0  0
 19 24  1  0  0  0  0
 19 20  1  0  0  0  0
 19 21  1  0  0  0  0
 20 45  1  0  0  0  0
 21 22  1  0  0  0  0
 21 46  1  0  0  0  0
 21 47  1  0  0  0  0
 22 23  1  0  0  0  0
 22 48  1  0  0  0  0
 22 49  1  0  0  0  0
 23 24  1  0  0  0  0
 24 25  1  0  0  0  0
 24 50  1  0  0  0  0
 25 51  1  0  0  0  0
 25 52  1  0  0  0  0
 25 53  1  0  0  0  0
 26 27  1  0  0  0  0
 26 28  1  0  0  0  0
 27 54  1  0  0  0  0
 27 55  1  0  0  0  0
 27 56  1  0  0  0  0
 28 57  1  0  0  0  0
 28 58  1  0  0  0  0
 28 59  1  0  0  0  0
M  END
> <s_m_source_file>
AV-unprocessed.smi

> <i_m_source_file_index>
234

> <i_lp_mmshare_version>
43012

> <i_f3d_flags>
0

> <s_epik_input>
W0NIM11bQ0gyXU9bQ0BASF0oQzEoW0NIM10pW0NIM10pW0NIMl1bQ0BIXTFOKFtDSDNdKWMobltjSF1uMiljKGMyMyluW2NIXW4zW0NIMl1bQ0BAXTQoW09IXSlbQ0gyXVtDSDJdT1tDQEhdNFtDSDNd

> <s_epik_cmdline>
J2VwaWtfcHl0aG9uJywgJy1waCcsICc3LjAnLCAnLXRuJywgJzgnLCAnLW1hJywgJzIwMCcsICctbWV0YWxfYmluZGluZycsICctaW1hZScsICc8aW5maWxlLm1hZT4nLCAnLW9tYWUnLCAnPG91dGZpbGUubWFlPic=

> <r_lp_tautomer_probability>
1

> <r_epik_Ionization_Penalty>
0.00349132

> <r_epik_Ionization_Penalty_Charging>
0

> <r_epik_Ionization_Penalty_Neutral>
0.00349132

> <r_epik_State_Penalty>
0.00242418

> <r_epik_Charging_Adjusted_Penalty>
0.00242418

> <i_epik_Tot_Q>
0

> <i_epik_Tot_abs_Q>
0

> <r_epik_Metal_State_Penalty>
-0

> <b_epik_Metal_Only>
0

> <s_lp_Force_Field>
OPLS_2005

> <r_lp_Energy>
49.2938

> <b_lp_Chiralities_Consistent>
1

> <s_lp_Variant>
AV-unprocessed.smi:234-13

> <Gold.Version>
5.8.1

> <Gold.Id.Protein>
6NUR|6NUR_protein|mol2

> <Gold.PLP.Fitness>
44.7641

> <Gold.PLP.PLP>
-42.9749

> <Gold.PLP.part.hbond>
-2.0000

> <Gold.PLP.part.metal>
0.0000

> <Gold.PLP.part.buried>
-3.9708

> <Gold.PLP.part.nonpolar>
-37.9082

> <Gold.PLP.part.repulsive>
0.0269

> <Gold.PLP.ligand.clash>
0.0000

> <Gold.PLP.ligand.torsion>
1.1140

> <Gold.PLP.Chemscore.Hbond>
1.0000

> <Gold.PLP.Chemscore.CHOScore>
0.0000

> <Gold.PLP.Chemscore.Metal>
0.0000

> <Gold.Chemscore.Hbonds>
donor molecule, donor type, donor heavy atom, donor atom, acceptor molecule, acceptor atom, score
      P1  H  6896  6909       L1    20  0.95

> <Gold.PLP.Chemscore.Internal.Correction>
1.0171

> <Gold.Rescore>
     Score         DG    S(hbond)    S(metal)    S(lipo)     H(rot)  DE(clash)    DE(int)     intcor
     11.82     -15.18       0.76        0.00     118.48       2.62       1.05       2.31       ----

> <Gold.Chemscore.Fitness>
11.8196

> <Gold.Chemscore.DG>
-15.1820

> <Gold.Chemscore.ZeroCoef>
-5.4800

> <Gold.Chemscore.Hbond>
0.7641

> <Gold.Chemscore.Metal>
0.0000

> <Gold.Chemscore.Lipo>
118.4785

> <Gold.Chemscore.Internal_Hbond>
0.0000

> <Gold.Chemscore.DEClash>
1.0526

> <Gold.Chemscore.DEInternal>
2.3098

> <Gold.Chemscore.Rot>
2.6219

> <Gold.Chemscore.Internal.Correction>
   9.000000E+99

> <Gold.Chemscore.Hbonds>
donor molecule, donor type, donor heavy atom, donor atom, acceptor molecule, acceptor atom, score
      P1  H  6896  6909       L1    20  0.21

> <Gold.Chemscore.Hbond.Weighted>
-2.5521

> <Gold.Chemscore.Metal.Weighted>
-0.0000

> <Gold.Chemscore.Lipo.Weighted>
-13.8620

> <Gold.Chemscore.Internal_Hbond.Weighted>
0.0000

> <Gold.Chemscore.DEClash.Weighted>
1.0526

> <Gold.Chemscore.DEInternal.Weighted>
2.3098

> <Gold.Chemscore.Rot.Weighted>
6.7121

> <Gold.Chemscore.Internal.Correction.Weighted>
   9.000000E+99

> <Gold.Protein.RotatedTorsions>
[ 6907 6896 6895 6894 ] final    6.79 input  -60.11 | X-H torsion
[ 7974 7965 7964 7962 ] final -131.75 input  175.53 | X-H torsion
[ 8008 7997 7996 7995 ] final  179.19 input   59.86 | X-H torsion
[ 10167 10162 10161 10158 ] final   85.03 input  -65.29 | X-H torsion
[ 10718 10713 10712 10709 ] final   -5.48 input   66.30 | X-H torsion
[ 10763 10752 10751 10750 ] final  114.69 input  -60.55 | X-H torsion
[ 11005 11000 10999 10996 ] final   76.58 input  -57.11 | X-H torsion

> <Gold.Protein.ActiveResidues>
 VAL166  LYS551  ARG553  GLY616  TRP617  ASP618  TYR619  PRO620  LYS621  CYS622 
 ASP623  PHE694  ASN695  SER759  ASP760  ASP761  ALA762  ILE779  LEU786  VAL792 
 PHE793  MET794  SER795  GLU796  ALA797  LYS798  CYS799  TRP800  GLU811  SER814 

> <Gold.Protein.RotatedAtoms>
  151.6795  135.0964  160.0212 H   0  0  0  0  0  0  0  0  0  0  0  0  # atno 6907 bound_to 6896
  152.3844  133.6586  159.6195 H   0  0  0  0  0  0  0  0  0  0  0  0  # atno 6908 bound_to 6896
  150.7773  133.8976  159.3373 H   0  0  0  0  0  0  0  0  0  0  0  0  # atno 6909 bound_to 6896
  144.9350  140.7173  143.4882 H   0  0  0  0  0  0  0  0  0  0  0  0  # atno 7974 bound_to 7965
  156.0462  140.1314  157.0102 H   0  0  0  0  0  0  0  0  0  0  0  0  # atno 8008 bound_to 7997
  154.4413  140.1020  156.6379 H   0  0  0  0  0  0  0  0  0  0  0  0  # atno 8009 bound_to 7997
  155.5593  140.3464  155.4489 H   0  0  0  0  0  0  0  0  0  0  0  0  # atno 8010 bound_to 7997
  139.9019  144.6324  150.8627 H   0  0  0  0  0  0  0  0  0  0  0  0  # atno 10167 bound_to 10162
  156.7460  130.5224  149.5814 H   0  0  0  0  0  0  0  0  0  0  0  0  # atno 10718 bound_to 10713
  153.5110  135.3618  155.2587 H   0  0  0  0  0  0  0  0  0  0  0  0  # atno 10763 bound_to 10752
  154.8742  135.4023  154.3368 H   0  0  0  0  0  0  0  0  0  0  0  0  # atno 10764 bound_to 10752
  153.4021  135.7075  153.6485 H   0  0  0  0  0  0  0  0  0  0  0  0  # atno 10765 bound_to 10752
  139.9292  134.7612  156.1413 H   0  0  0  0  0  0  0  0  0  0  0  0  # atno 11005 bound_to 11000
  145.3081  139.1828  143.4653 LP  0  0  0  0  0  0  0  0  0  0  0  0  # atno 17320 bound_to 7965
  146.3263  140.3082  142.8625 LP  0  0  0  0  0  0  0  0  0  0  0  0  # atno 17321 bound_to 7965
  140.7705  143.3430  151.2169 LP  0  0  0  0  0  0  0  0  0  0  0  0  # atno 17342 bound_to 10162
  139.7017  143.9521  152.2908 LP  0  0  0  0  0  0  0  0  0  0  0  0  # atno 17343 bound_to 10162
  156.1433  130.6259  151.0497 LP  0  0  0  0  0  0  0  0  0  0  0  0  # atno 17370 bound_to 10713
  157.6798  131.0841  150.7400 LP  0  0  0  0  0  0  0  0  0  0  0  0  # atno 17371 bound_to 10713
  141.0870  133.6730  156.2457 LP  0  0  0  0  0  0  0  0  0  0  0  0  # atno 17394 bound_to 11000
  140.6250  134.5323  157.5552 LP  0  0  0  0  0  0  0  0  0  0  0  0  # atno 17395 bound_to 11000

$$$$
