#       Name:                AV-unprocessed.smi:3343
#       Creating user name   scv26
#       Creation time:       Fri Mar 27 19:30:11 2020


#       File generated by GOLD software.
#

@<TRIPOS>MOLECULE
AV-unprocessed.smi:3343
    47    48     1
SMALL
NO_CHARGES


@<TRIPOS>ATOM
      1 ****        -2.8252   2.6028   2.9602 C.3            1 S1                 0.0000
      2 ****        -2.0310   1.3369   2.5787 C.3            1 S1                 0.0000
      3 ****        -0.5215   1.5924   2.4366 C.2            1 S1                 0.0000
      4 ****        -0.0793   2.7380   2.3436 O.2            1 S1                 0.0000
      5 ****         0.2556   0.4994   2.3932 N.am           1 S1                 0.0000
      6 ****         1.6777   0.4883   2.0744 C.3            1 S1                 0.0000
      7 ****         2.0333  -0.7407   1.2178 C.3            1 S1                 0.0000
      8 ****         1.9475  -0.5454  -0.2305 N.3            1 S1                 0.0000
      9 ****         2.4908  -1.7037  -0.9423 C.3            1 S1                 0.0000
     10 ****         2.4247  -1.5186  -2.4697 C.3            1 S1                 0.0000
     11 ****         1.0511  -1.3049  -2.9189 N.3            1 S1                 0.0000
     12 ****         0.9789  -1.1417  -4.3626 C.3            1 S1                 0.0000
     13 ****         0.5015  -0.1464  -2.2196 C.3            1 S1                 0.0000
     14 ****         0.5728  -0.3246  -0.6922 C.3            1 S1                 0.0000
     15 ****        -2.5453   0.7128   1.3640 N.pl3          1 S1                 0.0000
     16 ****        -2.7926  -0.5718   1.0977 C.2            1 S1                 0.0000
     17 ****        -3.1980  -0.7968  -0.1443 N.2            1 S1                 0.0000
     18 ****        -3.1708   0.4804  -0.6278 C.2            1 S1                 0.0000
     19 ****        -2.7777   1.4213   0.2304 N.2            1 S1                 0.0000
     20 ****        -2.4686   3.0220   3.9014 H              1 S1                 0.0000
     21 ****        -3.8836   2.3732   3.0862 H              1 S1                 0.0000
     22 ****        -2.7453   3.3815   2.2004 H              1 S1                 0.0000
     23 ****        -2.1592   0.6170   3.3888 H              1 S1                 0.0000
     24 ****        -0.1905  -0.4003   2.4949 H              1 S1                 0.0000
     25 ****         2.0016   1.4055   1.5792 H              1 S1                 0.0000
     26 ****         2.2180   0.4379   3.0203 H              1 S1                 0.0000
     27 ****         3.0644  -1.0028   1.4586 H              1 S1                 0.0000
     28 ****         1.4357  -1.6020   1.5218 H              1 S1                 0.0000
     29 ****         3.5285  -1.8639  -0.6475 H              1 S1                 0.0000
     30 ****         1.9443  -2.6052  -0.6608 H              1 S1                 0.0000
     31 ****         3.0514  -0.6753  -2.7646 H              1 S1                 0.0000
     32 ****         2.8386  -2.4012  -2.9585 H              1 S1                 0.0000
     33 ****        -0.0542  -1.0053  -4.6836 H              1 S1                 0.0000
     34 ****         1.3712  -2.0231  -4.8709 H              1 S1                 0.0000
     35 ****         1.5543  -0.2752  -4.6912 H              1 S1                 0.0000
     36 ****         1.0422   0.7566  -2.5075 H              1 S1                 0.0000
     37 ****        -0.5373   0.0041  -2.5159 H              1 S1                 0.0000
     38 ****        -0.0638  -1.1570  -0.3882 H              1 S1                 0.0000
     39 ****         0.1620   0.5719  -0.2310 H              1 S1                 0.0000
     40 ****        -2.6625  -1.3606   1.8242 H              1 S1                 0.0000
     41 ****        -3.4409   0.7233  -1.6450 H              1 S1                 0.0000
     42 ****        -0.7046   3.5182   2.3600 LP             1 S1                 0.0000
     43 ****         0.9051   2.8881   2.2517 LP             1 S1                 0.0000
     44 ****         2.4848   0.2741  -0.4300 LP             1 S1                 0.0000
     45 ****         0.5039  -2.1126  -2.6995 LP             1 S1                 0.0000
     46 ****        -3.4503  -1.6526  -0.5958 LP             1 S1                 0.0000
     47 ****        -2.6787   2.4045   0.0771 LP             1 S1                 0.0000
@<TRIPOS>BOND
    1    1    2 1     
    2    1   20 1     
    3    1   21 1     
    4    1   22 1     
    5    2    3 1     
    6    2   15 1     
    7    2   23 1     
    8    3    4 2     
    9    3    5 am    
   10    5    6 1     
   11    5   24 1     
   12    6    7 1     
   13    6   25 1     
   14    6   26 1     
   15    7    8 1     
   16    7   27 1     
   17    7   28 1     
   18    8   14 1     
   19    8    9 1     
   20    9   10 1     
   21    9   29 1     
   22    9   30 1     
   23   10   11 1     
   24   10   31 1     
   25   10   32 1     
   26   11   12 1     
   27   11   13 1     
   28   12   33 1     
   29   12   34 1     
   30   12   35 1     
   31   13   14 1     
   32   13   36 1     
   33   13   37 1     
   34   14   38 1     
   35   14   39 1     
   36   15   19 1     
   37   15   16 1     
   38   16   17 2     
   39   16   40 1     
   40   17   18 1     
   41   18   19 2     
   42   18   41 1     
   43    4   42 1     
   44    4   43 1     
   45    8   44 1     
   46   11   45 1     
   47   17   46 1     
   48   19   47 1     
@<TRIPOS>SUBSTRUCTURE
      1 S1             1
@<TRIPOS>SET
LONE_PAIRS      STATIC     ATOMS    <user>   **** ""
6 42 43 44 45 46 47
DONOR_HYDROGENS      STATIC     ATOMS    <user>   **** ""
1 24
ATOM$BLUE        STATIC     ATOMS    COLORGROUP SYSTEM
6 42 43 44 45 46 47
ATOM$RED        STATIC     ATOMS    COLORGROUP SYSTEM
1 24
