AV-unprocessed.smi:1834|AV-procd|sdf|7471|dock4
  -GOLD-   22720 9163D 1   1.00000     0.00000
 Structure written by MMmdl.
 46 47  0  0  0  0  0  0  0  0  2 V2000
  154.5693  137.3801  164.7899 C   0  0  0  0  0  0  0  0  0  0  0  0
  154.3294  136.0729  164.0211 C   0  0  0  0  0  0  0  0  0  0  0  0
  154.8023  136.1387  162.6144 N   0  3  1  0  0  0  0  0  0  0  0  0
  155.0545  134.7873  162.0495 C   0  0  0  0  0  0  0  0  0  0  0  0
  155.6512  134.8686  160.6349 C   0  0  0  0  0  0  0  0  0  0  0  0
  154.7655  135.7117  159.7051 C   0  0  0  0  0  0  0  0  0  0  0  0
  154.4836  137.0994  160.3108 C   0  0  2  0  0  0  0  0  0  0  0  0
  155.7194  138.0279  160.2268 C   0  0  0  0  0  0  0  0  0  0  0  0
  155.4436  139.3774  160.7120 N   0  0  0  0  0  0  0  0  0  0  0  0
  154.3291  140.0767  160.4526 C   0  0  0  0  0  0  0  0  0  0  0  0
  153.4005  139.6384  159.7735 O   0  0  0  0  0  0  0  0  0  0  0  0
  154.3742  141.2957  161.0169 N   0  0  0  0  0  0  0  0  0  0  0  0
  153.4727  142.3086  160.9168 C   0  0  0  0  0  0  0  0  0  0  0  0
  152.8037  142.7580  159.8112 C   0  0  0  0  0  0  0  0  0  0  0  0
  152.0244  143.8320  160.3317 C   0  0  0  0  0  0  0  0  0  0  0  0
  151.0703  144.7240  159.5934 C   0  0  0  0  0  0  0  0  0  0  0  0
  152.2107  144.0161  161.6337 N   0  0  0  0  0  0  0  0  0  0  0  0
  153.1087  143.0764  162.0004 N   0  0  0  0  0  0  0  0  0  0  0  0
  153.5489  142.9911  163.3795 C   0  0  0  0  0  0  0  0  0  0  0  0
  153.9026  136.9338  161.7354 C   0  0  0  0  0  0  0  0  0  0  0  0
  154.2435  137.2794  165.8253 H   0  0  0  0  0  0  0  0  0  0  0  0
  154.0240  138.2198  164.3603 H   0  0  0  0  0  0  0  0  0  0  0  0
  155.6283  137.6376  164.8056 H   0  0  0  0  0  0  0  0  0  0  0  0
  154.8656  135.2811  164.5460 H   0  0  0  0  0  0  0  0  0  0  0  0
  153.2740  135.7988  164.0481 H   0  0  0  0  0  0  0  0  0  0  0  0
  155.7422  134.2392  162.6946 H   0  0  0  0  0  0  0  0  0  0  0  0
  154.1208  134.2227  162.0296 H   0  0  0  0  0  0  0  0  0  0  0  0
  156.6554  135.2907  160.6828 H   0  0  0  0  0  0  0  0  0  0  0  0
  155.7656  133.8648  160.2244 H   0  0  0  0  0  0  0  0  0  0  0  0
  155.2301  135.8076  158.7231 H   0  0  0  0  0  0  0  0  0  0  0  0
  153.8206  135.1905  159.5448 H   0  0  0  0  0  0  0  0  0  0  0  0
  153.7077  137.5634  159.7003 H   0  0  0  0  0  0  0  0  0  0  0  0
  156.5692  137.5961  160.7566 H   0  0  0  0  0  0  0  0  0  0  0  0
  156.0344  138.1174  159.1867 H   0  0  0  0  0  0  0  0  0  0  0  0
  156.1546  139.8093  161.2844 H   0  0  0  0  0  0  0  0  0  0  0  0
  155.1884  141.4993  161.5778 H   0  0  0  0  0  0  0  0  0  0  0  0
  152.8490  142.3975  158.7949 H   0  0  0  0  0  0  0  0  0  0  0  0
  151.0503  144.4854  158.5298 H   0  0  0  0  0  0  0  0  0  0  0  0
  151.3546  145.7719  159.6925 H   0  0  0  0  0  0  0  0  0  0  0  0
  150.0554  144.6150  159.9762 H   0  0  0  0  0  0  0  0  0  0  0  0
  154.6320  143.1073  163.4260 H   0  0  0  0  0  0  0  0  0  0  0  0
  153.2759  142.0191  163.7914 H   0  0  0  0  0  0  0  0  0  0  0  0
  153.0837  143.7735  163.9808 H   0  0  0  0  0  0  0  0  0  0  0  0
  152.9378  136.4277  161.6749 H   0  0  0  0  0  0  0  0  0  0  0  0
  153.6956  137.9086  162.1734 H   0  0  0  0  0  0  0  0  0  0  0  0
  155.6946  136.6126  162.6330 H   0  0  0  0  0  0  0  0  0  0  0  0
  1  2  1  0  0  0  0
  1 21  1  0  0  0  0
  1 22  1  0  0  0  0
  1 23  1  0  0  0  0
  2  3  1  0  0  0  0
  2 24  1  0  0  0  0
  2 25  1  0  0  0  0
  3 20  1  0  0  0  0
  3  4  1  0  0  0  0
  3 46  1  0  0  0  0
  4  5  1  0  0  0  0
  4 26  1  0  0  0  0
  4 27  1  0  0  0  0
  5  6  1  0  0  0  0
  5 28  1  0  0  0  0
  5 29  1  0  0  0  0
  6  7  1  0  0  0  0
  6 30  1  0  0  0  0
  6 31  1  0  0  0  0
  7  8  1  0  0  0  0
  7 20  1  0  0  0  0
  7 32  1  0  0  0  0
  8  9  1  0  0  0  0
  8 33  1  0  0  0  0
  8 34  1  0  0  0  0
  9 10  1  0  0  0  0
  9 35  1  0  0  0  0
 10 11  2  0  0  0  0
 10 12  1  0  0  0  0
 12 13  1  0  0  0  0
 12 36  1  0  0  0  0
 13 18  1  0  0  0  0
 13 14  2  0  0  0  0
 14 15  1  0  0  0  0
 14 37  1  0  0  0  0
 15 16  1  0  0  0  0
 15 17  2  0  0  0  0
 16 38  1  0  0  0  0
 16 39  1  0  0  0  0
 16 40  1  0  0  0  0
 17 18  1  0  0  0  0
 18 19  1  0  0  0  0
 19 41  1  0  0  0  0
 19 42  1  0  0  0  0
 19 43  1  0  0  0  0
 20 44  1  0  0  0  0
 20 45  1  0  0  0  0
M  CHG  1   3   1
M  END
> <s_m_source_file>
AV-unprocessed.smi

> <i_m_source_file_index>
1834

> <i_lp_mmshare_version>
43012

> <i_f3d_flags>
0

> <s_epik_input>
W0NIM11bQ0gyXU4xW0NIMl1bQ0gyXVtDSDJdW0NASF0oW0NIMl0xKVtDSDJdW05IXUMoPU8pW05IXWMyW2NIXWMoW0NIM10pbm4yW0NIM10=

> <s_epik_cmdline>
J2VwaWtfcHl0aG9uJywgJy1waCcsICc3LjAnLCAnLXRuJywgJzgnLCAnLW1hJywgJzIwMCcsICctbWV0YWxfYmluZGluZycsICctaW1hZScsICc8aW5maWxlLm1hZT4nLCAnLW9tYWUnLCAnPG91dGZpbGUubWFlPic=

> <r_lp_tautomer_probability>
1

> <r_epik_Ionization_Penalty>
0.000466842

> <r_epik_Ionization_Penalty_Charging>
0.000378984

> <r_epik_Ionization_Penalty_Neutral>
8.78572e-05

> <r_epik_State_Penalty>
0.000231434

> <r_epik_Charging_Adjusted_Penalty>
0.000610418

> <i_epik_Tot_Q>
1

> <i_epik_Tot_abs_Q>
1

> <r_epik_Metal_State_Penalty>
-0

> <b_epik_Metal_Only>
0

> <s_lp_Force_Field>
OPLS_2005

> <r_lp_Energy>
21.0152

> <b_lp_Chiralities_Consistent>
1

> <s_lp_Variant>
AV-unprocessed.smi:1834-3

> <Gold.Version>
5.8.1

> <Gold.Id.Protein>
6NUR|6NUR_protein|mol2

> <Gold.PLP.Fitness>
41.1036

> <Gold.PLP.PLP>
-42.3375

> <Gold.PLP.part.hbond>
-0.4929

> <Gold.PLP.part.metal>
0.0000

> <Gold.PLP.part.buried>
-7.0011

> <Gold.PLP.part.nonpolar>
-34.0135

> <Gold.PLP.part.repulsive>
0.2394

> <Gold.PLP.ligand.clash>
0.0000

> <Gold.PLP.ligand.torsion>
0.6320

> <Gold.PLP.Chemscore.Hbond>
0.0000

> <Gold.PLP.Chemscore.CHOScore>
0.0000

> <Gold.PLP.Chemscore.Metal>
0.0000

> <Gold.PLP.Chemscore.Internal.Correction>
0.0299

> <Gold.Rescore>
     Score         DG    S(hbond)    S(metal)    S(lipo)     H(rot)  DE(clash)    DE(int)     intcor
     10.57     -12.50       0.00        0.00      91.22       1.43       0.03       1.89       ----

> <Gold.Chemscore.Fitness>
10.5748

> <Gold.Chemscore.DG>
-12.4951

> <Gold.Chemscore.ZeroCoef>
-5.4800

> <Gold.Chemscore.Hbond>
0.0003

> <Gold.Chemscore.Metal>
0.0000

> <Gold.Chemscore.Lipo>
91.2190

> <Gold.Chemscore.Internal_Hbond>
0.0000

> <Gold.Chemscore.DEClash>
0.0253

> <Gold.Chemscore.DEInternal>
1.8950

> <Gold.Chemscore.Rot>
1.4291

> <Gold.Chemscore.Internal.Correction>
   9.000000E+99

> <Gold.Chemscore.Hbond.Weighted>
-0.0009

> <Gold.Chemscore.Metal.Weighted>
-0.0000

> <Gold.Chemscore.Lipo.Weighted>
-10.6726

> <Gold.Chemscore.Internal_Hbond.Weighted>
0.0000

> <Gold.Chemscore.DEClash.Weighted>
0.0253

> <Gold.Chemscore.DEInternal.Weighted>
1.8950

> <Gold.Chemscore.Rot.Weighted>
3.6584

> <Gold.Chemscore.Internal.Correction.Weighted>
   9.000000E+99

> <Gold.Protein.RotatedTorsions>
[ 6907 6896 6895 6894 ] final    6.91 input  -60.11 | X-H torsion
[ 7974 7965 7964 7962 ] final -149.31 input  175.53 | X-H torsion
[ 8008 7997 7996 7995 ] final   10.37 input   59.86 | X-H torsion
[ 10167 10162 10161 10158 ] final -157.79 input  -65.29 | X-H torsion
[ 10718 10713 10712 10709 ] final   14.07 input   66.30 | X-H torsion
[ 10763 10752 10751 10750 ] final  -10.24 input  -60.55 | X-H torsion
[ 11005 11000 10999 10996 ] final  -10.49 input  -57.11 | X-H torsion

> <Gold.Protein.ActiveResidues>
 VAL166  LYS551  ARG553  GLY616  TRP617  ASP618  TYR619  PRO620  LYS621  CYS622 
 ASP623  PHE694  ASN695  SER759  ASP760  ASP761  ALA762  ILE779  LEU786  VAL792 
 PHE793  MET794  SER795  GLU796  ALA797  LYS798  CYS799  TRP800  GLU811  SER814 

> <Gold.Protein.RotatedAtoms>
  151.6813  135.0961  160.0216 H   0  0  0  0  0  0  0  0  0  0  0  0  # atno 6907 bound_to 6896
  152.3834  133.6572  159.6187 H   0  0  0  0  0  0  0  0  0  0  0  0  # atno 6908 bound_to 6896
  150.7765  133.8993  159.3378 H   0  0  0  0  0  0  0  0  0  0  0  0  # atno 6909 bound_to 6896
  144.7975  140.5082  143.5730 H   0  0  0  0  0  0  0  0  0  0  0  0  # atno 7974 bound_to 7965
  154.7925  140.2838  155.5981 H   0  0  0  0  0  0  0  0  0  0  0  0  # atno 8008 bound_to 7997
  156.2966  140.2602  156.2705 H   0  0  0  0  0  0  0  0  0  0  0  0  # atno 8009 bound_to 7997
  154.9653  140.0377  157.2199 H   0  0  0  0  0  0  0  0  0  0  0  0  # atno 8010 bound_to 7997
  139.6742  143.9691  152.2301 H   0  0  0  0  0  0  0  0  0  0  0  0  # atno 10167 bound_to 10162
  157.0337  130.6203  149.5739 H   0  0  0  0  0  0  0  0  0  0  0  0  # atno 10718 bound_to 10713
  153.4663  135.7016  153.6020 H   0  0  0  0  0  0  0  0  0  0  0  0  # atno 10763 bound_to 10752
  153.4293  135.3806  155.2160 H   0  0  0  0  0  0  0  0  0  0  0  0  # atno 10764 bound_to 10752
  154.8726  135.3947  154.4095 H   0  0  0  0  0  0  0  0  0  0  0  0  # atno 10765 bound_to 10752
  140.7452  133.8637  155.9000 H   0  0  0  0  0  0  0  0  0  0  0  0  # atno 11005 bound_to 11000
  145.5635  139.1480  143.3328 LP  0  0  0  0  0  0  0  0  0  0  0  0  # atno 17320 bound_to 7965
  146.2248  140.5771  142.9001 LP  0  0  0  0  0  0  0  0  0  0  0  0  # atno 17321 bound_to 7965
  139.9464  144.6648  150.8215 LP  0  0  0  0  0  0  0  0  0  0  0  0  # atno 17342 bound_to 10162
  140.7629  143.3211  151.2621 LP  0  0  0  0  0  0  0  0  0  0  0  0  # atno 17343 bound_to 10162
  156.0061  130.5147  150.7833 LP  0  0  0  0  0  0  0  0  0  0  0  0  # atno 17370 bound_to 10713
  157.5158  131.0928  151.0141 LP  0  0  0  0  0  0  0  0  0  0  0  0  # atno 17371 bound_to 10713
  140.9800  134.1418  157.4502 LP  0  0  0  0  0  0  0  0  0  0  0  0  # atno 17394 bound_to 11000
  139.8798  135.0007  156.6027 LP  0  0  0  0  0  0  0  0  0  0  0  0  # atno 17395 bound_to 11000

$$$$
