AV-unprocessed.smi:1239|AV-procd|sdf|5191|dock1
  -GOLD-   22720 4273D 1   1.00000     0.00000
 Structure written by MMmdl.
 48 49  0  0  0  0  0  0  0  0  2 V2000
  149.2362  130.9785  154.0605 C   0  0  0  0  0  0  0  0  0  0  0  0
  148.5863  132.1800  153.3323 C   0  0  2  0  0  0  0  0  0  0  0  0
  148.0447  133.2169  154.3569 C   0  0  0  0  0  0  0  0  0  0  0  0
  148.5091  134.5802  154.1073 N   0  0  0  0  0  0  0  0  0  0  0  0
  148.9251  135.4440  155.0454 C   0  0  0  0  0  0  0  0  0  0  0  0
  148.9992  135.1607  156.2405 O   0  0  0  0  0  0  0  0  0  0  0  0
  149.2606  136.6252  154.4991 N   0  0  0  0  0  0  0  0  0  0  0  0
  149.7272  137.8077  155.1363 C   0  0  0  0  0  0  0  0  0  0  0  0
  149.9065  137.7718  156.5323 C   0  0  0  0  0  0  0  0  0  0  0  0
  150.3826  138.9159  157.1994 C   0  0  0  0  0  0  0  0  0  0  0  0
  150.6782  140.0807  156.4492 C   0  0  0  0  0  0  0  0  0  0  0  0
  151.1598  141.2560  157.0703 N   0  0  0  0  0  0  0  0  0  0  0  0
  152.0082  141.1566  158.2536 C   0  0  0  0  0  0  0  0  0  0  0  0
  150.8511  142.5639  156.5056 C   0  0  0  0  0  0  0  0  0  0  0  0
  150.5138  140.1096  155.1041 N   0  0  0  0  0  0  0  0  0  0  0  0
  150.0564  139.0106  154.4678 C   0  0  0  0  0  0  0  0  0  0  0  0
  147.5322  131.7183  152.3663 N   0  3  0  0  0  0  0  0  0  0  0  0
  146.5329  130.7736  152.9417 C   0  0  0  0  0  0  0  0  0  0  0  0
  145.4911  130.3432  151.8948 C   0  0  0  0  0  0  0  0  0  0  0  0
  144.8506  131.4865  151.3513 O   0  0  0  0  0  0  0  0  0  0  0  0
  145.7800  132.3253  150.6847 C   0  0  0  0  0  0  0  0  0  0  0  0
  146.8217  132.8411  151.6908 C   0  0  0  0  0  0  0  0  0  0  0  0
  150.0038  131.2962  154.7650 H   0  0  0  0  0  0  0  0  0  0  0  0
  149.7460  130.2975  153.3822 H   0  0  0  0  0  0  0  0  0  0  0  0
  148.4946  130.4064  154.6189 H   0  0  0  0  0  0  0  0  0  0  0  0
  149.3642  132.6790  152.7518 H   0  0  0  0  0  0  0  0  0  0  0  0
  146.9591  133.2838  154.2973 H   0  0  0  0  0  0  0  0  0  0  0  0
  148.2804  132.9017  155.3750 H   0  0  0  0  0  0  0  0  0  0  0  0
  148.4906  134.8967  153.1486 H   0  0  0  0  0  0  0  0  0  0  0  0
  149.2023  136.6773  153.4927 H   0  0  0  0  0  0  0  0  0  0  0  0
  149.6804  136.8763  157.0924 H   0  0  0  0  0  0  0  0  0  0  0  0
  150.5126  138.8751  158.2701 H   0  0  0  0  0  0  0  0  0  0  0  0
  152.9234  140.6103  158.0232 H   0  0  0  0  0  0  0  0  0  0  0  0
  151.4857  140.6358  159.0567 H   0  0  0  0  0  0  0  0  0  0  0  0
  152.2915  142.1416  158.6246 H   0  0  0  0  0  0  0  0  0  0  0  0
  149.7733  142.7283  156.4845 H   0  0  0  0  0  0  0  0  0  0  0  0
  151.2379  142.6431  155.4891 H   0  0  0  0  0  0  0  0  0  0  0  0
  151.2971  143.3658  157.0939 H   0  0  0  0  0  0  0  0  0  0  0  0
  149.9774  139.1176  153.3981 H   0  0  0  0  0  0  0  0  0  0  0  0
  147.0141  129.8646  153.2993 H   0  0  0  0  0  0  0  0  0  0  0  0
  146.0371  131.2410  153.7940 H   0  0  0  0  0  0  0  0  0  0  0  0
  145.9561  129.7573  151.1000 H   0  0  0  0  0  0  0  0  0  0  0  0
  144.7377  129.7058  152.3579 H   0  0  0  0  0  0  0  0  0  0  0  0
  146.2594  131.7864  149.8658 H   0  0  0  0  0  0  0  0  0  0  0  0
  145.2421  133.1631  150.2406 H   0  0  0  0  0  0  0  0  0  0  0  0
  146.3346  133.4684  152.4388 H   0  0  0  0  0  0  0  0  0  0  0  0
  147.5138  133.4758  151.1422 H   0  0  0  0  0  0  0  0  0  0  0  0
  148.0159  131.2048  151.6430 H   0  0  0  0  0  0  0  0  0  0  0  0
  1  2  1  0  0  0  0
  1 23  1  0  0  0  0
  1 24  1  0  0  0  0
  1 25  1  0  0  0  0
  2  3  1  0  0  0  0
  2 17  1  0  0  0  0
  2 26  1  0  0  0  0
  3  4  1  0  0  0  0
  3 27  1  0  0  0  0
  3 28  1  0  0  0  0
  4  5  1  0  0  0  0
  4 29  1  0  0  0  0
  5  6  2  0  0  0  0
  5  7  1  0  0  0  0
  7  8  1  0  0  0  0
  7 30  1  0  0  0  0
  8 16  1  0  0  0  0
  8  9  2  0  0  0  0
  9 10  1  0  0  0  0
  9 31  1  0  0  0  0
 10 11  2  0  0  0  0
 10 32  1  0  0  0  0
 11 12  1  0  0  0  0
 11 15  1  0  0  0  0
 12 13  1  0  0  0  0
 12 14  1  0  0  0  0
 13 33  1  0  0  0  0
 13 34  1  0  0  0  0
 13 35  1  0  0  0  0
 14 36  1  0  0  0  0
 14 37  1  0  0  0  0
 14 38  1  0  0  0  0
 15 16  2  0  0  0  0
 16 39  1  0  0  0  0
 17 22  1  0  0  0  0
 17 18  1  0  0  0  0
 17 48  1  0  0  0  0
 18 19  1  0  0  0  0
 18 40  1  0  0  0  0
 18 41  1  0  0  0  0
 19 20  1  0  0  0  0
 19 42  1  0  0  0  0
 19 43  1  0  0  0  0
 20 21  1  0  0  0  0
 21 22  1  0  0  0  0
 21 44  1  0  0  0  0
 21 45  1  0  0  0  0
 22 46  1  0  0  0  0
 22 47  1  0  0  0  0
M  CHG  1  17   1
M  END
> <s_m_source_file>
AV-unprocessed.smi

> <i_m_source_file_index>
1239

> <i_lp_mmshare_version>
43012

> <i_f3d_flags>
0

> <s_epik_input>
W0NIMl0xW0NIMl1PW0NIMl1bQ0gyXU4xW0NASF0oW0NIM10pW0NIMl1bTkhdQyg9TylbTkhdYzJbY0hdW2NIXWMoTihbQ0gzXSlbQ0gzXSluW2NIXTI=

> <s_epik_cmdline>
J2VwaWtfcHl0aG9uJywgJy1waCcsICc3LjAnLCAnLXRuJywgJzgnLCAnLW1hJywgJzIwMCcsICctbWV0YWxfYmluZGluZycsICctaW1hZScsICc8aW5maWxlLm1hZT4nLCAnLW9tYWUnLCAnPG91dGZpbGUubWFlPic=

> <r_epik_Ionization_Penalty>
1.1428

> <r_epik_Ionization_Penalty_Charging>
0.602531

> <r_epik_Ionization_Penalty_Neutral>
0.540271

> <r_epik_State_Penalty>
1.1888

> <r_epik_Charging_Adjusted_Penalty>
1.79133

> <i_epik_Tot_Q>
1

> <i_epik_Tot_abs_Q>
1

> <r_epik_Metal_State_Penalty>
0.936295

> <b_epik_Metal_Only>
0

> <s_lp_Force_Field>
OPLS_2005

> <r_lp_Energy>
25.054

> <b_lp_Chiralities_Consistent>
1

> <s_lp_Variant>
AV-unprocessed.smi:1239-7

> <Gold.Version>
5.8.1

> <Gold.Id.Protein>
6NUR|6NUR_protein|mol2

> <Gold.PLP.Fitness>
46.0479

> <Gold.PLP.PLP>
-34.3475

> <Gold.PLP.part.hbond>
-4.0000

> <Gold.PLP.part.metal>
0.0000

> <Gold.PLP.part.buried>
-4.3735

> <Gold.PLP.part.nonpolar>
-26.1375

> <Gold.PLP.part.repulsive>
0.2209

> <Gold.PLP.ligand.clash>
0.0000

> <Gold.PLP.ligand.torsion>
1.3115

> <Gold.PLP.Chemscore.Hbond>
3.7500

> <Gold.PLP.Chemscore.CHOScore>
1.0000

> <Gold.PLP.Chemscore.Metal>
0.0000

> <Gold.Chemscore.Hbonds>
donor molecule, donor type, donor heavy atom, donor atom, acceptor molecule, acceptor atom, score
      L1  H     4    29       P1  7948  0.99
      L1  H     7    30       P1  7948  1.00
      L1  H    17    48       P1 10747  1.00
      P1  H  7989  7998       L1    15  0.70
      L1  C    16    39       P1  7957  1.00

> <Gold.PLP.Chemscore.Internal.Correction>
0.0734

> <Gold.Rescore>
     Score         DG    S(hbond)    S(metal)    S(lipo)     H(rot)  DE(clash)    DE(int)     intcor
     18.03     -20.58       2.85        0.00      80.26       1.48       0.02       2.53       ----

> <Gold.Chemscore.Fitness>
18.0315

> <Gold.Chemscore.DG>
-20.5784

> <Gold.Chemscore.ZeroCoef>
-5.4800

> <Gold.Chemscore.Hbond>
2.8457

> <Gold.Chemscore.Metal>
0.0000

> <Gold.Chemscore.Lipo>
80.2585

> <Gold.Chemscore.Internal_Hbond>
0.0000

> <Gold.Chemscore.DEClash>
0.0166

> <Gold.Chemscore.DEInternal>
2.5303

> <Gold.Chemscore.Rot>
1.4830

> <Gold.Chemscore.Internal.Correction>
   9.000000E+99

> <Gold.Chemscore.Hbonds>
donor molecule, donor type, donor heavy atom, donor atom, acceptor molecule, acceptor atom, score
      L1  H     4    29       P1  7948  0.61
      L1  H     7    30       P1  7948  0.97
      L1  H    17    48       P1 10747  1.00
      P1  H  7989  7998       L1    15  0.12

> <Gold.Chemscore.Hbond.Weighted>
-9.5046

> <Gold.Chemscore.Metal.Weighted>
-0.0000

> <Gold.Chemscore.Lipo.Weighted>
-9.3902

> <Gold.Chemscore.Internal_Hbond.Weighted>
0.0000

> <Gold.Chemscore.DEClash.Weighted>
0.0166

> <Gold.Chemscore.DEInternal.Weighted>
2.5303

> <Gold.Chemscore.Rot.Weighted>
3.7964

> <Gold.Chemscore.Internal.Correction.Weighted>
   9.000000E+99

> <Gold.Protein.RotatedTorsions>
[ 6907 6896 6895 6894 ] final   61.89 input  -60.11 | X-H torsion
[ 7974 7965 7964 7962 ] final  113.45 input  175.53 | X-H torsion
[ 8008 7997 7996 7995 ] final  143.72 input   59.86 | X-H torsion
[ 10167 10162 10161 10158 ] final    4.62 input  -65.29 | X-H torsion
[ 10718 10713 10712 10709 ] final -131.89 input   66.30 | X-H torsion
[ 10763 10752 10751 10750 ] final -173.91 input  -60.55 | X-H torsion
[ 11005 11000 10999 10996 ] final  -86.17 input  -57.11 | X-H torsion

> <Gold.Protein.ActiveResidues>
 VAL166  LYS551  ARG553  GLY616  TRP617  ASP618  TYR619  PRO620  LYS621  CYS622 
 ASP623  PHE694  ASN695  SER759  ASP760  ASP761  ALA762  ILE779  LEU786  VAL792 
 PHE793  MET794  SER795  GLU796  ALA797  LYS798  CYS799  TRP800  GLU811  SER814 

> <Gold.Protein.RotatedAtoms>
  152.4127  134.6096  160.0021 H   0  0  0  0  0  0  0  0  0  0  0  0  # atno 6907 bound_to 6896
  151.6269  133.3329  159.3108 H   0  0  0  0  0  0  0  0  0  0  0  0  # atno 6908 bound_to 6896
  150.8017  134.7155  159.6673 H   0  0  0  0  0  0  0  0  0  0  0  0  # atno 6909 bound_to 6896
  145.2168  139.2880  143.4239 H   0  0  0  0  0  0  0  0  0  0  0  0  # atno 7974 bound_to 7965
  156.2924  140.2255  156.4937 H   0  0  0  0  0  0  0  0  0  0  0  0  # atno 8008 bound_to 7997
  154.7749  140.0464  157.1102 H   0  0  0  0  0  0  0  0  0  0  0  0  # atno 8009 bound_to 7997
  154.9829  140.3080  155.4942 H   0  0  0  0  0  0  0  0  0  0  0  0  # atno 8010 bound_to 7997
  140.6525  143.7510  150.7598 H   0  0  0  0  0  0  0  0  0  0  0  0  # atno 10167 bound_to 10162
  156.2290  130.7026  151.0838 H   0  0  0  0  0  0  0  0  0  0  0  0  # atno 10718 bound_to 10713
  154.6023  135.2856  155.0522 H   0  0  0  0  0  0  0  0  0  0  0  0  # atno 10763 bound_to 10752
  154.1782  135.6461  153.5031 H   0  0  0  0  0  0  0  0  0  0  0  0  # atno 10764 bound_to 10752
  153.0162  135.5417  154.6747 H   0  0  0  0  0  0  0  0  0  0  0  0  # atno 10765 bound_to 10752
  141.1633  133.7439  156.9122 H   0  0  0  0  0  0  0  0  0  0  0  0  # atno 11005 bound_to 11000
  146.3385  140.2461  142.8597 LP  0  0  0  0  0  0  0  0  0  0  0  0  # atno 17320 bound_to 7965
  144.9804  140.8453  143.5401 LP  0  0  0  0  0  0  0  0  0  0  0  0  # atno 17321 bound_to 7965
  140.1163  143.4653  152.2340 LP  0  0  0  0  0  0  0  0  0  0  0  0  # atno 17342 bound_to 10162
  139.5742  144.7479  151.3809 LP  0  0  0  0  0  0  0  0  0  0  0  0  # atno 17343 bound_to 10162
  157.7124  131.0727  150.6452 LP  0  0  0  0  0  0  0  0  0  0  0  0  # atno 17370 bound_to 10713
  156.6518  130.4487  149.5717 LP  0  0  0  0  0  0  0  0  0  0  0  0  # atno 17371 bound_to 10713
  140.1509  134.9231  157.2591 LP  0  0  0  0  0  0  0  0  0  0  0  0  # atno 17394 bound_to 11000
  140.2724  134.3445  155.7369 LP  0  0  0  0  0  0  0  0  0  0  0  0  # atno 17395 bound_to 11000

$$$$
