AV-unprocessed.smi:69|AV-procd|sdf|657|dock2
  -GOLD-   2262016553D 1   1.00000     0.00000
 Structure written by MMmdl.
 32 34  0  0  0  0  0  0  0  0  1 V2000
  151.3296  137.7810  153.5090 N   0  0  0  0  0  0  0  0  0  0  0  0
  151.5353  137.7877  154.8333 C   0  0  0  0  0  0  0  0  0  0  0  0
  151.8311  136.6168  155.4441 N   0  0  0  0  0  0  0  0  0  0  0  0
  152.0373  136.5979  156.7649 C   0  0  0  0  0  0  0  0  0  0  0  0
  151.9953  137.6132  157.6312 N   0  0  0  0  0  0  0  0  0  0  0  0
  151.6978  138.7943  157.0144 C   0  0  0  0  0  0  0  0  0  0  0  0
  151.4542  138.9625  155.6228 C   0  0  0  0  0  0  0  0  0  0  0  0
  151.1792  140.2949  155.3474 N   0  0  0  0  0  0  0  0  0  0  0  0
  151.2545  140.8774  156.5136 C   0  0  0  0  0  0  0  0  0  0  0  0
  151.5564  140.0502  157.5737 N   0  0  0  0  0  0  0  0  0  0  0  0
  151.6961  140.4409  159.0156 C   0  0  2  0  0  0  0  0  0  0  0  0
  151.5042  141.8193  159.1483 O   0  0  0  0  0  0  0  0  0  0  0  0
  152.6636  142.4387  159.7060 C   0  0  1  0  0  0  0  0  0  0  0  0
  152.2466  143.6400  160.5685 C   0  0  0  0  0  0  0  0  0  0  0  0
  151.4626  143.2076  161.6598 O   0  0  0  0  0  0  0  0  0  0  0  0
  153.3057  141.3050  160.5082 C   0  0  2  0  0  0  0  0  0  0  0  0
  154.6719  141.5313  160.8003 O   0  0  0  0  0  0  0  0  0  0  0  0
  153.0758  140.0977  159.6106 C   0  0  2  0  0  0  0  0  0  0  0  0
  154.0953  139.9349  158.6365 O   0  0  0  0  0  0  0  0  0  0  0  0
  150.8785  139.9269  159.5229 H   0  0  0  0  0  0  0  0  0  0  0  0
  153.3396  142.7446  158.9059 H   0  0  0  0  0  0  0  0  0  0  0  0
  152.7608  141.1624  161.4429 H   0  0  0  0  0  0  0  0  0  0  0  0
  153.0052  139.1742  160.1861 H   0  0  0  0  0  0  0  0  0  0  0  0
  151.1052  138.6421  153.0316 H   0  0  0  0  0  0  0  0  0  0  0  0
  151.3998  136.9163  152.9925 H   0  0  0  0  0  0  0  0  0  0  0  0
  152.2685  135.6319  157.1892 H   0  0  0  0  0  0  0  0  0  0  0  0
  151.0850  141.9374  156.6345 H   0  0  0  0  0  0  0  0  0  0  0  0
  153.1152  144.1970  160.9208 H   0  0  0  0  0  0  0  0  0  0  0  0
  151.6368  144.3281  159.9824 H   0  0  0  0  0  0  0  0  0  0  0  0
  151.7183  143.6972  162.4265 H   0  0  0  0  0  0  0  0  0  0  0  0
  154.8004  141.4312  161.7310 H   0  0  0  0  0  0  0  0  0  0  0  0
  154.8460  139.5382  159.0514 H   0  0  0  0  0  0  0  0  0  0  0  0
  1  2  1  0  0  0  0
  1 24  1  0  0  0  0
  1 25  1  0  0  0  0
  2  7  1  0  0  0  0
  2  3  2  0  0  0  0
  3  4  1  0  0  0  0
  4  5  2  0  0  0  0
  4 26  1  0  0  0  0
  5  6  1  0  0  0  0
  6 10  1  0  0  0  0
  6  7  2  0  0  0  0
  7  8  1  0  0  0  0
  8  9  2  0  0  0  0
  9 10  1  0  0  0  0
  9 27  1  0  0  0  0
 10 11  1  0  0  0  0
 11 20  1  0  0  0  0
 11 18  1  0  0  0  0
 11 12  1  0  0  0  0
 12 13  1  0  0  0  0
 13 21  1  0  0  0  0
 13 14  1  0  0  0  0
 13 16  1  0  0  0  0
 14 15  1  0  0  0  0
 14 28  1  0  0  0  0
 14 29  1  0  0  0  0
 15 30  1  0  0  0  0
 16 22  1  0  0  0  0
 16 17  1  0  0  0  0
 16 18  1  0  0  0  0
 17 31  1  0  0  0  0
 18 23  1  0  0  0  0
 18 19  1  0  0  0  0
 19 32  1  0  0  0  0
M  END
> <s_m_source_file>
AV-unprocessed.smi

> <i_m_source_file_index>
69

> <i_lp_mmshare_version>
43012

> <i_f3d_flags>
0

> <s_epik_input>
bjFbY0hdbmMoW05IMl0pYyhjMTIpbltjSF1uMltDQEBIXTNPW0NASF0oW0NIMl1bT0hdKVtDQEBIXShbT0hdKVtDQEhdM1tPSF0=

> <s_epik_cmdline>
J2VwaWtfcHl0aG9uJywgJy1waCcsICc3LjAnLCAnLXRuJywgJzgnLCAnLW1hJywgJzIwMCcsICctbWV0YWxfYmluZGluZycsICctaW1hZScsICc8aW5maWxlLm1hZT4nLCAnLW9tYWUnLCAnPG91dGZpbGUubWFlPic=

> <r_lp_tautomer_probability>
1

> <r_epik_Ionization_Penalty>
0.000428445

> <r_epik_Ionization_Penalty_Charging>
0

> <r_epik_Ionization_Penalty_Neutral>
0.000428445

> <r_epik_State_Penalty>
-0

> <r_epik_Charging_Adjusted_Penalty>
0

> <i_epik_Tot_Q>
0

> <i_epik_Tot_abs_Q>
0

> <r_epik_Metal_State_Penalty>
-0

> <b_epik_Metal_Only>
0

> <s_epik_Chemistry_Notes>
This compound contains an acetal/aminal-like group ( X-CH(R)-Y where X, Y are N, S, or O) that may be acid/base labile, releasing an aldehyde.

> <s_lp_Force_Field>
OPLS_2005

> <r_lp_Energy>
44.883

> <b_lp_Chiralities_Consistent>
1

> <s_lp_Variant>
AV-unprocessed.smi:69-15

> <Gold.Version>
5.8.1

> <Gold.Id.Protein>
6NUR|6NUR_protein|mol2

> <Gold.PLP.Fitness>
46.5025

> <Gold.PLP.PLP>
-33.5930

> <Gold.PLP.part.hbond>
-7.4162

> <Gold.PLP.part.metal>
0.0000

> <Gold.PLP.part.buried>
-3.5447

> <Gold.PLP.part.nonpolar>
-22.7121

> <Gold.PLP.part.repulsive>
0.2235

> <Gold.PLP.ligand.clash>
0.0000

> <Gold.PLP.ligand.torsion>
0.0263

> <Gold.PLP.Chemscore.Hbond>
4.3180

> <Gold.PLP.Chemscore.CHOScore>
0.0000

> <Gold.PLP.Chemscore.Metal>
0.0000

> <Gold.Chemscore.Hbonds>
donor molecule, donor type, donor heavy atom, donor atom, acceptor molecule, acceptor atom, score
      L1  H     1    25       P1  7949  1.00
      P1  H  6933  6945       L1    15  0.45
      P1  H  7989  7998       L1     8  1.00
      P1  H  7997  8010       L1    19  0.88
      P1  H 10752 10765       L1     3  1.00

> <Gold.PLP.Chemscore.Internal.Correction>
0.0080

> <Gold.Rescore>
     Score         DG    S(hbond)    S(metal)    S(lipo)     H(rot)  DE(clash)    DE(int)     intcor
     10.37     -10.70       3.08        0.00      44.89       4.03       0.25       0.08       ----

> <Gold.Chemscore.Fitness>
10.3750

> <Gold.Chemscore.DG>
-10.7042

> <Gold.Chemscore.ZeroCoef>
-5.4800

> <Gold.Chemscore.Hbond>
3.0788

> <Gold.Chemscore.Metal>
0.0000

> <Gold.Chemscore.Lipo>
44.8888

> <Gold.Chemscore.Internal_Hbond>
0.0000

> <Gold.Chemscore.DEClash>
0.2451

> <Gold.Chemscore.DEInternal>
0.0841

> <Gold.Chemscore.Rot>
4.0277

> <Gold.Chemscore.Internal.Correction>
   9.000000E+99

> <Gold.Chemscore.Hbonds>
donor molecule, donor type, donor heavy atom, donor atom, acceptor molecule, acceptor atom, score
      L1  H     1    25       P1  7949  0.81
      P1  H  6933  6945       L1    15  0.29
      P1  H  7989  7998       L1     8  0.84
      P1  H  7997  8010       L1    19  0.20
      P1  H 10752 10765       L1     3  0.25

> <Gold.Chemscore.Hbond.Weighted>
-10.2832

> <Gold.Chemscore.Metal.Weighted>
-0.0000

> <Gold.Chemscore.Lipo.Weighted>
-5.2520

> <Gold.Chemscore.Internal_Hbond.Weighted>
0.0000

> <Gold.Chemscore.DEClash.Weighted>
0.2451

> <Gold.Chemscore.DEInternal.Weighted>
0.0841

> <Gold.Chemscore.Rot.Weighted>
10.3110

> <Gold.Chemscore.Internal.Correction.Weighted>
   9.000000E+99

> <Gold.Protein.RotatedTorsions>
[ 6907 6896 6895 6894 ] final  170.05 input  -60.11 | X-H torsion
[ 7974 7965 7964 7962 ] final  -68.09 input  175.53 | X-H torsion
[ 8008 7997 7996 7995 ] final   29.50 input   59.86 | X-H torsion
[ 10167 10162 10161 10158 ] final  -97.88 input  -65.29 | X-H torsion
[ 10718 10713 10712 10709 ] final  -90.74 input   66.30 | X-H torsion
[ 10763 10752 10751 10750 ] final -158.63 input  -60.55 | X-H torsion
[ 11005 11000 10999 10996 ] final   89.92 input  -57.11 | X-H torsion

> <Gold.Protein.ActiveResidues>
 VAL166  LYS551  ARG553  GLY616  TRP617  ASP618  TYR619  PRO620  LYS621  CYS622 
 ASP623  PHE694  ASN695  SER759  ASP760  ASP761  ALA762  ILE779  LEU786  VAL792 
 PHE793  MET794  SER795  GLU796  ALA797  LYS798  CYS799  TRP800  GLU811  SER814 

> <Gold.Protein.RotatedAtoms>
  151.8222  133.3396  159.3587 H   0  0  0  0  0  0  0  0  0  0  0  0  # atno 6907 bound_to 6896
  150.7291  134.5563  159.5829 H   0  0  0  0  0  0  0  0  0  0  0  0  # atno 6908 bound_to 6896
  152.2997  134.7626  160.0411 H   0  0  0  0  0  0  0  0  0  0  0  0  # atno 6909 bound_to 6896
  145.7209  140.9039  143.0631 H   0  0  0  0  0  0  0  0  0  0  0  0  # atno 7974 bound_to 7965
  155.0756  140.3205  155.4617 H   0  0  0  0  0  0  0  0  0  0  0  0  # atno 8008 bound_to 7997
  156.2780  140.2104  156.5829 H   0  0  0  0  0  0  0  0  0  0  0  0  # atno 8009 bound_to 7997
  154.7020  140.0506  157.0454 H   0  0  0  0  0  0  0  0  0  0  0  0  # atno 8010 bound_to 7997
  140.2788  143.3295  152.0462 H   0  0  0  0  0  0  0  0  0  0  0  0  # atno 10167 bound_to 10162
  155.9989  130.4921  150.5368 H   0  0  0  0  0  0  0  0  0  0  0  0  # atno 10718 bound_to 10713
  154.7541  135.3100  154.8502 H   0  0  0  0  0  0  0  0  0  0  0  0  # atno 10763 bound_to 10752
  153.9281  135.6788  153.4750 H   0  0  0  0  0  0  0  0  0  0  0  0  # atno 10764 bound_to 10752
  153.1138  135.4854  154.9010 H   0  0  0  0  0  0  0  0  0  0  0  0  # atno 10765 bound_to 10752
  139.8866  134.8582  156.3211 H   0  0  0  0  0  0  0  0  0  0  0  0  # atno 11005 bound_to 11000
  144.6917  139.9200  143.7467 LP  0  0  0  0  0  0  0  0  0  0  0  0  # atno 17320 bound_to 7965
  146.0627  139.3619  143.0571 LP  0  0  0  0  0  0  0  0  0  0  0  0  # atno 17321 bound_to 7965
  139.4968  144.6606  151.6473 LP  0  0  0  0  0  0  0  0  0  0  0  0  # atno 17342 bound_to 10162
  140.5829  143.9915  150.6278 LP  0  0  0  0  0  0  0  0  0  0  0  0  # atno 17343 bound_to 10162
  157.3310  131.0699  151.1861 LP  0  0  0  0  0  0  0  0  0  0  0  0  # atno 17370 bound_to 10713
  157.2742  130.6719  149.6034 LP  0  0  0  0  0  0  0  0  0  0  0  0  # atno 17371 bound_to 10713
  140.9786  133.7281  156.0639 LP  0  0  0  0  0  0  0  0  0  0  0  0  # atno 17394 bound_to 11000
  140.7778  134.3759  157.5494 LP  0  0  0  0  0  0  0  0  0  0  0  0  # atno 17395 bound_to 11000

$$$$
