AV-unprocessed.smi:2507|AV-procd|sdf|9864|dock6
  -GOLD-   2272013493D 1   1.00000     0.00000
 Structure written by MMmdl.
 44 45  0  0  0  0  0  0  0  0  1 V2000
  153.3101  133.9504  162.7120 C   0  0  0  0  0  0  0  0  0  0  0  0
  153.5884  135.4548  162.8019 C   0  0  0  0  0  0  0  0  0  0  0  0
  153.8273  135.8988  164.2189 C   0  0  0  0  0  0  0  0  0  0  0  0
  153.7732  135.0159  165.2070 N   0  0  0  0  0  0  0  0  0  0  0  0
  154.0359  135.7238  166.3316 N   0  0  0  0  0  0  0  0  0  0  0  0
  154.0495  135.0443  167.6090 C   0  0  0  0  0  0  0  0  0  0  0  0
  154.2625  137.0593  166.0685 C   0  0  0  0  0  0  0  0  0  0  0  0
  154.1355  137.1950  164.7148 C   0  0  0  0  0  0  0  0  0  0  0  0
  154.2735  138.3579  163.9144 N   0  0  0  0  0  0  0  0  0  0  0  0
  153.5598  138.6915  162.8266 C   0  0  0  0  0  0  0  0  0  0  0  0
  152.6453  138.0216  162.3466 O   0  0  0  0  0  0  0  0  0  0  0  0
  153.9711  139.8605  162.3159 N   0  0  0  0  0  0  0  0  0  0  0  0
  153.4103  140.5032  161.1331 C   0  0  0  0  0  0  0  0  0  0  0  0
  153.8237  141.9823  161.0416 C   0  0  0  0  0  0  0  0  0  0  0  0
  152.7682  142.8566  160.3464 C   0  0  1  0  0  0  0  0  0  0  0  0
  152.8106  144.3145  160.8447 C   0  0  0  0  0  0  0  0  0  0  0  0
  151.8017  145.1773  160.0783 C   0  0  0  0  0  0  0  0  0  0  0  0
  152.0280  145.0210  158.5712 C   0  0  0  0  0  0  0  0  0  0  0  0
  152.0307  143.5338  158.1837 C   0  0  0  0  0  0  0  0  0  0  0  0
  153.0149  142.8370  158.9417 O   0  0  0  0  0  0  0  0  0  0  0  0
  153.1430  133.6471  161.6783 H   0  0  0  0  0  0  0  0  0  0  0  0
  152.4241  133.6782  163.2864 H   0  0  0  0  0  0  0  0  0  0  0  0
  154.1506  133.3723  163.0972 H   0  0  0  0  0  0  0  0  0  0  0  0
  154.4511  135.7002  162.1826 H   0  0  0  0  0  0  0  0  0  0  0  0
  152.7480  136.0043  162.3755 H   0  0  0  0  0  0  0  0  0  0  0  0
  154.3006  135.7469  168.4042 H   0  0  0  0  0  0  0  0  0  0  0  0
  154.7912  134.2451  167.5948 H   0  0  0  0  0  0  0  0  0  0  0  0
  153.0665  134.6176  167.8102 H   0  0  0  0  0  0  0  0  0  0  0  0
  154.4884  137.7683  166.8510 H   0  0  0  0  0  0  0  0  0  0  0  0
  154.9954  139.0033  164.1993 H   0  0  0  0  0  0  0  0  0  0  0  0
  154.7287  140.3414  162.7783 H   0  0  0  0  0  0  0  0  0  0  0  0
  153.7125  139.9611  160.2354 H   0  0  0  0  0  0  0  0  0  0  0  0
  152.3246  140.4245  161.1913 H   0  0  0  0  0  0  0  0  0  0  0  0
  153.9956  142.3644  162.0487 H   0  0  0  0  0  0  0  0  0  0  0  0
  154.7738  142.0714  160.5133 H   0  0  0  0  0  0  0  0  0  0  0  0
  151.7800  142.4370  160.5434 H   0  0  0  0  0  0  0  0  0  0  0  0
  152.5978  144.3558  161.9135 H   0  0  0  0  0  0  0  0  0  0  0  0
  153.8140  144.7210  160.7096 H   0  0  0  0  0  0  0  0  0  0  0  0
  150.7869  144.8683  160.3319 H   0  0  0  0  0  0  0  0  0  0  0  0
  151.8946  146.2235  160.3716 H   0  0  0  0  0  0  0  0  0  0  0  0
  151.2570  145.5553  158.0155 H   0  0  0  0  0  0  0  0  0  0  0  0
  152.9827  145.4705  158.2953 H   0  0  0  0  0  0  0  0  0  0  0  0
  151.0483  143.0878  158.3457 H   0  0  0  0  0  0  0  0  0  0  0  0
  152.2588  143.4230  157.1238 H   0  0  0  0  0  0  0  0  0  0  0  0
  1  2  1  0  0  0  0
  1 21  1  0  0  0  0
  1 22  1  0  0  0  0
  1 23  1  0  0  0  0
  2  3  1  0  0  0  0
  2 24  1  0  0  0  0
  2 25  1  0  0  0  0
  3  8  1  0  0  0  0
  3  4  2  0  0  0  0
  4  5  1  0  0  0  0
  5  6  1  0  0  0  0
  5  7  1  0  0  0  0
  6 26  1  0  0  0  0
  6 27  1  0  0  0  0
  6 28  1  0  0  0  0
  7  8  2  0  0  0  0
  7 29  1  0  0  0  0
  8  9  1  0  0  0  0
  9 10  1  0  0  0  0
  9 30  1  0  0  0  0
 10 11  2  0  0  0  0
 10 12  1  0  0  0  0
 12 13  1  0  0  0  0
 12 31  1  0  0  0  0
 13 14  1  0  0  0  0
 13 32  1  0  0  0  0
 13 33  1  0  0  0  0
 14 15  1  0  0  0  0
 14 34  1  0  0  0  0
 14 35  1  0  0  0  0
 15 20  1  0  0  0  0
 15 16  1  0  0  0  0
 15 36  1  0  0  0  0
 16 17  1  0  0  0  0
 16 37  1  0  0  0  0
 16 38  1  0  0  0  0
 17 18  1  0  0  0  0
 17 39  1  0  0  0  0
 17 40  1  0  0  0  0
 18 19  1  0  0  0  0
 18 41  1  0  0  0  0
 18 42  1  0  0  0  0
 19 20  1  0  0  0  0
 19 43  1  0  0  0  0
 19 44  1  0  0  0  0
M  END
> <s_m_source_file>
AV-unprocessed.smi

> <i_m_source_file_index>
2507

> <i_lp_mmshare_version>
43012

> <i_f3d_flags>
0

> <s_epik_input>
W0NIM11bQ0gyXWMxbm4oW0NIM10pW2NIXWMxW05IXUMoPU8pW05IXVtDSDJdW0NIMl1bQ0BASF0yW0NIMl1bQ0gyXVtDSDJdW0NIMl1PMg==

> <s_epik_cmdline>
J2VwaWtfcHl0aG9uJywgJy1waCcsICc3LjAnLCAnLXRuJywgJzgnLCAnLW1hJywgJzIwMCcsICctbWV0YWxfYmluZGluZycsICctaW1hZScsICc8aW5maWxlLm1hZT4nLCAnLW9tYWUnLCAnPG91dGZpbGUubWFlPic=

> <r_lp_tautomer_probability>
1

> <r_epik_Ionization_Penalty>
0.00072031

> <r_epik_Ionization_Penalty_Charging>
0

> <r_epik_Ionization_Penalty_Neutral>
0.00072031

> <r_epik_State_Penalty>
-0

> <r_epik_Charging_Adjusted_Penalty>
0

> <i_epik_Tot_Q>
0

> <i_epik_Tot_abs_Q>
0

> <r_epik_Metal_State_Penalty>
-0

> <b_epik_Metal_Only>
0

> <s_lp_Force_Field>
OPLS_2005

> <r_lp_Energy>
7.2839

> <b_lp_Chiralities_Consistent>
1

> <s_lp_Variant>
AV-unprocessed.smi:2507-2

> <Gold.Version>
5.8.1

> <Gold.Id.Protein>
6NUR|6NUR_protein|mol2

> <Gold.PLP.Fitness>
44.7427

> <Gold.PLP.PLP>
-46.4799

> <Gold.PLP.part.hbond>
0.0000

> <Gold.PLP.part.metal>
0.0000

> <Gold.PLP.part.buried>
-6.6837

> <Gold.PLP.part.nonpolar>
-40.7935

> <Gold.PLP.part.repulsive>
0.0169

> <Gold.PLP.ligand.clash>
0.0000

> <Gold.PLP.ligand.torsion>
0.9038

> <Gold.PLP.Chemscore.Hbond>
0.0000

> <Gold.PLP.Chemscore.CHOScore>
0.0000

> <Gold.PLP.Chemscore.Metal>
0.0000

> <Gold.PLP.Chemscore.Internal.Correction>
0.0704

> <Gold.Rescore>
     Score         DG    S(hbond)    S(metal)    S(lipo)     H(rot)  DE(clash)    DE(int)     intcor
     15.55     -17.46       0.97        0.00     107.52       1.50       0.06       1.85       ----

> <Gold.Chemscore.Fitness>
15.5528

> <Gold.Chemscore.DG>
-17.4599

> <Gold.Chemscore.ZeroCoef>
-5.4800

> <Gold.Chemscore.Hbond>
0.9734

> <Gold.Chemscore.Metal>
0.0000

> <Gold.Chemscore.Lipo>
107.5168

> <Gold.Chemscore.Internal_Hbond>
0.0000

> <Gold.Chemscore.DEClash>
0.0580

> <Gold.Chemscore.DEInternal>
1.8491

> <Gold.Chemscore.Rot>
1.5042

> <Gold.Chemscore.Internal.Correction>
   9.000000E+99

> <Gold.Chemscore.Hbond.Weighted>
-3.2511

> <Gold.Chemscore.Metal.Weighted>
-0.0000

> <Gold.Chemscore.Lipo.Weighted>
-12.5795

> <Gold.Chemscore.Internal_Hbond.Weighted>
0.0000

> <Gold.Chemscore.DEClash.Weighted>
0.0580

> <Gold.Chemscore.DEInternal.Weighted>
1.8491

> <Gold.Chemscore.Rot.Weighted>
3.8507

> <Gold.Chemscore.Internal.Correction.Weighted>
   9.000000E+99

> <Gold.Protein.RotatedTorsions>
[ 6907 6896 6895 6894 ] final  155.81 input  -60.11 | X-H torsion
[ 7974 7965 7964 7962 ] final  -33.88 input  175.53 | X-H torsion
[ 8008 7997 7996 7995 ] final  -21.80 input   59.86 | X-H torsion
[ 10167 10162 10161 10158 ] final  171.18 input  -65.29 | X-H torsion
[ 10718 10713 10712 10709 ] final  -88.03 input   66.30 | X-H torsion
[ 10763 10752 10751 10750 ] final  -54.79 input  -60.55 | X-H torsion
[ 11005 11000 10999 10996 ] final   97.93 input  -57.11 | X-H torsion

> <Gold.Protein.ActiveResidues>
 VAL166  LYS551  ARG553  GLY616  TRP617  ASP618  TYR619  PRO620  LYS621  CYS622 
 ASP623  PHE694  ASN695  SER759  ASP760  ASP761  ALA762  ILE779  LEU786  VAL792 
 PHE793  MET794  SER795  GLU796  ALA797  LYS798  CYS799  TRP800  GLU811  SER814 

> <Gold.Protein.RotatedAtoms>
  152.0388  133.3968  159.4327 H   0  0  0  0  0  0  0  0  0  0  0  0  # atno 6907 bound_to 6896
  150.6877  134.3438  159.4888 H   0  0  0  0  0  0  0  0  0  0  0  0  # atno 6908 bound_to 6896
  152.1234  134.9188  160.0612 H   0  0  0  0  0  0  0  0  0  0  0  0  # atno 6909 bound_to 6896
  146.0875  140.5970  142.8880 H   0  0  0  0  0  0  0  0  0  0  0  0  # atno 7974 bound_to 7965
  154.4683  140.2025  156.0060 H   0  0  0  0  0  0  0  0  0  0  0  0  # atno 8008 bound_to 7997
  156.0966  140.3250  155.7857 H   0  0  0  0  0  0  0  0  0  0  0  0  # atno 8009 bound_to 7997
  155.4867  140.0543  157.2950 H   0  0  0  0  0  0  0  0  0  0  0  0  # atno 8010 bound_to 7997
  139.5039  144.3515  151.9918 H   0  0  0  0  0  0  0  0  0  0  0  0  # atno 10167 bound_to 10162
  155.9984  130.4821  150.4958 H   0  0  0  0  0  0  0  0  0  0  0  0  # atno 10718 bound_to 10713
  154.1805  135.6444  153.5033 H   0  0  0  0  0  0  0  0  0  0  0  0  # atno 10763 bound_to 10752
  153.0060  135.5405  154.6519 H   0  0  0  0  0  0  0  0  0  0  0  0  # atno 10764 bound_to 10752
  154.5882  135.2931  155.0635 H   0  0  0  0  0  0  0  0  0  0  0  0  # atno 10765 bound_to 10752
  139.8774  134.9025  156.4380 H   0  0  0  0  0  0  0  0  0  0  0  0  # atno 11005 bound_to 11000
  144.7336  140.4743  143.6920 LP  0  0  0  0  0  0  0  0  0  0  0  0  # atno 17320 bound_to 7965
  145.6103  139.1512  143.3080 LP  0  0  0  0  0  0  0  0  0  0  0  0  # atno 17321 bound_to 7965
  140.2951  144.3709  150.6076 LP  0  0  0  0  0  0  0  0  0  0  0  0  # atno 17342 bound_to 10162
  140.5916  143.2168  151.7242 LP  0  0  0  0  0  0  0  0  0  0  0  0  # atno 17343 bound_to 10162
  157.2948  131.0633  151.2109 LP  0  0  0  0  0  0  0  0  0  0  0  0  # atno 17370 bound_to 10713
  157.3109  130.6889  149.6215 LP  0  0  0  0  0  0  0  0  0  0  0  0  # atno 17371 bound_to 10713
  140.9019  133.7773  155.9690 LP  0  0  0  0  0  0  0  0  0  0  0  0  # atno 17394 bound_to 11000
  140.8641  134.2805  157.5221 LP  0  0  0  0  0  0  0  0  0  0  0  0  # atno 17395 bound_to 11000

$$$$
