AV-unprocessed.smi:1955|AV-procd|sdf|7898|dock3
  -GOLD-   2272010 53D 1   1.00000     0.00000
 Structure written by MMmdl.
 34 35  0  0  0  0  0  0  0  0  1 V2000
  150.2001  140.4962  156.6562 O   0  0  0  0  0  0  0  0  0  0  0  0
  149.9323  141.6141  156.2143 C   0  0  0  0  0  0  0  0  0  0  0  0
  150.4810  142.7686  156.6315 N   0  0  0  0  0  0  0  0  0  0  0  0
  151.4632  142.9603  157.6395 C   0  0  0  0  0  0  0  0  0  0  0  0
  151.6775  144.3050  158.0177 C   0  0  0  0  0  0  0  0  0  0  0  0
  152.6320  144.6022  159.0098 C   0  0  0  0  0  0  0  0  0  0  0  0
  153.3488  143.5454  159.5989 C   0  0  0  0  0  0  0  0  0  0  0  0
  153.0751  142.2353  159.1647 C   0  0  0  0  0  0  0  0  0  0  0  0
  152.1609  141.9484  158.2140 N   0  0  0  0  0  0  0  0  0  0  0  0
  149.0366  141.8274  155.2379 N   0  0  0  0  0  0  0  0  0  0  0  0
  148.2328  140.7925  154.5851 C   0  0  2  0  0  0  0  0  0  0  0  0
  147.4312  140.0434  155.6792 C   0  0  0  0  0  0  0  0  0  0  0  0
  146.8170  138.6859  155.2690 C   0  0  0  0  0  0  0  0  0  0  0  0
  146.1439  138.6651  153.8817 C   0  0  0  0  0  0  0  0  0  0  0  0
  147.0547  138.9575  152.6602 C   0  0  0  0  0  0  0  0  0  0  0  0
  148.4899  138.9631  152.9456 N   0  0  0  0  0  0  0  0  0  0  0  0
  149.1109  139.7901  153.8035 C   0  0  0  0  0  0  0  0  0  0  0  0
  150.3270  139.7330  153.9836 O   0  0  0  0  0  0  0  0  0  0  0  0
  150.1574  143.6091  156.1763 H   0  0  0  0  0  0  0  0  0  0  0  0
  151.1177  145.1048  157.5549 H   0  0  0  0  0  0  0  0  0  0  0  0
  152.8100  145.6234  159.3126 H   0  0  0  0  0  0  0  0  0  0  0  0
  154.0886  143.7329  160.3628 H   0  0  0  0  0  0  0  0  0  0  0  0
  153.6038  141.3955  159.5910 H   0  0  0  0  0  0  0  0  0  0  0  0
  148.8757  142.7783  154.9404 H   0  0  0  0  0  0  0  0  0  0  0  0
  147.5388  141.2804  153.8991 H   0  0  0  0  0  0  0  0  0  0  0  0
  148.0618  139.8740  156.5534 H   0  0  0  0  0  0  0  0  0  0  0  0
  146.6296  140.7000  156.0197 H   0  0  0  0  0  0  0  0  0  0  0  0
  147.5833  137.9102  155.3064 H   0  0  0  0  0  0  0  0  0  0  0  0
  146.0852  138.3947  156.0231 H   0  0  0  0  0  0  0  0  0  0  0  0
  145.6987  137.6789  153.7448 H   0  0  0  0  0  0  0  0  0  0  0  0
  145.3054  139.3624  153.8760 H   0  0  0  0  0  0  0  0  0  0  0  0
  146.8684  138.2163  151.8828 H   0  0  0  0  0  0  0  0  0  0  0  0
  146.7843  139.9161  152.2153 H   0  0  0  0  0  0  0  0  0  0  0  0
  149.0574  138.2968  152.4417 H   0  0  0  0  0  0  0  0  0  0  0  0
  1  2  2  0  0  0  0
  2  3  1  0  0  0  0
  2 10  1  0  0  0  0
  3  4  1  0  0  0  0
  3 19  1  0  0  0  0
  4  9  1  0  0  0  0
  4  5  2  0  0  0  0
  5  6  1  0  0  0  0
  5 20  1  0  0  0  0
  6  7  2  0  0  0  0
  6 21  1  0  0  0  0
  7  8  1  0  0  0  0
  7 22  1  0  0  0  0
  8  9  2  0  0  0  0
  8 23  1  0  0  0  0
 10 11  1  0  0  0  0
 10 24  1  0  0  0  0
 11 17  1  0  0  0  0
 11 12  1  0  0  0  0
 11 25  1  0  0  0  0
 12 13  1  0  0  0  0
 12 26  1  0  0  0  0
 12 27  1  0  0  0  0
 13 14  1  0  0  0  0
 13 28  1  0  0  0  0
 13 29  1  0  0  0  0
 14 15  1  0  0  0  0
 14 30  1  0  0  0  0
 14 31  1  0  0  0  0
 15 16  1  0  0  0  0
 15 32  1  0  0  0  0
 15 33  1  0  0  0  0
 16 17  1  0  0  0  0
 16 34  1  0  0  0  0
 17 18  2  0  0  0  0
M  END
> <s_m_source_file>
AV-unprocessed.smi

> <i_m_source_file_index>
1955

> <i_lp_mmshare_version>
43012

> <i_f3d_flags>
0

> <s_epik_input>
bjFbY0hdW2NIXVtjSF1bY0hdYzFbTkhdQyg9TylbTkhdW0NAQEhdMltDSDJdW0NIMl1bQ0gyXVtDSDJdW05IXUMyPU8=

> <s_epik_cmdline>
J2VwaWtfcHl0aG9uJywgJy1waCcsICc3LjAnLCAnLXRuJywgJzgnLCAnLW1hJywgJzIwMCcsICctbWV0YWxfYmluZGluZycsICctaW1hZScsICc8aW5maWxlLm1hZT4nLCAnLW9tYWUnLCAnPG91dGZpbGUubWFlPic=

> <r_lp_tautomer_probability>
1

> <r_epik_Ionization_Penalty>
4.19487e-05

> <r_epik_Ionization_Penalty_Charging>
0

> <r_epik_Ionization_Penalty_Neutral>
4.19487e-05

> <r_epik_State_Penalty>
-0

> <r_epik_Charging_Adjusted_Penalty>
0

> <i_epik_Tot_Q>
0

> <i_epik_Tot_abs_Q>
0

> <r_epik_Metal_State_Penalty>
-0

> <b_epik_Metal_Only>
0

> <s_lp_Force_Field>
OPLS_2005

> <r_lp_Energy>
16.6797

> <b_lp_Chiralities_Consistent>
1

> <s_lp_Variant>
AV-unprocessed.smi:1955-1

> <Gold.Version>
5.8.1

> <Gold.Id.Protein>
6NUR|6NUR_protein|mol2

> <Gold.PLP.Fitness>
43.7407

> <Gold.PLP.PLP>
-33.3148

> <Gold.PLP.part.hbond>
-4.6898

> <Gold.PLP.part.metal>
0.0000

> <Gold.PLP.part.buried>
-2.5002

> <Gold.PLP.part.nonpolar>
-27.1798

> <Gold.PLP.part.repulsive>
0.7562

> <Gold.PLP.ligand.clash>
0.0000

> <Gold.PLP.ligand.torsion>
0.0384

> <Gold.PLP.Chemscore.Hbond>
3.5007

> <Gold.PLP.Chemscore.CHOScore>
0.0000

> <Gold.PLP.Chemscore.Metal>
0.0000

> <Gold.Chemscore.Hbonds>
donor molecule, donor type, donor heavy atom, donor atom, acceptor molecule, acceptor atom, score
      L1  H     3    19       P1  8028  1.00
      L1  H    10    24       P1  8028  0.80
      L1  H    16    34       P1  7948  0.64
      P1  H  7989  7998       L1    18  1.00

> <Gold.PLP.Chemscore.Internal.Correction>
0.0005

> <Gold.Rescore>
     Score         DG    S(hbond)    S(metal)    S(lipo)     H(rot)  DE(clash)    DE(int)     intcor
     17.79     -20.74       3.16        0.00      62.10       1.00       0.07       2.87       ----

> <Gold.Chemscore.Fitness>
17.7949

> <Gold.Chemscore.DG>
-20.7403

> <Gold.Chemscore.ZeroCoef>
-5.4800

> <Gold.Chemscore.Hbond>
3.1599

> <Gold.Chemscore.Metal>
0.0000

> <Gold.Chemscore.Lipo>
62.1048

> <Gold.Chemscore.Internal_Hbond>
0.0000

> <Gold.Chemscore.DEClash>
0.0727

> <Gold.Chemscore.DEInternal>
2.8727

> <Gold.Chemscore.Rot>
1.0000

> <Gold.Chemscore.Internal.Correction>
   9.000000E+99

> <Gold.Chemscore.Hbonds>
donor molecule, donor type, donor heavy atom, donor atom, acceptor molecule, acceptor atom, score
      L1  H     3    19       P1  8028  0.97
      L1  H    10    24       P1  8028  0.75
      L1  H    16    34       P1  7948  0.60
      P1  H  7989  7998       L1    18  0.97

> <Gold.Chemscore.Hbond.Weighted>
-10.5540

> <Gold.Chemscore.Metal.Weighted>
-0.0000

> <Gold.Chemscore.Lipo.Weighted>
-7.2663

> <Gold.Chemscore.Internal_Hbond.Weighted>
0.0000

> <Gold.Chemscore.DEClash.Weighted>
0.0727

> <Gold.Chemscore.DEInternal.Weighted>
2.8727

> <Gold.Chemscore.Rot.Weighted>
2.5600

> <Gold.Chemscore.Internal.Correction.Weighted>
   9.000000E+99

> <Gold.Protein.RotatedTorsions>
[ 6907 6896 6895 6894 ] final -176.57 input  -60.11 | X-H torsion
[ 7974 7965 7964 7962 ] final   -9.58 input  175.53 | X-H torsion
[ 8008 7997 7996 7995 ] final  -92.81 input   59.86 | X-H torsion
[ 10167 10162 10161 10158 ] final   94.77 input  -65.29 | X-H torsion
[ 10718 10713 10712 10709 ] final -118.95 input   66.30 | X-H torsion
[ 10763 10752 10751 10750 ] final   71.71 input  -60.55 | X-H torsion
[ 11005 11000 10999 10996 ] final   26.64 input  -57.11 | X-H torsion

> <Gold.Protein.ActiveResidues>
 VAL166  LYS551  ARG553  GLY616  TRP617  ASP618  TYR619  PRO620  LYS621  CYS622 
 ASP623  PHE694  ASN695  SER759  ASP760  ASP761  ALA762  ILE779  LEU786  VAL792 
 PHE793  MET794  SER795  GLU796  ALA797  LYS798  CYS799  TRP800  GLU811  SER814 

> <Gold.Protein.RotatedAtoms>
  151.6069  133.3351  159.3059 H   0  0  0  0  0  0  0  0  0  0  0  0  # atno 6907 bound_to 6896
  150.8177  134.7371  159.6756 H   0  0  0  0  0  0  0  0  0  0  0  0  # atno 6908 bound_to 6896
  152.4272  134.5851  160.0010 H   0  0  0  0  0  0  0  0  0  0  0  0  # atno 6909 bound_to 6896
  146.2247  140.2637  142.8353 H   0  0  0  0  0  0  0  0  0  0  0  0  # atno 7974 bound_to 7965
  154.7278  140.0505  157.0699 H   0  0  0  0  0  0  0  0  0  0  0  0  # atno 8008 bound_to 7997
  155.0342  140.3161  155.4728 H   0  0  0  0  0  0  0  0  0  0  0  0  # atno 8009 bound_to 7997
  156.2833  140.2144  156.5464 H   0  0  0  0  0  0  0  0  0  0  0  0  # atno 8010 bound_to 7997
  139.8051  144.6797  150.9713 H   0  0  0  0  0  0  0  0  0  0  0  0  # atno 10167 bound_to 10162
  156.1145  130.6274  150.9356 H   0  0  0  0  0  0  0  0  0  0  0  0  # atno 10718 bound_to 10713
  153.0415  135.5127  154.7634 H   0  0  0  0  0  0  0  0  0  0  0  0  # atno 10763 bound_to 10752
  154.6568  135.2933  154.9920 H   0  0  0  0  0  0  0  0  0  0  0  0  # atno 10764 bound_to 10752
  154.0785  135.6667  153.4887 H   0  0  0  0  0  0  0  0  0  0  0  0  # atno 10765 bound_to 10752
  140.3349  134.2397  155.7697 H   0  0  0  0  0  0  0  0  0  0  0  0  # atno 11005 bound_to 11000
  144.9320  140.7985  143.5683 LP  0  0  0  0  0  0  0  0  0  0  0  0  # atno 17320 bound_to 7965
  145.2581  139.2003  143.4906 LP  0  0  0  0  0  0  0  0  0  0  0  0  # atno 17321 bound_to 7965
  140.7819  143.4241  151.0795 LP  0  0  0  0  0  0  0  0  0  0  0  0  # atno 17342 bound_to 10162
  139.7911  143.8217  152.3152 LP  0  0  0  0  0  0  0  0  0  0  0  0  # atno 17343 bound_to 10162
  157.6327  131.0919  150.8409 LP  0  0  0  0  0  0  0  0  0  0  0  0  # atno 17370 bound_to 10713
  156.8515  130.5082  149.5311 LP  0  0  0  0  0  0  0  0  0  0  0  0  # atno 17371 bound_to 10713
  141.2054  133.7861  157.0236 LP  0  0  0  0  0  0  0  0  0  0  0  0  # atno 17394 bound_to 11000
  140.0830  134.9637  157.1654 LP  0  0  0  0  0  0  0  0  0  0  0  0  # atno 17395 bound_to 11000

$$$$
