#       Name:                AV-unprocessed.smi:2027
#       Creating user name   scv26
#       Creation time:       Fri Mar 27 10:47:34 2020


#       File generated by GOLD software.
#

@<TRIPOS>MOLECULE
AV-unprocessed.smi:2027
    54    56     1
SMALL
NO_CHARGES


@<TRIPOS>ATOM
      1 ****        -6.1058   0.9064   1.8165 C.3            1 S1                 0.0000
      2 ****        -4.8273   1.3058   1.1005 C.ar           1 S1                 0.0000
      3 ****        -4.9089   1.8347  -0.2073 C.ar           1 S1                 0.0000
      4 ****        -3.7447   2.2217  -0.9058 C.ar           1 S1                 0.0000
      5 ****        -3.5923   2.7559  -2.1737 N.2            1 S1                 0.0000
      6 ****        -2.2729   2.9033  -2.2465 C.2            1 S1                 0.0000
      7 ****        -1.5499   2.5199  -1.1764 N.pl3          1 S1                 0.0000
      8 ****        -0.1075   2.5840  -1.0233 C.3            1 S1                 0.0000
      9 ****         0.5610   1.2016  -1.1473 C.3            1 S1                 0.0000
     10 ****         0.2676   0.6514  -2.4173 O.3            1 S1                 0.0000
     11 ****         2.0920   1.2925  -0.9918 C.3            1 S1                 0.0000
     12 ****         2.7349  -0.0464  -0.9633 N.4            1 S1                 1.0000
     13 ****         4.1136  -0.0124  -1.5068 C.3            1 S1                 0.0000
     14 ****         2.6594  -0.7000   0.3692 C.3            1 S1                 0.0000
     15 ****         2.8764  -2.1850   0.2646 C.2            1 S1                 0.0000
     16 ****         1.9369  -3.1746  -0.1436 C.2            1 S1                 0.0000
     17 ****         2.4420  -4.3969  -0.1358 N.2            1 S1                 0.0000
     18 ****         3.7131  -4.2336   0.2844 N.pl3          1 S1                 0.0000
     19 ****         4.5774  -5.3875   0.4114 C.3            1 S1                 0.0000
     20 ****         4.0028  -2.9101   0.5364 C.2            1 S1                 0.0000
     21 ****        -2.4861   2.0630  -0.2552 C.ar           1 S1                 0.0000
     22 ****        -2.3914   1.5373   1.0453 C.ar           1 S1                 0.0000
     23 ****        -3.5649   1.1559   1.7291 C.ar           1 S1                 0.0000
     24 ****        -3.4533   0.5898   3.1337 C.3            1 S1                 0.0000
     25 ****        -6.9837   1.0894   1.1962 H              1 S1                 0.0000
     26 ****        -6.2228   1.4785   2.7371 H              1 S1                 0.0000
     27 ****        -6.0889  -0.1545   2.0670 H              1 S1                 0.0000
     28 ****        -5.8704   1.9498  -0.6861 H              1 S1                 0.0000
     29 ****        -1.8042   3.3102  -3.1309 H              1 S1                 0.0000
     30 ****         0.2933   3.2713  -1.7700 H              1 S1                 0.0000
     31 ****         0.1097   3.0214  -0.0481 H              1 S1                 0.0000
     32 ****         0.1397   0.5413  -0.3897 H              1 S1                 0.0000
     33 ****        -0.6719   0.5940  -2.5104 H              1 S1                 0.0000
     34 ****         2.4871   1.8812  -1.8218 H              1 S1                 0.0000
     35 ****         2.3570   1.8372  -0.0841 H              1 S1                 0.0000
     36 ****         4.7667   0.5931  -0.8771 H              1 S1                 0.0000
     37 ****         4.1225   0.4087  -2.5127 H              1 S1                 0.0000
     38 ****         4.5383  -1.0138  -1.5765 H              1 S1                 0.0000
     39 ****         3.3865  -0.2369   1.0381 H              1 S1                 0.0000
     40 ****         1.6868  -0.5095   0.8216 H              1 S1                 0.0000
     41 ****         0.9098  -3.0393  -0.4493 H              1 S1                 0.0000
     42 ****         5.4966  -5.1111   0.9287 H              1 S1                 0.0000
     43 ****         4.8281  -5.7692  -0.5789 H              1 S1                 0.0000
     44 ****         4.0734  -6.1696   0.9804 H              1 S1                 0.0000
     45 ****         4.9776  -2.5962   0.8802 H              1 S1                 0.0000
     46 ****        -1.4240   1.4298   1.5132 H              1 S1                 0.0000
     47 ****        -2.4152   0.5466   3.4643 H              1 S1                 0.0000
     48 ****        -3.8587  -0.4216   3.1715 H              1 S1                 0.0000
     49 ****        -4.0037   1.2106   3.8410 H              1 S1                 0.0000
     50 ****         2.1968  -0.6170  -1.6004 H              1 S1                 0.0000
     51 ****        -4.2907   2.9736  -2.8555 LP             1 S1                 0.0000
     52 ****         0.6701  -0.2611  -2.4906 LP             1 S1                 0.0000
     53 ****         0.6422   1.2394  -3.1342 LP             1 S1                 0.0000
     54 ****         1.9844  -5.2503  -0.3854 LP             1 S1                 0.0000
@<TRIPOS>BOND
    1    1    2 1     
    2    1   25 1     
    3    1   26 1     
    4    1   27 1     
    5    2   23 ar    
    6    2    3 ar    
    7    3    4 ar    
    8    3   28 1     
    9    4   21 ar    
   10    4    5 1     
   11    5    6 2     
   12    6    7 1     
   13    6   29 1     
   14    7    8 1     
   15    7   21 1     
   16    8    9 1     
   17    8   30 1     
   18    8   31 1     
   19    9   10 1     
   20    9   11 1     
   21    9   32 1     
   22   10   33 1     
   23   11   12 1     
   24   11   34 1     
   25   11   35 1     
   26   12   13 1     
   27   12   14 1     
   28   12   50 1     
   29   13   36 1     
   30   13   37 1     
   31   13   38 1     
   32   14   15 1     
   33   14   39 1     
   34   14   40 1     
   35   15   20 2     
   36   15   16 1     
   37   16   17 2     
   38   16   41 1     
   39   17   18 1     
   40   18   19 1     
   41   18   20 1     
   42   19   42 1     
   43   19   43 1     
   44   19   44 1     
   45   20   45 1     
   46   21   22 ar    
   47   22   23 ar    
   48   22   46 1     
   49   23   24 1     
   50   24   47 1     
   51   24   48 1     
   52   24   49 1     
   53    5   51 1     
   54   10   52 1     
   55   10   53 1     
   56   17   54 1     
@<TRIPOS>SUBSTRUCTURE
      1 S1             1
@<TRIPOS>SET
LONE_PAIRS      STATIC     ATOMS    <user>   **** ""
4 51 52 53 54
DONOR_HYDROGENS      STATIC     ATOMS    <user>   **** ""
2 33 50
ATOM$BLUE        STATIC     ATOMS    COLORGROUP SYSTEM
4 51 52 53 54
ATOM$RED        STATIC     ATOMS    COLORGROUP SYSTEM
2 33 50
