AV-unprocessed.smi:1116|AV-procd|sdf|4810|dock5
  -GOLD-   22720 3363D 1   1.00000     0.00000
 Structure written by MMmdl.
 35 36  0  0  0  0  0  0  0  0  2 V2000
  153.5082  142.4278  160.4567 C   0  0  0  0  0  0  0  0  0  0  0  0
  152.4358  142.6826  159.4538 C   0  0  0  0  0  0  0  0  0  0  0  0
  152.2929  141.9764  158.3295 N   0  0  0  0  0  0  0  0  0  0  0  0
  151.2149  142.4118  157.5526 C   0  0  0  0  0  0  0  0  0  0  0  0
  150.9099  141.7334  156.2519 C   0  0  0  0  0  0  0  0  0  0  0  0
  151.6065  140.3674  156.1318 C   0  0  0  0  0  0  0  0  0  0  0  0
  151.2076  139.4618  157.2027 N   0  0  0  0  0  0  0  0  0  0  0  0
  150.3417  138.4451  157.0717 C   0  0  0  0  0  0  0  0  0  0  0  0
  149.7893  138.1621  156.0082 O   0  0  0  0  0  0  0  0  0  0  0  0
  150.0717  137.6209  158.3331 C   0  0  0  0  0  0  0  0  0  0  0  0
  151.3607  137.1120  159.0066 C   0  0  0  0  0  0  0  0  0  0  0  0
  151.1006  135.9617  160.0016 C   0  0  1  0  0  0  0  0  0  0  0  0
  149.9081  136.2037  160.7956 N   0  5  0  0  0  0  0  0  0  0  0  0
  149.0458  135.1785  160.5983 C   0  0  0  0  0  0  0  0  0  0  0  0
  147.9369  135.0207  161.1042 O   0  0  0  0  0  0  0  0  0  0  0  0
  149.5534  134.2926  159.7350 N   0  0  0  0  0  0  0  0  0  0  0  0
  150.7562  134.6594  159.3045 C   0  0  0  0  0  0  0  0  0  0  0  0
  151.4737  134.0697  158.4977 O   0  0  0  0  0  0  0  0  0  0  0  0
  150.5359  143.4656  158.1121 C   0  0  0  0  0  0  0  0  0  0  0  0
  151.2290  143.9497  159.6358 S   0  0  0  0  0  0  0  0  0  0  0  0
  154.1926  141.6571  160.1005 H   0  0  0  0  0  0  0  0  0  0  0  0
  153.0672  142.0967  161.3968 H   0  0  0  0  0  0  0  0  0  0  0  0
  154.0748  143.3414  160.6366 H   0  0  0  0  0  0  0  0  0  0  0  0
  149.8313  141.6082  156.1492 H   0  0  0  0  0  0  0  0  0  0  0  0
  151.2162  142.3702  155.4209 H   0  0  0  0  0  0  0  0  0  0  0  0
  151.3451  139.9006  155.1816 H   0  0  0  0  0  0  0  0  0  0  0  0
  152.6914  140.4872  156.1310 H   0  0  0  0  0  0  0  0  0  0  0  0
  151.6122  139.6229  158.1138 H   0  0  0  0  0  0  0  0  0  0  0  0
  149.5060  138.2374  159.0323 H   0  0  0  0  0  0  0  0  0  0  0  0
  149.4325  136.7748  158.0766 H   0  0  0  0  0  0  0  0  0  0  0  0
  152.0776  136.7945  158.2467 H   0  0  0  0  0  0  0  0  0  0  0  0
  151.8317  137.9421  159.5364 H   0  0  0  0  0  0  0  0  0  0  0  0
  151.9852  135.7942  160.6178 H   0  0  0  0  0  0  0  0  0  0  0  0
  149.0763  133.4543  159.4394 H   0  0  0  0  0  0  0  0  0  0  0  0
  149.6737  143.9855  157.7216 H   0  0  0  0  0  0  0  0  0  0  0  0
  1  2  1  0  0  0  0
  1 21  1  0  0  0  0
  1 22  1  0  0  0  0
  1 23  1  0  0  0  0
  2 20  1  0  0  0  0
  2  3  2  0  0  0  0
  3  4  1  0  0  0  0
  4  5  1  0  0  0  0
  4 19  2  0  0  0  0
  5  6  1  0  0  0  0
  5 24  1  0  0  0  0
  5 25  1  0  0  0  0
  6  7  1  0  0  0  0
  6 26  1  0  0  0  0
  6 27  1  0  0  0  0
  7  8  1  0  0  0  0
  7 28  1  0  0  0  0
  8  9  2  0  0  0  0
  8 10  1  0  0  0  0
 10 11  1  0  0  0  0
 10 29  1  0  0  0  0
 10 30  1  0  0  0  0
 11 12  1  0  0  0  0
 11 31  1  0  0  0  0
 11 32  1  0  0  0  0
 12 17  1  0  0  0  0
 12 13  1  0  0  0  0
 12 33  1  0  0  0  0
 13 14  1  0  0  0  0
 14 15  2  0  0  0  0
 14 16  1  0  0  0  0
 16 17  1  0  0  0  0
 16 34  1  0  0  0  0
 17 18  2  0  0  0  0
 19 20  1  0  0  0  0
 19 35  1  0  0  0  0
M  CHG  1  13  -1
M  END
> <s_m_source_file>
AV-unprocessed.smi

> <i_m_source_file_index>
1116

> <i_lp_mmshare_version>
43012

> <i_f3d_flags>
0

> <s_epik_input>
W0NIM11jMW5jKFtjSF1zMSlbQ0gyXVtDSDJdW05IXUMoPU8pW0NIMl1bQ0gyXVtDQEBIXTJbTkhdQyg9TylbTkhdQzI9Tw==

> <s_epik_cmdline>
J2VwaWtfcHl0aG9uJywgJy1waCcsICc3LjAnLCAnLXRuJywgJzgnLCAnLW1hJywgJzIwMCcsICctbWV0YWxfYmluZGluZycsICctaW1hZScsICc8aW5maWxlLm1hZT4nLCAnLW9tYWUnLCAnPG91dGZpbGUubWFlPic=

> <r_lp_tautomer_probability>
1

> <r_epik_Ionization_Penalty>
5.7962

> <r_epik_Ionization_Penalty_Charging>
5.79516

> <r_epik_Ionization_Penalty_Neutral>
0.00104588

> <r_epik_State_Penalty>
5.80096

> <r_epik_Charging_Adjusted_Penalty>
11.5961

> <i_epik_Tot_Q>
-1

> <i_epik_Tot_abs_Q>
1

> <r_epik_Metal_State_Penalty>
2.1448

> <b_epik_Metal_Only>
1

> <s_lp_Force_Field>
OPLS_2005

> <r_lp_Energy>
5.74046

> <b_lp_Chiralities_Consistent>
1

> <s_lp_Variant>
AV-unprocessed.smi:1116-4

> <Gold.Version>
5.8.1

> <Gold.Id.Protein>
6NUR|6NUR_protein|mol2

> <Gold.PLP.Fitness>
45.0083

> <Gold.PLP.PLP>
-30.8767

> <Gold.PLP.part.hbond>
-3.0000

> <Gold.PLP.part.metal>
0.0000

> <Gold.PLP.part.buried>
-4.5702

> <Gold.PLP.part.nonpolar>
-24.3163

> <Gold.PLP.part.repulsive>
0.0406

> <Gold.PLP.ligand.clash>
0.0000

> <Gold.PLP.ligand.torsion>
0.5661

> <Gold.PLP.Chemscore.Hbond>
4.0720

> <Gold.PLP.Chemscore.CHOScore>
1.0000

> <Gold.PLP.Chemscore.Metal>
0.0000

> <Gold.Chemscore.Hbonds>
donor molecule, donor type, donor heavy atom, donor atom, acceptor molecule, acceptor atom, score
      L1  C    19    35       P1  8028  1.00
      L1  C    19    35       P1  8029  0.11

> <Gold.PLP.Chemscore.Internal.Correction>
0.0479

> <Gold.Rescore>
     Score         DG    S(hbond)    S(metal)    S(lipo)     H(rot)  DE(clash)    DE(int)     intcor
     12.81     -13.71       1.93        0.00      75.74       2.77       0.08       0.82       ----

> <Gold.Chemscore.Fitness>
12.8116

> <Gold.Chemscore.DG>
-13.7070

> <Gold.Chemscore.ZeroCoef>
-5.4800

> <Gold.Chemscore.Hbond>
1.9325

> <Gold.Chemscore.Metal>
0.0000

> <Gold.Chemscore.Lipo>
75.7389

> <Gold.Chemscore.Internal_Hbond>
0.0000

> <Gold.Chemscore.DEClash>
0.0777

> <Gold.Chemscore.DEInternal>
0.8177

> <Gold.Chemscore.Rot>
2.7691

> <Gold.Chemscore.Internal.Correction>
   9.000000E+99

> <Gold.Chemscore.Hbonds>
donor molecule, donor type, donor heavy atom, donor atom, acceptor molecule, acceptor atom, score
      P1  H  6931  6943       L1    13  0.03

> <Gold.Chemscore.Hbond.Weighted>
-6.4544

> <Gold.Chemscore.Metal.Weighted>
-0.0000

> <Gold.Chemscore.Lipo.Weighted>
-8.8614

> <Gold.Chemscore.Internal_Hbond.Weighted>
0.0000

> <Gold.Chemscore.DEClash.Weighted>
0.0777

> <Gold.Chemscore.DEInternal.Weighted>
0.8177

> <Gold.Chemscore.Rot.Weighted>
7.0889

> <Gold.Chemscore.Internal.Correction.Weighted>
   9.000000E+99

> <Gold.Protein.RotatedTorsions>
[ 6907 6896 6895 6894 ] final  -95.07 input  -60.11 | X-H torsion
[ 7974 7965 7964 7962 ] final   79.46 input  175.53 | X-H torsion
[ 8008 7997 7996 7995 ] final   82.56 input   59.86 | X-H torsion
[ 10167 10162 10161 10158 ] final  -62.60 input  -65.29 | X-H torsion
[ 10718 10713 10712 10709 ] final  124.31 input   66.30 | X-H torsion
[ 10763 10752 10751 10750 ] final  -78.26 input  -60.55 | X-H torsion
[ 11005 11000 10999 10996 ] final   33.76 input  -57.11 | X-H torsion

> <Gold.Protein.ActiveResidues>
 VAL166  LYS551  ARG553  GLY616  TRP617  ASP618  TYR619  PRO620  LYS621  CYS622 
 ASP623  PHE694  ASN695  SER759  ASP760  ASP761  ALA762  ILE779  LEU786  VAL792 
 PHE793  MET794  SER795  GLU796  ALA797  LYS798  CYS799  TRP800  GLU811  SER814 

> <Gold.Protein.RotatedAtoms>
  150.6955  134.1715  159.4213 H   0  0  0  0  0  0  0  0  0  0  0  0  # atno 6907 bound_to 6896
  151.9692  135.0083  160.0561 H   0  0  0  0  0  0  0  0  0  0  0  0  # atno 6908 bound_to 6896
  152.1857  133.4703  159.5018 H   0  0  0  0  0  0  0  0  0  0  0  0  # atno 6909 bound_to 6896
  145.6640  139.2479  143.1906 H   0  0  0  0  0  0  0  0  0  0  0  0  # atno 7974 bound_to 7965
  155.9123  140.3426  155.6108 H   0  0  0  0  0  0  0  0  0  0  0  0  # atno 8008 bound_to 7997
  155.7373  140.0803  157.2281 H   0  0  0  0  0  0  0  0  0  0  0  0  # atno 8009 bound_to 7997
  154.4057  140.1577  156.2563 H   0  0  0  0  0  0  0  0  0  0  0  0  # atno 8010 bound_to 7997
  140.5928  143.2345  151.6103 H   0  0  0  0  0  0  0  0  0  0  0  0  # atno 10167 bound_to 10162
  157.5595  131.1090  150.8563 H   0  0  0  0  0  0  0  0  0  0  0  0  # atno 10718 bound_to 10713
  154.5236  135.5736  153.6701 H   0  0  0  0  0  0  0  0  0  0  0  0  # atno 10763 bound_to 10752
  152.9923  135.6187  154.2722 H   0  0  0  0  0  0  0  0  0  0  0  0  # atno 10764 bound_to 10752
  154.2644  135.2855  155.2744 H   0  0  0  0  0  0  0  0  0  0  0  0  # atno 10765 bound_to 10752
  140.2598  134.3206  155.7861 H   0  0  0  0  0  0  0  0  0  0  0  0  # atno 11005 bound_to 11000
  146.1102  140.7438  142.9507 LP  0  0  0  0  0  0  0  0  0  0  0  0  # atno 17320 bound_to 7965
  144.7079  140.3926  143.7103 LP  0  0  0  0  0  0  0  0  0  0  0  0  # atno 17321 bound_to 7965
  139.5238  144.3122  152.0983 LP  0  0  0  0  0  0  0  0  0  0  0  0  # atno 17342 bound_to 10162
  140.2289  144.4389  150.6309 LP  0  0  0  0  0  0  0  0  0  0  0  0  # atno 17343 bound_to 10162
  156.9064  130.5265  149.5281 LP  0  0  0  0  0  0  0  0  0  0  0  0  # atno 17370 bound_to 10713
  156.0650  130.5695  150.9269 LP  0  0  0  0  0  0  0  0  0  0  0  0  # atno 17371 bound_to 10713
  141.2192  133.7402  156.9168 LP  0  0  0  0  0  0  0  0  0  0  0  0  # atno 17394 bound_to 11000
  140.1476  134.9252  157.2550 LP  0  0  0  0  0  0  0  0  0  0  0  0  # atno 17395 bound_to 11000

$$$$
