#       Name:                AV-unprocessed.smi:2306
#       Creating user name   scv26
#       Creation time:       Fri Mar 27 12:46:57 2020


#       File generated by GOLD software.
#

@<TRIPOS>MOLECULE
AV-unprocessed.smi:2306
    48    49     1
SMALL
NO_CHARGES


@<TRIPOS>ATOM
      1 ****        -2.2872   5.8808   0.7510 C.3            1 S1                 0.0000
      2 ****        -1.7087   4.4799   0.6585 C.2            1 S1                 0.0000
      3 ****        -1.2672   4.0910  -0.6094 N.2            1 S1                 0.0000
      4 ****        -0.7655   2.9124  -0.7838 C.2            1 S1                 0.0000
      5 ****        -0.6487   1.9953   0.2745 N.am           1 S1                 0.0000
      6 ****        -0.0633   0.6845  -0.0551 C.3            1 S1                 0.0000
      7 ****         1.4768   0.6833   0.0764 C.3            1 S1                 0.0000
      8 ****         1.8634   0.4320   1.4124 O.3            1 S1                 0.0000
      9 ****         2.1548  -0.3783  -0.8071 C.3            1 S1                 0.0000
     10 ****         1.4702  -1.6161  -0.6903 O.3            1 S1                 0.0000
     11 ****         2.0376  -2.6421  -1.4877 C.3            1 S1                 0.0000
     12 ****         1.2674  -3.9428  -1.3632 C.ar           1 S1                 0.0000
     13 ****         1.9570  -5.1716  -1.2920 C.ar           1 S1                 0.0000
     14 ****         1.2410  -6.3807  -1.1912 C.ar           1 S1                 0.0000
     15 ****        -0.1671  -6.3665  -1.1683 C.ar           1 S1                 0.0000
     16 ****        -0.8593  -5.1428  -1.2485 C.ar           1 S1                 0.0000
     17 ****        -0.1439  -3.9335  -1.3485 C.ar           1 S1                 0.0000
     18 ****        -1.0388   2.3003   1.5455 C.2            1 S1                 0.0000
     19 ****        -0.9102   1.4985   2.4724 O.2            1 S1                 0.0000
     20 ****        -1.6159   3.6421   1.7271 C.2            1 S1                 0.0000
     21 ****        -2.0809   4.0104   3.1306 C.3            1 S1                 0.0000
     22 ****        -1.7260   6.4799   1.4684 H              1 S1                 0.0000
     23 ****        -3.3299   5.8430   1.0671 H              1 S1                 0.0000
     24 ****        -2.2484   6.3913  -0.2120 H              1 S1                 0.0000
     25 ****        -0.4014   2.5624  -1.7513 H              1 S1                 0.0000
     26 ****        -0.5019  -0.1141   0.5464 H              1 S1                 0.0000
     27 ****        -0.3349   0.4223  -1.0800 H              1 S1                 0.0000
     28 ****         1.8791   1.6580  -0.2025 H              1 S1                 0.0000
     29 ****         1.4333   1.0592   1.9738 H              1 S1                 0.0000
     30 ****         2.1160  -0.0535  -1.8480 H              1 S1                 0.0000
     31 ****         3.2089  -0.4873  -0.5450 H              1 S1                 0.0000
     32 ****         2.0380  -2.3433  -2.5369 H              1 S1                 0.0000
     33 ****         3.0762  -2.8017  -1.1931 H              1 S1                 0.0000
     34 ****         3.0368  -5.1916  -1.3121 H              1 S1                 0.0000
     35 ****         1.7722  -7.3192  -1.1328 H              1 S1                 0.0000
     36 ****        -0.7161  -7.2934  -1.0915 H              1 S1                 0.0000
     37 ****        -1.9393  -5.1315  -1.2346 H              1 S1                 0.0000
     38 ****        -0.6818  -2.9989  -1.4128 H              1 S1                 0.0000
     39 ****        -2.8358   3.3025   3.4747 H              1 S1                 0.0000
     40 ****        -2.5158   5.0066   3.1918 H              1 S1                 0.0000
     41 ****        -1.2417   3.9747   3.8261 H              1 S1                 0.0000
     42 ****        -1.3393   4.7236  -1.3805 LP             1 S1                 0.0000
     43 ****         2.8551   0.5262   1.4996 LP             1 S1                 0.0000
     44 ****         1.5925  -0.4947   1.6729 LP             1 S1                 0.0000
     45 ****         0.5202  -1.4824  -0.9722 LP             1 S1                 0.0000
     46 ****         1.4963  -1.9054   0.2666 LP             1 S1                 0.0000
     47 ****        -0.5111   0.5975   2.3024 LP             1 S1                 0.0000
     48 ****        -1.2049   1.7488   3.3946 LP             1 S1                 0.0000
@<TRIPOS>BOND
    1    1    2 1     
    2    1   22 1     
    3    1   23 1     
    4    1   24 1     
    5    2   20 2     
    6    2    3 1     
    7    3    4 2     
    8    4    5 1     
    9    4   25 1     
   10    5    6 1     
   11    5   18 am    
   12    6    7 1     
   13    6   26 1     
   14    6   27 1     
   15    7    8 1     
   16    7    9 1     
   17    7   28 1     
   18    8   29 1     
   19    9   10 1     
   20    9   30 1     
   21    9   31 1     
   22   10   11 1     
   23   11   12 1     
   24   11   32 1     
   25   11   33 1     
   26   12   17 ar    
   27   12   13 ar    
   28   13   14 ar    
   29   13   34 1     
   30   14   15 ar    
   31   14   35 1     
   32   15   16 ar    
   33   15   36 1     
   34   16   17 ar    
   35   16   37 1     
   36   17   38 1     
   37   18   19 2     
   38   18   20 1     
   39   20   21 1     
   40   21   39 1     
   41   21   40 1     
   42   21   41 1     
   43    3   42 1     
   44    8   43 1     
   45    8   44 1     
   46   10   45 1     
   47   10   46 1     
   48   19   47 1     
   49   19   48 1     
@<TRIPOS>SUBSTRUCTURE
      1 S1             1
@<TRIPOS>SET
LONE_PAIRS      STATIC     ATOMS    <user>   **** ""
7 42 43 44 45 46 47 48
DONOR_HYDROGENS      STATIC     ATOMS    <user>   **** ""
1 29
ATOM$BLUE        STATIC     ATOMS    COLORGROUP SYSTEM
7 42 43 44 45 46 47 48
ATOM$RED        STATIC     ATOMS    COLORGROUP SYSTEM
1 29
