AV-unprocessed.smi:1703|AV-procd|sdf|6864|dock7
  -GOLD-   22720 8 53D 1   1.00000     0.00000
 Structure written by MMmdl.
 49 51  0  0  0  0  0  0  0  0  2 V2000
  143.8428  141.6454  156.2719 C   0  0  0  0  0  0  0  0  0  0  0  0
  145.0966  142.5303  156.3882 C   0  0  1  0  0  0  0  0  0  0  0  0
  146.4169  141.7369  156.3295 C   0  0  0  0  0  0  0  0  0  0  0  0
  146.7028  141.2729  154.9516 N   0  3  2  0  0  0  0  0  0  0  0  0
  147.9327  140.4446  154.8758 C   0  0  0  0  0  0  0  0  0  0  0  0
  149.1465  141.1211  155.5504 C   0  0  2  0  0  0  0  0  0  0  0  0
  149.6162  142.1589  154.7141 O   0  0  0  0  0  0  0  0  0  0  0  0
  150.3239  140.1616  155.8160 C   0  0  0  0  0  0  0  0  0  0  0  0
  150.9231  140.3596  157.1294 N   0  0  0  0  0  0  0  0  0  0  0  0
  151.2347  139.4301  158.0693 C   0  0  0  0  0  0  0  0  0  0  0  0
  150.9894  137.9659  157.8670 C   0  0  0  0  0  0  0  0  0  0  0  0
  151.3355  137.1936  158.9964 O   0  0  0  0  0  0  0  0  0  0  0  0
  151.7711  139.9020  159.1949 N   0  0  0  0  0  0  0  0  0  0  0  0
  151.8260  141.2617  158.9605 C   0  0  0  0  0  0  0  0  0  0  0  0
  152.2978  142.3158  159.7748 C   0  0  0  0  0  0  0  0  0  0  0  0
  152.2543  143.6480  159.3141 C   0  0  0  0  0  0  0  0  0  0  0  0
  151.7385  143.9447  158.0360 C   0  0  0  0  0  0  0  0  0  0  0  0
  151.2611  142.9096  157.2096 C   0  0  0  0  0  0  0  0  0  0  0  0
  151.3065  141.5813  157.6742 C   0  0  0  0  0  0  0  0  0  0  0  0
  146.6991  142.4214  154.0138 C   0  0  0  0  0  0  0  0  0  0  0  0
  145.3521  143.1628  154.0823 C   0  0  2  0  0  0  0  0  0  0  0  0
  145.3360  144.4071  153.1875 C   0  0  0  0  0  0  0  0  0  0  0  0
  145.1085  143.5820  155.4227 O   0  0  0  0  0  0  0  0  0  0  0  0
  143.7936  140.9356  157.0981 H   0  0  0  0  0  0  0  0  0  0  0  0
  143.8267  141.0669  155.3488 H   0  0  0  0  0  0  0  0  0  0  0  0
  142.9366  142.2503  156.3045 H   0  0  0  0  0  0  0  0  0  0  0  0
  145.0471  143.0171  157.3628 H   0  0  0  0  0  0  0  0  0  0  0  0
  147.2401  142.3682  156.6685 H   0  0  0  0  0  0  0  0  0  0  0  0
  146.3689  140.8875  157.0120 H   0  0  0  0  0  0  0  0  0  0  0  0
  147.7236  139.4714  155.3220 H   0  0  0  0  0  0  0  0  0  0  0  0
  148.1827  140.2524  153.8313 H   0  0  0  0  0  0  0  0  0  0  0  0
  148.8494  141.5681  156.4981 H   0  0  0  0  0  0  0  0  0  0  0  0
  149.4166  142.9891  155.1199 H   0  0  0  0  0  0  0  0  0  0  0  0
  150.0007  139.1262  155.7120 H   0  0  0  0  0  0  0  0  0  0  0  0
  151.1025  140.3102  155.0667 H   0  0  0  0  0  0  0  0  0  0  0  0
  149.9337  137.8039  157.6465 H   0  0  0  0  0  0  0  0  0  0  0  0
  151.5472  137.6145  156.9992 H   0  0  0  0  0  0  0  0  0  0  0  0
  152.2100  137.4293  159.2665 H   0  0  0  0  0  0  0  0  0  0  0  0
  152.6961  142.0993  160.7550 H   0  0  0  0  0  0  0  0  0  0  0  0
  152.6200  144.4454  159.9441 H   0  0  0  0  0  0  0  0  0  0  0  0
  151.7110  144.9678  157.6903 H   0  0  0  0  0  0  0  0  0  0  0  0
  150.8678  143.1348  156.2294 H   0  0  0  0  0  0  0  0  0  0  0  0
  147.5170  143.0992  154.2643 H   0  0  0  0  0  0  0  0  0  0  0  0
  146.8700  142.0828  152.9928 H   0  0  0  0  0  0  0  0  0  0  0  0
  144.5517  142.5003  153.7520 H   0  0  0  0  0  0  0  0  0  0  0  0
  145.5033  144.1422  152.1431 H   0  0  0  0  0  0  0  0  0  0  0  0
  146.1109  145.1158  153.4810 H   0  0  0  0  0  0  0  0  0  0  0  0
  144.3754  144.9191  153.2499 H   0  0  0  0  0  0  0  0  0  0  0  0
  145.9362  140.6695  154.6886 H   0  0  0  0  0  0  0  0  0  0  0  0
  1  2  1  0  0  0  0
  1 24  1  0  0  0  0
  1 25  1  0  0  0  0
  1 26  1  0  0  0  0
  2 23  1  0  0  0  0
  2  3  1  0  0  0  0
  2 27  1  0  0  0  0
  3  4  1  0  0  0  0
  3 28  1  0  0  0  0
  3 29  1  0  0  0  0
  4  5  1  0  0  0  0
  4 20  1  0  0  0  0
  4 49  1  0  0  0  0
  5  6  1  0  0  0  0
  5 30  1  0  0  0  0
  5 31  1  0  0  0  0
  6  7  1  0  0  0  0
  6  8  1  0  0  0  0
  6 32  1  0  0  0  0
  7 33  1  0  0  0  0
  8  9  1  0  0  0  0
  8 34  1  0  0  0  0
  8 35  1  0  0  0  0
  9 19  1  0  0  0  0
  9 10  1  0  0  0  0
 10 11  1  0  0  0  0
 10 13  2  0  0  0  0
 11 12  1  0  0  0  0
 11 36  1  0  0  0  0
 11 37  1  0  0  0  0
 12 38  1  0  0  0  0
 13 14  1  0  0  0  0
 14 19  2  0  0  0  0
 14 15  1  0  0  0  0
 15 16  2  0  0  0  0
 15 39  1  0  0  0  0
 16 17  1  0  0  0  0
 16 40  1  0  0  0  0
 17 18  2  0  0  0  0
 17 41  1  0  0  0  0
 18 19  1  0  0  0  0
 18 42  1  0  0  0  0
 20 21  1  0  0  0  0
 20 43  1  0  0  0  0
 20 44  1  0  0  0  0
 21 22  1  0  0  0  0
 21 23  1  0  0  0  0
 21 45  1  0  0  0  0
 22 46  1  0  0  0  0
 22 47  1  0  0  0  0
 22 48  1  0  0  0  0
M  CHG  1   4   1
M  END
> <s_m_source_file>
AV-unprocessed.smi

> <i_m_source_file_index>
1703

> <i_lp_mmshare_version>
43012

> <i_f3d_flags>
0

> <s_epik_input>
W0NIM11bQ0BASF0xW0NIMl1OKFtDSDJdW0NASF0oTzEpW0NIM10pW0NIMl1bQ0BIXShbT0hdKVtDSDJdbihjKG4yKVtDSDJdW09IXSljKGMyMylbY0hdW2NIXVtjSF1bY0hdMw==

> <s_epik_cmdline>
J2VwaWtfcHl0aG9uJywgJy1waCcsICc3LjAnLCAnLXRuJywgJzgnLCAnLW1hJywgJzIwMCcsICctbWV0YWxfYmluZGluZycsICctaW1hZScsICc8aW5maWxlLm1hZT4nLCAnLW9tYWUnLCAnPG91dGZpbGUubWFlPic=

> <r_epik_Ionization_Penalty>
0.655661

> <r_epik_Ionization_Penalty_Charging>
0.608065

> <r_epik_Ionization_Penalty_Neutral>
0.0475963

> <r_epik_State_Penalty>
0.695267

> <r_epik_Charging_Adjusted_Penalty>
1.30333

> <i_epik_Tot_Q>
1

> <i_epik_Tot_abs_Q>
1

> <r_epik_Metal_State_Penalty>
0.653591

> <b_epik_Metal_Only>
0

> <s_lp_Force_Field>
OPLS_2005

> <r_lp_Energy>
25.3139

> <b_lp_Chiralities_Consistent>
1

> <s_lp_Variant>
AV-unprocessed.smi:1703-12

> <Gold.Version>
5.8.1

> <Gold.Id.Protein>
6NUR|6NUR_protein|mol2

> <Gold.PLP.Fitness>
44.6735

> <Gold.PLP.PLP>
-42.1500

> <Gold.PLP.part.hbond>
-3.1959

> <Gold.PLP.part.metal>
0.0000

> <Gold.PLP.part.buried>
-5.3352

> <Gold.PLP.part.nonpolar>
-34.2714

> <Gold.PLP.part.repulsive>
0.1742

> <Gold.PLP.ligand.clash>
0.0000

> <Gold.PLP.ligand.torsion>
0.9077

> <Gold.PLP.Chemscore.Hbond>
1.4065

> <Gold.PLP.Chemscore.CHOScore>
0.0000

> <Gold.PLP.Chemscore.Metal>
0.0000

> <Gold.Chemscore.Hbonds>
donor molecule, donor type, donor heavy atom, donor atom, acceptor molecule, acceptor atom, score
      L1  H     7    33       P1  8028  1.00
      P1  H  6896  6907       L1    12  0.42
      P1  H  8011  8017       L1     7  0.03

> <Gold.PLP.Chemscore.Internal.Correction>
0.1194

> <Gold.Rescore>
     Score         DG    S(hbond)    S(metal)    S(lipo)     H(rot)  DE(clash)    DE(int)     intcor
     12.08     -14.38       1.13        0.00     108.78       2.96       0.33       1.97       ----

> <Gold.Chemscore.Fitness>
12.0841

> <Gold.Chemscore.DG>
-14.3847

> <Gold.Chemscore.ZeroCoef>
-5.4800

> <Gold.Chemscore.Hbond>
1.1251

> <Gold.Chemscore.Metal>
0.0000

> <Gold.Chemscore.Lipo>
108.7787

> <Gold.Chemscore.Internal_Hbond>
0.0000

> <Gold.Chemscore.DEClash>
0.3291

> <Gold.Chemscore.DEInternal>
1.9714

> <Gold.Chemscore.Rot>
2.9611

> <Gold.Chemscore.Internal.Correction>
   9.000000E+99

> <Gold.Chemscore.Hbonds>
donor molecule, donor type, donor heavy atom, donor atom, acceptor molecule, acceptor atom, score
      L1  H     7    33       P1  8028  1.00
      P1  H  6896  6907       L1    12  0.09
      P1  H  8011  8017       L1     7  0.02

> <Gold.Chemscore.Hbond.Weighted>
-3.7579

> <Gold.Chemscore.Metal.Weighted>
-0.0000

> <Gold.Chemscore.Lipo.Weighted>
-12.7271

> <Gold.Chemscore.Internal_Hbond.Weighted>
0.0000

> <Gold.Chemscore.DEClash.Weighted>
0.3291

> <Gold.Chemscore.DEInternal.Weighted>
1.9714

> <Gold.Chemscore.Rot.Weighted>
7.5803

> <Gold.Chemscore.Internal.Correction.Weighted>
   9.000000E+99

> <Gold.Protein.RotatedTorsions>
[ 6907 6896 6895 6894 ] final  -21.24 input  -60.11 | X-H torsion
[ 7974 7965 7964 7962 ] final  -50.81 input  175.53 | X-H torsion
[ 8008 7997 7996 7995 ] final   24.85 input   59.86 | X-H torsion
[ 10167 10162 10161 10158 ] final -171.33 input  -65.29 | X-H torsion
[ 10718 10713 10712 10709 ] final  164.80 input   66.30 | X-H torsion
[ 10763 10752 10751 10750 ] final  113.10 input  -60.55 | X-H torsion
[ 11005 11000 10999 10996 ] final -174.17 input  -57.11 | X-H torsion

> <Gold.Protein.ActiveResidues>
 VAL166  LYS551  ARG553  GLY616  TRP617  ASP618  TYR619  PRO620  LYS621  CYS622 
 ASP623  PHE694  ASN695  SER759  ASP760  ASP761  ALA762  ILE779  LEU786  VAL792 
 PHE793  MET794  SER795  GLU796  ALA797  LYS798  CYS799  TRP800  GLU811  SER814 

> <Gold.Protein.RotatedAtoms>
  151.2363  135.0572  159.9007 H   0  0  0  0  0  0  0  0  0  0  0  0  # atno 6907 bound_to 6896
  152.5399  134.0483  159.8108 H   0  0  0  0  0  0  0  0  0  0  0  0  # atno 6908 bound_to 6896
  151.0670  133.5448  159.2661 H   0  0  0  0  0  0  0  0  0  0  0  0  # atno 6909 bound_to 6896
  145.9258  140.7793  142.9624 H   0  0  0  0  0  0  0  0  0  0  0  0  # atno 7974 bound_to 7965
  155.0027  140.3127  155.4861 H   0  0  0  0  0  0  0  0  0  0  0  0  # atno 8008 bound_to 7997
  156.2922  140.2229  156.5078 H   0  0  0  0  0  0  0  0  0  0  0  0  # atno 8009 bound_to 7997
  154.7604  140.0459  157.0957 H   0  0  0  0  0  0  0  0  0  0  0  0  # atno 8010 bound_to 7997
  139.5808  144.1427  152.1513 H   0  0  0  0  0  0  0  0  0  0  0  0  # atno 10167 bound_to 10162
  157.0892  131.0413  151.2544 H   0  0  0  0  0  0  0  0  0  0  0  0  # atno 10718 bound_to 10713
  153.4876  135.3666  155.2475 H   0  0  0  0  0  0  0  0  0  0  0  0  # atno 10763 bound_to 10752
  154.8753  135.3969  154.3627 H   0  0  0  0  0  0  0  0  0  0  0  0  # atno 10764 bound_to 10752
  153.4241  135.7081  153.6340 H   0  0  0  0  0  0  0  0  0  0  0  0  # atno 10765 bound_to 10752
  140.4775  134.6107  157.4906 H   0  0  0  0  0  0  0  0  0  0  0  0  # atno 11005 bound_to 11000
  144.6758  140.2048  143.7383 LP  0  0  0  0  0  0  0  0  0  0  0  0  # atno 17320 bound_to 7965
  145.8491  139.2166  143.1783 LP  0  0  0  0  0  0  0  0  0  0  0  0  # atno 17321 bound_to 7965
  140.0979  144.5564  150.7009 LP  0  0  0  0  0  0  0  0  0  0  0  0  # atno 17342 bound_to 10162
  140.7087  143.2488  151.4648 LP  0  0  0  0  0  0  0  0  0  0  0  0  # atno 17343 bound_to 10162
  157.4735  130.7723  149.7346 LP  0  0  0  0  0  0  0  0  0  0  0  0  # atno 17370 bound_to 10713
  155.9902  130.3946  150.3036 LP  0  0  0  0  0  0  0  0  0  0  0  0  # atno 17371 bound_to 10713
  139.9847  134.7081  155.9795 LP  0  0  0  0  0  0  0  0  0  0  0  0  # atno 17394 bound_to 11000
  141.1547  133.6544  156.4125 LP  0  0  0  0  0  0  0  0  0  0  0  0  # atno 17395 bound_to 11000

$$$$
