AV-unprocessed.smi:2668|AV-procd|sdf|10342|dock7
  -GOLD-   2272014363D 1   1.00000     0.00000
 Structure written by MMmdl.
 53 54  0  0  0  0  0  0  0  0  2 V2000
  152.1320  136.7917  157.6045 C   0  0  0  0  0  0  0  0  0  0  0  0
  151.5963  137.7453  156.6354 N   0  0  0  0  0  0  0  0  0  0  0  0
  152.5290  138.8701  156.6004 C   0  0  0  0  0  0  0  0  0  0  0  0
  151.4097  137.1412  155.3009 C   0  0  2  0  0  0  0  0  0  0  0  0
  151.3651  138.1870  154.1638 C   0  0  0  0  0  0  0  0  0  0  0  0
  150.0795  139.0318  154.2018 C   0  0  0  0  0  0  0  0  0  0  0  0
  148.8567  138.1781  154.1157 N   0  3  2  0  0  0  0  0  0  0  0  0
  147.5586  138.9221  153.9159 C   0  0  0  0  0  0  0  0  0  0  0  0
  147.3729  139.9736  155.0396 C   0  0  0  0  0  0  0  0  0  0  0  0
  147.6160  139.7242  152.5905 C   0  0  0  0  0  0  0  0  0  0  0  0
  146.3445  137.9444  153.9095 C   0  0  0  0  0  0  0  0  0  0  0  0
  146.5157  136.8061  153.0074 N   0  0  0  0  0  0  0  0  0  0  0  0
  145.5427  135.9759  152.6048 C   0  0  0  0  0  0  0  0  0  0  0  0
  144.3725  136.0735  152.9731 O   0  0  0  0  0  0  0  0  0  0  0  0
  146.0165  135.0528  151.7505 N   0  0  0  0  0  0  0  0  0  0  0  0
  145.3132  133.9997  151.1051 C   0  0  0  0  0  0  0  0  0  0  0  0
  145.9258  132.9973  150.3143 C   0  0  0  0  0  0  0  0  0  0  0  0
  145.1144  132.0170  149.7114 C   0  0  0  0  0  0  0  0  0  0  0  0
  143.7223  132.0771  149.9149 C   0  0  0  0  0  0  0  0  0  0  0  0
  143.1236  133.0340  150.6548 N   0  0  0  0  0  0  0  0  0  0  0  0
  143.9077  133.9711  151.2289 C   0  0  0  0  0  0  0  0  0  0  0  0
  148.8505  137.1582  155.2076 C   0  0  0  0  0  0  0  0  0  0  0  0
  150.1230  136.2930  155.1811 C   0  0  0  0  0  0  0  0  0  0  0  0
  151.4125  136.0081  157.8362 H   0  0  0  0  0  0  0  0  0  0  0  0
  152.3550  137.2849  158.5517 H   0  0  0  0  0  0  0  0  0  0  0  0
  153.0501  136.3274  157.2412 H   0  0  0  0  0  0  0  0  0  0  0  0
  152.1284  139.7116  156.0379 H   0  0  0  0  0  0  0  0  0  0  0  0
  153.4851  138.5813  156.1614 H   0  0  0  0  0  0  0  0  0  0  0  0
  152.7206  139.2455  157.6066 H   0  0  0  0  0  0  0  0  0  0  0  0
  152.2626  136.4835  155.1249 H   0  0  0  0  0  0  0  0  0  0  0  0
  152.2435  138.8298  154.1527 H   0  0  0  0  0  0  0  0  0  0  0  0
  151.4004  137.6613  153.2085 H   0  0  0  0  0  0  0  0  0  0  0  0
  150.0623  139.6259  155.1156 H   0  0  0  0  0  0  0  0  0  0  0  0
  150.1349  139.7320  153.3714 H   0  0  0  0  0  0  0  0  0  0  0  0
  146.5579  140.6633  154.8161 H   0  0  0  0  0  0  0  0  0  0  0  0
  148.2722  140.5761  155.1743 H   0  0  0  0  0  0  0  0  0  0  0  0
  147.1234  139.5196  155.9983 H   0  0  0  0  0  0  0  0  0  0  0  0
  146.7993  140.4430  152.5155 H   0  0  0  0  0  0  0  0  0  0  0  0
  147.5314  139.0839  151.7128 H   0  0  0  0  0  0  0  0  0  0  0  0
  148.5445  140.2904  152.5069 H   0  0  0  0  0  0  0  0  0  0  0  0
  146.1250  137.5849  154.9152 H   0  0  0  0  0  0  0  0  0  0  0  0
  145.4438  138.4594  153.5769 H   0  0  0  0  0  0  0  0  0  0  0  0
  147.4467  136.6485  152.6499 H   0  0  0  0  0  0  0  0  0  0  0  0
  146.9849  135.1515  151.4826 H   0  0  0  0  0  0  0  0  0  0  0  0
  146.9911  132.9679  150.1460 H   0  0  0  0  0  0  0  0  0  0  0  0
  145.5499  131.2388  149.1024 H   0  0  0  0  0  0  0  0  0  0  0  0
  143.0719  131.3410  149.4661 H   0  0  0  0  0  0  0  0  0  0  0  0
  143.3943  134.7225  151.8111 H   0  0  0  0  0  0  0  0  0  0  0  0
  148.7624  137.6445  156.1791 H   0  0  0  0  0  0  0  0  0  0  0  0
  148.0037  136.4813  155.1166 H   0  0  0  0  0  0  0  0  0  0  0  0
  150.1509  135.7554  154.2321 H   0  0  0  0  0  0  0  0  0  0  0  0
  150.0693  135.5087  155.9344 H   0  0  0  0  0  0  0  0  0  0  0  0
  148.9720  137.6456  153.2653 H   0  0  0  0  0  0  0  0  0  0  0  0
  1  2  1  0  0  0  0
  1 24  1  0  0  0  0
  1 25  1  0  0  0  0
  1 26  1  0  0  0  0
  2  3  1  0  0  0  0
  2  4  1  0  0  0  0
  3 27  1  0  0  0  0
  3 28  1  0  0  0  0
  3 29  1  0  0  0  0
  4 23  1  0  0  0  0
  4  5  1  0  0  0  0
  4 30  1  0  0  0  0
  5  6  1  0  0  0  0
  5 31  1  0  0  0  0
  5 32  1  0  0  0  0
  6  7  1  0  0  0  0
  6 33  1  0  0  0  0
  6 34  1  0  0  0  0
  7  8  1  0  0  0  0
  7 22  1  0  0  0  0
  7 53  1  0  0  0  0
  8  9  1  0  0  0  0
  8 10  1  0  0  0  0
  8 11  1  0  0  0  0
  9 35  1  0  0  0  0
  9 36  1  0  0  0  0
  9 37  1  0  0  0  0
 10 38  1  0  0  0  0
 10 39  1  0  0  0  0
 10 40  1  0  0  0  0
 11 12  1  0  0  0  0
 11 41  1  0  0  0  0
 11 42  1  0  0  0  0
 12 13  1  0  0  0  0
 12 43  1  0  0  0  0
 13 14  2  0  0  0  0
 13 15  1  0  0  0  0
 15 16  1  0  0  0  0
 15 44  1  0  0  0  0
 16 21  1  0  0  0  0
 16 17  2  0  0  0  0
 17 18  1  0  0  0  0
 17 45  1  0  0  0  0
 18 19  2  0  0  0  0
 18 46  1  0  0  0  0
 19 20  1  0  0  0  0
 19 47  1  0  0  0  0
 20 21  2  0  0  0  0
 21 48  1  0  0  0  0
 22 23  1  0  0  0  0
 22 49  1  0  0  0  0
 22 50  1  0  0  0  0
 23 51  1  0  0  0  0
 23 52  1  0  0  0  0
M  CHG  1   7   1
M  END
> <s_m_source_file>
AV-unprocessed.smi

> <i_m_source_file_index>
2668

> <i_lp_mmshare_version>
43012

> <i_f3d_flags>
0

> <s_epik_input>
W0NIM11OKFtDSDNdKVtDSF0xW0NIMl1bQ0gyXU4oW0NIMl1bQ0gyXTEpQyhbQ0gzXSkoW0NIM10pW0NIMl1bTkhdQyg9TylbTkhdYzJbY0hdW2NIXVtjSF1uW2NIXTI=

> <s_epik_cmdline>
J2VwaWtfcHl0aG9uJywgJy1waCcsICc3LjAnLCAnLXRuJywgJzgnLCAnLW1hJywgJzIwMCcsICctbWV0YWxfYmluZGluZycsICctaW1hZScsICc8aW5maWxlLm1hZT4nLCAnLW9tYWUnLCAnPG91dGZpbGUubWFlPic=

> <r_epik_Ionization_Penalty>
1.32573

> <r_epik_Ionization_Penalty_Charging>
0.00219175

> <r_epik_Ionization_Penalty_Neutral>
1.32353

> <r_epik_State_Penalty>
1.51166

> <r_epik_Charging_Adjusted_Penalty>
1.51385

> <i_epik_Tot_Q>
1

> <i_epik_Tot_abs_Q>
1

> <r_epik_Metal_State_Penalty>
1.51178

> <b_epik_Metal_Only>
0

> <s_lp_Force_Field>
OPLS_2005

> <r_lp_Energy>
39.6139

> <b_lp_Chiralities_Consistent>
1

> <s_lp_Variant>
AV-unprocessed.smi:2668-5

> <Gold.Version>
5.8.1

> <Gold.Id.Protein>
6NUR|6NUR_protein|mol2

> <Gold.PLP.Fitness>
41.6834

> <Gold.PLP.PLP>
-29.2470

> <Gold.PLP.part.hbond>
-2.8398

> <Gold.PLP.part.metal>
0.0000

> <Gold.PLP.part.buried>
-0.4800

> <Gold.PLP.part.nonpolar>
-27.6876

> <Gold.PLP.part.repulsive>
0.9657

> <Gold.PLP.ligand.clash>
0.0000

> <Gold.PLP.ligand.torsion>
0.7127

> <Gold.PLP.Chemscore.Hbond>
3.6344

> <Gold.PLP.Chemscore.CHOScore>
0.9461

> <Gold.PLP.Chemscore.Metal>
0.0000

> <Gold.Chemscore.Hbonds>
donor molecule, donor type, donor heavy atom, donor atom, acceptor molecule, acceptor atom, score
      L1  H     7    53       P1  7948  2.00
      L1  H    12    43       P1  7948  1.00
      L1  H    15    44       P1  7948  0.48
      L1  C    19    47       P1 10952  1.00

> <Gold.PLP.Chemscore.Internal.Correction>
0.1203

> <Gold.Rescore>
     Score         DG    S(hbond)    S(metal)    S(lipo)     H(rot)  DE(clash)    DE(int)     intcor
     18.64     -21.00       2.50        0.00      96.73       1.62       0.47       1.89       ----

> <Gold.Chemscore.Fitness>
18.6449

> <Gold.Chemscore.DG>
-21.0038

> <Gold.Chemscore.ZeroCoef>
-5.4800

> <Gold.Chemscore.Hbond>
2.5033

> <Gold.Chemscore.Metal>
0.0000

> <Gold.Chemscore.Lipo>
96.7289

> <Gold.Chemscore.Internal_Hbond>
0.0000

> <Gold.Chemscore.DEClash>
0.4655

> <Gold.Chemscore.DEInternal>
1.8934

> <Gold.Chemscore.Rot>
1.6228

> <Gold.Chemscore.Internal.Correction>
   9.000000E+99

> <Gold.Chemscore.Hbonds>
donor molecule, donor type, donor heavy atom, donor atom, acceptor molecule, acceptor atom, score
      L1  H     7    53       P1  7948  0.98
      L1  H    12    43       P1  7948  1.00
      L1  H    15    44       P1  7948  0.43

> <Gold.Chemscore.Hbond.Weighted>
-8.3609

> <Gold.Chemscore.Metal.Weighted>
-0.0000

> <Gold.Chemscore.Lipo.Weighted>
-11.3173

> <Gold.Chemscore.Internal_Hbond.Weighted>
0.0000

> <Gold.Chemscore.DEClash.Weighted>
0.4655

> <Gold.Chemscore.DEInternal.Weighted>
1.8934

> <Gold.Chemscore.Rot.Weighted>
4.1545

> <Gold.Chemscore.Internal.Correction.Weighted>
   9.000000E+99

> <Gold.Protein.RotatedTorsions>
[ 6907 6896 6895 6894 ] final   56.53 input  -60.11 | X-H torsion
[ 7974 7965 7964 7962 ] final   80.09 input  175.53 | X-H torsion
[ 8008 7997 7996 7995 ] final  170.01 input   59.86 | X-H torsion
[ 10167 10162 10161 10158 ] final  -45.96 input  -65.29 | X-H torsion
[ 10718 10713 10712 10709 ] final  -26.53 input   66.30 | X-H torsion
[ 10763 10752 10751 10750 ] final  163.50 input  -60.55 | X-H torsion
[ 11005 11000 10999 10996 ] final  151.65 input  -57.11 | X-H torsion

> <Gold.Protein.ActiveResidues>
 VAL166  LYS551  ARG553  GLY616  TRP617  ASP618  TYR619  PRO620  LYS621  CYS622 
 ASP623  PHE694  ASN695  SER759  ASP760  ASP761  ALA762  ILE779  LEU786  VAL792 
 PHE793  MET794  SER795  GLU796  ALA797  LYS798  CYS799  TRP800  GLU811  SER814 

> <Gold.Protein.RotatedAtoms>
  152.3645  134.6824  160.0196 H   0  0  0  0  0  0  0  0  0  0  0  0  # atno 6907 bound_to 6896
  151.7137  133.3307  159.3305 H   0  0  0  0  0  0  0  0  0  0  0  0  # atno 6908 bound_to 6896
  150.7628  134.6444  159.6299 H   0  0  0  0  0  0  0  0  0  0  0  0  # atno 6909 bound_to 6896
  145.6557  139.2458  143.1951 H   0  0  0  0  0  0  0  0  0  0  0  0  # atno 7974 bound_to 7965
  156.1405  140.1549  156.8928 H   0  0  0  0  0  0  0  0  0  0  0  0  # atno 8008 bound_to 7997
  154.4983  140.0832  156.7782 H   0  0  0  0  0  0  0  0  0  0  0  0  # atno 8009 bound_to 7997
  155.4088  140.3418  155.4264 H   0  0  0  0  0  0  0  0  0  0  0  0  # atno 8010 bound_to 7997
  140.6837  143.2854  151.3714 H   0  0  0  0  0  0  0  0  0  0  0  0  # atno 10167 bound_to 10162
  156.4500  130.4482  149.6996 H   0  0  0  0  0  0  0  0  0  0  0  0  # atno 10718 bound_to 10713
  154.2946  135.2760  155.2639 H   0  0  0  0  0  0  0  0  0  0  0  0  # atno 10763 bound_to 10752
  154.5103  135.5784  153.6603 H   0  0  0  0  0  0  0  0  0  0  0  0  # atno 10764 bound_to 10752
  152.9909  135.6179  154.3113 H   0  0  0  0  0  0  0  0  0  0  0  0  # atno 10765 bound_to 10752
  140.1238  134.8846  157.2109 H   0  0  0  0  0  0  0  0  0  0  0  0  # atno 11005 bound_to 11000
  146.1167  140.7361  142.9477 LP  0  0  0  0  0  0  0  0  0  0  0  0  # atno 17320 bound_to 7965
  144.7107  140.4026  143.7083 LP  0  0  0  0  0  0  0  0  0  0  0  0  # atno 17321 bound_to 7965
  139.6178  144.0967  152.2362 LP  0  0  0  0  0  0  0  0  0  0  0  0  # atno 17342 bound_to 10162
  140.0402  144.6013  150.7417 LP  0  0  0  0  0  0  0  0  0  0  0  0  # atno 17343 bound_to 10162
  156.3827  130.7587  151.2581 LP  0  0  0  0  0  0  0  0  0  0  0  0  # atno 17370 bound_to 10713
  157.7503  131.0291  150.4078 LP  0  0  0  0  0  0  0  0  0  0  0  0  # atno 17371 bound_to 10713
  140.2931  134.3218  155.7310 LP  0  0  0  0  0  0  0  0  0  0  0  0  # atno 17394 bound_to 11000
  141.2157  133.7546  156.9531 LP  0  0  0  0  0  0  0  0  0  0  0  0  # atno 17395 bound_to 11000

$$$$
