#       Name:                AV-unprocessed.smi:2830
#       Creating user name   scv26
#       Creation time:       Fri Mar 27 15:35:21 2020


#       File generated by GOLD software.
#

@<TRIPOS>MOLECULE
AV-unprocessed.smi:2830
    34    34     1
SMALL
NO_CHARGES


@<TRIPOS>ATOM
      1 ****        -4.2138   2.0001   0.4799 C.3            1 S1                 0.0000
      2 ****        -2.8068   1.9037   0.3446 O.3            1 S1                 0.0000
      3 ****        -2.3399   0.5661   0.4373 C.3            1 S1                 0.0000
      4 ****        -0.8079   0.5311   0.2815 C.3            1 S1                 0.0000
      5 ****        -0.3703  -0.8489   0.0777 N.pl3          1 S1                 0.0000
      6 ****         0.9059  -1.1591  -0.4178 C.ar           1 S1                 0.0000
      7 ****         1.3555  -2.4932  -0.3238 C.ar           1 S1                 0.0000
      8 ****         2.6320  -2.8184  -0.8225 C.ar           1 S1                 0.0000
      9 ****         3.4142  -1.7991  -1.4000 C.ar           1 S1                 0.0000
     10 ****         4.7362  -2.0843  -1.9301 C.1            1 S1                 0.0000
     11 ****         5.7892  -2.3117  -2.3524 N.1            1 S1                 0.0000
     12 ****         2.8805  -0.4956  -1.4514 C.ar           1 S1                 0.0000
     13 ****         1.6572  -0.1788  -0.9752 N.ar           1 S1                 0.0000
     14 ****        -0.1363   1.2007   1.4923 C.2            1 S1                 0.0000
     15 ****         0.1647   2.4969   1.3806 N.am           1 S1                 0.0000
     16 ****         0.0963   0.5622   2.5178 O.2            1 S1                 0.0000
     17 ****        -4.5192   3.0429   0.3953 H              1 S1                 0.0000
     18 ****        -4.5424   1.6312   1.4523 H              1 S1                 0.0000
     19 ****        -4.7252   1.4359  -0.3010 H              1 S1                 0.0000
     20 ****        -2.6431   0.1192   1.3863 H              1 S1                 0.0000
     21 ****        -2.8043  -0.0221  -0.3562 H              1 S1                 0.0000
     22 ****        -0.5637   1.0987  -0.6182 H              1 S1                 0.0000
     23 ****        -0.8917  -1.5758   0.5456 H              1 S1                 0.0000
     24 ****         0.7363  -3.2571   0.1238 H              1 S1                 0.0000
     25 ****         2.9977  -3.8332  -0.7604 H              1 S1                 0.0000
     26 ****         3.4442   0.3178  -1.8855 H              1 S1                 0.0000
     27 ****         0.6091   2.9784   2.1488 H              1 S1                 0.0000
     28 ****        -0.0511   2.9899   0.5263 H              1 S1                 0.0000
     29 ****        -2.3776   2.4437   1.0687 LP             1 S1                 0.0000
     30 ****        -2.5446   2.2734  -0.5468 LP             1 S1                 0.0000
     31 ****         6.6993  -2.5082  -2.7174 LP             1 S1                 0.0000
     32 ****         1.3134   0.7585  -1.0326 LP             1 S1                 0.0000
     33 ****        -0.1518  -0.4050   2.5717 LP             1 S1                 0.0000
     34 ****         0.5336   1.0104   3.2975 LP             1 S1                 0.0000
@<TRIPOS>BOND
    1    1    2 1     
    2    1   17 1     
    3    1   18 1     
    4    1   19 1     
    5    2    3 1     
    6    3    4 1     
    7    3   20 1     
    8    3   21 1     
    9    4    5 1     
   10    4   14 1     
   11    4   22 1     
   12    5    6 1     
   13    5   23 1     
   14    6   13 ar    
   15    6    7 ar    
   16    7    8 ar    
   17    7   24 1     
   18    8    9 ar    
   19    8   25 1     
   20    9   10 1     
   21    9   12 ar    
   22   10   11 3     
   23   12   13 ar    
   24   12   26 1     
   25   14   15 am    
   26   14   16 2     
   27   15   27 1     
   28   15   28 1     
   29    2   29 1     
   30    2   30 1     
   31   11   31 1     
   32   13   32 1     
   33   16   33 1     
   34   16   34 1     
@<TRIPOS>SUBSTRUCTURE
      1 S1             1
@<TRIPOS>SET
LONE_PAIRS      STATIC     ATOMS    <user>   **** ""
6 29 30 31 32 33 34
DONOR_HYDROGENS      STATIC     ATOMS    <user>   **** ""
3 23 27 28
ATOM$BLUE        STATIC     ATOMS    COLORGROUP SYSTEM
6 29 30 31 32 33 34
ATOM$RED        STATIC     ATOMS    COLORGROUP SYSTEM
3 23 27 28
