#       Name:                AV-unprocessed.smi:812
#       Creating user name   scv26
#       Creation time:       Fri Mar 27 01:25:35 2020


#       File generated by GOLD software.
#

@<TRIPOS>MOLECULE
AV-unprocessed.smi:812
    45    47     1
SMALL
NO_CHARGES


@<TRIPOS>ATOM
      1 ****        -2.3762   3.7656   0.4878 C.3            1 S1                 0.0000
      2 ****        -2.4849   2.2961   0.5511 N.am           1 S1                 0.0000
      3 ****        -1.3298   1.5590   0.5605 C.2            1 S1                 0.0000
      4 ****        -0.1938   2.0330   0.5196 O.2            1 S1                 0.0000
      5 ****        -1.5500   0.1093   0.6222 C.2            1 S1                 0.0000
      6 ****        -2.7853  -0.4484   0.6621 C.2            1 S1                 0.0000
      7 ****        -2.7106  -1.8363   0.7088 N.2            1 S1                 0.0000
      8 ****        -1.3941  -2.0465   0.6926 C.2            1 S1                 0.0000
      9 ****        -0.6286  -0.9380   0.6400 N.pl3          1 S1                 0.0000
     10 ****         0.8264  -0.9045   0.6064 C.3            1 S1                 0.0000
     11 ****         1.3937  -1.0562  -0.8201 C.3            1 S1                 0.0000
     12 ****         0.8656  -0.0579  -1.6719 O.3            1 S1                 0.0000
     13 ****         2.9140  -1.0502  -0.8128 C.ar           1 S1                 0.0000
     14 ****         3.6232   0.1547  -0.6125 C.ar           1 S1                 0.0000
     15 ****         5.0315   0.1567  -0.6034 C.ar           1 S1                 0.0000
     16 ****         5.7389  -1.0460  -0.7923 C.ar           1 S1                 0.0000
     17 ****         7.0928  -1.0442  -0.7831 F              1 S1                 0.0000
     18 ****         5.0370  -2.2508  -0.9891 C.ar           1 S1                 0.0000
     19 ****         3.6284  -2.2534  -0.9982 C.ar           1 S1                 0.0000
     20 ****        -3.9155   0.4094   0.6463 N.am           1 S1                 0.0000
     21 ****        -5.2578  -0.1774   0.6857 C.3            1 S1                 0.0000
     22 ****        -3.7657   1.7723   0.5872 C.2            1 S1                 0.0000
     23 ****        -4.7573   2.5074   0.5653 O.2            1 S1                 0.0000
     24 ****        -1.3573   4.1525   0.5205 H              1 S1                 0.0000
     25 ****        -2.9043   4.2265   1.3244 H              1 S1                 0.0000
     26 ****        -2.8229   4.1371  -0.4358 H              1 S1                 0.0000
     27 ****        -0.9720  -3.0405   0.7168 H              1 S1                 0.0000
     28 ****         1.1790   0.0127   1.0758 H              1 S1                 0.0000
     29 ****         1.1947  -1.7175   1.2335 H              1 S1                 0.0000
     30 ****         1.0578  -2.0123  -1.2242 H              1 S1                 0.0000
     31 ****         1.1594  -0.2297  -2.5535 H              1 S1                 0.0000
     32 ****         3.0880   1.0815  -0.4641 H              1 S1                 0.0000
     33 ****         5.5685   1.0812  -0.4507 H              1 S1                 0.0000
     34 ****         5.5792  -3.1738  -1.1329 H              1 S1                 0.0000
     35 ****         3.1001  -3.1835  -1.1484 H              1 S1                 0.0000
     36 ****        -5.8122   0.1892   1.5509 H              1 S1                 0.0000
     37 ****        -5.2423  -1.2650   0.7496 H              1 S1                 0.0000
     38 ****        -5.8159   0.0867  -0.2134 H              1 S1                 0.0000
     39 ****        -0.0668   3.0240   0.4758 LP             1 S1                 0.0000
     40 ****         0.6015   1.4270   0.5302 LP             1 S1                 0.0000
     41 ****        -3.4534  -2.5048   0.7452 LP             1 S1                 0.0000
     42 ****         1.1886   0.8417  -1.3780 LP             1 S1                 0.0000
     43 ****        -0.1336  -0.0804  -1.6390 LP             1 S1                 0.0000
     44 ****        -4.6431   3.4999   0.5207 LP             1 S1                 0.0000
     45 ****        -5.6748   2.1104   0.5921 LP             1 S1                 0.0000
@<TRIPOS>BOND
    1    1    2 1     
    2    1   24 1     
    3    1   25 1     
    4    1   26 1     
    5    2   22 am    
    6    2    3 am    
    7    3    4 2     
    8    3    5 1     
    9    5    9 1     
   10    5    6 2     
   11    6    7 1     
   12    6   20 1     
   13    7    8 2     
   14    8    9 1     
   15    8   27 1     
   16    9   10 1     
   17   10   11 1     
   18   10   28 1     
   19   10   29 1     
   20   11   12 1     
   21   11   13 1     
   22   11   30 1     
   23   12   31 1     
   24   13   19 ar    
   25   13   14 ar    
   26   14   15 ar    
   27   14   32 1     
   28   15   16 ar    
   29   15   33 1     
   30   16   17 1     
   31   16   18 ar    
   32   18   19 ar    
   33   18   34 1     
   34   19   35 1     
   35   20   21 1     
   36   20   22 am    
   37   21   36 1     
   38   21   37 1     
   39   21   38 1     
   40   22   23 2     
   41    4   39 1     
   42    4   40 1     
   43    7   41 1     
   44   12   42 1     
   45   12   43 1     
   46   23   44 1     
   47   23   45 1     
@<TRIPOS>SUBSTRUCTURE
      1 S1             1
@<TRIPOS>SET
LONE_PAIRS      STATIC     ATOMS    <user>   **** ""
7 39 40 41 42 43 44 45
DONOR_HYDROGENS      STATIC     ATOMS    <user>   **** ""
1 31
ATOM$BLUE        STATIC     ATOMS    COLORGROUP SYSTEM
7 39 40 41 42 43 44 45
ATOM$RED        STATIC     ATOMS    COLORGROUP SYSTEM
1 31
