AV-unprocessed.smi:2129|AV-procd|sdf|8683|dock2
  -GOLD-   2272011433D 1   1.00000     0.00000
 Structure written by MMmdl.
 34 34  0  0  0  0  0  0  0  0  1 V2000
  152.3853  143.7606  160.9059 C   0  0  0  0  0  0  0  0  0  0  0  0
  151.9823  143.0285  159.6134 C   0  0  0  0  0  0  0  0  0  0  0  0
  151.5903  143.9390  158.4176 C   0  0  0  0  0  0  0  0  0  0  0  0
  150.6329  145.0519  158.8867 C   0  0  0  0  0  0  0  0  0  0  0  0
  152.8523  144.6084  157.8309 C   0  0  0  0  0  0  0  0  0  0  0  0
  150.8845  143.1840  157.3760 N   0  0  0  0  0  0  0  0  0  0  0  0
  150.9554  141.8698  157.0877 C   0  0  0  0  0  0  0  0  0  0  0  0
  151.6861  141.0838  157.6883 O   0  0  0  0  0  0  0  0  0  0  0  0
  150.0630  141.3359  155.9538 C   0  0  0  0  0  0  0  0  0  0  0  0
  150.2648  139.9133  155.6313 N   0  0  0  0  0  0  0  0  0  0  0  0
  149.1839  139.0435  155.6013 C   0  0  0  0  0  0  0  0  0  0  0  0
  149.2978  137.7222  155.3279 C   0  0  0  0  0  0  0  0  0  0  0  0
  150.6035  137.1362  155.0447 C   0  0  0  0  0  0  0  0  0  0  0  0
  150.8086  135.9522  154.7872 O   0  0  0  0  0  0  0  0  0  0  0  0
  151.6661  138.0430  155.0853 N   0  0  0  0  0  0  0  0  0  0  0  0
  151.5560  139.4054  155.3671 C   0  0  0  0  0  0  0  0  0  0  0  0
  152.5605  140.1154  155.3872 O   0  0  0  0  0  0  0  0  0  0  0  0
  152.5903  137.6823  154.8970 H   0  0  0  0  0  0  0  0  0  0  0  0
  152.6255  143.0426  161.6899 H   0  0  0  0  0  0  0  0  0  0  0  0
  151.5808  144.3930  161.2812 H   0  0  0  0  0  0  0  0  0  0  0  0
  153.2656  144.3857  160.7597 H   0  0  0  0  0  0  0  0  0  0  0  0
  152.8034  142.3767  159.3127 H   0  0  0  0  0  0  0  0  0  0  0  0
  151.1562  142.3567  159.8488 H   0  0  0  0  0  0  0  0  0  0  0  0
  151.0708  145.6387  159.6950 H   0  0  0  0  0  0  0  0  0  0  0  0
  149.6858  144.6499  159.2476 H   0  0  0  0  0  0  0  0  0  0  0  0
  150.3983  145.7399  158.0733 H   0  0  0  0  0  0  0  0  0  0  0  0
  153.3278  145.2589  158.5657 H   0  0  0  0  0  0  0  0  0  0  0  0
  152.6114  145.2196  156.9603 H   0  0  0  0  0  0  0  0  0  0  0  0
  153.6006  143.8784  157.5225 H   0  0  0  0  0  0  0  0  0  0  0  0
  150.2436  143.7252  156.8141 H   0  0  0  0  0  0  0  0  0  0  0  0
  149.0237  141.5086  156.2364 H   0  0  0  0  0  0  0  0  0  0  0  0
  150.2196  141.9506  155.0653 H   0  0  0  0  0  0  0  0  0  0  0  0
  148.1978  139.4335  155.8103 H   0  0  0  0  0  0  0  0  0  0  0  0
  148.4178  137.0951  155.3207 H   0  0  0  0  0  0  0  0  0  0  0  0
  1  2  1  0  0  0  0
  1 19  1  0  0  0  0
  1 20  1  0  0  0  0
  1 21  1  0  0  0  0
  2  3  1  0  0  0  0
  2 22  1  0  0  0  0
  2 23  1  0  0  0  0
  3  4  1  0  0  0  0
  3  5  1  0  0  0  0
  3  6  1  0  0  0  0
  4 24  1  0  0  0  0
  4 25  1  0  0  0  0
  4 26  1  0  0  0  0
  5 27  1  0  0  0  0
  5 28  1  0  0  0  0
  5 29  1  0  0  0  0
  6  7  1  0  0  0  0
  6 30  1  0  0  0  0
  7  8  2  0  0  0  0
  7  9  1  0  0  0  0
  9 10  1  0  0  0  0
  9 31  1  0  0  0  0
  9 32  1  0  0  0  0
 10 16  1  0  0  0  0
 10 11  1  0  0  0  0
 11 12  2  0  0  0  0
 11 33  1  0  0  0  0
 12 13  1  0  0  0  0
 12 34  1  0  0  0  0
 13 14  2  0  0  0  0
 13 15  1  0  0  0  0
 15 18  1  0  0  0  0
 15 16  1  0  0  0  0
 16 17  2  0  0  0  0
M  END
> <s_m_source_file>
AV-unprocessed.smi

> <i_m_source_file_index>
2129

> <i_lp_mmshare_version>
43012

> <i_f3d_flags>
0

> <s_epik_input>
W0NIM11bQ0gyXUMoW0NIM10pKFtDSDNdKVtOSF1DKD1PKVtDSDJdbjFbY0hdW2NIXWMoPU8pW25IXWMxPU8=

> <s_epik_cmdline>
J2VwaWtfcHl0aG9uJywgJy1waCcsICc3LjAnLCAnLXRuJywgJzgnLCAnLW1hJywgJzIwMCcsICctbWV0YWxfYmluZGluZycsICctaW1hZScsICc8aW5maWxlLm1hZT4nLCAnLW9tYWUnLCAnPG91dGZpbGUubWFlPic=

> <r_lp_tautomer_probability>
0.999537

> <r_epik_Ionization_Penalty>
0.00293907

> <r_epik_Ionization_Penalty_Charging>
0.00293905

> <r_epik_Ionization_Penalty_Neutral>
1.95902e-08

> <r_epik_State_Penalty>
0.0020607

> <r_epik_Charging_Adjusted_Penalty>
0.00499975

> <i_epik_Tot_Q>
0

> <i_epik_Tot_abs_Q>
0

> <r_epik_Metal_State_Penalty>
0.360223

> <b_epik_Metal_Only>
0

> <s_lp_Force_Field>
OPLS_2005

> <r_lp_Energy>
5.65175

> <b_lp_Chiralities_Consistent>
1

> <s_lp_Variant>
AV-unprocessed.smi:2129-1

> <Gold.Version>
5.8.1

> <Gold.Id.Protein>
6NUR|6NUR_protein|mol2

> <Gold.PLP.Fitness>
40.9986

> <Gold.PLP.PLP>
-33.4304

> <Gold.PLP.part.hbond>
-3.9535

> <Gold.PLP.part.metal>
0.0000

> <Gold.PLP.part.buried>
-2.6288

> <Gold.PLP.part.nonpolar>
-27.3655

> <Gold.PLP.part.repulsive>
0.3402

> <Gold.PLP.ligand.clash>
0.0000

> <Gold.PLP.ligand.torsion>
0.7530

> <Gold.PLP.Chemscore.Hbond>
3.0088

> <Gold.PLP.Chemscore.CHOScore>
0.0000

> <Gold.PLP.Chemscore.Metal>
0.0000

> <Gold.Chemscore.Hbonds>
donor molecule, donor type, donor heavy atom, donor atom, acceptor molecule, acceptor atom, score
      L1  H     6    30       P1  8028  1.00
      P1  H  7989  7998       L1    17  0.03
      P1  H  7997  8008       L1    17  1.00
      P1  H 10752 10764       L1    14  0.68

> <Gold.PLP.Chemscore.Internal.Correction>
0.0479

> <Gold.Rescore>
     Score         DG    S(hbond)    S(metal)    S(lipo)     H(rot)  DE(clash)    DE(int)     intcor
     15.39     -18.61       2.84        0.00      73.73       1.95       1.18       2.04       ----

> <Gold.Chemscore.Fitness>
15.3861

> <Gold.Chemscore.DG>
-18.6110

> <Gold.Chemscore.ZeroCoef>
-5.4800

> <Gold.Chemscore.Hbond>
2.8420

> <Gold.Chemscore.Metal>
0.0000

> <Gold.Chemscore.Lipo>
73.7308

> <Gold.Chemscore.Internal_Hbond>
0.0000

> <Gold.Chemscore.DEClash>
1.1840

> <Gold.Chemscore.DEInternal>
2.0409

> <Gold.Chemscore.Rot>
1.9483

> <Gold.Chemscore.Internal.Correction>
   9.000000E+99

> <Gold.Chemscore.Hbonds>
donor molecule, donor type, donor heavy atom, donor atom, acceptor molecule, acceptor atom, score
      L1  H     6    30       P1  8028  0.93
      P1  H  7997  8008       L1    17  0.96
      P1  H 10752 10764       L1    14  0.54

> <Gold.Chemscore.Hbond.Weighted>
-9.4921

> <Gold.Chemscore.Metal.Weighted>
-0.0000

> <Gold.Chemscore.Lipo.Weighted>
-8.6265

> <Gold.Chemscore.Internal_Hbond.Weighted>
0.0000

> <Gold.Chemscore.DEClash.Weighted>
1.1840

> <Gold.Chemscore.DEInternal.Weighted>
2.0409

> <Gold.Chemscore.Rot.Weighted>
4.9876

> <Gold.Chemscore.Internal.Correction.Weighted>
   9.000000E+99

> <Gold.Protein.RotatedTorsions>
[ 6907 6896 6895 6894 ] final  -53.52 input  -60.11 | X-H torsion
[ 7974 7965 7964 7962 ] final -122.74 input  175.53 | X-H torsion
[ 8008 7997 7996 7995 ] final  -37.78 input   59.86 | X-H torsion
[ 10167 10162 10161 10158 ] final   32.20 input  -65.29 | X-H torsion
[ 10718 10713 10712 10709 ] final  112.33 input   66.30 | X-H torsion
[ 10763 10752 10751 10750 ] final  -62.89 input  -60.55 | X-H torsion
[ 11005 11000 10999 10996 ] final -168.34 input  -57.11 | X-H torsion

> <Gold.Protein.ActiveResidues>
 VAL166  LYS551  ARG553  GLY616  TRP617  ASP618  TYR619  PRO620  LYS621  CYS622 
 ASP623  PHE694  ASN695  SER759  ASP760  ASP761  ALA762  ILE779  LEU786  VAL792 
 PHE793  MET794  SER795  GLU796  ALA797  LYS798  CYS799  TRP800  GLU811  SER814 

> <Gold.Protein.RotatedAtoms>
  150.8419  134.7715  159.6939 H   0  0  0  0  0  0  0  0  0  0  0  0  # atno 6907 bound_to 6896
  152.4505  134.5401  159.9846 H   0  0  0  0  0  0  0  0  0  0  0  0  # atno 6908 bound_to 6896
  151.5539  133.3375  159.2994 H   0  0  0  0  0  0  0  0  0  0  0  0  # atno 6909 bound_to 6896
  145.0262  140.8030  143.4351 H   0  0  0  0  0  0  0  0  0  0  0  0  # atno 7974 bound_to 7965
  154.4047  140.1595  156.2593 H   0  0  0  0  0  0  0  0  0  0  0  0  # atno 8008 bound_to 7997
  155.9050  140.3431  155.6033 H   0  0  0  0  0  0  0  0  0  0  0  0  # atno 8009 bound_to 7997
  155.7403  140.0791  157.2239 H   0  0  0  0  0  0  0  0  0  0  0  0  # atno 8010 bound_to 7997
  140.4520  144.1034  150.6194 H   0  0  0  0  0  0  0  0  0  0  0  0  # atno 10167 bound_to 10162
  157.6398  131.0966  150.6880 H   0  0  0  0  0  0  0  0  0  0  0  0  # atno 10718 bound_to 10713
  154.3068  135.6223  153.5448 H   0  0  0  0  0  0  0  0  0  0  0  0  # atno 10763 bound_to 10752
  152.9834  135.5691  154.5222 H   0  0  0  0  0  0  0  0  0  0  0  0  # atno 10764 bound_to 10752
  154.4863  135.2865  155.1507 H   0  0  0  0  0  0  0  0  0  0  0  0  # atno 10765 bound_to 10752
  140.5431  134.5503  157.5104 H   0  0  0  0  0  0  0  0  0  0  0  0  # atno 11005 bound_to 11000
  145.1830  139.2341  143.5282 LP  0  0  0  0  0  0  0  0  0  0  0  0  # atno 17320 bound_to 7965
  146.3492  140.1608  142.8591 LP  0  0  0  0  0  0  0  0  0  0  0  0  # atno 17321 bound_to 7965
  140.4195  143.2618  151.9732 LP  0  0  0  0  0  0  0  0  0  0  0  0  # atno 17342 bound_to 10162
  139.4797  144.5843  151.7880 LP  0  0  0  0  0  0  0  0  0  0  0  0  # atno 17343 bound_to 10162
  156.7206  130.4679  149.5524 LP  0  0  0  0  0  0  0  0  0  0  0  0  # atno 17370 bound_to 10713
  156.1668  130.6411  151.0788 LP  0  0  0  0  0  0  0  0  0  0  0  0  # atno 17371 bound_to 10713
  139.9494  134.7644  156.0485 LP  0  0  0  0  0  0  0  0  0  0  0  0  # atno 17394 bound_to 11000
  141.1216  133.6611  156.3229 LP  0  0  0  0  0  0  0  0  0  0  0  0  # atno 17395 bound_to 11000

$$$$
