AV-unprocessed.smi:1824|AV-procd|sdf|7404|dock6
  -GOLD-   22720 9 73D 1   1.00000     0.00000
 Structure written by MMmdl.
 45 47  0  0  0  0  0  0  0  0  2 V2000
  148.1969  133.5401  153.4335 C   0  0  0  0  0  0  0  0  0  0  0  0
  146.6595  133.4803  153.3868 C   0  0  1  0  0  0  0  0  0  0  0  0
  145.9905  134.8663  153.2945 C   0  0  0  0  0  0  0  0  0  0  0  0
  146.1548  135.4500  151.9424 N   0  3  2  0  0  0  0  0  0  0  0  0
  145.5873  136.8187  151.8380 C   0  0  0  0  0  0  0  0  0  0  0  0
  146.1306  137.7671  152.9251 C   0  0  2  0  0  0  0  0  0  0  0  0
  145.0453  138.2320  153.7060 O   0  0  0  0  0  0  0  0  0  0  0  0
  146.8759  138.9696  152.3140 C   0  0  0  0  0  0  0  0  0  0  0  0
  147.4672  139.8312  153.3231 N   0  0  0  0  0  0  0  0  0  0  0  0
  146.9465  140.9684  153.8230 C   0  0  0  0  0  0  0  0  0  0  0  0
  147.6562  141.6090  154.7472 N   0  0  0  0  0  0  0  0  0  0  0  0
  148.7677  140.7921  154.8631 C   0  0  0  0  0  0  0  0  0  0  0  0
  149.9110  140.9098  155.6856 C   0  0  0  0  0  0  0  0  0  0  0  0
  150.9333  139.9395  155.6319 C   0  0  0  0  0  0  0  0  0  0  0  0
  152.0215  140.0666  156.4280 F   0  0  0  0  0  0  0  0  0  0  0  0
  150.8286  138.8393  154.7551 C   0  0  0  0  0  0  0  0  0  0  0  0
  151.8151  137.9131  154.7083 F   0  0  0  0  0  0  0  0  0  0  0  0
  149.6990  138.7011  153.9258 C   0  0  0  0  0  0  0  0  0  0  0  0
  148.6805  139.6703  153.9844 C   0  0  0  0  0  0  0  0  0  0  0  0
  145.6422  134.5137  150.9134 C   0  0  0  0  0  0  0  0  0  0  0  0
  146.3558  133.1544  151.0242 C   0  0  2  0  0  0  0  0  0  0  0  0
  145.7946  132.1271  150.0351 C   0  0  0  0  0  0  0  0  0  0  0  0
  146.1840  132.6342  152.3399 O   0  0  0  0  0  0  0  0  0  0  0  0
  148.5361  134.0791  154.3184 H   0  0  0  0  0  0  0  0  0  0  0  0
  148.6199  134.0460  152.5661 H   0  0  0  0  0  0  0  0  0  0  0  0
  148.6230  132.5374  153.4767 H   0  0  0  0  0  0  0  0  0  0  0  0
  146.3352  133.0171  154.3190 H   0  0  0  0  0  0  0  0  0  0  0  0
  144.9255  134.7762  153.5144 H   0  0  0  0  0  0  0  0  0  0  0  0
  146.4134  135.5324  154.0477 H   0  0  0  0  0  0  0  0  0  0  0  0
  145.7923  137.2168  150.8430 H   0  0  0  0  0  0  0  0  0  0  0  0
  144.5007  136.7761  151.9279 H   0  0  0  0  0  0  0  0  0  0  0  0
  146.8169  137.2351  153.5834 H   0  0  0  0  0  0  0  0  0  0  0  0
  144.7224  139.0366  153.3293 H   0  0  0  0  0  0  0  0  0  0  0  0
  147.6728  138.6224  151.6550 H   0  0  0  0  0  0  0  0  0  0  0  0
  146.2018  139.5652  151.6970 H   0  0  0  0  0  0  0  0  0  0  0  0
  145.9923  141.3484  153.4880 H   0  0  0  0  0  0  0  0  0  0  0  0
  150.0029  141.7481  156.3599 H   0  0  0  0  0  0  0  0  0  0  0  0
  149.6184  137.8595  153.2544 H   0  0  0  0  0  0  0  0  0  0  0  0
  144.5657  134.3865  151.0398 H   0  0  0  0  0  0  0  0  0  0  0  0
  145.7984  134.9218  149.9154 H   0  0  0  0  0  0  0  0  0  0  0  0
  147.4175  133.2800  150.8120 H   0  0  0  0  0  0  0  0  0  0  0  0
  145.9025  132.4723  149.0065 H   0  0  0  0  0  0  0  0  0  0  0  0
  144.7358  131.9397  150.2171 H   0  0  0  0  0  0  0  0  0  0  0  0
  146.3207  131.1761  150.1222 H   0  0  0  0  0  0  0  0  0  0  0  0
  147.1500  135.5425  151.7932 H   0  0  0  0  0  0  0  0  0  0  0  0
  1  2  1  0  0  0  0
  1 24  1  0  0  0  0
  1 25  1  0  0  0  0
  1 26  1  0  0  0  0
  2 23  1  0  0  0  0
  2  3  1  0  0  0  0
  2 27  1  0  0  0  0
  3  4  1  0  0  0  0
  3 28  1  0  0  0  0
  3 29  1  0  0  0  0
  4  5  1  0  0  0  0
  4 20  1  0  0  0  0
  4 45  1  0  0  0  0
  5  6  1  0  0  0  0
  5 30  1  0  0  0  0
  5 31  1  0  0  0  0
  6  7  1  0  0  0  0
  6  8  1  0  0  0  0
  6 32  1  0  0  0  0
  7 33  1  0  0  0  0
  8  9  1  0  0  0  0
  8 34  1  0  0  0  0
  8 35  1  0  0  0  0
  9 19  1  0  0  0  0
  9 10  1  0  0  0  0
 10 11  2  0  0  0  0
 10 36  1  0  0  0  0
 11 12  1  0  0  0  0
 12 19  2  0  0  0  0
 12 13  1  0  0  0  0
 13 14  2  0  0  0  0
 13 37  1  0  0  0  0
 14 15  1  0  0  0  0
 14 16  1  0  0  0  0
 16 17  1  0  0  0  0
 16 18  2  0  0  0  0
 18 19  1  0  0  0  0
 18 38  1  0  0  0  0
 20 21  1  0  0  0  0
 20 39  1  0  0  0  0
 20 40  1  0  0  0  0
 21 22  1  0  0  0  0
 21 23  1  0  0  0  0
 21 41  1  0  0  0  0
 22 42  1  0  0  0  0
 22 43  1  0  0  0  0
 22 44  1  0  0  0  0
M  CHG  1   4   1
M  END
> <s_m_source_file>
AV-unprocessed.smi

> <i_m_source_file_index>
1824

> <i_lp_mmshare_version>
43012

> <i_f3d_flags>
0

> <s_epik_input>
W0NIM11bQ0BASF0xW0NIMl1OKFtDSDJdW0NASF0oTzEpW0NIM10pW0NIMl1bQ0BIXShbT0hdKVtDSDJdbihbY0hdbjIpYyhjMjMpW2NIXWMoRiljKEYpW2NIXTM=

> <s_epik_cmdline>
J2VwaWtfcHl0aG9uJywgJy1waCcsICc3LjAnLCAnLXRuJywgJzgnLCAnLW1hJywgJzIwMCcsICctbWV0YWxfYmluZGluZycsICctaW1hZScsICc8aW5maWxlLm1hZT4nLCAnLW9tYWUnLCAnPG91dGZpbGUubWFlPic=

> <r_epik_Ionization_Penalty>
0.61967

> <r_epik_Ionization_Penalty_Charging>
0.608065

> <r_epik_Ionization_Penalty_Neutral>
0.0116057

> <r_epik_State_Penalty>
0.664205

> <r_epik_Charging_Adjusted_Penalty>
1.27227

> <i_epik_Tot_Q>
1

> <i_epik_Tot_abs_Q>
1

> <r_epik_Metal_State_Penalty>
0.654947

> <b_epik_Metal_Only>
0

> <s_lp_Force_Field>
OPLS_2005

> <r_lp_Energy>
23.1423

> <b_lp_Chiralities_Consistent>
1

> <s_lp_Variant>
AV-unprocessed.smi:1824-12

> <Gold.Version>
5.8.1

> <Gold.Id.Protein>
6NUR|6NUR_protein|mol2

> <Gold.PLP.Fitness>
53.1526

> <Gold.PLP.PLP>
-43.2478

> <Gold.PLP.part.hbond>
-2.0000

> <Gold.PLP.part.metal>
0.0000

> <Gold.PLP.part.buried>
0.2891

> <Gold.PLP.part.nonpolar>
-42.2097

> <Gold.PLP.part.repulsive>
0.2818

> <Gold.PLP.ligand.clash>
0.0000

> <Gold.PLP.ligand.torsion>
1.0875

> <Gold.PLP.Chemscore.Hbond>
3.0000

> <Gold.PLP.Chemscore.CHOScore>
0.9930

> <Gold.PLP.Chemscore.Metal>
0.0000

> <Gold.Chemscore.Hbonds>
donor molecule, donor type, donor heavy atom, donor atom, acceptor molecule, acceptor atom, score
      L1  H     4    45       P1  7948  2.00
      L1  H     7    33       P1 10175  1.00
      L1  C    10    36       P1 10175  0.69

> <Gold.PLP.Chemscore.Internal.Correction>
0.1009

> <Gold.Rescore>
     Score         DG    S(hbond)    S(metal)    S(lipo)     H(rot)  DE(clash)    DE(int)     intcor
     15.60     -16.80       2.00        0.00      90.63       2.33       0.11       1.10       ----

> <Gold.Chemscore.Fitness>
15.5966

> <Gold.Chemscore.DG>
-16.8013

> <Gold.Chemscore.ZeroCoef>
-5.4800

> <Gold.Chemscore.Hbond>
1.9971

> <Gold.Chemscore.Metal>
0.0000

> <Gold.Chemscore.Lipo>
90.6262

> <Gold.Chemscore.Internal_Hbond>
0.0000

> <Gold.Chemscore.DEClash>
0.1076

> <Gold.Chemscore.DEInternal>
1.0970

> <Gold.Chemscore.Rot>
2.3251

> <Gold.Chemscore.Internal.Correction>
   9.000000E+99

> <Gold.Chemscore.Hbonds>
donor molecule, donor type, donor heavy atom, donor atom, acceptor molecule, acceptor atom, score
      L1  H     4    45       P1  7948  1.00
      L1  H     7    33       P1 10175  0.98

> <Gold.Chemscore.Hbond.Weighted>
-6.6703

> <Gold.Chemscore.Metal.Weighted>
-0.0000

> <Gold.Chemscore.Lipo.Weighted>
-10.6033

> <Gold.Chemscore.Internal_Hbond.Weighted>
0.0000

> <Gold.Chemscore.DEClash.Weighted>
0.1076

> <Gold.Chemscore.DEInternal.Weighted>
1.0970

> <Gold.Chemscore.Rot.Weighted>
5.9523

> <Gold.Chemscore.Internal.Correction.Weighted>
   9.000000E+99

> <Gold.Protein.RotatedTorsions>
[ 6907 6896 6895 6894 ] final  -32.46 input  -60.11 | X-H torsion
[ 7974 7965 7964 7962 ] final  131.27 input  175.53 | X-H torsion
[ 8008 7997 7996 7995 ] final  118.42 input   59.86 | X-H torsion
[ 10167 10162 10161 10158 ] final -136.08 input  -65.29 | X-H torsion
[ 10718 10713 10712 10709 ] final  127.54 input   66.30 | X-H torsion
[ 10763 10752 10751 10750 ] final  -55.58 input  -60.55 | X-H torsion
[ 11005 11000 10999 10996 ] final  132.72 input  -57.11 | X-H torsion

> <Gold.Protein.ActiveResidues>
 VAL166  LYS551  ARG553  GLY616  TRP617  ASP618  TYR619  PRO620  LYS621  CYS622 
 ASP623  PHE694  ASN695  SER759  ASP760  ASP761  ALA762  ILE779  LEU786  VAL792 
 PHE793  MET794  SER795  GLU796  ALA797  LYS798  CYS799  TRP800  GLU811  SER814 

> <Gold.Protein.RotatedAtoms>
  151.0785  134.9843  159.8343 H   0  0  0  0  0  0  0  0  0  0  0  0  # atno 6907 bound_to 6896
  152.5417  134.2211  159.8798 H   0  0  0  0  0  0  0  0  0  0  0  0  # atno 6908 bound_to 6896
  151.2240  133.4443  159.2635 H   0  0  0  0  0  0  0  0  0  0  0  0  # atno 6909 bound_to 6896
  145.0091  139.4237  143.5254 H   0  0  0  0  0  0  0  0  0  0  0  0  # atno 7974 bound_to 7965
  156.2545  140.2875  156.0832 H   0  0  0  0  0  0  0  0  0  0  0  0  # atno 8008 bound_to 7997
  155.1543  140.0398  157.2845 H   0  0  0  0  0  0  0  0  0  0  0  0  # atno 8009 bound_to 7997
  154.6438  140.2528  155.7298 H   0  0  0  0  0  0  0  0  0  0  0  0  # atno 8010 bound_to 7997
  139.8714  143.6952  152.2639 H   0  0  0  0  0  0  0  0  0  0  0  0  # atno 10167 bound_to 10162
  157.5324  131.1098  150.8988 H   0  0  0  0  0  0  0  0  0  0  0  0  # atno 10718 bound_to 10713
  154.1930  135.6424  153.5065 H   0  0  0  0  0  0  0  0  0  0  0  0  # atno 10763 bound_to 10752
  153.0030  135.5433  154.6395 H   0  0  0  0  0  0  0  0  0  0  0  0  # atno 10764 bound_to 10752
  154.5789  135.2923  155.0726 H   0  0  0  0  0  0  0  0  0  0  0  0  # atno 10765 bound_to 10752
  139.9808  134.9549  156.9623 H   0  0  0  0  0  0  0  0  0  0  0  0  # atno 11005 bound_to 11000
  146.3466  139.9525  142.8727 LP  0  0  0  0  0  0  0  0  0  0  0  0  # atno 17320 bound_to 7965
  145.2047  140.9870  143.4135 LP  0  0  0  0  0  0  0  0  0  0  0  0  # atno 17321 bound_to 7965
  139.7280  144.7588  151.0847 LP  0  0  0  0  0  0  0  0  0  0  0  0  # atno 17342 bound_to 10162
  140.7760  143.5123  150.9637 LP  0  0  0  0  0  0  0  0  0  0  0  0  # atno 17343 bound_to 10162
  156.9565  130.5439  149.5284 LP  0  0  0  0  0  0  0  0  0  0  0  0  # atno 17370 bound_to 10713
  156.0433  130.5512  150.8821 LP  0  0  0  0  0  0  0  0  0  0  0  0  # atno 17371 bound_to 10713
  140.5101  134.1010  155.7268 LP  0  0  0  0  0  0  0  0  0  0  0  0  # atno 17394 bound_to 11000
  141.1480  133.9020  157.2169 LP  0  0  0  0  0  0  0  0  0  0  0  0  # atno 17395 bound_to 11000

$$$$
