AV-unprocessed.smi:2576|AV-procd|sdf|10118|dock2
  -GOLD-   2272014133D 1   1.00000     0.00000
 Structure written by MMmdl.
 27 28  0  0  0  0  0  0  0  0  1 V2000
  148.7687  142.0122  156.3690 O   0  0  0  0  0  0  0  0  0  0  0  0
  149.5204  140.9929  155.7374 C   0  0  2  0  0  0  0  0  0  0  0  0
  151.0031  141.4132  155.6945 C   0  0  0  0  0  0  0  0  0  0  0  0
  151.7209  141.0600  156.9073 N   0  0  0  0  0  0  0  0  0  0  0  0
  152.3459  139.8512  156.9859 N   0  0  0  0  0  0  0  0  0  0  0  0
  152.9173  139.7528  158.1491 N   0  0  0  0  0  0  0  0  0  0  0  0
  152.6621  140.9189  158.8517 C   0  0  0  0  0  0  0  0  0  0  0  0
  153.0375  141.3399  160.1470 C   0  0  0  0  0  0  0  0  0  0  0  0
  152.6341  142.6035  160.6321 C   0  0  0  0  0  0  0  0  0  0  0  0
  153.1126  143.0829  162.2218 Cl  0  0  0  0  0  0  0  0  0  0  0  0
  151.8490  143.4615  159.8244 C   0  0  0  0  0  0  0  0  0  0  0  0
  151.3448  145.0093  160.4030 Cl  0  0  0  0  0  0  0  0  0  0  0  0
  151.4690  143.0551  158.5298 C   0  0  0  0  0  0  0  0  0  0  0  0
  151.8814  141.7944  158.0662 C   0  0  0  0  0  0  0  0  0  0  0  0
  148.9594  140.7328  154.3247 C   0  0  0  0  0  0  0  0  0  0  0  0
  147.4506  140.9984  154.1728 C   0  0  0  0  0  0  0  0  0  0  0  0
  147.0439  140.5294  152.9938 F   0  0  0  0  0  0  0  0  0  0  0  0
  146.7708  140.3748  155.1348 F   0  0  0  0  0  0  0  0  0  0  0  0
  147.1845  142.3034  154.2220 F   0  0  0  0  0  0  0  0  0  0  0  0
  149.0884  142.8510  156.0721 H   0  0  0  0  0  0  0  0  0  0  0  0
  149.4287  140.0848  156.3341 H   0  0  0  0  0  0  0  0  0  0  0  0
  151.5059  140.9403  154.8497 H   0  0  0  0  0  0  0  0  0  0  0  0
  151.0893  142.4898  155.5414 H   0  0  0  0  0  0  0  0  0  0  0  0
  153.6360  140.6897  160.7680 H   0  0  0  0  0  0  0  0  0  0  0  0
  150.8694  143.6997  157.9040 H   0  0  0  0  0  0  0  0  0  0  0  0
  149.5126  141.3242  153.5937 H   0  0  0  0  0  0  0  0  0  0  0  0
  149.1426  139.6896  154.0637 H   0  0  0  0  0  0  0  0  0  0  0  0
  1  2  1  0  0  0  0
  1 20  1  0  0  0  0
  2  3  1  0  0  0  0
  2 15  1  0  0  0  0
  2 21  1  0  0  0  0
  3  4  1  0  0  0  0
  3 22  1  0  0  0  0
  3 23  1  0  0  0  0
  4 14  1  0  0  0  0
  4  5  1  0  0  0  0
  5  6  2  0  0  0  0
  6  7  1  0  0  0  0
  7 14  2  0  0  0  0
  7  8  1  0  0  0  0
  8  9  2  0  0  0  0
  8 24  1  0  0  0  0
  9 10  1  0  0  0  0
  9 11  1  0  0  0  0
 11 12  1  0  0  0  0
 11 13  2  0  0  0  0
 13 14  1  0  0  0  0
 13 25  1  0  0  0  0
 15 16  1  0  0  0  0
 15 26  1  0  0  0  0
 15 27  1  0  0  0  0
 16 17  1  0  0  0  0
 16 18  1  0  0  0  0
 16 19  1  0  0  0  0
M  END
> <s_m_source_file>
AV-unprocessed.smi

> <i_m_source_file_index>
2576

> <i_lp_mmshare_version>
43012

> <i_f3d_flags>
0

> <s_epik_input>
RkMoRikoRilbQ0gyXVtDQEhdKFtPSF0pW0NIMl1uKG5uMSljKGMxMilbY0hdYyhDbCljKENsKVtjSF0y

> <s_epik_cmdline>
J2VwaWtfcHl0aG9uJywgJy1waCcsICc3LjAnLCAnLXRuJywgJzgnLCAnLW1hJywgJzIwMCcsICctbWV0YWxfYmluZGluZycsICctaW1hZScsICc8aW5maWxlLm1hZT4nLCAnLW9tYWUnLCAnPG91dGZpbGUubWFlPic=

> <r_lp_tautomer_probability>
1

> <r_epik_Ionization_Penalty>
1.57739e-05

> <r_epik_Ionization_Penalty_Charging>
0

> <r_epik_Ionization_Penalty_Neutral>
1.57739e-05

> <r_epik_State_Penalty>
-0

> <r_epik_Charging_Adjusted_Penalty>
0

> <i_epik_Tot_Q>
0

> <i_epik_Tot_abs_Q>
0

> <r_epik_Metal_State_Penalty>
-0

> <b_epik_Metal_Only>
0

> <s_lp_Force_Field>
OPLS_2005

> <r_lp_Energy>
8.87224

> <b_lp_Chiralities_Consistent>
1

> <s_lp_Variant>
AV-unprocessed.smi:2576-1

> <Gold.Version>
5.8.1

> <Gold.Id.Protein>
6NUR|6NUR_protein|mol2

> <Gold.PLP.Fitness>
43.4364

> <Gold.PLP.PLP>
-41.7440

> <Gold.PLP.part.hbond>
-2.9634

> <Gold.PLP.part.metal>
0.0000

> <Gold.PLP.part.buried>
-3.7567

> <Gold.PLP.part.nonpolar>
-33.9948

> <Gold.PLP.part.repulsive>
0.0000

> <Gold.PLP.ligand.clash>
0.0000

> <Gold.PLP.ligand.torsion>
1.1299

> <Gold.PLP.Chemscore.Hbond>
1.3071

> <Gold.PLP.Chemscore.CHOScore>
0.0000

> <Gold.PLP.Chemscore.Metal>
0.0000

> <Gold.Chemscore.Hbonds>
donor molecule, donor type, donor heavy atom, donor atom, acceptor molecule, acceptor atom, score
      L1  H     1    20       P1  8028  1.00
      P1  H  7997  8008       L1     6  0.30

> <Gold.PLP.Chemscore.Internal.Correction>
0.0308

> <Gold.Rescore>
     Score         DG    S(hbond)    S(metal)    S(lipo)     H(rot)  DE(clash)    DE(int)     intcor
     12.03     -15.74       0.99        0.00     107.28       2.18       0.03       3.68       ----

> <Gold.Chemscore.Fitness>
12.0267

> <Gold.Chemscore.DG>
-15.7388

> <Gold.Chemscore.ZeroCoef>
-5.4800

> <Gold.Chemscore.Hbond>
0.9851

> <Gold.Chemscore.Metal>
0.0000

> <Gold.Chemscore.Lipo>
107.2765

> <Gold.Chemscore.Internal_Hbond>
0.0000

> <Gold.Chemscore.DEClash>
0.0284

> <Gold.Chemscore.DEInternal>
3.6837

> <Gold.Chemscore.Rot>
2.1807

> <Gold.Chemscore.Internal.Correction>
   9.000000E+99

> <Gold.Chemscore.Hbonds>
donor molecule, donor type, donor heavy atom, donor atom, acceptor molecule, acceptor atom, score
      L1  H     1    20       P1  8028  0.96

> <Gold.Chemscore.Hbond.Weighted>
-3.2901

> <Gold.Chemscore.Metal.Weighted>
-0.0000

> <Gold.Chemscore.Lipo.Weighted>
-12.5513

> <Gold.Chemscore.Internal_Hbond.Weighted>
0.0000

> <Gold.Chemscore.DEClash.Weighted>
0.0284

> <Gold.Chemscore.DEInternal.Weighted>
3.6837

> <Gold.Chemscore.Rot.Weighted>
5.5826

> <Gold.Chemscore.Internal.Correction.Weighted>
   9.000000E+99

> <Gold.Protein.RotatedTorsions>
[ 6907 6896 6895 6894 ] final  -18.15 input  -60.11 | X-H torsion
[ 7974 7965 7964 7962 ] final  -69.46 input  175.53 | X-H torsion
[ 8008 7997 7996 7995 ] final  -96.89 input   59.86 | X-H torsion
[ 10167 10162 10161 10158 ] final  -43.50 input  -65.29 | X-H torsion
[ 10718 10713 10712 10709 ] final  -66.22 input   66.30 | X-H torsion
[ 10763 10752 10751 10750 ] final -130.11 input  -60.55 | X-H torsion
[ 11005 11000 10999 10996 ] final   30.69 input  -57.11 | X-H torsion

> <Gold.Protein.ActiveResidues>
 VAL166  LYS551  ARG553  GLY616  TRP617  ASP618  TYR619  PRO620  LYS621  CYS622 
 ASP623  PHE694  ASN695  SER759  ASP760  ASP761  ALA762  ILE779  LEU786  VAL792 
 PHE793  MET794  SER795  GLU796  ALA797  LYS798  CYS799  TRP800  GLU811  SER814 

> <Gold.Protein.RotatedAtoms>
  151.2825  135.0718  159.9174 H   0  0  0  0  0  0  0  0  0  0  0  0  # atno 6907 bound_to 6896
  152.5331  134.0015  159.7907 H   0  0  0  0  0  0  0  0  0  0  0  0  # atno 6908 bound_to 6896
  151.0272  133.5772  159.2695 H   0  0  0  0  0  0  0  0  0  0  0  0  # atno 6909 bound_to 6896
  145.7034  140.9107  143.0719 H   0  0  0  0  0  0  0  0  0  0  0  0  # atno 7974 bound_to 7965
  154.7804  140.0467  157.1123 H   0  0  0  0  0  0  0  0  0  0  0  0  # atno 8008 bound_to 7997
  154.9711  140.3089  155.4968 H   0  0  0  0  0  0  0  0  0  0  0  0  # atno 8009 bound_to 7997
  156.2935  140.2253  156.4804 H   0  0  0  0  0  0  0  0  0  0  0  0  # atno 8010 bound_to 7997
  140.6931  143.2979  151.3361 H   0  0  0  0  0  0  0  0  0  0  0  0  # atno 10167 bound_to 10162
  156.0625  130.4259  150.1677 H   0  0  0  0  0  0  0  0  0  0  0  0  # atno 10718 bound_to 10713
  154.8756  135.3873  154.4029 H   0  0  0  0  0  0  0  0  0  0  0  0  # atno 10763 bound_to 10752
  153.4752  135.7030  153.5975 H   0  0  0  0  0  0  0  0  0  0  0  0  # atno 10764 bound_to 10752
  153.4415  135.3855  155.2198 H   0  0  0  0  0  0  0  0  0  0  0  0  # atno 10765 bound_to 10752
  140.2918  134.2856  155.7774 H   0  0  0  0  0  0  0  0  0  0  0  0  # atno 11005 bound_to 11000
  144.6962  139.8978  143.7457 LP  0  0  0  0  0  0  0  0  0  0  0  0  # atno 17320 bound_to 7965
  146.0777  139.3765  143.0484 LP  0  0  0  0  0  0  0  0  0  0  0  0  # atno 17321 bound_to 7965
  139.6356  144.0637  152.2513 LP  0  0  0  0  0  0  0  0  0  0  0  0  # atno 17342 bound_to 10162
  140.0126  144.6212  150.7634 LP  0  0  0  0  0  0  0  0  0  0  0  0  # atno 17343 bound_to 10162
  156.9743  130.9844  151.3452 LP  0  0  0  0  0  0  0  0  0  0  0  0  # atno 17370 bound_to 10713
  157.5643  130.8267  149.8307 LP  0  0  0  0  0  0  0  0  0  0  0  0  # atno 17371 bound_to 10713
  141.2145  133.7590  156.9636 LP  0  0  0  0  0  0  0  0  0  0  0  0  # atno 17394 bound_to 11000
  140.1189  134.9430  157.2174 LP  0  0  0  0  0  0  0  0  0  0  0  0  # atno 17395 bound_to 11000

$$$$
