AV-unprocessed.smi:1662|AV-procd|sdf|6664|dock5
  -GOLD-   22720 7373D 1   1.00000     0.00000
 Structure written by MMmdl.
 47 48  0  0  0  0  0  0  0  0  1 V2000
  146.9851  136.8454  162.8330 C   0  0  0  0  0  0  0  0  0  0  0  0
  147.2595  136.0577  161.5805 C   0  0  0  0  0  0  0  0  0  0  0  0
  147.9981  136.6280  160.6861 N   0  0  0  0  0  0  0  0  0  0  0  0
  148.3049  135.9954  159.4969 N   0  0  0  0  0  0  0  0  0  0  0  0
  149.1345  136.7960  158.5851 C   0  0  0  0  0  0  0  0  0  0  0  0
  148.3151  137.8027  157.7659 C   0  0  0  0  0  0  0  0  0  0  0  0
  147.0844  137.7881  157.8083 O   0  0  0  0  0  0  0  0  0  0  0  0
  149.0194  138.6838  157.0397 N   0  0  0  0  0  0  0  0  0  0  0  0
  148.4560  139.7163  156.1725 C   0  0  1  0  0  0  0  0  0  0  0  0
  148.1146  140.9595  157.0179 C   0  0  0  0  0  0  0  0  0  0  0  0
  147.6007  142.1179  156.1519 C   0  0  0  0  0  0  0  0  0  0  0  0
  148.5979  142.4600  155.0338 C   0  0  0  0  0  0  0  0  0  0  0  0
  148.9335  141.2365  154.1566 C   0  0  2  0  0  0  0  0  0  0  0  0
  147.7571  140.8620  153.2316 C   0  0  0  0  0  0  0  0  0  0  0  0
  149.4504  140.0658  155.0354 C   0  0  2  0  0  0  0  0  0  0  0  0
  149.8602  138.8375  154.1982 C   0  0  0  0  0  0  0  0  0  0  0  0
  147.8889  134.7420  159.1537 C   0  0  0  0  0  0  0  0  0  0  0  0
  148.1936  134.2129  158.0834 O   0  0  0  0  0  0  0  0  0  0  0  0
  147.0545  134.1014  160.1726 C   0  0  0  0  0  0  0  0  0  0  0  0
  146.5937  132.7893  159.8511 C   0  0  0  0  0  0  0  0  0  0  0  0
  146.2382  131.7185  159.5926 N   0  0  0  0  0  0  0  0  0  0  0  0
  146.7402  134.7149  161.3410 C   0  0  0  0  0  0  0  0  0  0  0  0
  145.8756  134.0944  162.4301 C   0  0  0  0  0  0  0  0  0  0  0  0
  147.3483  136.3138  163.7128 H   0  0  0  0  0  0  0  0  0  0  0  0
  145.9152  137.0140  162.9567 H   0  0  0  0  0  0  0  0  0  0  0  0
  147.4719  137.8218  162.8148 H   0  0  0  0  0  0  0  0  0  0  0  0
  149.8869  137.3530  159.1461 H   0  0  0  0  0  0  0  0  0  0  0  0
  149.6954  136.1382  157.9179 H   0  0  0  0  0  0  0  0  0  0  0  0
  150.0267  138.6221  157.0718 H   0  0  0  0  0  0  0  0  0  0  0  0
  147.5378  139.3412  155.7177 H   0  0  0  0  0  0  0  0  0  0  0  0
  147.3668  140.7070  157.7708 H   0  0  0  0  0  0  0  0  0  0  0  0
  149.0007  141.2875  157.5634 H   0  0  0  0  0  0  0  0  0  0  0  0
  146.6326  141.8562  155.7242 H   0  0  0  0  0  0  0  0  0  0  0  0
  147.4303  142.9960  156.7753 H   0  0  0  0  0  0  0  0  0  0  0  0
  148.2047  143.2702  154.4190 H   0  0  0  0  0  0  0  0  0  0  0  0
  149.5160  142.8418  155.4824 H   0  0  0  0  0  0  0  0  0  0  0  0
  149.7519  141.5359  153.5003 H   0  0  0  0  0  0  0  0  0  0  0  0
  146.8955  140.4944  153.7879 H   0  0  0  0  0  0  0  0  0  0  0  0
  148.0405  140.0920  152.5145 H   0  0  0  0  0  0  0  0  0  0  0  0
  147.4284  141.7260  152.6535 H   0  0  0  0  0  0  0  0  0  0  0  0
  150.3645  140.4235  155.5126 H   0  0  0  0  0  0  0  0  0  0  0  0
  148.9920  138.3319  153.7750 H   0  0  0  0  0  0  0  0  0  0  0  0
  150.4006  138.1057  154.7990 H   0  0  0  0  0  0  0  0  0  0  0  0
  150.5159  139.1242  153.3758 H   0  0  0  0  0  0  0  0  0  0  0  0
  145.5378  133.0920  162.1687 H   0  0  0  0  0  0  0  0  0  0  0  0
  144.9879  134.7028  162.6066 H   0  0  0  0  0  0  0  0  0  0  0  0
  146.4322  134.0181  163.3646 H   0  0  0  0  0  0  0  0  0  0  0  0
  1  2  1  0  0  0  0
  1 24  1  0  0  0  0
  1 25  1  0  0  0  0
  1 26  1  0  0  0  0
  2 22  1  0  0  0  0
  2  3  2  0  0  0  0
  3  4  1  0  0  0  0
  4  5  1  0  0  0  0
  4 17  1  0  0  0  0
  5  6  1  0  0  0  0
  5 27  1  0  0  0  0
  5 28  1  0  0  0  0
  6  7  2  0  0  0  0
  6  8  1  0  0  0  0
  8  9  1  0  0  0  0
  8 29  1  0  0  0  0
  9 15  1  0  0  0  0
  9 10  1  0  0  0  0
  9 30  1  0  0  0  0
 10 11  1  0  0  0  0
 10 31  1  0  0  0  0
 10 32  1  0  0  0  0
 11 12  1  0  0  0  0
 11 33  1  0  0  0  0
 11 34  1  0  0  0  0
 12 13  1  0  0  0  0
 12 35  1  0  0  0  0
 12 36  1  0  0  0  0
 13 14  1  0  0  0  0
 13 15  1  0  0  0  0
 13 37  1  0  0  0  0
 14 38  1  0  0  0  0
 14 39  1  0  0  0  0
 14 40  1  0  0  0  0
 15 16  1  0  0  0  0
 15 41  1  0  0  0  0
 16 42  1  0  0  0  0
 16 43  1  0  0  0  0
 16 44  1  0  0  0  0
 17 18  2  0  0  0  0
 17 19  1  0  0  0  0
 19 20  1  0  0  0  0
 19 22  2  0  0  0  0
 20 21  3  0  0  0  0
 22 23  1  0  0  0  0
 23 45  1  0  0  0  0
 23 46  1  0  0  0  0
 23 47  1  0  0  0  0
M  END
> <s_m_source_file>
AV-unprocessed.smi

> <i_m_source_file_index>
1662

> <i_lp_mmshare_version>
43012

> <i_f3d_flags>
0

> <s_epik_input>
TiNDYyhjMVtDSDNdKWMoPU8pbihuYzFbQ0gzXSlbQ0gyXUMoPU8pW05IXVtDQEBIXTJbQ0gyXVtDSDJdW0NIMl1bQ0BASF0oW0NIM10pW0NASF0yW0NIM10=

> <s_epik_cmdline>
J2VwaWtfcHl0aG9uJywgJy1waCcsICc3LjAnLCAnLXRuJywgJzgnLCAnLW1hJywgJzIwMCcsICctbWV0YWxfYmluZGluZycsICctaW1hZScsICc8aW5maWxlLm1hZT4nLCAnLW9tYWUnLCAnPG91dGZpbGUubWFlPic=

> <r_lp_tautomer_probability>
1

> <r_epik_Ionization_Penalty>
1.90709e-08

> <r_epik_Ionization_Penalty_Charging>
2.37982e-11

> <r_epik_Ionization_Penalty_Neutral>
1.90471e-08

> <r_epik_State_Penalty>
-0

> <r_epik_Charging_Adjusted_Penalty>
2.37982e-11

> <i_epik_Tot_Q>
0

> <i_epik_Tot_abs_Q>
0

> <r_epik_Metal_State_Penalty>
-0

> <b_epik_Metal_Only>
0

> <s_lp_Force_Field>
OPLS_2005

> <r_lp_Energy>
29.0639

> <b_lp_Chiralities_Consistent>
1

> <s_lp_Variant>
AV-unprocessed.smi:1662-8

> <Gold.Version>
5.8.1

> <Gold.Id.Protein>
6NUR|6NUR_protein|mol2

> <Gold.PLP.Fitness>
42.9349

> <Gold.PLP.PLP>
-36.2452

> <Gold.PLP.part.hbond>
-3.0000

> <Gold.PLP.part.metal>
0.0000

> <Gold.PLP.part.buried>
-0.9259

> <Gold.PLP.part.nonpolar>
-32.7583

> <Gold.PLP.part.repulsive>
0.0386

> <Gold.PLP.ligand.clash>
0.0000

> <Gold.PLP.ligand.torsion>
0.7259

> <Gold.PLP.Chemscore.Hbond>
2.7120

> <Gold.PLP.Chemscore.CHOScore>
0.0000

> <Gold.PLP.Chemscore.Metal>
0.0000

> <Gold.Chemscore.Hbonds>
donor molecule, donor type, donor heavy atom, donor atom, acceptor molecule, acceptor atom, score
      P1  H  6931  6943       L1     3  0.39

> <Gold.PLP.Chemscore.Internal.Correction>
0.0055

> <Gold.Rescore>
     Score         DG    S(hbond)    S(metal)    S(lipo)     H(rot)  DE(clash)    DE(int)     intcor
     15.64     -16.58       1.59        0.00      81.33       1.45       0.47       0.46       ----

> <Gold.Chemscore.Fitness>
15.6434

> <Gold.Chemscore.DG>
-16.5786

> <Gold.Chemscore.ZeroCoef>
-5.4800

> <Gold.Chemscore.Hbond>
1.5855

> <Gold.Chemscore.Metal>
0.0000

> <Gold.Chemscore.Lipo>
81.3321

> <Gold.Chemscore.Internal_Hbond>
0.0000

> <Gold.Chemscore.DEClash>
0.4720

> <Gold.Chemscore.DEInternal>
0.4632

> <Gold.Chemscore.Rot>
1.4504

> <Gold.Chemscore.Internal.Correction>
   9.000000E+99

> <Gold.Chemscore.Hbonds>
donor molecule, donor type, donor heavy atom, donor atom, acceptor molecule, acceptor atom, score
      P1  H  6931  6943       L1     3  0.13

> <Gold.Chemscore.Hbond.Weighted>
-5.2957

> <Gold.Chemscore.Metal.Weighted>
-0.0000

> <Gold.Chemscore.Lipo.Weighted>
-9.5159

> <Gold.Chemscore.Internal_Hbond.Weighted>
0.0000

> <Gold.Chemscore.DEClash.Weighted>
0.4720

> <Gold.Chemscore.DEInternal.Weighted>
0.4632

> <Gold.Chemscore.Rot.Weighted>
3.7129

> <Gold.Chemscore.Internal.Correction.Weighted>
   9.000000E+99

> <Gold.Protein.RotatedTorsions>
[ 6907 6896 6895 6894 ] final   17.45 input  -60.11 | X-H torsion
[ 7974 7965 7964 7962 ] final -143.38 input  175.53 | X-H torsion
[ 8008 7997 7996 7995 ] final  -16.53 input   59.86 | X-H torsion
[ 10167 10162 10161 10158 ] final -135.95 input  -65.29 | X-H torsion
[ 10718 10713 10712 10709 ] final   26.00 input   66.30 | X-H torsion
[ 10763 10752 10751 10750 ] final   -2.82 input  -60.55 | X-H torsion
[ 11005 11000 10999 10996 ] final  -97.05 input  -57.11 | X-H torsion

> <Gold.Protein.ActiveResidues>
 VAL166  LYS551  ARG553  GLY616  TRP617  ASP618  TYR619  PRO620  LYS621  CYS622 
 ASP623  PHE694  ASN695  SER759  ASP760  ASP761  ALA762  ILE779  LEU786  VAL792 
 PHE793  MET794  SER795  GLU796  ALA797  LYS798  CYS799  TRP800  GLU811  SER814 

> <Gold.Protein.RotatedAtoms>
  151.8498  135.0561  160.0457 H   0  0  0  0  0  0  0  0  0  0  0  0  # atno 6907 bound_to 6896
  152.2745  133.5408  159.5468 H   0  0  0  0  0  0  0  0  0  0  0  0  # atno 6908 bound_to 6896
  150.7165  134.0567  159.3859 H   0  0  0  0  0  0  0  0  0  0  0  0  # atno 6909 bound_to 6896
  144.8374  140.5842  143.5475 H   0  0  0  0  0  0  0  0  0  0  0  0  # atno 7974 bound_to 7965
  154.5046  140.2167  155.9276 H   0  0  0  0  0  0  0  0  0  0  0  0  # atno 8008 bound_to 7997
  156.1478  140.3167  155.8565 H   0  0  0  0  0  0  0  0  0  0  0  0  # atno 8009 bound_to 7997
  155.3998  140.0483  157.3028 H   0  0  0  0  0  0  0  0  0  0  0  0  # atno 8010 bound_to 7997
  139.8727  143.6937  152.2638 H   0  0  0  0  0  0  0  0  0  0  0  0  # atno 10167 bound_to 10162
  157.2009  130.6889  149.6188 H   0  0  0  0  0  0  0  0  0  0  0  0  # atno 10718 bound_to 10713
  153.3631  135.6991  153.6696 H   0  0  0  0  0  0  0  0  0  0  0  0  # atno 10763 bound_to 10752
  153.5376  135.3579  155.2704 H   0  0  0  0  0  0  0  0  0  0  0  0  # atno 10764 bound_to 10752
  154.8671  135.4196  154.2893 H   0  0  0  0  0  0  0  0  0  0  0  0  # atno 10765 bound_to 10752
  141.1391  133.8143  157.0654 H   0  0  0  0  0  0  0  0  0  0  0  0  # atno 11005 bound_to 11000
  145.4766  139.1499  143.3785 LP  0  0  0  0  0  0  0  0  0  0  0  0  # atno 17320 bound_to 7965
  146.2671  140.4901  142.8829 LP  0  0  0  0  0  0  0  0  0  0  0  0  # atno 17321 bound_to 7965
  139.7269  144.7591  151.0865 LP  0  0  0  0  0  0  0  0  0  0  0  0  # atno 17342 bound_to 10162
  140.7758  143.5137  150.9621 LP  0  0  0  0  0  0  0  0  0  0  0  0  # atno 17343 bound_to 10162
  155.9700  130.4583  150.5994 LP  0  0  0  0  0  0  0  0  0  0  0  0  # atno 17370 bound_to 10713
  157.3768  131.0774  151.1511 LP  0  0  0  0  0  0  0  0  0  0  0  0  # atno 17371 bound_to 10713
  140.0545  134.9788  157.1195 LP  0  0  0  0  0  0  0  0  0  0  0  0  # atno 17394 bound_to 11000
  140.3941  134.2153  155.7165 LP  0  0  0  0  0  0  0  0  0  0  0  0  # atno 17395 bound_to 11000

$$$$
