AV-unprocessed.smi:1406|AV-procd|sdf|5721|dock3
  -GOLD-   22720 5353D 1   1.00000     0.00000
 Structure written by MMmdl.
 41 43  0  0  0  0  0  0  0  0  2 V2000
  147.2390  141.0455  153.1954 C   0  0  0  0  0  0  0  0  0  0  0  0
  147.7521  141.9077  154.3663 C   0  0  2  0  0  0  0  0  0  0  0  0
  149.0092  141.3255  155.0334 C   0  0  0  0  0  0  0  0  0  0  0  0
  149.3916  140.1839  154.7738 O   0  0  0  0  0  0  0  0  0  0  0  0
  149.6551  142.1311  155.8916 N   0  0  0  0  0  0  0  0  0  0  0  0
  150.8537  141.7613  156.6390 C   0  0  2  0  0  0  0  0  0  0  0  0
  150.6347  140.5968  157.5962 C   0  0  0  0  0  0  0  0  0  0  0  0
  151.8199  140.7136  158.5608 C   0  0  0  0  0  0  0  0  0  0  0  0
  152.2312  142.1396  158.5671 N   0  3  2  0  0  0  0  0  0  0  0  0
  152.2714  142.7542  159.9216 C   0  0  0  0  0  0  0  0  0  0  0  0
  152.2866  144.2872  159.8303 C   0  0  0  0  0  0  0  0  0  0  0  0
  151.0104  144.8235  159.1547 C   0  0  0  0  0  0  0  0  0  0  0  0
  150.3569  143.7859  158.2214 C   0  0  0  0  0  0  0  0  0  0  0  0
  151.4108  142.8661  157.5569 C   0  0  2  0  0  0  0  0  0  0  0  0
  146.7115  142.1499  155.3581 N   0  0  0  0  0  0  0  0  0  0  0  0
  145.4085  141.8628  155.3229 C   0  0  0  0  0  0  0  0  0  0  0  0
  144.7406  142.2571  156.3979 N   0  0  0  0  0  0  0  0  0  0  0  0
  145.7617  142.8260  157.1049 C   0  0  0  0  0  0  0  0  0  0  0  0
  146.9608  142.7975  156.5236 N   0  0  0  0  0  0  0  0  0  0  0  0
  148.0083  140.9180  152.4331 H   0  0  0  0  0  0  0  0  0  0  0  0
  146.3806  141.5161  152.7154 H   0  0  0  0  0  0  0  0  0  0  0  0
  146.9290  140.0521  153.5226 H   0  0  0  0  0  0  0  0  0  0  0  0
  148.0317  142.8779  153.9523 H   0  0  0  0  0  0  0  0  0  0  0  0
  149.2814  143.0557  156.0495 H   0  0  0  0  0  0  0  0  0  0  0  0
  151.6325  141.4664  155.9321 H   0  0  0  0  0  0  0  0  0  0  0  0
  149.6993  140.7270  158.1429 H   0  0  0  0  0  0  0  0  0  0  0  0
  150.5969  139.6315  157.0901 H   0  0  0  0  0  0  0  0  0  0  0  0
  151.5668  140.3347  159.5518 H   0  0  0  0  0  0  0  0  0  0  0  0
  152.6611  140.1244  158.1941 H   0  0  0  0  0  0  0  0  0  0  0  0
  151.4032  142.4411  160.5043 H   0  0  0  0  0  0  0  0  0  0  0  0
  153.1537  142.3910  160.4495 H   0  0  0  0  0  0  0  0  0  0  0  0
  152.3981  144.7295  160.8208 H   0  0  0  0  0  0  0  0  0  0  0  0
  153.1609  144.5995  159.2573 H   0  0  0  0  0  0  0  0  0  0  0  0
  150.2844  145.1251  159.9107 H   0  0  0  0  0  0  0  0  0  0  0  0
  151.2582  145.7265  158.5955 H   0  0  0  0  0  0  0  0  0  0  0  0
  149.6575  143.1758  158.7945 H   0  0  0  0  0  0  0  0  0  0  0  0
  149.7603  144.3086  157.4735 H   0  0  0  0  0  0  0  0  0  0  0  0
  152.0796  143.5021  156.9747 H   0  0  0  0  0  0  0  0  0  0  0  0
  144.9380  141.3556  154.4934 H   0  0  0  0  0  0  0  0  0  0  0  0
  145.6157  143.2792  158.0744 H   0  0  0  0  0  0  0  0  0  0  0  0
  153.1773  142.1609  158.2136 H   0  0  0  0  0  0  0  0  0  0  0  0
  1  2  1  0  0  0  0
  1 20  1  0  0  0  0
  1 21  1  0  0  0  0
  1 22  1  0  0  0  0
  2  3  1  0  0  0  0
  2 15  1  0  0  0  0
  2 23  1  0  0  0  0
  3  4  2  0  0  0  0
  3  5  1  0  0  0  0
  5  6  1  0  0  0  0
  5 24  1  0  0  0  0
  6 14  1  0  0  0  0
  6  7  1  0  0  0  0
  6 25  1  0  0  0  0
  7  8  1  0  0  0  0
  7 26  1  0  0  0  0
  7 27  1  0  0  0  0
  8  9  1  0  0  0  0
  8 28  1  0  0  0  0
  8 29  1  0  0  0  0
  9 14  1  0  0  0  0
  9 10  1  0  0  0  0
  9 41  1  0  0  0  0
 10 11  1  0  0  0  0
 10 30  1  0  0  0  0
 10 31  1  0  0  0  0
 11 12  1  0  0  0  0
 11 32  1  0  0  0  0
 11 33  1  0  0  0  0
 12 13  1  0  0  0  0
 12 34  1  0  0  0  0
 12 35  1  0  0  0  0
 13 14  1  0  0  0  0
 13 36  1  0  0  0  0
 13 37  1  0  0  0  0
 14 38  1  0  0  0  0
 15 19  1  0  0  0  0
 15 16  1  0  0  0  0
 16 17  2  0  0  0  0
 16 39  1  0  0  0  0
 17 18  1  0  0  0  0
 18 19  2  0  0  0  0
 18 40  1  0  0  0  0
M  CHG  1   9   1
M  END
> <s_m_source_file>
AV-unprocessed.smi

> <i_m_source_file_index>
1406

> <i_lp_mmshare_version>
43012

> <i_f3d_flags>
0

> <s_epik_input>
bjFbY0hdbltjSF1uMVtDQEhdKFtDSDNdKUMoPU8pW05IXVtDQEhdKFtDSDJdW0NIMl0yKVtDQEBIXShOMjMpW0NIMl1bQ0gyXVtDSDJdW0NIMl0z

> <s_epik_cmdline>
J2VwaWtfcHl0aG9uJywgJy1waCcsICc3LjAnLCAnLXRuJywgJzgnLCAnLW1hJywgJzIwMCcsICctbWV0YWxfYmluZGluZycsICctaW1hZScsICc8aW5maWxlLm1hZT4nLCAnLW9tYWUnLCAnPG91dGZpbGUubWFlPic=

> <r_lp_tautomer_probability>
1

> <r_epik_Ionization_Penalty>
0.00197066

> <r_epik_Ionization_Penalty_Charging>
0.00196223

> <r_epik_Ionization_Penalty_Neutral>
8.43107e-06

> <r_epik_State_Penalty>
0.00133866

> <r_epik_Charging_Adjusted_Penalty>
0.00330089

> <i_epik_Tot_Q>
1

> <i_epik_Tot_abs_Q>
1

> <r_epik_Metal_State_Penalty>
-0

> <b_epik_Metal_Only>
0

> <s_lp_Force_Field>
OPLS_2005

> <r_lp_Energy>
46.3739

> <b_lp_Chiralities_Consistent>
1

> <s_lp_Variant>
AV-unprocessed.smi:1406-13

> <Gold.Version>
5.8.1

> <Gold.Id.Protein>
6NUR|6NUR_protein|mol2

> <Gold.PLP.Fitness>
39.7722

> <Gold.PLP.PLP>
-34.4457

> <Gold.PLP.part.hbond>
-1.0000

> <Gold.PLP.part.metal>
0.0000

> <Gold.PLP.part.buried>
-4.7473

> <Gold.PLP.part.nonpolar>
-29.5651

> <Gold.PLP.part.repulsive>
1.2799

> <Gold.PLP.ligand.clash>
0.0000

> <Gold.PLP.ligand.torsion>
0.3428

> <Gold.PLP.Chemscore.Hbond>
0.9760

> <Gold.PLP.Chemscore.CHOScore>
0.9944

> <Gold.PLP.Chemscore.Metal>
0.0000

> <Gold.Chemscore.Hbonds>
donor molecule, donor type, donor heavy atom, donor atom, acceptor molecule, acceptor atom, score
      L1  H     5    24       P1  8028  1.00
      L1  C    16    39       P1 10175  1.00

> <Gold.PLP.Chemscore.Internal.Correction>
0.1010

> <Gold.Rescore>
     Score         DG    S(hbond)    S(metal)    S(lipo)     H(rot)  DE(clash)    DE(int)     intcor
     12.22     -14.45       0.98        0.00      89.86       1.89       0.09       2.13       ----

> <Gold.Chemscore.Fitness>
12.2187

> <Gold.Chemscore.DG>
-14.4454

> <Gold.Chemscore.ZeroCoef>
-5.4800

> <Gold.Chemscore.Hbond>
0.9823

> <Gold.Chemscore.Metal>
0.0000

> <Gold.Chemscore.Lipo>
89.8637

> <Gold.Chemscore.Internal_Hbond>
0.0000

> <Gold.Chemscore.DEClash>
0.0928

> <Gold.Chemscore.DEInternal>
2.1340

> <Gold.Chemscore.Rot>
1.8865

> <Gold.Chemscore.Internal.Correction>
   9.000000E+99

> <Gold.Chemscore.Hbonds>
donor molecule, donor type, donor heavy atom, donor atom, acceptor molecule, acceptor atom, score
      L1  H     5    24       P1  8028  0.99

> <Gold.Chemscore.Hbond.Weighted>
-3.2809

> <Gold.Chemscore.Metal.Weighted>
-0.0000

> <Gold.Chemscore.Lipo.Weighted>
-10.5141

> <Gold.Chemscore.Internal_Hbond.Weighted>
0.0000

> <Gold.Chemscore.DEClash.Weighted>
0.0928

> <Gold.Chemscore.DEInternal.Weighted>
2.1340

> <Gold.Chemscore.Rot.Weighted>
4.8295

> <Gold.Chemscore.Internal.Correction.Weighted>
   9.000000E+99

> <Gold.Protein.RotatedTorsions>
[ 6907 6896 6895 6894 ] final -128.92 input  -60.11 | X-H torsion
[ 7974 7965 7964 7962 ] final -166.84 input  175.53 | X-H torsion
[ 8008 7997 7996 7995 ] final -110.76 input   59.86 | X-H torsion
[ 10167 10162 10161 10158 ] final  179.07 input  -65.29 | X-H torsion
[ 10718 10713 10712 10709 ] final -167.14 input   66.30 | X-H torsion
[ 10763 10752 10751 10750 ] final -146.74 input  -60.55 | X-H torsion
[ 11005 11000 10999 10996 ] final -114.02 input  -57.11 | X-H torsion

> <Gold.Protein.ActiveResidues>
 VAL166  LYS551  ARG553  GLY616  TRP617  ASP618  TYR619  PRO620  LYS621  CYS622 
 ASP623  PHE694  ASN695  SER759  ASP760  ASP761  ALA762  ILE779  LEU786  VAL792 
 PHE793  MET794  SER795  GLU796  ALA797  LYS798  CYS799  TRP800  GLU811  SER814 

> <Gold.Protein.RotatedAtoms>
  150.9231  133.6857  159.2827 H   0  0  0  0  0  0  0  0  0  0  0  0  # atno 6907 bound_to 6896
  151.4304  135.1007  159.9650 H   0  0  0  0  0  0  0  0  0  0  0  0  # atno 6908 bound_to 6896
  152.4989  133.8662  159.7330 H   0  0  0  0  0  0  0  0  0  0  0  0  # atno 6909 bound_to 6896
  144.7236  140.2606  143.6265 H   0  0  0  0  0  0  0  0  0  0  0  0  # atno 7974 bound_to 7965
  154.9794  140.0396  157.2271 H   0  0  0  0  0  0  0  0  0  0  0  0  # atno 8008 bound_to 7997
  154.7728  140.2805  155.6102 H   0  0  0  0  0  0  0  0  0  0  0  0  # atno 8009 bound_to 7997
  156.2924  140.2607  156.2534 H   0  0  0  0  0  0  0  0  0  0  0  0  # atno 8010 bound_to 7997
  139.5321  144.2605  152.0711 H   0  0  0  0  0  0  0  0  0  0  0  0  # atno 10167 bound_to 10162
  156.6781  130.9111  151.3053 H   0  0  0  0  0  0  0  0  0  0  0  0  # atno 10718 bound_to 10713
  154.8321  135.3378  154.6709 H   0  0  0  0  0  0  0  0  0  0  0  0  # atno 10763 bound_to 10752
  153.7328  135.6951  153.4990 H   0  0  0  0  0  0  0  0  0  0  0  0  # atno 10764 bound_to 10752
  153.2300  135.4420  155.0536 H   0  0  0  0  0  0  0  0  0  0  0  0  # atno 10765 bound_to 10752
  141.0578  133.9584  157.2722 H   0  0  0  0  0  0  0  0  0  0  0  0  # atno 11005 bound_to 11000
  145.8139  139.2015  143.1977 LP  0  0  0  0  0  0  0  0  0  0  0  0  # atno 17320 bound_to 7965
  146.0572  140.8008  142.9752 LP  0  0  0  0  0  0  0  0  0  0  0  0  # atno 17321 bound_to 7965
  140.2070  144.4601  150.6404 LP  0  0  0  0  0  0  0  0  0  0  0  0  # atno 17342 bound_to 10162
  140.6505  143.2224  151.6088 LP  0  0  0  0  0  0  0  0  0  0  0  0  # atno 17343 bound_to 10162
  157.7053  130.9378  150.0913 LP  0  0  0  0  0  0  0  0  0  0  0  0  # atno 17370 bound_to 10713
  156.1888  130.3653  149.8937 LP  0  0  0  0  0  0  0  0  0  0  0  0  # atno 17371 bound_to 10713
  139.9405  135.0191  156.8694 LP  0  0  0  0  0  0  0  0  0  0  0  0  # atno 17394 bound_to 11000
  140.5929  134.0244  155.7507 LP  0  0  0  0  0  0  0  0  0  0  0  0  # atno 17395 bound_to 11000

$$$$
