AV-unprocessed.smi:1897|AV-procd|sdf|7695|dock3
  -GOLD-   22720 9433D 1   1.00000     0.00000
 Structure written by MMmdl.
 38 40  0  0  0  0  0  0  0  0  3 V2000
  151.7918  145.6121  159.8193 C   0  0  0  0  0  0  0  0  0  0  0  0
  151.7755  144.2333  159.2539 C   0  0  0  0  0  0  0  0  0  0  0  0
  151.3410  143.9643  158.0204 N   0  0  0  0  0  0  0  0  0  0  0  0
  151.4231  142.6125  157.7204 N   0  0  0  0  0  0  0  0  0  0  0  0
  151.9318  141.8815  158.7228 C   0  0  0  0  0  0  0  0  0  0  0  0
  152.1232  140.5520  158.6259 N   0  5  0  0  0  0  0  0  0  0  0  0
  152.1667  139.9103  157.4291 C   0  0  0  0  0  0  0  0  0  0  0  0
  153.0323  139.0905  157.1259 O   0  0  0  0  0  0  0  0  0  0  0  0
  151.2004  140.1964  156.5377 N   0  0  0  0  0  0  0  0  0  0  0  0
  151.0546  139.6380  155.1984 C   0  0  1  0  0  0  0  0  0  0  0  0
  150.8997  138.1016  155.1826 C   0  0  0  0  0  0  0  0  0  0  0  0
  149.7177  137.8307  154.2462 C   0  0  0  0  0  0  0  0  0  0  0  0
  148.8798  139.0246  154.4108 N   0  3  2  0  0  0  0  0  0  0  0  0
  147.7714  139.2380  153.4572 C   0  0  0  0  0  0  0  0  0  0  0  0
  146.9507  140.4616  153.9183 C   0  0  0  0  0  0  0  0  0  0  0  0
  147.8366  141.7070  154.1462 C   0  0  0  0  0  0  0  0  0  0  0  0
  149.0392  141.3878  155.0586 C   0  0  0  0  0  0  0  0  0  0  0  0
  149.7961  140.1747  154.4850 C   0  0  1  0  0  0  0  0  0  0  0  0
  152.3323  142.8321  160.1528 S   0  0  0  0  0  0  0  0  0  0  0  0
  152.6071  146.1858  159.3785 H   0  0  0  0  0  0  0  0  0  0  0  0
  151.9322  145.5771  160.8999 H   0  0  0  0  0  0  0  0  0  0  0  0
  150.8498  146.1181  159.6066 H   0  0  0  0  0  0  0  0  0  0  0  0
  150.5050  140.8703  156.8224 H   0  0  0  0  0  0  0  0  0  0  0  0
  151.9302  139.9250  154.6128 H   0  0  0  0  0  0  0  0  0  0  0  0
  151.8087  137.5939  154.8592 H   0  0  0  0  0  0  0  0  0  0  0  0
  150.6585  137.7338  156.1814 H   0  0  0  0  0  0  0  0  0  0  0  0
  150.0576  137.7588  153.2119 H   0  0  0  0  0  0  0  0  0  0  0  0
  149.1806  136.9162  154.4997 H   0  0  0  0  0  0  0  0  0  0  0  0
  148.1660  139.3919  152.4517 H   0  0  0  0  0  0  0  0  0  0  0  0
  147.1384  138.3507  153.4251 H   0  0  0  0  0  0  0  0  0  0  0  0
  146.1715  140.6850  153.1891 H   0  0  0  0  0  0  0  0  0  0  0  0
  146.4373  140.2165  154.8491 H   0  0  0  0  0  0  0  0  0  0  0  0
  148.2002  142.0707  153.1843 H   0  0  0  0  0  0  0  0  0  0  0  0
  147.2444  142.5156  154.5763 H   0  0  0  0  0  0  0  0  0  0  0  0
  149.6996  142.2532  155.1255 H   0  0  0  0  0  0  0  0  0  0  0  0
  148.6887  141.1778  156.0704 H   0  0  0  0  0  0  0  0  0  0  0  0
  150.0988  140.4172  153.4639 H   0  0  0  0  0  0  0  0  0  0  0  0
  148.4640  138.9398  155.3273 H   0  0  0  0  0  0  0  0  0  0  0  0
  1  2  1  0  0  0  0
  1 20  1  0  0  0  0
  1 21  1  0  0  0  0
  1 22  1  0  0  0  0
  2 19  1  0  0  0  0
  2  3  2  0  0  0  0
  3  4  1  0  0  0  0
  4  5  2  0  0  0  0
  5  6  1  0  0  0  0
  5 19  1  0  0  0  0
  6  7  1  0  0  0  0
  7  8  2  0  0  0  0
  7  9  1  0  0  0  0
  9 10  1  0  0  0  0
  9 23  1  0  0  0  0
 10 18  1  0  0  0  0
 10 11  1  0  0  0  0
 10 24  1  0  0  0  0
 11 12  1  0  0  0  0
 11 25  1  0  0  0  0
 11 26  1  0  0  0  0
 12 13  1  0  0  0  0
 12 27  1  0  0  0  0
 12 28  1  0  0  0  0
 13 18  1  0  0  0  0
 13 14  1  0  0  0  0
 13 38  1  0  0  0  0
 14 15  1  0  0  0  0
 14 29  1  0  0  0  0
 14 30  1  0  0  0  0
 15 16  1  0  0  0  0
 15 31  1  0  0  0  0
 15 32  1  0  0  0  0
 16 17  1  0  0  0  0
 16 33  1  0  0  0  0
 16 34  1  0  0  0  0
 17 18  1  0  0  0  0
 17 35  1  0  0  0  0
 17 36  1  0  0  0  0
 18 37  1  0  0  0  0
M  CHG  1   6  -1
M  CHG  1  13   1
M  END
> <s_m_source_file>
AV-unprocessed.smi

> <i_m_source_file_index>
1897

> <i_lp_mmshare_version>
43012

> <i_f3d_flags>
0

> <s_epik_input>
W0NIM11jMW5uYyhzMSlbTkhdQyg9TylbTkhdW0NASF0oW0NIMl1bQ0gyXTIpW0NAQEhdKE4yMylbQ0gyXVtDSDJdW0NIMl1bQ0gyXTM=

> <s_epik_cmdline>
J2VwaWtfcHl0aG9uJywgJy1waCcsICc3LjAnLCAnLXRuJywgJzgnLCAnLW1hJywgJzIwMCcsICctbWV0YWxfYmluZGluZycsICctaW1hZScsICc8aW5maWxlLm1hZT4nLCAnLW9tYWUnLCAnPG91dGZpbGUubWFlPic=

> <r_lp_tautomer_probability>
1

> <r_epik_Ionization_Penalty>
3.77712

> <r_epik_Ionization_Penalty_Charging>
3.67739

> <r_epik_Ionization_Penalty_Neutral>
0.0997294

> <r_epik_State_Penalty>
3.67514

> <r_epik_Charging_Adjusted_Penalty>
7.35254

> <i_epik_Tot_Q>
0

> <i_epik_Tot_abs_Q>
2

> <r_epik_Metal_State_Penalty>
0.540795

> <b_epik_Metal_Only>
1

> <s_lp_Force_Field>
OPLS_2005

> <r_lp_Energy>
34.5765

> <b_lp_Chiralities_Consistent>
1

> <s_lp_Variant>
AV-unprocessed.smi:1897-12

> <Gold.Version>
5.8.1

> <Gold.Id.Protein>
6NUR|6NUR_protein|mol2

> <Gold.PLP.Fitness>
37.2278

> <Gold.PLP.PLP>
-35.1803

> <Gold.PLP.part.hbond>
-1.0000

> <Gold.PLP.part.metal>
0.0000

> <Gold.PLP.part.buried>
-0.6882

> <Gold.PLP.part.nonpolar>
-33.4175

> <Gold.PLP.part.repulsive>
0.3216

> <Gold.PLP.ligand.clash>
0.0000

> <Gold.PLP.ligand.torsion>
0.4810

> <Gold.PLP.Chemscore.Hbond>
1.0000

> <Gold.PLP.Chemscore.CHOScore>
0.0000

> <Gold.PLP.Chemscore.Metal>
0.0000

> <Gold.Chemscore.Hbonds>
donor molecule, donor type, donor heavy atom, donor atom, acceptor molecule, acceptor atom, score
      P1  H  7997  8008       L1     8  1.00

> <Gold.PLP.Chemscore.Internal.Correction>
0.0095

> <Gold.Rescore>
     Score         DG    S(hbond)    S(metal)    S(lipo)     H(rot)  DE(clash)    DE(int)     intcor
     15.38     -16.01       0.91        0.00      85.90       1.00       0.10       0.52       ----

> <Gold.Chemscore.Fitness>
15.3819

> <Gold.Chemscore.DG>
-16.0080

> <Gold.Chemscore.ZeroCoef>
-5.4800

> <Gold.Chemscore.Hbond>
0.9096

> <Gold.Chemscore.Metal>
0.0000

> <Gold.Chemscore.Lipo>
85.8979

> <Gold.Chemscore.Internal_Hbond>
0.0000

> <Gold.Chemscore.DEClash>
0.1014

> <Gold.Chemscore.DEInternal>
0.5248

> <Gold.Chemscore.Rot>
1.0000

> <Gold.Chemscore.Internal.Correction>
   9.000000E+99

> <Gold.Chemscore.Hbonds>
donor molecule, donor type, donor heavy atom, donor atom, acceptor molecule, acceptor atom, score
      P1  H  7997  8008       L1     8  0.42

> <Gold.Chemscore.Hbond.Weighted>
-3.0380

> <Gold.Chemscore.Metal.Weighted>
-0.0000

> <Gold.Chemscore.Lipo.Weighted>
-10.0501

> <Gold.Chemscore.Internal_Hbond.Weighted>
0.0000

> <Gold.Chemscore.DEClash.Weighted>
0.1014

> <Gold.Chemscore.DEInternal.Weighted>
0.5248

> <Gold.Chemscore.Rot.Weighted>
2.5600

> <Gold.Chemscore.Internal.Correction.Weighted>
   9.000000E+99

> <Gold.Protein.RotatedTorsions>
[ 6907 6896 6895 6894 ] final  -28.90 input  -60.11 | X-H torsion
[ 7974 7965 7964 7962 ] final -133.54 input  175.53 | X-H torsion
[ 8008 7997 7996 7995 ] final  -44.90 input   59.86 | X-H torsion
[ 10167 10162 10161 10158 ] final -139.78 input  -65.29 | X-H torsion
[ 10718 10713 10712 10709 ] final   39.83 input   66.30 | X-H torsion
[ 10763 10752 10751 10750 ] final  176.24 input  -60.55 | X-H torsion
[ 11005 11000 10999 10996 ] final   72.41 input  -57.11 | X-H torsion

> <Gold.Protein.ActiveResidues>
 VAL166  LYS551  ARG553  GLY616  TRP617  ASP618  TYR619  PRO620  LYS621  CYS622 
 ASP623  PHE694  ASN695  SER759  ASP760  ASP761  ALA762  ILE779  LEU786  VAL792 
 PHE793  MET794  SER795  GLU796  ALA797  LYS798  CYS799  TRP800  GLU811  SER814 

> <Gold.Protein.RotatedAtoms>
  151.1266  135.0108  159.8562 H   0  0  0  0  0  0  0  0  0  0  0  0  # atno 6907 bound_to 6896
  152.5449  134.1660  159.8587 H   0  0  0  0  0  0  0  0  0  0  0  0  # atno 6908 bound_to 6896
  151.1722  133.4732  159.2627 H   0  0  0  0  0  0  0  0  0  0  0  0  # atno 6909 bound_to 6896
  144.9184  140.6983  143.4981 H   0  0  0  0  0  0  0  0  0  0  0  0  # atno 7974 bound_to 7965
  154.3999  140.1410  156.3758 H   0  0  0  0  0  0  0  0  0  0  0  0  # atno 8008 bound_to 7997
  155.8050  140.3474  155.5403 H   0  0  0  0  0  0  0  0  0  0  0  0  # atno 8009 bound_to 7997
  155.8445  140.0932  157.1704 H   0  0  0  0  0  0  0  0  0  0  0  0  # atno 8010 bound_to 7997
  139.8346  143.7402  152.2665 H   0  0  0  0  0  0  0  0  0  0  0  0  # atno 10167 bound_to 10162
  157.3751  130.7723  149.7149 H   0  0  0  0  0  0  0  0  0  0  0  0  # atno 10718 bound_to 10713
  154.4784  135.2774  155.1589 H   0  0  0  0  0  0  0  0  0  0  0  0  # atno 10763 bound_to 10752
  154.3309  135.6190  153.5554 H   0  0  0  0  0  0  0  0  0  0  0  0  # atno 10764 bound_to 10752
  152.9872  135.5765  154.5180 H   0  0  0  0  0  0  0  0  0  0  0  0  # atno 10765 bound_to 10752
  139.9492  134.7257  156.0904 H   0  0  0  0  0  0  0  0  0  0  0  0  # atno 11005 bound_to 11000
  145.3337  139.1752  143.4523 LP  0  0  0  0  0  0  0  0  0  0  0  0  # atno 17320 bound_to 7965
  146.3193  140.3370  142.8645 LP  0  0  0  0  0  0  0  0  0  0  0  0  # atno 17321 bound_to 7965
  139.7620  144.7503  151.0350 LP  0  0  0  0  0  0  0  0  0  0  0  0  # atno 17342 bound_to 10162
  140.7804  143.4740  151.0107 LP  0  0  0  0  0  0  0  0  0  0  0  0  # atno 17343 bound_to 10162
  155.9763  130.4076  150.3785 LP  0  0  0  0  0  0  0  0  0  0  0  0  # atno 17370 bound_to 10713
  157.1881  131.0408  151.2714 LP  0  0  0  0  0  0  0  0  0  0  0  0  # atno 17371 bound_to 10713
  141.1151  133.6630  156.3073 LP  0  0  0  0  0  0  0  0  0  0  0  0  # atno 17394 bound_to 11000
  140.5760  134.5793  157.5468 LP  0  0  0  0  0  0  0  0  0  0  0  0  # atno 17395 bound_to 11000

$$$$
