AV-unprocessed.smi:861|AV-procd|sdf|3969|dock1
  -GOLD-   22720 1443D 1   1.00000     0.00000
 Structure written by MMmdl.
 44 45  0  0  0  0  0  0  0  0  2 V2000
  143.8470  133.2886  151.6789 C   0  0  0  0  0  0  0  0  0  0  0  0
  144.7199  132.5756  150.6315 C   0  0  0  0  0  0  0  0  0  0  0  0
  144.0255  132.5952  149.2606 C   0  0  0  0  0  0  0  0  0  0  0  0
  145.0771  131.1316  151.0430 C   0  0  0  0  0  0  0  0  0  0  0  0
  145.9075  131.0373  152.3387 C   0  0  0  0  0  0  0  0  0  0  0  0
  147.0643  130.1148  152.2119 N   0  3  2  0  0  0  0  0  0  0  0  0
  146.6524  128.7536  151.7935 C   0  0  0  0  0  0  0  0  0  0  0  0
  147.8816  127.8472  151.6216 C   0  0  0  0  0  0  0  0  0  0  0  0
  148.6224  127.8194  152.8345 O   0  0  0  0  0  0  0  0  0  0  0  0
  149.1147  129.1060  153.1951 C   0  0  2  0  0  0  0  0  0  0  0  0
  149.9740  128.9571  154.4583 C   0  0  0  0  0  0  0  0  0  0  0  0
  151.3719  128.7121  154.1309 N   0  0  0  0  0  0  0  0  0  0  0  0
  152.3960  129.3607  154.8338 C   0  0  0  0  0  0  0  0  0  0  0  0
  153.7258  129.2131  154.3918 C   0  0  0  0  0  0  0  0  0  0  0  0
  154.7310  129.8801  155.1133 C   0  0  0  0  0  0  0  0  0  0  0  0
  154.3290  130.6448  156.2237 C   0  0  0  0  0  0  0  0  0  0  0  0
  153.0358  130.7513  156.6043 N   0  0  0  0  0  0  0  0  0  0  0  0
  152.0803  130.1158  155.9163 N   0  0  0  0  0  0  0  0  0  0  0  0
  147.9132  130.0434  153.4277 C   0  0  0  0  0  0  0  0  0  0  0  0
  142.9162  132.7477  151.8537 H   0  0  0  0  0  0  0  0  0  0  0  0
  143.5862  134.2949  151.3498 H   0  0  0  0  0  0  0  0  0  0  0  0
  144.3584  133.3905  152.6354 H   0  0  0  0  0  0  0  0  0  0  0  0
  145.6483  133.1387  150.5284 H   0  0  0  0  0  0  0  0  0  0  0  0
  143.0868  132.0406  149.2835 H   0  0  0  0  0  0  0  0  0  0  0  0
  144.6570  132.1503  148.4910 H   0  0  0  0  0  0  0  0  0  0  0  0
  143.8013  133.6156  148.9477 H   0  0  0  0  0  0  0  0  0  0  0  0
  144.1630  130.5450  151.1450 H   0  0  0  0  0  0  0  0  0  0  0  0
  145.6382  130.6754  150.2280 H   0  0  0  0  0  0  0  0  0  0  0  0
  146.2515  132.0246  152.6508 H   0  0  0  0  0  0  0  0  0  0  0  0
  145.2665  130.6672  153.1384 H   0  0  0  0  0  0  0  0  0  0  0  0
  145.9780  128.3304  152.5399 H   0  0  0  0  0  0  0  0  0  0  0  0
  146.1012  128.8028  150.8537 H   0  0  0  0  0  0  0  0  0  0  0  0
  147.5691  126.8323  151.3744 H   0  0  0  0  0  0  0  0  0  0  0  0
  148.5127  128.1948  150.8021 H   0  0  0  0  0  0  0  0  0  0  0  0
  149.7328  129.5050  152.3882 H   0  0  0  0  0  0  0  0  0  0  0  0
  149.9140  129.8731  155.0476 H   0  0  0  0  0  0  0  0  0  0  0  0
  149.5935  128.1470  155.0819 H   0  0  0  0  0  0  0  0  0  0  0  0
  151.6009  128.0073  153.4451 H   0  0  0  0  0  0  0  0  0  0  0  0
  153.9698  128.6110  153.5289 H   0  0  0  0  0  0  0  0  0  0  0  0
  155.7697  129.8092  154.8269 H   0  0  0  0  0  0  0  0  0  0  0  0
  155.0553  131.1807  156.8169 H   0  0  0  0  0  0  0  0  0  0  0  0
  148.2821  131.0339  153.6911 H   0  0  0  0  0  0  0  0  0  0  0  0
  147.3162  129.6901  154.2705 H   0  0  0  0  0  0  0  0  0  0  0  0
  147.6429  130.4771  151.4674 H   0  0  0  0  0  0  0  0  0  0  0  0
  1  2  1  0  0  0  0
  1 20  1  0  0  0  0
  1 21  1  0  0  0  0
  1 22  1  0  0  0  0
  2  3  1  0  0  0  0
  2  4  1  0  0  0  0
  2 23  1  0  0  0  0
  3 24  1  0  0  0  0
  3 25  1  0  0  0  0
  3 26  1  0  0  0  0
  4  5  1  0  0  0  0
  4 27  1  0  0  0  0
  4 28  1  0  0  0  0
  5  6  1  0  0  0  0
  5 29  1  0  0  0  0
  5 30  1  0  0  0  0
  6 19  1  0  0  0  0
  6  7  1  0  0  0  0
  6 44  1  0  0  0  0
  7  8  1  0  0  0  0
  7 31  1  0  0  0  0
  7 32  1  0  0  0  0
  8  9  1  0  0  0  0
  8 33  1  0  0  0  0
  8 34  1  0  0  0  0
  9 10  1  0  0  0  0
 10 11  1  0  0  0  0
 10 19  1  0  0  0  0
 10 35  1  0  0  0  0
 11 12  1  0  0  0  0
 11 36  1  0  0  0  0
 11 37  1  0  0  0  0
 12 13  1  0  0  0  0
 12 38  1  0  0  0  0
 13 18  1  0  0  0  0
 13 14  2  0  0  0  0
 14 15  1  0  0  0  0
 14 39  1  0  0  0  0
 15 16  2  0  0  0  0
 15 40  1  0  0  0  0
 16 17  1  0  0  0  0
 16 41  1  0  0  0  0
 17 18  2  0  0  0  0
 19 42  1  0  0  0  0
 19 43  1  0  0  0  0
M  CHG  1   6   1
M  END
> <s_m_source_file>
AV-unprocessed.smi

> <i_m_source_file_index>
861

> <i_lp_mmshare_version>
43012

> <i_f3d_flags>
0

> <s_epik_input>
W0NIM11bQ0hdKFtDSDNdKVtDSDJdW0NIMl1OMVtDSDJdW0NIMl1PW0NASF0oW0NIMl0xKVtDSDJdW05IXWMyW2NIXVtjSF1bY0hdbm4y

> <s_epik_cmdline>
J2VwaWtfcHl0aG9uJywgJy1waCcsICc3LjAnLCAnLXRuJywgJzgnLCAnLW1hJywgJzIwMCcsICctbWV0YWxfYmluZGluZycsICctaW1hZScsICc8aW5maWxlLm1hZT4nLCAnLW9tYWUnLCAnPG91dGZpbGUubWFlPic=

> <r_lp_tautomer_probability>
0.999978

> <r_epik_Ionization_Penalty>
0.114704

> <r_epik_Ionization_Penalty_Charging>
0.0953451

> <r_epik_Ionization_Penalty_Neutral>
0.0193593

> <r_epik_State_Penalty>
0.104983

> <r_epik_Charging_Adjusted_Penalty>
0.200328

> <i_epik_Tot_Q>
1

> <i_epik_Tot_abs_Q>
1

> <r_epik_Metal_State_Penalty>
0.100113

> <b_epik_Metal_Only>
0

> <s_lp_Force_Field>
OPLS_2005

> <r_lp_Energy>
25.0457

> <b_lp_Chiralities_Consistent>
1

> <s_lp_Variant>
AV-unprocessed.smi:861-4

> <Gold.Version>
5.8.1

> <Gold.Id.Protein>
6NUR|6NUR_protein|mol2

> <Gold.PLP.Fitness>
43.9938

> <Gold.PLP.PLP>
-39.5807

> <Gold.PLP.part.hbond>
-2.0000

> <Gold.PLP.part.metal>
0.0000

> <Gold.PLP.part.buried>
-7.0068

> <Gold.PLP.part.nonpolar>
-31.1542

> <Gold.PLP.part.repulsive>
0.2148

> <Gold.PLP.ligand.clash>
0.0000

> <Gold.PLP.ligand.torsion>
0.8509

> <Gold.PLP.Chemscore.Hbond>
1.9920

> <Gold.PLP.Chemscore.CHOScore>
0.0000

> <Gold.PLP.Chemscore.Metal>
0.0000

> <Gold.Chemscore.Hbonds>
donor molecule, donor type, donor heavy atom, donor atom, acceptor molecule, acceptor atom, score
      L1  H     6    44       P1 10747  1.00
      L1  H    12    38       P1 10737  0.90

> <Gold.PLP.Chemscore.Internal.Correction>
0.1389

> <Gold.Rescore>
     Score         DG    S(hbond)    S(metal)    S(lipo)     H(rot)  DE(clash)    DE(int)     intcor
     17.94     -19.11       1.94        0.00      98.60       1.71       0.22       0.95       ----

> <Gold.Chemscore.Fitness>
17.9365

> <Gold.Chemscore.DG>
-19.1066

> <Gold.Chemscore.ZeroCoef>
-5.4800

> <Gold.Chemscore.Hbond>
1.9386

> <Gold.Chemscore.Metal>
0.0000

> <Gold.Chemscore.Lipo>
98.5984

> <Gold.Chemscore.Internal_Hbond>
0.0000

> <Gold.Chemscore.DEClash>
0.2218

> <Gold.Chemscore.DEInternal>
0.9483

> <Gold.Chemscore.Rot>
1.7127

> <Gold.Chemscore.Internal.Correction>
   9.000000E+99

> <Gold.Chemscore.Hbonds>
donor molecule, donor type, donor heavy atom, donor atom, acceptor molecule, acceptor atom, score
      L1  H     6    44       P1 10747  1.00
      L1  H    12    38       P1 10737  0.86

> <Gold.Chemscore.Hbond.Weighted>
-6.4750

> <Gold.Chemscore.Metal.Weighted>
-0.0000

> <Gold.Chemscore.Lipo.Weighted>
-11.5360

> <Gold.Chemscore.Internal_Hbond.Weighted>
0.0000

> <Gold.Chemscore.DEClash.Weighted>
0.2218

> <Gold.Chemscore.DEInternal.Weighted>
0.9483

> <Gold.Chemscore.Rot.Weighted>
4.3844

> <Gold.Chemscore.Internal.Correction.Weighted>
   9.000000E+99

> <Gold.Protein.RotatedTorsions>
[ 6907 6896 6895 6894 ] final  -58.77 input  -60.11 | X-H torsion
[ 7974 7965 7964 7962 ] final  -86.97 input  175.53 | X-H torsion
[ 8008 7997 7996 7995 ] final  170.04 input   59.86 | X-H torsion
[ 10167 10162 10161 10158 ] final -112.22 input  -65.29 | X-H torsion
[ 10718 10713 10712 10709 ] final   75.00 input   66.30 | X-H torsion
[ 10763 10752 10751 10750 ] final  -32.44 input  -60.55 | X-H torsion
[ 11005 11000 10999 10996 ] final -135.69 input  -57.11 | X-H torsion

> <Gold.Protein.ActiveResidues>
 VAL166  LYS551  ARG553  GLY616  TRP617  ASP618  TYR619  PRO620  LYS621  CYS622 
 ASP623  PHE694  ASN695  SER759  ASP760  ASP761  ALA762  ILE779  LEU786  VAL792 
 PHE793  MET794  SER795  GLU796  ALA797  LYS798  CYS799  TRP800  GLU811  SER814 

> <Gold.Protein.RotatedAtoms>
  150.7981  134.7055  159.6573 H   0  0  0  0  0  0  0  0  0  0  0  0  # atno 6907 bound_to 6896
  152.4095  134.6145  160.0044 H   0  0  0  0  0  0  0  0  0  0  0  0  # atno 6908 bound_to 6896
  151.6392  133.3290  159.3162 H   0  0  0  0  0  0  0  0  0  0  0  0  # atno 6909 bound_to 6896
  145.4727  140.9559  143.1908 H   0  0  0  0  0  0  0  0  0  0  0  0  # atno 7974 bound_to 7965
  156.1402  140.1548  156.8932 H   0  0  0  0  0  0  0  0  0  0  0  0  # atno 8008 bound_to 7997
  154.4981  140.0833  156.7778 H   0  0  0  0  0  0  0  0  0  0  0  0  # atno 8009 bound_to 7997
  155.4093  140.3418  155.4265 H   0  0  0  0  0  0  0  0  0  0  0  0  # atno 8010 bound_to 7997
  140.1251  143.4409  152.1665 H   0  0  0  0  0  0  0  0  0  0  0  0  # atno 10167 bound_to 10162
  157.6616  130.9705  150.1292 H   0  0  0  0  0  0  0  0  0  0  0  0  # atno 10718 bound_to 10713
  153.8138  135.6880  153.4837 H   0  0  0  0  0  0  0  0  0  0  0  0  # atno 10763 bound_to 10752
  153.1612  135.4579  154.9772 H   0  0  0  0  0  0  0  0  0  0  0  0  # atno 10764 bound_to 10752
  154.7956  135.3318  154.7616 H   0  0  0  0  0  0  0  0  0  0  0  0  # atno 10765 bound_to 10752
  140.8874  134.1854  157.4550 H   0  0  0  0  0  0  0  0  0  0  0  0  # atno 11005 bound_to 11000
  144.7935  139.6280  143.7103 LP  0  0  0  0  0  0  0  0  0  0  0  0  # atno 17320 bound_to 7965
  146.2387  139.5957  142.9506 LP  0  0  0  0  0  0  0  0  0  0  0  0  # atno 17321 bound_to 7965
  139.5548  144.7365  151.4325 LP  0  0  0  0  0  0  0  0  0  0  0  0  # atno 17342 bound_to 10162
  140.6850  143.7995  150.7173 LP  0  0  0  0  0  0  0  0  0  0  0  0  # atno 17343 bound_to 10162
  156.2143  130.3669  149.8632 LP  0  0  0  0  0  0  0  0  0  0  0  0  # atno 17370 bound_to 10713
  156.6503  130.8741  151.3530 LP  0  0  0  0  0  0  0  0  0  0  0  0  # atno 17371 bound_to 10713
  139.8726  134.9844  156.5237 LP  0  0  0  0  0  0  0  0  0  0  0  0  # atno 17394 bound_to 11000
  140.8388  133.8221  155.9054 LP  0  0  0  0  0  0  0  0  0  0  0  0  # atno 17395 bound_to 11000

$$$$
