#       Name:                AV-unprocessed.smi:2953
#       Creating user name   scv26
#       Creation time:       Fri Mar 27 16:18:56 2020


#       File generated by GOLD software.
#

@<TRIPOS>MOLECULE
AV-unprocessed.smi:2953
    50    52     1
SMALL
NO_CHARGES


@<TRIPOS>ATOM
      1 ****        -2.8933  -6.8920  -2.6870 C.3            1 S1                 0.0000
      2 ****        -3.5239  -5.9706  -3.7144 C.ar           1 S1                 0.0000
      3 ****        -4.9064  -6.0665  -3.9787 C.ar           1 S1                 0.0000
      4 ****        -5.5071  -5.2221  -4.9294 C.ar           1 S1                 0.0000
      5 ****        -4.7258  -4.2784  -5.6193 C.ar           1 S1                 0.0000
      6 ****        -3.3458  -4.1786  -5.3598 C.ar           1 S1                 0.0000
      7 ****        -2.7283  -5.0256  -4.4037 C.ar           1 S1                 0.0000
      8 ****        -1.3823  -4.9854  -4.1015 O.3            1 S1                 0.0000
      9 ****        -0.5640  -4.0456  -4.7819 C.3            1 S1                 0.0000
     10 ****         0.8768  -4.2064  -4.2831 C.3            1 S1                 0.0000
     11 ****         1.7881  -3.2543  -4.9314 N.pl3          1 S1                 0.0000
     12 ****         2.2255  -2.0286  -4.5203 C.2            1 S1                 0.0000
     13 ****         1.8813  -1.3475  -3.2250 C.3            1 S1                 0.0000
     14 ****         2.0706   0.1800  -3.2920 C.3            1 S1                 0.0000
     15 ****         2.5932  -1.9243  -2.0867 N.am           1 S1                 0.0000
     16 ****         3.9251  -1.9861  -1.9514 C.2            1 S1                 0.0000
     17 ****         4.7064  -1.5536  -2.7941 O.2            1 S1                 0.0000
     18 ****         3.0719  -1.5638  -5.4852 N.pl3          1 S1                 1.0000
     19 ****         3.1588  -2.4879  -6.5268 C.ar           1 S1                 0.0000
     20 ****         3.8790  -2.4560  -7.7170 C.ar           1 S1                 0.0000
     21 ****         3.7437  -3.5725  -8.5683 C.ar           1 S1                 0.0000
     22 ****         2.9179  -4.6625  -8.2242 C.ar           1 S1                 0.0000
     23 ****         2.1937  -4.6838  -7.0139 C.ar           1 S1                 0.0000
     24 ****         2.3344  -3.5765  -6.1781 C.ar           1 S1                 0.0000
     25 ****        -3.6472  -7.4745  -2.1572 H              1 S1                 0.0000
     26 ****        -2.3342  -6.3157  -1.9495 H              1 S1                 0.0000
     27 ****        -2.2077  -7.5858  -3.1738 H              1 S1                 0.0000
     28 ****        -5.5126  -6.7898  -3.4529 H              1 S1                 0.0000
     29 ****        -6.5656  -5.2987  -5.1296 H              1 S1                 0.0000
     30 ****        -5.1857  -3.6296  -6.3501 H              1 S1                 0.0000
     31 ****        -2.7822  -3.4419  -5.9112 H              1 S1                 0.0000
     32 ****        -0.6055  -4.2186  -5.8585 H              1 S1                 0.0000
     33 ****        -0.9109  -3.0299  -4.5840 H              1 S1                 0.0000
     34 ****         0.9233  -4.0392  -3.2068 H              1 S1                 0.0000
     35 ****         1.2427  -5.2195  -4.4533 H              1 S1                 0.0000
     36 ****         0.8223  -1.5305  -3.0394 H              1 S1                 0.0000
     37 ****         1.4593   0.6144  -4.0837 H              1 S1                 0.0000
     38 ****         3.1078   0.4561  -3.4844 H              1 S1                 0.0000
     39 ****         1.7731   0.6513  -2.3546 H              1 S1                 0.0000
     40 ****         2.0276  -2.3212  -1.3500 H              1 S1                 0.0000
     41 ****         4.2218  -2.4667  -1.0060 H              1 S1                 0.0000
     42 ****         4.5120  -1.6221  -7.9829 H              1 S1                 0.0000
     43 ****         4.2840  -3.5930  -9.5036 H              1 S1                 0.0000
     44 ****         2.8383  -5.5001  -8.9020 H              1 S1                 0.0000
     45 ****         1.5633  -5.5233  -6.7597 H              1 S1                 0.0000
     46 ****         3.5535  -0.6755  -5.4311 H              1 S1                 0.0000
     47 ****        -1.0096  -5.8937  -4.2915 LP             1 S1                 0.0000
     48 ****        -1.3047  -4.7912  -3.1236 LP             1 S1                 0.0000
     49 ****         4.3565  -1.1305  -3.6299 LP             1 S1                 0.0000
     50 ****         5.6926  -1.6244  -2.6446 LP             1 S1                 0.0000
@<TRIPOS>BOND
    1    1    2 1     
    2    1   25 1     
    3    1   26 1     
    4    1   27 1     
    5    2    7 ar    
    6    2    3 ar    
    7    3    4 ar    
    8    3   28 1     
    9    4    5 ar    
   10    4   29 1     
   11    5    6 ar    
   12    5   30 1     
   13    6    7 ar    
   14    6   31 1     
   15    7    8 1     
   16    8    9 1     
   17    9   10 1     
   18    9   32 1     
   19    9   33 1     
   20   10   11 1     
   21   10   34 1     
   22   10   35 1     
   23   11   24 1     
   24   11   12 1     
   25   12   13 1     
   26   12   18 2     
   27   13   14 1     
   28   13   15 1     
   29   13   36 1     
   30   14   37 1     
   31   14   38 1     
   32   14   39 1     
   33   15   16 am    
   34   15   40 1     
   35   16   17 2     
   36   16   41 1     
   37   18   19 1     
   38   18   46 1     
   39   19   24 ar    
   40   19   20 ar    
   41   20   21 ar    
   42   20   42 1     
   43   21   22 ar    
   44   21   43 1     
   45   22   23 ar    
   46   22   44 1     
   47   23   24 ar    
   48   23   45 1     
   49    8   47 1     
   50    8   48 1     
   51   17   49 1     
   52   17   50 1     
@<TRIPOS>SUBSTRUCTURE
      1 S1             1
@<TRIPOS>SET
LONE_PAIRS      STATIC     ATOMS    <user>   **** ""
4 47 48 49 50
DONOR_HYDROGENS      STATIC     ATOMS    <user>   **** ""
2 40 46
ATOM$BLUE        STATIC     ATOMS    COLORGROUP SYSTEM
4 47 48 49 50
ATOM$RED        STATIC     ATOMS    COLORGROUP SYSTEM
2 40 46
