AV-unprocessed.smi:1773|AV-procd|sdf|7163|dock5
  -GOLD-   22720 8403D 1   1.00000     0.00000
 Structure written by MMmdl.
 40 41  0  0  0  0  0  0  0  0  1 V2000
  147.6744  133.0348  152.3401 C   0  0  0  0  0  0  0  0  0  0  0  0
  146.3969  133.0305  151.5159 C   0  0  0  0  0  0  0  0  0  0  0  0
  145.9154  131.8105  150.9955 C   0  0  0  0  0  0  0  0  0  0  0  0
  144.7344  131.8082  150.2337 C   0  0  0  0  0  0  0  0  0  0  0  0
  144.0810  133.0344  150.0229 C   0  0  0  0  0  0  0  0  0  0  0  0
  144.5339  134.2049  150.5166 N   0  0  0  0  0  0  0  0  0  0  0  0
  145.6724  134.2246  151.2546 C   0  0  0  0  0  0  0  0  0  0  0  0
  146.2082  135.4214  151.8090 N   0  0  0  0  0  0  0  0  0  0  0  0
  145.5658  136.3993  152.4717 C   0  0  0  0  0  0  0  0  0  0  0  0
  144.3570  136.4286  152.7046 O   0  0  0  0  0  0  0  0  0  0  0  0
  146.4172  137.3643  152.8492 N   0  0  0  0  0  0  0  0  0  0  0  0
  146.0633  138.5781  153.5837 C   0  0  0  0  0  0  0  0  0  0  0  0
  147.1784  139.6532  153.5606 C   0  0  0  0  0  0  0  0  0  0  0  0
  147.4326  139.9475  152.1981 O   0  0  0  0  0  0  0  0  0  0  0  0
  146.7877  140.9578  154.3017 C   0  0  0  0  0  0  0  0  0  0  0  0
  147.9455  141.9678  154.3976 C   0  0  0  0  0  0  0  0  0  0  0  0
  149.1945  141.3352  155.0261 C   0  0  0  0  0  0  0  0  0  0  0  0
  149.6249  140.0842  154.2485 C   0  0  0  0  0  0  0  0  0  0  0  0
  148.4781  139.0615  154.1577 C   0  0  0  0  0  0  0  0  0  0  0  0
  148.0814  132.0288  152.4474 H   0  0  0  0  0  0  0  0  0  0  0  0
  147.4832  133.4267  153.3395 H   0  0  0  0  0  0  0  0  0  0  0  0
  148.4339  133.6547  151.8631 H   0  0  0  0  0  0  0  0  0  0  0  0
  146.4426  130.8851  151.1761 H   0  0  0  0  0  0  0  0  0  0  0  0
  144.3397  130.8912  149.8219 H   0  0  0  0  0  0  0  0  0  0  0  0
  143.1707  133.0780  149.4435 H   0  0  0  0  0  0  0  0  0  0  0  0
  147.2026  135.5440  151.6894 H   0  0  0  0  0  0  0  0  0  0  0  0
  147.3909  137.2592  152.6047 H   0  0  0  0  0  0  0  0  0  0  0  0
  145.1392  138.9978  153.1824 H   0  0  0  0  0  0  0  0  0  0  0  0
  145.8324  138.2966  154.6120 H   0  0  0  0  0  0  0  0  0  0  0  0
  148.3664  139.9185  152.0564 H   0  0  0  0  0  0  0  0  0  0  0  0
  145.9395  141.4397  153.8144 H   0  0  0  0  0  0  0  0  0  0  0  0
  146.4560  140.7086  155.3108 H   0  0  0  0  0  0  0  0  0  0  0  0
  148.1880  142.3472  153.4041 H   0  0  0  0  0  0  0  0  0  0  0  0
  147.6331  142.8308  154.9861 H   0  0  0  0  0  0  0  0  0  0  0  0
  150.0091  142.0598  155.0466 H   0  0  0  0  0  0  0  0  0  0  0  0
  148.9889  141.0700  156.0639 H   0  0  0  0  0  0  0  0  0  0  0  0
  149.9513  140.3675  153.2471 H   0  0  0  0  0  0  0  0  0  0  0  0
  150.4882  139.6272  154.7330 H   0  0  0  0  0  0  0  0  0  0  0  0
  148.2725  138.6863  155.1614 H   0  0  0  0  0  0  0  0  0  0  0  0
  148.8029  138.1975  153.5762 H   0  0  0  0  0  0  0  0  0  0  0  0
  1  2  1  0  0  0  0
  1 20  1  0  0  0  0
  1 21  1  0  0  0  0
  1 22  1  0  0  0  0
  2  7  1  0  0  0  0
  2  3  2  0  0  0  0
  3  4  1  0  0  0  0
  3 23  1  0  0  0  0
  4  5  2  0  0  0  0
  4 24  1  0  0  0  0
  5  6  1  0  0  0  0
  5 25  1  0  0  0  0
  6  7  2  0  0  0  0
  7  8  1  0  0  0  0
  8  9  1  0  0  0  0
  8 26  1  0  0  0  0
  9 10  2  0  0  0  0
  9 11  1  0  0  0  0
 11 12  1  0  0  0  0
 11 27  1  0  0  0  0
 12 13  1  0  0  0  0
 12 28  1  0  0  0  0
 12 29  1  0  0  0  0
 13 19  1  0  0  0  0
 13 14  1  0  0  0  0
 13 15  1  0  0  0  0
 14 30  1  0  0  0  0
 15 16  1  0  0  0  0
 15 31  1  0  0  0  0
 15 32  1  0  0  0  0
 16 17  1  0  0  0  0
 16 33  1  0  0  0  0
 16 34  1  0  0  0  0
 17 18  1  0  0  0  0
 17 35  1  0  0  0  0
 17 36  1  0  0  0  0
 18 19  1  0  0  0  0
 18 37  1  0  0  0  0
 18 38  1  0  0  0  0
 19 39  1  0  0  0  0
 19 40  1  0  0  0  0
M  END
> <s_m_source_file>
AV-unprocessed.smi

> <i_m_source_file_index>
1773

> <i_lp_mmshare_version>
43012

> <i_f3d_flags>
0

> <s_epik_input>
W0NIM11jMVtjSF1bY0hdW2NIXW5jMVtOSF1DKD1PKVtOSF1bQ0gyXUMyKFtPSF0pW0NIMl1bQ0gyXVtDSDJdW0NIMl1bQ0gyXTI=

> <s_epik_cmdline>
J2VwaWtfcHl0aG9uJywgJy1waCcsICc3LjAnLCAnLXRuJywgJzgnLCAnLW1hJywgJzIwMCcsICctbWV0YWxfYmluZGluZycsICctaW1hZScsICc8aW5maWxlLm1hZT4nLCAnLW9tYWUnLCAnPG91dGZpbGUubWFlPic=

> <r_lp_tautomer_probability>
1

> <r_epik_Ionization_Penalty>
6.74357e-05

> <r_epik_Ionization_Penalty_Charging>
0

> <r_epik_Ionization_Penalty_Neutral>
6.74357e-05

> <r_epik_State_Penalty>
-0

> <r_epik_Charging_Adjusted_Penalty>
0

> <i_epik_Tot_Q>
0

> <i_epik_Tot_abs_Q>
0

> <r_epik_Metal_State_Penalty>
-0

> <b_epik_Metal_Only>
0

> <s_lp_Force_Field>
OPLS_2005

> <r_lp_Energy>
17.1315

> <b_lp_Chiralities_Consistent>
1

> <s_lp_Variant>
AV-unprocessed.smi:1773-1

> <Gold.Version>
5.8.1

> <Gold.Id.Protein>
6NUR|6NUR_protein|mol2

> <Gold.PLP.Fitness>
45.2968

> <Gold.PLP.PLP>
-34.3477

> <Gold.PLP.part.hbond>
-2.5303

> <Gold.PLP.part.metal>
0.0000

> <Gold.PLP.part.buried>
-4.1749

> <Gold.PLP.part.nonpolar>
-28.8902

> <Gold.PLP.part.repulsive>
0.3923

> <Gold.PLP.ligand.clash>
0.0000

> <Gold.PLP.ligand.torsion>
0.4792

> <Gold.PLP.Chemscore.Hbond>
2.9760

> <Gold.PLP.Chemscore.CHOScore>
0.9890

> <Gold.PLP.Chemscore.Metal>
0.0000

> <Gold.Chemscore.Hbonds>
donor molecule, donor type, donor heavy atom, donor atom, acceptor molecule, acceptor atom, score
      L1  H     8    26       P1  7948  1.00
      L1  H    11    27       P1  7948  1.00
      L1  H    14    30       P1  7957  0.98
      L1  C     5    25       P1 10186  0.96

> <Gold.PLP.Chemscore.Internal.Correction>
0.0126

> <Gold.Rescore>
     Score         DG    S(hbond)    S(metal)    S(lipo)     H(rot)  DE(clash)    DE(int)     intcor
     19.89     -20.42       2.88        0.00      83.45       1.73       0.05       0.49       ----

> <Gold.Chemscore.Fitness>
19.8861

> <Gold.Chemscore.DG>
-20.4245

> <Gold.Chemscore.ZeroCoef>
-5.4800

> <Gold.Chemscore.Hbond>
2.8800

> <Gold.Chemscore.Metal>
0.0000

> <Gold.Chemscore.Lipo>
83.4523

> <Gold.Chemscore.Internal_Hbond>
0.0000

> <Gold.Chemscore.DEClash>
0.0506

> <Gold.Chemscore.DEInternal>
0.4878

> <Gold.Chemscore.Rot>
1.7339

> <Gold.Chemscore.Internal.Correction>
   9.000000E+99

> <Gold.Chemscore.Hbonds>
donor molecule, donor type, donor heavy atom, donor atom, acceptor molecule, acceptor atom, score
      L1  H     8    26       P1  7948  0.99
      L1  H    11    27       P1  7948  0.93
      L1  H    14    30       P1  7957  0.86

> <Gold.Chemscore.Hbond.Weighted>
-9.6193

> <Gold.Chemscore.Metal.Weighted>
-0.0000

> <Gold.Chemscore.Lipo.Weighted>
-9.7639

> <Gold.Chemscore.Internal_Hbond.Weighted>
0.0000

> <Gold.Chemscore.DEClash.Weighted>
0.0506

> <Gold.Chemscore.DEInternal.Weighted>
0.4878

> <Gold.Chemscore.Rot.Weighted>
4.4387

> <Gold.Chemscore.Internal.Correction.Weighted>
   9.000000E+99

> <Gold.Protein.RotatedTorsions>
[ 6907 6896 6895 6894 ] final  169.19 input  -60.11 | X-H torsion
[ 7974 7965 7964 7962 ] final  -61.95 input  175.53 | X-H torsion
[ 8008 7997 7996 7995 ] final  140.54 input   59.86 | X-H torsion
[ 10167 10162 10161 10158 ] final  -22.49 input  -65.29 | X-H torsion
[ 10718 10713 10712 10709 ] final  170.90 input   66.30 | X-H torsion
[ 10763 10752 10751 10750 ] final   63.24 input  -60.55 | X-H torsion
[ 11005 11000 10999 10996 ] final -147.59 input  -57.11 | X-H torsion

> <Gold.Protein.ActiveResidues>
 VAL166  LYS551  ARG553  GLY616  TRP617  ASP618  TYR619  PRO620  LYS621  CYS622 
 ASP623  PHE694  ASN695  SER759  ASP760  ASP761  ALA762  ILE779  LEU786  VAL792 
 PHE793  MET794  SER795  GLU796  ALA797  LYS798  CYS799  TRP800  GLU811  SER814 

> <Gold.Protein.RotatedAtoms>
  151.8358  133.3415  159.3627 H   0  0  0  0  0  0  0  0  0  0  0  0  # atno 6907 bound_to 6896
  150.7250  134.5439  159.5770 H   0  0  0  0  0  0  0  0  0  0  0  0  # atno 6908 bound_to 6896
  152.2902  134.7731  160.0430 H   0  0  0  0  0  0  0  0  0  0  0  0  # atno 6909 bound_to 6896
  145.7973  140.8675  143.0250 H   0  0  0  0  0  0  0  0  0  0  0  0  # atno 7974 bound_to 7965
  156.2978  140.2339  156.4417 H   0  0  0  0  0  0  0  0  0  0  0  0  # atno 8008 bound_to 7997
  154.8180  140.0439  157.1410 H   0  0  0  0  0  0  0  0  0  0  0  0  # atno 8009 bound_to 7997
  154.9348  140.3021  155.5153 H   0  0  0  0  0  0  0  0  0  0  0  0  # atno 8010 bound_to 7997
  140.7286  143.4530  151.0489 H   0  0  0  0  0  0  0  0  0  0  0  0  # atno 10167 bound_to 10162
  157.0014  131.0177  151.2829 H   0  0  0  0  0  0  0  0  0  0  0  0  # atno 10718 bound_to 10713
  153.0011  135.5436  154.6320 H   0  0  0  0  0  0  0  0  0  0  0  0  # atno 10763 bound_to 10752
  154.5595  135.2833  155.0934 H   0  0  0  0  0  0  0  0  0  0  0  0  # atno 10764 bound_to 10752
  154.2143  135.6462  153.5177 H   0  0  0  0  0  0  0  0  0  0  0  0  # atno 10765 bound_to 10752
  140.7701  134.3199  157.5077 H   0  0  0  0  0  0  0  0  0  0  0  0  # atno 11005 bound_to 11000
  144.6773  140.0208  143.7484 LP  0  0  0  0  0  0  0  0  0  0  0  0  # atno 17320 bound_to 7965
  145.9915  139.3018  143.0982 LP  0  0  0  0  0  0  0  0  0  0  0  0  # atno 17321 bound_to 7965
  139.8208  143.7823  152.3176 LP  0  0  0  0  0  0  0  0  0  0  0  0  # atno 17342 bound_to 10162
  139.7905  144.7412  150.9962 LP  0  0  0  0  0  0  0  0  0  0  0  0  # atno 17343 bound_to 10162
  157.5387  130.8106  149.8003 LP  0  0  0  0  0  0  0  0  0  0  0  0  # atno 17370 bound_to 10713
  156.0170  130.3810  150.2081 LP  0  0  0  0  0  0  0  0  0  0  0  0  # atno 17371 bound_to 10713
  139.8757  134.9255  156.3377 LP  0  0  0  0  0  0  0  0  0  0  0  0  # atno 17394 bound_to 11000
  140.9582  133.7406  156.0364 LP  0  0  0  0  0  0  0  0  0  0  0  0  # atno 17395 bound_to 11000

$$$$
