AV-unprocessed.smi:156|AV-procd|sdf|1290|dock6
  -GOLD-   2262018573D 1   1.00000     0.00000
 Structure written by MMmdl.
 51 53  0  0  0  0  0  0  0  0  1 V2000
  145.0026  139.7519  155.4754 C   0  0  0  0  0  0  0  0  0  0  0  0
  145.3351  138.2498  155.5576 C   0  0  1  0  0  0  0  0  0  0  0  0
  146.4218  137.8741  156.6070 C   0  0  1  0  0  0  0  0  0  0  0  0
  145.9223  138.1457  158.0400 C   0  0  0  0  0  0  0  0  0  0  0  0
  146.9444  136.0943  156.4426 S   0  0  0  0  0  0  0  0  0  0  0  0
  148.7292  136.2009  155.9985 C   0  0  0  0  0  0  0  0  0  0  0  0
  146.8404  135.4519  157.7617 O   0  0  0  0  0  0  0  0  0  0  0  0
  146.2438  135.5047  155.2915 O   0  0  0  0  0  0  0  0  0  0  0  0
  144.0969  137.4805  155.7506 N   0  0  0  0  0  0  0  0  0  0  0  0
  143.1386  137.8658  156.7823 C   0  0  0  0  0  0  0  0  0  0  0  0
  143.6693  136.6812  154.7377 C   0  0  0  0  0  0  0  0  0  0  0  0
  142.4884  136.0277  154.8979 N   0  0  0  0  0  0  0  0  0  0  0  0
  142.0128  135.2364  153.9330 C   0  0  0  0  0  0  0  0  0  0  0  0
  142.5491  134.9570  152.7448 N   0  0  0  0  0  0  0  0  0  0  0  0
  143.7381  135.6030  152.5749 C   0  0  0  0  0  0  0  0  0  0  0  0
  144.3628  136.4821  153.5061 C   0  0  0  0  0  0  0  0  0  0  0  0
  145.5601  136.9475  152.9728 N   0  0  0  0  0  0  0  0  0  0  0  0
  145.6343  136.3833  151.7992 C   0  0  0  0  0  0  0  0  0  0  0  0
  144.5913  135.5420  151.4858 N   0  0  0  0  0  0  0  0  0  0  0  0
  144.4174  134.7797  150.2566 C   0  0  0  0  0  0  0  0  0  0  0  0
  144.6177  133.2522  150.3982 C   0  0  0  0  0  0  0  0  0  0  0  0
  144.2575  132.6484  149.0294 C   0  0  0  0  0  0  0  0  0  0  0  0
  142.9183  132.2010  148.9598 O   0  0  0  0  0  0  0  0  0  0  0  0
  145.9426  132.8029  151.0394 C   0  0  0  0  0  0  0  0  0  0  0  0
  145.3004  132.5467  152.3077 O   0  0  0  0  0  0  0  0  0  0  0  0
  144.0164  132.5803  151.6467 C   0  0  0  0  0  0  0  0  0  0  0  0
  145.8395  140.3324  155.0896 H   0  0  0  0  0  0  0  0  0  0  0  0
  144.7276  140.1566  156.4497 H   0  0  0  0  0  0  0  0  0  0  0  0
  144.1682  139.9275  154.7953 H   0  0  0  0  0  0  0  0  0  0  0  0
  145.7602  138.0022  154.5850 H   0  0  0  0  0  0  0  0  0  0  0  0
  147.3209  138.4643  156.4339 H   0  0  0  0  0  0  0  0  0  0  0  0
  145.5899  139.1764  158.1622 H   0  0  0  0  0  0  0  0  0  0  0  0
  146.7064  137.9914  158.7793 H   0  0  0  0  0  0  0  0  0  0  0  0
  145.0839  137.4971  158.2951 H   0  0  0  0  0  0  0  0  0  0  0  0
  149.0900  135.2073  155.7331 H   0  0  0  0  0  0  0  0  0  0  0  0
  149.3053  136.5664  156.8475 H   0  0  0  0  0  0  0  0  0  0  0  0
  148.8571  136.8688  155.1471 H   0  0  0  0  0  0  0  0  0  0  0  0
  142.4662  137.0402  157.0180 H   0  0  0  0  0  0  0  0  0  0  0  0
  142.5420  138.7170  156.4536 H   0  0  0  0  0  0  0  0  0  0  0  0
  143.6421  138.1468  157.7060 H   0  0  0  0  0  0  0  0  0  0  0  0
  141.0684  134.7576  154.1450 H   0  0  0  0  0  0  0  0  0  0  0  0
  146.4613  136.5654  151.1290 H   0  0  0  0  0  0  0  0  0  0  0  0
  143.4208  135.0005  149.8719 H   0  0  0  0  0  0  0  0  0  0  0  0
  145.1127  135.1829  149.5191 H   0  0  0  0  0  0  0  0  0  0  0  0
  144.4058  133.3795  148.2337 H   0  0  0  0  0  0  0  0  0  0  0  0
  144.9031  131.8001  148.7996 H   0  0  0  0  0  0  0  0  0  0  0  0
  142.3455  132.9479  149.0466 H   0  0  0  0  0  0  0  0  0  0  0  0
  146.3672  131.8920  150.6154 H   0  0  0  0  0  0  0  0  0  0  0  0
  146.7045  133.5786  151.0980 H   0  0  0  0  0  0  0  0  0  0  0  0
  143.2799  133.1763  152.1826 H   0  0  0  0  0  0  0  0  0  0  0  0
  143.6296  131.5749  151.4759 H   0  0  0  0  0  0  0  0  0  0  0  0
  1  2  1  0  0  0  0
  1 27  1  0  0  0  0
  1 28  1  0  0  0  0
  1 29  1  0  0  0  0
  2  3  1  0  0  0  0
  2  9  1  0  0  0  0
  2 30  1  0  0  0  0
  3  4  1  0  0  0  0
  3  5  1  0  0  0  0
  3 31  1  0  0  0  0
  4 32  1  0  0  0  0
  4 33  1  0  0  0  0
  4 34  1  0  0  0  0
  5  6  1  0  0  0  0
  5  7  2  0  0  0  0
  5  8  2  0  0  0  0
  6 35  1  0  0  0  0
  6 36  1  0  0  0  0
  6 37  1  0  0  0  0
  9 10  1  0  0  0  0
  9 11  1  0  0  0  0
 10 38  1  0  0  0  0
 10 39  1  0  0  0  0
 10 40  1  0  0  0  0
 11 16  1  0  0  0  0
 11 12  2  0  0  0  0
 12 13  1  0  0  0  0
 13 14  2  0  0  0  0
 13 41  1  0  0  0  0
 14 15  1  0  0  0  0
 15 19  1  0  0  0  0
 15 16  2  0  0  0  0
 16 17  1  0  0  0  0
 17 18  2  0  0  0  0
 18 19  1  0  0  0  0
 18 42  1  0  0  0  0
 19 20  1  0  0  0  0
 20 21  1  0  0  0  0
 20 43  1  0  0  0  0
 20 44  1  0  0  0  0
 21 26  1  0  0  0  0
 21 22  1  0  0  0  0
 21 24  1  0  0  0  0
 22 23  1  0  0  0  0
 22 45  1  0  0  0  0
 22 46  1  0  0  0  0
 23 47  1  0  0  0  0
 24 25  1  0  0  0  0
 24 48  1  0  0  0  0
 24 49  1  0  0  0  0
 25 26  1  0  0  0  0
 26 50  1  0  0  0  0
 26 51  1  0  0  0  0
M  END
> <s_m_source_file>
AV-unprocessed.smi

> <i_m_source_file_index>
156

> <i_lp_mmshare_version>
43012

> <i_f3d_flags>
0

> <s_epik_input>
W0NIM11TKD1PKSg9TylbQ0BASF0oW0NIM10pW0NAQEhdKFtDSDNdKU4oW0NIM10pYyhuW2NIXW4xKWMoYzEyKW5bY0hdbjJbQ0gyXUMzKFtDSDJdW09IXSlbQ0gyXU9bQ0gyXTM=

> <s_epik_cmdline>
J2VwaWtfcHl0aG9uJywgJy1waCcsICc3LjAnLCAnLXRuJywgJzgnLCAnLW1hJywgJzIwMCcsICctbWV0YWxfYmluZGluZycsICctaW1hZScsICc8aW5maWxlLm1hZT4nLCAnLW9tYWUnLCAnPG91dGZpbGUubWFlPic=

> <r_lp_tautomer_probability>
1

> <r_epik_Ionization_Penalty>
0.00107697

> <r_epik_Ionization_Penalty_Charging>
0

> <r_epik_Ionization_Penalty_Neutral>
0.00107697

> <r_epik_State_Penalty>
0.000614712

> <r_epik_Charging_Adjusted_Penalty>
0.000614712

> <i_epik_Tot_Q>
0

> <i_epik_Tot_abs_Q>
0

> <r_epik_Metal_State_Penalty>
-0

> <b_epik_Metal_Only>
0

> <s_lp_Force_Field>
OPLS_2005

> <r_lp_Energy>
27.5373

> <b_lp_Chiralities_Consistent>
1

> <s_lp_Variant>
AV-unprocessed.smi:156-4

> <Gold.Version>
5.8.1

> <Gold.Id.Protein>
6NUR|6NUR_protein|mol2

> <Gold.PLP.Fitness>
37.0644

> <Gold.PLP.PLP>
-28.6537

> <Gold.PLP.part.hbond>
-3.0672

> <Gold.PLP.part.metal>
0.0000

> <Gold.PLP.part.buried>
-6.1083

> <Gold.PLP.part.nonpolar>
-20.8837

> <Gold.PLP.part.repulsive>
0.5750

> <Gold.PLP.ligand.clash>
0.0000

> <Gold.PLP.ligand.torsion>
1.3056

> <Gold.PLP.Chemscore.Hbond>
1.9013

> <Gold.PLP.Chemscore.CHOScore>
1.3707

> <Gold.PLP.Chemscore.Metal>
0.0000

> <Gold.Chemscore.Hbonds>
donor molecule, donor type, donor heavy atom, donor atom, acceptor molecule, acceptor atom, score
      L1  H    23    47       P1 10186  0.98
      P1  H 10785 10796       L1    23  0.86
      L1  C    13    41       P1 11000  0.52
      L1  C    18    42       P1  7948  0.77

> <Gold.PLP.Chemscore.Internal.Correction>
1.2059

> <Gold.Rescore>
     Score         DG    S(hbond)    S(metal)    S(lipo)     H(rot)  DE(clash)    DE(int)     intcor
      2.07      -7.31       1.37        0.00      46.96       3.21       0.00       5.24       ----

> <Gold.Chemscore.Fitness>
2.0694

> <Gold.Chemscore.DG>
-7.3141

> <Gold.Chemscore.ZeroCoef>
-5.4800

> <Gold.Chemscore.Hbond>
1.3658

> <Gold.Chemscore.Metal>
0.0000

> <Gold.Chemscore.Lipo>
46.9568

> <Gold.Chemscore.Internal_Hbond>
0.0000

> <Gold.Chemscore.DEClash>
0.0033

> <Gold.Chemscore.DEInternal>
5.2414

> <Gold.Chemscore.Rot>
3.2115

> <Gold.Chemscore.Internal.Correction>
   9.000000E+99

> <Gold.Chemscore.Hbonds>
donor molecule, donor type, donor heavy atom, donor atom, acceptor molecule, acceptor atom, score
      L1  H    23    47       P1 10186  0.91
      P1  H 10785 10796       L1    23  0.25

> <Gold.Chemscore.Hbond.Weighted>
-4.5617

> <Gold.Chemscore.Metal.Weighted>
-0.0000

> <Gold.Chemscore.Lipo.Weighted>
-5.4939

> <Gold.Chemscore.Internal_Hbond.Weighted>
0.0000

> <Gold.Chemscore.DEClash.Weighted>
0.0033

> <Gold.Chemscore.DEInternal.Weighted>
5.2414

> <Gold.Chemscore.Rot.Weighted>
8.2215

> <Gold.Chemscore.Internal.Correction.Weighted>
   9.000000E+99

> <Gold.Protein.RotatedTorsions>
[ 6907 6896 6895 6894 ] final  -84.84 input  -60.11 | X-H torsion
[ 7974 7965 7964 7962 ] final  -17.12 input  175.53 | X-H torsion
[ 8008 7997 7996 7995 ] final   55.81 input   59.86 | X-H torsion
[ 10167 10162 10161 10158 ] final  -79.76 input  -65.29 | X-H torsion
[ 10718 10713 10712 10709 ] final  151.38 input   66.30 | X-H torsion
[ 10763 10752 10751 10750 ] final  -14.11 input  -60.55 | X-H torsion
[ 11005 11000 10999 10996 ] final  174.72 input  -57.11 | X-H torsion

> <Gold.Protein.ActiveResidues>
 VAL166  LYS551  ARG553  GLY616  TRP617  ASP618  TYR619  PRO620  LYS621  CYS622 
 ASP623  PHE694  ASN695  SER759  ASP760  ASP761  ALA762  ILE779  LEU786  VAL792 
 PHE793  MET794  SER795  GLU796  ALA797  LYS798  CYS799  TRP800  GLU811  SER814 

> <Gold.Protein.RotatedAtoms>
  150.6874  134.3297  159.4821 H   0  0  0  0  0  0  0  0  0  0  0  0  # atno 6907 bound_to 6896
  152.1163  134.9235  160.0574 H   0  0  0  0  0  0  0  0  0  0  0  0  # atno 6908 bound_to 6896
  152.0459  133.3963  159.4393 H   0  0  0  0  0  0  0  0  0  0  0  0  # atno 6909 bound_to 6896
  146.1956  140.3734  142.8442 H   0  0  0  0  0  0  0  0  0  0  0  0  # atno 7974 bound_to 7965
  155.5072  140.3476  155.4382 H   0  0  0  0  0  0  0  0  0  0  0  0  # atno 8008 bound_to 7997
  156.0874  140.1402  156.9663 H   0  0  0  0  0  0  0  0  0  0  0  0  # atno 8009 bound_to 7997
  154.4614  140.0933  156.6881 H   0  0  0  0  0  0  0  0  0  0  0  0  # atno 8010 bound_to 7997
  140.4564  143.2467  151.8414 H   0  0  0  0  0  0  0  0  0  0  0  0  # atno 10167 bound_to 10162
  157.2714  131.0817  151.1597 H   0  0  0  0  0  0  0  0  0  0  0  0  # atno 10718 bound_to 10713
  153.5234  135.7015  153.5720 H   0  0  0  0  0  0  0  0  0  0  0  0  # atno 10763 bound_to 10752
  153.3759  135.3932  155.1822 H   0  0  0  0  0  0  0  0  0  0  0  0  # atno 10764 bound_to 10752
  154.8692  135.3823  154.4725 H   0  0  0  0  0  0  0  0  0  0  0  0  # atno 10765 bound_to 10752
  140.3544  134.7167  157.4289 H   0  0  0  0  0  0  0  0  0  0  0  0  # atno 11005 bound_to 11000
  144.8573  140.7089  143.6129 LP  0  0  0  0  0  0  0  0  0  0  0  0  # atno 17320 bound_to 7965
  145.3654  139.1671  143.4360 LP  0  0  0  0  0  0  0  0  0  0  0  0  # atno 17321 bound_to 7965
  139.4801  144.5060  151.8997 LP  0  0  0  0  0  0  0  0  0  0  0  0  # atno 17342 bound_to 10162
  140.4146  144.2324  150.5888 LP  0  0  0  0  0  0  0  0  0  0  0  0  # atno 17343 bound_to 10162
  157.3067  130.6869  149.6193 LP  0  0  0  0  0  0  0  0  0  0  0  0  # atno 17370 bound_to 10713
  155.9663  130.4376  150.5181 LP  0  0  0  0  0  0  0  0  0  0  0  0  # atno 17371 bound_to 10713
  140.0677  134.5906  155.8677 LP  0  0  0  0  0  0  0  0  0  0  0  0  # atno 17394 bound_to 11000
  141.2003  133.6611  156.5888 LP  0  0  0  0  0  0  0  0  0  0  0  0  # atno 17395 bound_to 11000

$$$$
