AV-unprocessed.smi:1022|AV-procd|sdf|4461|dock2
  -GOLD-   22720 2433D 1   1.00000     0.00000
 Structure written by MMmdl.
 32 33  0  0  0  0  0  0  0  0  2 V2000
  150.0937  140.7415  155.8589 C   0  0  0  0  0  0  0  0  0  0  0  0
  150.3869  139.8713  154.7806 O   0  0  0  0  0  0  0  0  0  0  0  0
  150.4028  138.5068  155.1712 C   0  0  0  0  0  0  0  0  0  0  0  0
  151.7531  138.1580  155.8242 C   0  0  1  0  0  0  0  0  0  0  0  0
  152.9461  138.6844  155.0138 C   0  0  0  0  0  0  0  0  0  0  0  0
  151.8181  138.6676  157.1924 N   0  0  0  0  0  0  0  0  0  0  0  0
  152.8853  138.6249  158.0036 C   0  0  0  0  0  0  0  0  0  0  0  0
  153.9403  138.1233  157.6081 O   0  0  0  0  0  0  0  0  0  0  0  0
  152.6628  139.1621  159.2247 N   0  5  0  0  0  0  0  0  0  0  0  0
  152.2323  140.4300  159.3317 C   0  0  0  0  0  0  0  0  0  0  0  0
  150.9664  140.7838  159.0685 N   0  0  0  0  0  0  0  0  0  0  0  0
  150.7329  142.1402  159.2427 N   0  0  0  0  0  0  0  0  0  0  0  0
  151.8270  142.7923  159.6432 C   0  0  0  0  0  0  0  0  0  0  0  0
  151.8331  144.2629  159.8954 C   0  0  0  0  0  0  0  0  0  0  0  0
  150.5610  145.0712  159.7804 C   0  0  0  0  0  0  0  0  0  0  0  0
  151.6642  145.2611  158.7706 C   0  0  0  0  0  0  0  0  0  0  0  0
  153.2455  141.7771  159.8490 S   0  0  0  0  0  0  0  0  0  0  0  0
  150.0896  141.7728  155.5062 H   0  0  0  0  0  0  0  0  0  0  0  0
  150.8435  140.6585  156.6467 H   0  0  0  0  0  0  0  0  0  0  0  0
  149.1126  140.5265  156.2840 H   0  0  0  0  0  0  0  0  0  0  0  0
  149.5862  138.3088  155.8675 H   0  0  0  0  0  0  0  0  0  0  0  0
  150.2386  137.8721  154.2990 H   0  0  0  0  0  0  0  0  0  0  0  0
  151.8426  137.0708  155.8562 H   0  0  0  0  0  0  0  0  0  0  0  0
  152.9313  138.2929  153.9965 H   0  0  0  0  0  0  0  0  0  0  0  0
  153.8907  138.3842  155.4686 H   0  0  0  0  0  0  0  0  0  0  0  0
  152.9384  139.7731  154.9520 H   0  0  0  0  0  0  0  0  0  0  0  0
  150.9754  139.0826  157.5619 H   0  0  0  0  0  0  0  0  0  0  0  0
  152.5261  144.5123  160.6969 H   0  0  0  0  0  0  0  0  0  0  0  0
  149.6621  144.5540  159.4503 H   0  0  0  0  0  0  0  0  0  0  0  0
  150.4025  145.8639  160.5088 H   0  0  0  0  0  0  0  0  0  0  0  0
  152.2433  146.1804  158.8259 H   0  0  0  0  0  0  0  0  0  0  0  0
  151.4888  144.8810  157.7662 H   0  0  0  0  0  0  0  0  0  0  0  0
  1  2  1  0  0  0  0
  1 18  1  0  0  0  0
  1 19  1  0  0  0  0
  1 20  1  0  0  0  0
  2  3  1  0  0  0  0
  3  4  1  0  0  0  0
  3 21  1  0  0  0  0
  3 22  1  0  0  0  0
  4  5  1  0  0  0  0
  4  6  1  0  0  0  0
  4 23  1  0  0  0  0
  5 24  1  0  0  0  0
  5 25  1  0  0  0  0
  5 26  1  0  0  0  0
  6  7  1  0  0  0  0
  6 27  1  0  0  0  0
  7  8  2  0  0  0  0
  7  9  1  0  0  0  0
  9 10  1  0  0  0  0
 10 17  1  0  0  0  0
 10 11  2  0  0  0  0
 11 12  1  0  0  0  0
 12 13  2  0  0  0  0
 13 14  1  0  0  0  0
 13 17  1  0  0  0  0
 14 16  1  0  0  0  0
 14 15  1  0  0  0  0
 14 28  1  0  0  0  0
 15 16  1  0  0  0  0
 15 29  1  0  0  0  0
 15 30  1  0  0  0  0
 16 31  1  0  0  0  0
 16 32  1  0  0  0  0
M  CHG  1   9  -1
M  END
> <s_m_source_file>
AV-unprocessed.smi

> <i_m_source_file_index>
1022

> <i_lp_mmshare_version>
43012

> <i_f3d_flags>
0

> <s_epik_input>
W0NIM11PW0NIMl1bQ0BIXShbQ0gzXSlbTkhdQyg9TylbTkhdYzFubmMoczEpW0NIXTJbQ0gyXVtDSDJdMg==

> <s_epik_cmdline>
J2VwaWtfcHl0aG9uJywgJy1waCcsICc3LjAnLCAnLXRuJywgJzgnLCAnLW1hJywgJzIwMCcsICctbWV0YWxfYmluZGluZycsICctaW1hZScsICc8aW5maWxlLm1hZT4nLCAnLW9tYWUnLCAnPG91dGZpbGUubWFlPic=

> <r_lp_tautomer_probability>
1

> <r_epik_Ionization_Penalty>
3.79487

> <r_epik_Ionization_Penalty_Charging>
3.64217

> <r_epik_Ionization_Penalty_Neutral>
0.152695

> <r_epik_State_Penalty>
3.6409

> <r_epik_Charging_Adjusted_Penalty>
7.28307

> <i_epik_Tot_Q>
-1

> <i_epik_Tot_abs_Q>
1

> <r_epik_Metal_State_Penalty>
0.534129

> <b_epik_Metal_Only>
1

> <s_lp_Force_Field>
OPLS_2005

> <r_lp_Energy>
0.506403

> <b_lp_Chiralities_Consistent>
1

> <s_lp_Variant>
AV-unprocessed.smi:1022-4

> <Gold.Version>
5.8.1

> <Gold.Id.Protein>
6NUR|6NUR_protein|mol2

> <Gold.PLP.Fitness>
38.1356

> <Gold.PLP.PLP>
-37.4285

> <Gold.PLP.part.hbond>
-2.2230

> <Gold.PLP.part.metal>
0.0000

> <Gold.PLP.part.buried>
-4.9072

> <Gold.PLP.part.nonpolar>
-30.0535

> <Gold.PLP.part.repulsive>
0.1839

> <Gold.PLP.ligand.clash>
0.0000

> <Gold.PLP.ligand.torsion>
1.5671

> <Gold.PLP.Chemscore.Hbond>
1.1815

> <Gold.PLP.Chemscore.CHOScore>
0.0000

> <Gold.PLP.Chemscore.Metal>
0.0000

> <Gold.Chemscore.Hbonds>
donor molecule, donor type, donor heavy atom, donor atom, acceptor molecule, acceptor atom, score
      P1  H  7989  7998       L1     2  0.96
      P1  H  7997  8009       L1     8  0.31

> <Gold.PLP.Chemscore.Internal.Correction>
0.2966

> <Gold.Rescore>
     Score         DG    S(hbond)    S(metal)    S(lipo)     H(rot)  DE(clash)    DE(int)     intcor
     12.79     -14.67       0.90        0.00      89.92       1.69       0.13       1.76       ----

> <Gold.Chemscore.Fitness>
12.7875

> <Gold.Chemscore.DG>
-14.6714

> <Gold.Chemscore.ZeroCoef>
-5.4800

> <Gold.Chemscore.Hbond>
0.8989

> <Gold.Chemscore.Metal>
0.0000

> <Gold.Chemscore.Lipo>
89.9219

> <Gold.Chemscore.Internal_Hbond>
0.0000

> <Gold.Chemscore.DEClash>
0.1274

> <Gold.Chemscore.DEInternal>
1.7565

> <Gold.Chemscore.Rot>
1.6921

> <Gold.Chemscore.Internal.Correction>
   9.000000E+99

> <Gold.Chemscore.Hbonds>
donor molecule, donor type, donor heavy atom, donor atom, acceptor molecule, acceptor atom, score
      P1  H  7989  7998       L1     2  0.60
      P1  H  7997  8009       L1     8  0.01

> <Gold.Chemscore.Hbond.Weighted>
-3.0022

> <Gold.Chemscore.Metal.Weighted>
-0.0000

> <Gold.Chemscore.Lipo.Weighted>
-10.5209

> <Gold.Chemscore.Internal_Hbond.Weighted>
0.0000

> <Gold.Chemscore.DEClash.Weighted>
0.1274

> <Gold.Chemscore.DEInternal.Weighted>
1.7565

> <Gold.Chemscore.Rot.Weighted>
4.3317

> <Gold.Chemscore.Internal.Correction.Weighted>
   9.000000E+99

> <Gold.Protein.RotatedTorsions>
[ 6907 6896 6895 6894 ] final -157.48 input  -60.11 | X-H torsion
[ 7974 7965 7964 7962 ] final  141.95 input  175.53 | X-H torsion
[ 8008 7997 7996 7995 ] final  162.19 input   59.86 | X-H torsion
[ 10167 10162 10161 10158 ] final   84.78 input  -65.29 | X-H torsion
[ 10718 10713 10712 10709 ] final  147.66 input   66.30 | X-H torsion
[ 10763 10752 10751 10750 ] final   60.00 input  -60.55 | X-H torsion
[ 11005 11000 10999 10996 ] final -137.32 input  -57.11 | X-H torsion

> <Gold.Protein.ActiveResidues>
 VAL166  LYS551  ARG553  GLY616  TRP617  ASP618  TYR619  PRO620  LYS621  CYS622 
 ASP623  PHE694  ASN695  SER759  ASP760  ASP761  ALA762  ILE779  LEU786  VAL792 
 PHE793  MET794  SER795  GLU796  ALA797  LYS798  CYS799  TRP800  GLU811  SER814 

> <Gold.Protein.RotatedAtoms>
  151.3036  133.4111  159.2641 H   0  0  0  0  0  0  0  0  0  0  0  0  # atno 6907 bound_to 6896
  151.0174  134.9444  159.8051 H   0  0  0  0  0  0  0  0  0  0  0  0  # atno 6908 bound_to 6896
  152.5316  134.2999  159.9127 H   0  0  0  0  0  0  0  0  0  0  0  0  # atno 6909 bound_to 6896
  144.9051  139.5369  143.5735 H   0  0  0  0  0  0  0  0  0  0  0  0  # atno 7974 bound_to 7965
  156.2049  140.1757  156.7820 H   0  0  0  0  0  0  0  0  0  0  0  0  # atno 8008 bound_to 7997
  154.5642  140.0694  156.8896 H   0  0  0  0  0  0  0  0  0  0  0  0  # atno 8009 bound_to 7997
  155.2792  140.3348  155.4262 H   0  0  0  0  0  0  0  0  0  0  0  0  # atno 8010 bound_to 7997
  139.9045  144.6309  150.8602 H   0  0  0  0  0  0  0  0  0  0  0  0  # atno 10167 bound_to 10162
  157.3182  131.0900  151.1261 H   0  0  0  0  0  0  0  0  0  0  0  0  # atno 10718 bound_to 10713
  152.9909  135.5552  154.5803 H   0  0  0  0  0  0  0  0  0  0  0  0  # atno 10763 bound_to 10752
  154.5186  135.2806  155.1284 H   0  0  0  0  0  0  0  0  0  0  0  0  # atno 10764 bound_to 10752
  154.2647  135.6374  153.5340 H   0  0  0  0  0  0  0  0  0  0  0  0  # atno 10765 bound_to 10752
  140.8722  134.2036  157.4644 H   0  0  0  0  0  0  0  0  0  0  0  0  # atno 11005 bound_to 11000
  146.3129  139.7812  142.9006 LP  0  0  0  0  0  0  0  0  0  0  0  0  # atno 17320 bound_to 7965
  145.3550  141.0315  143.3317 LP  0  0  0  0  0  0  0  0  0  0  0  0  # atno 17321 bound_to 7965
  140.7699  143.3412  151.2204 LP  0  0  0  0  0  0  0  0  0  0  0  0  # atno 17342 bound_to 10162
  139.6996  143.9554  152.2899 LP  0  0  0  0  0  0  0  0  0  0  0  0  # atno 17343 bound_to 10162
  157.2557  130.6635  149.5951 LP  0  0  0  0  0  0  0  0  0  0  0  0  # atno 17370 bound_to 10713
  155.9683  130.4524  150.5774 LP  0  0  0  0  0  0  0  0  0  0  0  0  # atno 17371 bound_to 10713
  139.8713  134.9779  156.4978 LP  0  0  0  0  0  0  0  0  0  0  0  0  # atno 17394 bound_to 11000
  140.8559  133.8096  155.9216 LP  0  0  0  0  0  0  0  0  0  0  0  0  # atno 17395 bound_to 11000

$$$$
