AV-unprocessed.smi:2648|AV-procd|sdf|10285|dock6
  -GOLD-   2272014293D 1   1.00000     0.00000
 Structure written by MMmdl.
 32 33  0  0  0  0  0  0  0  0  1 V2000
  144.5228  136.5752  152.1382 O   0  0  0  0  0  0  0  0  0  0  0  0
  145.7317  136.3481  152.0907 C   0  0  0  0  0  0  0  0  0  0  0  0
  146.6588  137.1929  152.5642 N   0  0  0  0  0  0  0  0  0  0  0  0
  146.3723  138.4775  153.1904 C   0  0  0  0  0  0  0  0  0  0  0  0
  147.6094  139.0381  153.9153 C   0  0  0  0  0  0  0  0  0  0  0  0
  147.4048  140.4328  154.3131 N   0  0  0  0  0  0  0  0  0  0  0  0
  146.2613  140.9114  154.8203 C   0  0  0  0  0  0  0  0  0  0  0  0
  145.2151  140.2961  155.0229 O   0  0  0  0  0  0  0  0  0  0  0  0
  146.4527  142.3800  155.1303 C   0  0  0  0  0  0  0  0  0  0  0  0
  147.8307  142.5299  154.7148 N   0  0  0  0  0  0  0  0  0  0  0  0
  148.3514  141.3866  154.2501 C   0  0  0  0  0  0  0  0  0  0  0  0
  149.5041  141.2469  153.8440 O   0  0  0  0  0  0  0  0  0  0  0  0
  146.3002  135.2553  151.5519 N   0  0  0  0  0  0  0  0  0  0  0  0
  145.6736  134.1341  150.9421 C   0  0  0  0  0  0  0  0  0  0  0  0
  146.4962  133.0588  150.5476 C   0  0  0  0  0  0  0  0  0  0  0  0
  145.8999  131.9292  149.9528 C   0  0  0  0  0  0  0  0  0  0  0  0
  144.5715  131.8146  149.7456 N   0  0  0  0  0  0  0  0  0  0  0  0
  143.7835  132.8384  150.1367 C   0  0  0  0  0  0  0  0  0  0  0  0
  144.2773  134.0122  150.7402 C   0  0  0  0  0  0  0  0  0  0  0  0
  147.6309  136.9335  152.4803 H   0  0  0  0  0  0  0  0  0  0  0  0
  146.0108  139.1845  152.4414 H   0  0  0  0  0  0  0  0  0  0  0  0
  145.5567  138.3335  153.8998 H   0  0  0  0  0  0  0  0  0  0  0  0
  147.8348  138.4298  154.7927 H   0  0  0  0  0  0  0  0  0  0  0  0
  148.4887  138.9646  153.2728 H   0  0  0  0  0  0  0  0  0  0  0  0
  145.7834  143.0077  154.5410 H   0  0  0  0  0  0  0  0  0  0  0  0
  146.3271  142.5869  156.1934 H   0  0  0  0  0  0  0  0  0  0  0  0
  148.3336  143.4028  154.7805 H   0  0  0  0  0  0  0  0  0  0  0  0
  147.3092  135.2513  151.5241 H   0  0  0  0  0  0  0  0  0  0  0  0
  147.5664  133.0958  150.6903 H   0  0  0  0  0  0  0  0  0  0  0  0
  146.5078  131.0949  149.6361 H   0  0  0  0  0  0  0  0  0  0  0  0
  142.7238  132.7164  149.9680 H   0  0  0  0  0  0  0  0  0  0  0  0
  143.5800  134.7784  151.0409 H   0  0  0  0  0  0  0  0  0  0  0  0
  1  2  2  0  0  0  0
  2  3  1  0  0  0  0
  2 13  1  0  0  0  0
  3  4  1  0  0  0  0
  3 20  1  0  0  0  0
  4  5  1  0  0  0  0
  4 21  1  0  0  0  0
  4 22  1  0  0  0  0
  5  6  1  0  0  0  0
  5 23  1  0  0  0  0
  5 24  1  0  0  0  0
  6 11  1  0  0  0  0
  6  7  1  0  0  0  0
  7  8  2  0  0  0  0
  7  9  1  0  0  0  0
  9 10  1  0  0  0  0
  9 25  1  0  0  0  0
  9 26  1  0  0  0  0
 10 11  1  0  0  0  0
 10 27  1  0  0  0  0
 11 12  2  0  0  0  0
 13 14  1  0  0  0  0
 13 28  1  0  0  0  0
 14 19  1  0  0  0  0
 14 15  2  0  0  0  0
 15 16  1  0  0  0  0
 15 29  1  0  0  0  0
 16 17  2  0  0  0  0
 16 30  1  0  0  0  0
 17 18  1  0  0  0  0
 18 19  2  0  0  0  0
 18 31  1  0  0  0  0
 19 32  1  0  0  0  0
M  END
> <s_m_source_file>
AV-unprocessed.smi

> <i_m_source_file_index>
2648

> <i_lp_mmshare_version>
43012

> <i_f3d_flags>
0

> <s_epik_input>
W2NIXTFbY0hdbltjSF1bY0hdYzFbTkhdQyg9TylbTkhdW0NIMl1bQ0gyXU4yQyg9TylbQ0gyXVtOSF1DMj1P

> <s_epik_cmdline>
J2VwaWtfcHl0aG9uJywgJy1waCcsICc3LjAnLCAnLXRuJywgJzgnLCAnLW1hJywgJzIwMCcsICctbWV0YWxfYmluZGluZycsICctaW1hZScsICc8aW5maWxlLm1hZT4nLCAnLW9tYWUnLCAnPG91dGZpbGUubWFlPic=

> <r_lp_tautomer_probability>
1

> <r_epik_Ionization_Penalty>
0.109042

> <r_epik_Ionization_Penalty_Charging>
0

> <r_epik_Ionization_Penalty_Neutral>
0.109042

> <r_epik_State_Penalty>
0.0987421

> <r_epik_Charging_Adjusted_Penalty>
0.0987421

> <i_epik_Tot_Q>
0

> <i_epik_Tot_abs_Q>
0

> <r_epik_Metal_State_Penalty>
0.108818

> <b_epik_Metal_Only>
0

> <s_lp_Force_Field>
OPLS_2005

> <r_lp_Energy>
20.6194

> <b_lp_Chiralities_Consistent>
1

> <s_lp_Variant>
AV-unprocessed.smi:2648-1

> <Gold.Version>
5.8.1

> <Gold.Id.Protein>
6NUR|6NUR_protein|mol2

> <Gold.PLP.Fitness>
48.5269

> <Gold.PLP.PLP>
-31.4817

> <Gold.PLP.part.hbond>
-5.8784

> <Gold.PLP.part.metal>
0.0000

> <Gold.PLP.part.buried>
-5.9776

> <Gold.PLP.part.nonpolar>
-23.5957

> <Gold.PLP.part.repulsive>
3.3800

> <Gold.PLP.ligand.clash>
0.0000

> <Gold.PLP.ligand.torsion>
0.3955

> <Gold.PLP.Chemscore.Hbond>
4.0889

> <Gold.PLP.Chemscore.CHOScore>
1.8553

> <Gold.PLP.Chemscore.Metal>
0.0000

> <Gold.Chemscore.Hbonds>
donor molecule, donor type, donor heavy atom, donor atom, acceptor molecule, acceptor atom, score
      L1  H     3    20       P1  7948  1.00
      L1  H    10    27       P1  8028  1.00
      L1  H    13    28       P1  7948  0.98
      P1  H  7989  7998       L1    12  0.20
      P1  H  8011  8017       L1    12  0.85
      P1  H 10785 10796       L1    17  0.07
      L1  C    16    30       P1 10747  0.85
      L1  C    18    31       P1 10186  1.00

> <Gold.PLP.Chemscore.Internal.Correction>
0.0037

> <Gold.Rescore>
     Score         DG    S(hbond)    S(metal)    S(lipo)     H(rot)  DE(clash)    DE(int)     intcor
     16.70     -20.00       3.90        0.00      55.21       1.93       0.40       2.91       ----

> <Gold.Chemscore.Fitness>
16.6994

> <Gold.Chemscore.DG>
-20.0028

> <Gold.Chemscore.ZeroCoef>
-5.4800

> <Gold.Chemscore.Hbond>
3.8960

> <Gold.Chemscore.Metal>
0.0000

> <Gold.Chemscore.Lipo>
55.2090

> <Gold.Chemscore.Internal_Hbond>
0.0000

> <Gold.Chemscore.DEClash>
0.3966

> <Gold.Chemscore.DEInternal>
2.9068

> <Gold.Chemscore.Rot>
1.9334

> <Gold.Chemscore.Internal.Correction>
   9.000000E+99

> <Gold.Chemscore.Hbonds>
donor molecule, donor type, donor heavy atom, donor atom, acceptor molecule, acceptor atom, score
      L1  H     3    20       P1  7948  0.98
      L1  H    10    27       P1  8028  0.95
      L1  H    13    28       P1  7948  0.81
      P1  H  7989  7998       L1    12  0.19
      P1  H  8011  8017       L1    12  0.61
      P1  H 10785 10796       L1    17  0.06

> <Gold.Chemscore.Hbond.Weighted>
-13.0128

> <Gold.Chemscore.Metal.Weighted>
-0.0000

> <Gold.Chemscore.Lipo.Weighted>
-6.4595

> <Gold.Chemscore.Internal_Hbond.Weighted>
0.0000

> <Gold.Chemscore.DEClash.Weighted>
0.3966

> <Gold.Chemscore.DEInternal.Weighted>
2.9068

> <Gold.Chemscore.Rot.Weighted>
4.9494

> <Gold.Chemscore.Internal.Correction.Weighted>
   9.000000E+99

> <Gold.Protein.RotatedTorsions>
[ 6907 6896 6895 6894 ] final  161.01 input  -60.11 | X-H torsion
[ 7974 7965 7964 7962 ] final  -79.58 input  175.53 | X-H torsion
[ 8008 7997 7996 7995 ] final   65.57 input   59.86 | X-H torsion
[ 10167 10162 10161 10158 ] final -168.82 input  -65.29 | X-H torsion
[ 10718 10713 10712 10709 ] final -167.58 input   66.30 | X-H torsion
[ 10763 10752 10751 10750 ] final -104.74 input  -60.55 | X-H torsion
[ 11005 11000 10999 10996 ] final  -20.02 input  -57.11 | X-H torsion

> <Gold.Protein.ActiveResidues>
 VAL166  LYS551  ARG553  GLY616  TRP617  ASP618  TYR619  PRO620  LYS621  CYS622 
 ASP623  PHE694  ASN695  SER759  ASP760  ASP761  ALA762  ILE779  LEU786  VAL792 
 PHE793  MET794  SER795  GLU796  ALA797  LYS798  CYS799  TRP800  GLU811  SER814 

> <Gold.Protein.RotatedAtoms>
  151.9621  133.3698  159.4038 H   0  0  0  0  0  0  0  0  0  0  0  0  # atno 6907 bound_to 6896
  150.6962  134.4230  159.5223 H   0  0  0  0  0  0  0  0  0  0  0  0  # atno 6908 bound_to 6896
  152.1920  134.8663  160.0567 H   0  0  0  0  0  0  0  0  0  0  0  0  # atno 6909 bound_to 6896
  145.5714  140.9465  143.1393 H   0  0  0  0  0  0  0  0  0  0  0  0  # atno 7974 bound_to 7965
  155.6638  140.3497  155.4792 H   0  0  0  0  0  0  0  0  0  0  0  0  # atno 8008 bound_to 7997
  155.9746  140.1162  157.0804 H   0  0  0  0  0  0  0  0  0  0  0  0  # atno 8009 bound_to 7997
  154.4175  140.1150  156.5339 H   0  0  0  0  0  0  0  0  0  0  0  0  # atno 8010 bound_to 7997
  139.5961  144.1109  152.1691 H   0  0  0  0  0  0  0  0  0  0  0  0  # atno 10167 bound_to 10162
  156.6845  130.9135  151.3061 H   0  0  0  0  0  0  0  0  0  0  0  0  # atno 10718 bound_to 10713
  154.7899  135.4775  154.0030 H   0  0  0  0  0  0  0  0  0  0  0  0  # atno 10763 bound_to 10752
  153.1616  135.6809  153.8742 H   0  0  0  0  0  0  0  0  0  0  0  0  # atno 10764 bound_to 10752
  153.8354  135.3186  155.3400 H   0  0  0  0  0  0  0  0  0  0  0  0  # atno 10765 bound_to 10752
  140.8423  133.7917  155.9874 H   0  0  0  0  0  0  0  0  0  0  0  0  # atno 11005 bound_to 11000
  144.7436  139.7381  143.7301 LP  0  0  0  0  0  0  0  0  0  0  0  0  # atno 17320 bound_to 7965
  146.1782  139.4961  142.9884 LP  0  0  0  0  0  0  0  0  0  0  0  0  # atno 17321 bound_to 7965
  140.0694  144.5791  150.7203 LP  0  0  0  0  0  0  0  0  0  0  0  0  # atno 17342 bound_to 10162
  140.7213  143.2591  151.4269 LP  0  0  0  0  0  0  0  0  0  0  0  0  # atno 17343 bound_to 10162
  157.7031  130.9355  150.0848 LP  0  0  0  0  0  0  0  0  0  0  0  0  # atno 17370 bound_to 10713
  156.1843  130.3651  149.8994 LP  0  0  0  0  0  0  0  0  0  0  0  0  # atno 17371 bound_to 10713
  140.8881  134.2529  157.5109 LP  0  0  0  0  0  0  0  0  0  0  0  0  # atno 17394 bound_to 11000
  139.8703  134.9648  156.4508 LP  0  0  0  0  0  0  0  0  0  0  0  0  # atno 17395 bound_to 11000

$$$$
