AV-unprocessed.smi:3140|AV-procd|sdf|11958|dock10
  -GOLD-   2272017353D 1   1.00000     0.00000
 Structure written by MMmdl.
 38 39  0  0  0  0  0  0  0  0  2 V2000
  149.0403  141.2521  156.4952 C   0  0  0  0  0  0  0  0  0  0  0  0
  150.3830  141.7189  155.9083 C   0  0  2  0  0  0  0  0  0  0  0  0
  151.4553  140.6215  156.0582 C   0  0  0  0  0  0  0  0  0  0  0  0
  151.3441  139.5950  155.0365 N   0  0  0  0  0  0  0  0  0  0  0  0
  152.0808  138.4369  154.9022 C   0  0  0  0  0  0  0  0  0  0  0  0
  151.6131  137.7840  153.7979 C   0  0  0  0  0  0  0  0  0  0  0  0
  150.5782  138.6329  153.3154 C   0  0  0  0  0  0  0  0  0  0  0  0
  150.4180  139.7149  154.0603 N   0  0  0  0  0  0  0  0  0  0  0  0
  150.8393  142.9710  156.5549 N   0  3  0  0  0  0  0  0  0  0  0  0
  151.0637  142.8896  158.0123 C   0  0  0  0  0  0  0  0  0  0  0  0
  152.5367  143.1635  158.3513 C   0  0  0  0  0  0  0  0  0  0  0  0
  152.8615  142.7422  159.7111 N   0  0  0  0  0  0  0  0  0  0  0  0
  152.4897  143.5586  160.8545 C   0  0  0  0  0  0  0  0  0  0  0  0
  152.8178  142.6953  162.0814 C   0  0  0  0  0  0  0  0  0  0  0  0
  153.7092  141.5603  161.5656 C   0  0  0  0  0  0  0  0  0  0  0  0
  153.5460  141.6459  160.0575 C   0  0  0  0  0  0  0  0  0  0  0  0
  153.9975  140.8009  159.2859 O   0  0  0  0  0  0  0  0  0  0  0  0
  148.7214  140.3134  156.0414 H   0  0  0  0  0  0  0  0  0  0  0  0
  148.2461  141.9771  156.3177 H   0  0  0  0  0  0  0  0  0  0  0  0
  149.1121  141.0912  157.5714 H   0  0  0  0  0  0  0  0  0  0  0  0
  150.2468  141.9099  154.8426 H   0  0  0  0  0  0  0  0  0  0  0  0
  152.4583  141.0508  156.0244 H   0  0  0  0  0  0  0  0  0  0  0  0
  151.3603  140.1349  157.0300 H   0  0  0  0  0  0  0  0  0  0  0  0
  152.8667  138.1757  155.5958 H   0  0  0  0  0  0  0  0  0  0  0  0
  151.9591  136.8438  153.3942 H   0  0  0  0  0  0  0  0  0  0  0  0
  149.9421  138.4956  152.4532 H   0  0  0  0  0  0  0  0  0  0  0  0
  151.6860  143.2856  156.1027 H   0  0  0  0  0  0  0  0  0  0  0  0
  150.4291  143.6186  158.5182 H   0  0  0  0  0  0  0  0  0  0  0  0
  150.7727  141.9023  158.3709 H   0  0  0  0  0  0  0  0  0  0  0  0
  153.1895  142.6431  157.6483 H   0  0  0  0  0  0  0  0  0  0  0  0
  152.7532  144.2271  158.2421 H   0  0  0  0  0  0  0  0  0  0  0  0
  153.0818  144.4748  160.8514 H   0  0  0  0  0  0  0  0  0  0  0  0
  151.4344  143.8327  160.8234 H   0  0  0  0  0  0  0  0  0  0  0  0
  153.3062  143.2754  162.8653 H   0  0  0  0  0  0  0  0  0  0  0  0
  151.9010  142.2811  162.5033 H   0  0  0  0  0  0  0  0  0  0  0  0
  154.7552  141.7248  161.8266 H   0  0  0  0  0  0  0  0  0  0  0  0
  153.4007  140.5866  161.9475 H   0  0  0  0  0  0  0  0  0  0  0  0
  150.1212  143.6650  156.3997 H   0  0  0  0  0  0  0  0  0  0  0  0
  1  2  1  0  0  0  0
  1 18  1  0  0  0  0
  1 19  1  0  0  0  0
  1 20  1  0  0  0  0
  2  3  1  0  0  0  0
  2  9  1  0  0  0  0
  2 21  1  0  0  0  0
  3  4  1  0  0  0  0
  3 22  1  0  0  0  0
  3 23  1  0  0  0  0
  4  8  1  0  0  0  0
  4  5  1  0  0  0  0
  5  6  2  0  0  0  0
  5 24  1  0  0  0  0
  6  7  1  0  0  0  0
  6 25  1  0  0  0  0
  7  8  2  0  0  0  0
  7 26  1  0  0  0  0
  9 10  1  0  0  0  0
  9 27  1  0  0  0  0
  9 38  1  0  0  0  0
 10 11  1  0  0  0  0
 10 28  1  0  0  0  0
 10 29  1  0  0  0  0
 11 12  1  0  0  0  0
 11 30  1  0  0  0  0
 11 31  1  0  0  0  0
 12 16  1  0  0  0  0
 12 13  1  0  0  0  0
 13 14  1  0  0  0  0
 13 32  1  0  0  0  0
 13 33  1  0  0  0  0
 14 15  1  0  0  0  0
 14 34  1  0  0  0  0
 14 35  1  0  0  0  0
 15 16  1  0  0  0  0
 15 36  1  0  0  0  0
 15 37  1  0  0  0  0
 16 17  2  0  0  0  0
M  CHG  1   9   1
M  END
> <s_m_source_file>
AV-unprocessed.smi

> <i_m_source_file_index>
3140

> <i_lp_mmshare_version>
43012

> <i_f3d_flags>
0

> <s_epik_input>
bjFbY0hdW2NIXVtjSF1uMVtDSDJdW0NAQEhdKFtDSDNdKVtOSF1bQ0gyXVtDSDJdTjJbQ0gyXVtDSDJdW0NIMl1DMj1P

> <s_epik_cmdline>
J2VwaWtfcHl0aG9uJywgJy1waCcsICc3LjAnLCAnLXRuJywgJzgnLCAnLW1hJywgJzIwMCcsICctbWV0YWxfYmluZGluZycsICctaW1hZScsICc8aW5maWxlLm1hZT4nLCAnLW9tYWUnLCAnPG91dGZpbGUubWFlPic=

> <r_lp_tautomer_probability>
1

> <r_epik_Ionization_Penalty>
0.00826299

> <r_epik_Ionization_Penalty_Charging>
0.00825899

> <r_epik_Ionization_Penalty_Neutral>
3.99893e-06

> <r_epik_State_Penalty>
0.00621436

> <r_epik_Charging_Adjusted_Penalty>
0.0144734

> <i_epik_Tot_Q>
1

> <i_epik_Tot_abs_Q>
1

> <r_epik_Metal_State_Penalty>
0.00621472

> <b_epik_Metal_Only>
0

> <s_lp_Force_Field>
OPLS_2005

> <r_lp_Energy>
18.6849

> <b_lp_Chiralities_Consistent>
1

> <s_lp_Variant>
AV-unprocessed.smi:3140-1

> <Gold.Version>
5.8.1

> <Gold.Id.Protein>
6NUR|6NUR_protein|mol2

> <Gold.PLP.Fitness>
56.8205

> <Gold.PLP.PLP>
-45.4658

> <Gold.PLP.part.hbond>
-2.0000

> <Gold.PLP.part.metal>
0.0000

> <Gold.PLP.part.buried>
-4.8914

> <Gold.PLP.part.nonpolar>
-39.3209

> <Gold.PLP.part.repulsive>
0.1820

> <Gold.PLP.ligand.clash>
0.0000

> <Gold.PLP.ligand.torsion>
0.8909

> <Gold.PLP.Chemscore.Hbond>
2.5000

> <Gold.PLP.Chemscore.CHOScore>
1.8531

> <Gold.PLP.Chemscore.Metal>
0.0000

> <Gold.Chemscore.Hbonds>
donor molecule, donor type, donor heavy atom, donor atom, acceptor molecule, acceptor atom, score
      L1  H     9    38       P1  8028  2.00
      P1  H  7997  8008       L1    17  0.07
      L1  C     7    26       P1  7948  0.83
      L1  C     7    26       P1  7957  0.71

> <Gold.PLP.Chemscore.Internal.Correction>
0.0773

> <Gold.Rescore>
     Score         DG    S(hbond)    S(metal)    S(lipo)     H(rot)  DE(clash)    DE(int)     intcor
     14.94     -16.46       1.41        0.00      98.72       2.06       0.25       1.27       ----

> <Gold.Chemscore.Fitness>
14.9440

> <Gold.Chemscore.DG>
-16.4630

> <Gold.Chemscore.ZeroCoef>
-5.4800

> <Gold.Chemscore.Hbond>
1.4059

> <Gold.Chemscore.Metal>
0.0000

> <Gold.Chemscore.Lipo>
98.7188

> <Gold.Chemscore.Internal_Hbond>
0.0000

> <Gold.Chemscore.DEClash>
0.2498

> <Gold.Chemscore.DEInternal>
1.2691

> <Gold.Chemscore.Rot>
2.0557

> <Gold.Chemscore.Internal.Correction>
   9.000000E+99

> <Gold.Chemscore.Hbonds>
donor molecule, donor type, donor heavy atom, donor atom, acceptor molecule, acceptor atom, score
      L1  H     9    38       P1  8028  1.00
      P1  H  7997  8008       L1    17  0.09

> <Gold.Chemscore.Hbond.Weighted>
-4.6955

> <Gold.Chemscore.Metal.Weighted>
-0.0000

> <Gold.Chemscore.Lipo.Weighted>
-11.5501

> <Gold.Chemscore.Internal_Hbond.Weighted>
0.0000

> <Gold.Chemscore.DEClash.Weighted>
0.2498

> <Gold.Chemscore.DEInternal.Weighted>
1.2691

> <Gold.Chemscore.Rot.Weighted>
5.2627

> <Gold.Chemscore.Internal.Correction.Weighted>
   9.000000E+99

> <Gold.Protein.RotatedTorsions>
[ 6907 6896 6895 6894 ] final -157.79 input  -60.11 | X-H torsion
[ 7974 7965 7964 7962 ] final   59.44 input  175.53 | X-H torsion
[ 8008 7997 7996 7995 ] final  -93.42 input   59.86 | X-H torsion
[ 10167 10162 10161 10158 ] final  -14.13 input  -65.29 | X-H torsion
[ 10718 10713 10712 10709 ] final -177.81 input   66.30 | X-H torsion
[ 10763 10752 10751 10750 ] final  128.33 input  -60.55 | X-H torsion
[ 11005 11000 10999 10996 ] final   87.52 input  -57.11 | X-H torsion

> <Gold.Protein.ActiveResidues>
 VAL166  LYS551  ARG553  GLY616  TRP617  ASP618  TYR619  PRO620  LYS621  CYS622 
 ASP623  PHE694  ASN695  SER759  ASP760  ASP761  ALA762  ILE779  LEU786  VAL792 
 PHE793  MET794  SER795  GLU796  ALA797  LYS798  CYS799  TRP800  GLU811  SER814 

> <Gold.Protein.RotatedAtoms>
  151.3083  133.4092  159.2644 H   0  0  0  0  0  0  0  0  0  0  0  0  # atno 6907 bound_to 6896
  151.0136  134.9416  159.8031 H   0  0  0  0  0  0  0  0  0  0  0  0  # atno 6908 bound_to 6896
  152.5307  134.3047  159.9144 H   0  0  0  0  0  0  0  0  0  0  0  0  # atno 6909 bound_to 6896
  145.9071  139.3626  143.0557 H   0  0  0  0  0  0  0  0  0  0  0  0  # atno 7974 bound_to 7965
  154.7354  140.0499  157.0764 H   0  0  0  0  0  0  0  0  0  0  0  0  # atno 8008 bound_to 7997
  155.0247  140.3151  155.4761 H   0  0  0  0  0  0  0  0  0  0  0  0  # atno 8009 bound_to 7997
  156.2852  140.2161  156.5366 H   0  0  0  0  0  0  0  0  0  0  0  0  # atno 8010 bound_to 7997
  140.7195  143.5353  150.9472 H   0  0  0  0  0  0  0  0  0  0  0  0  # atno 10167 bound_to 10162
  156.8350  130.9666  151.3104 H   0  0  0  0  0  0  0  0  0  0  0  0  # atno 10718 bound_to 10713
  153.7239  135.3249  155.3272 H   0  0  0  0  0  0  0  0  0  0  0  0  # atno 10763 bound_to 10752
  154.8347  135.4506  154.1190 H   0  0  0  0  0  0  0  0  0  0  0  0  # atno 10764 bound_to 10752
  153.2318  135.6961  153.7962 H   0  0  0  0  0  0  0  0  0  0  0  0  # atno 10765 bound_to 10752
  139.8917  134.8428  156.2871 H   0  0  0  0  0  0  0  0  0  0  0  0  # atno 11005 bound_to 11000
  145.8718  140.9415  143.0647 LP  0  0  0  0  0  0  0  0  0  0  0  0  # atno 17320 bound_to 7965
  144.6740  140.0664  143.7474 LP  0  0  0  0  0  0  0  0  0  0  0  0  # atno 17321 bound_to 7965
  139.9075  143.6761  152.3121 LP  0  0  0  0  0  0  0  0  0  0  0  0  # atno 17342 bound_to 10162
  139.7132  144.7616  151.1077 LP  0  0  0  0  0  0  0  0  0  0  0  0  # atno 17343 bound_to 10162
  157.6386  130.8787  149.9406 LP  0  0  0  0  0  0  0  0  0  0  0  0  # atno 17370 bound_to 10713
  156.0912  130.3663  150.0391 LP  0  0  0  0  0  0  0  0  0  0  0  0  # atno 17371 bound_to 10713
  141.0000  133.7157  156.0946 LP  0  0  0  0  0  0  0  0  0  0  0  0  # atno 17394 bound_to 11000
  140.7510  134.4045  157.5541 LP  0  0  0  0  0  0  0  0  0  0  0  0  # atno 17395 bound_to 11000

$$$$
