AV-unprocessed.smi:3251|AV-procd|sdf|12437|dock10
  -GOLD-   2272018333D 1   1.00000     0.00000
 Structure written by MMmdl.
 40 41  0  0  0  0  0  0  0  0  1 V2000
  145.3423  143.7072  154.0308 C   0  0  0  0  0  0  0  0  0  0  0  0
  146.3280  142.5779  154.1110 C   0  0  0  0  0  0  0  0  0  0  0  0
  146.3366  141.3696  153.3578 C   0  0  0  0  0  0  0  0  0  0  0  0
  147.3521  140.5789  153.6643 N   0  0  0  0  0  0  0  0  0  0  0  0
  148.0267  141.2528  154.6198 N   0  0  0  0  0  0  0  0  0  0  0  0
  149.2378  140.6840  155.1834 C   0  0  0  0  0  0  0  0  0  0  0  0
  149.8250  141.5773  156.2873 C   0  0  0  0  0  0  0  0  0  0  0  0
  150.9812  140.9236  156.8934 N   0  0  0  0  0  0  0  0  0  0  0  0
  151.3932  141.5281  158.1715 C   0  0  2  0  0  0  0  0  0  0  0  0
  151.7403  143.0084  157.9508 C   0  0  0  0  0  0  0  0  0  0  0  0
  152.5961  140.7999  158.8135 C   0  0  0  0  0  0  0  0  0  0  0  0
  153.1289  139.8756  158.1960 O   0  0  0  0  0  0  0  0  0  0  0  0
  153.0350  141.1855  160.0312 N   0  0  0  0  0  0  0  0  0  0  0  0
  154.1296  140.5825  160.7913 C   0  0  0  0  0  0  0  0  0  0  0  0
  154.0602  141.2037  162.1865 C   0  0  0  0  0  0  0  0  0  0  0  0
  153.3767  142.5447  161.9626 C   0  0  0  0  0  0  0  0  0  0  0  0
  152.4412  142.2917  160.7805 C   0  0  0  0  0  0  0  0  0  0  0  0
  147.4306  142.4619  154.9091 C   0  0  0  0  0  0  0  0  0  0  0  0
  144.3866  143.3816  153.6195 H   0  0  0  0  0  0  0  0  0  0  0  0
  145.7085  144.5135  153.3952 H   0  0  0  0  0  0  0  0  0  0  0  0
  145.1397  144.1367  155.0120 H   0  0  0  0  0  0  0  0  0  0  0  0
  145.6387  141.0465  152.5994 H   0  0  0  0  0  0  0  0  0  0  0  0
  149.0189  139.6849  155.5627 H   0  0  0  0  0  0  0  0  0  0  0  0
  149.9653  140.5599  154.3801 H   0  0  0  0  0  0  0  0  0  0  0  0
  150.1454  142.5307  155.8661 H   0  0  0  0  0  0  0  0  0  0  0  0
  149.0489  141.8008  157.0200 H   0  0  0  0  0  0  0  0  0  0  0  0
  151.7399  140.8938  156.2278 H   0  0  0  0  0  0  0  0  0  0  0  0
  150.5288  141.4906  158.8339 H   0  0  0  0  0  0  0  0  0  0  0  0
  152.0310  143.4921  158.8842 H   0  0  0  0  0  0  0  0  0  0  0  0
  150.8845  143.5556  157.5545 H   0  0  0  0  0  0  0  0  0  0  0  0
  152.5638  143.1264  157.2449 H   0  0  0  0  0  0  0  0  0  0  0  0
  154.0480  139.4961  160.8437 H   0  0  0  0  0  0  0  0  0  0  0  0
  155.0766  140.8341  160.3114 H   0  0  0  0  0  0  0  0  0  0  0  0
  153.4391  140.5823  162.8331 H   0  0  0  0  0  0  0  0  0  0  0  0
  155.0395  141.3002  162.6558 H   0  0  0  0  0  0  0  0  0  0  0  0
  152.8523  142.9066  162.8474 H   0  0  0  0  0  0  0  0  0  0  0  0
  154.1215  143.2921  161.6860 H   0  0  0  0  0  0  0  0  0  0  0  0
  152.3263  143.1877  160.1683 H   0  0  0  0  0  0  0  0  0  0  0  0
  151.4528  141.9918  161.1315 H   0  0  0  0  0  0  0  0  0  0  0  0
  147.8417  143.1365  155.6457 H   0  0  0  0  0  0  0  0  0  0  0  0
  1  2  1  0  0  0  0
  1 19  1  0  0  0  0
  1 20  1  0  0  0  0
  1 21  1  0  0  0  0
  2 18  2  0  0  0  0
  2  3  1  0  0  0  0
  3  4  2  0  0  0  0
  3 22  1  0  0  0  0
  4  5  1  0  0  0  0
  5  6  1  0  0  0  0
  5 18  1  0  0  0  0
  6  7  1  0  0  0  0
  6 23  1  0  0  0  0
  6 24  1  0  0  0  0
  7  8  1  0  0  0  0
  7 25  1  0  0  0  0
  7 26  1  0  0  0  0
  8  9  1  0  0  0  0
  8 27  1  0  0  0  0
  9 10  1  0  0  0  0
  9 11  1  0  0  0  0
  9 28  1  0  0  0  0
 10 29  1  0  0  0  0
 10 30  1  0  0  0  0
 10 31  1  0  0  0  0
 11 12  2  0  0  0  0
 11 13  1  0  0  0  0
 13 17  1  0  0  0  0
 13 14  1  0  0  0  0
 14 15  1  0  0  0  0
 14 32  1  0  0  0  0
 14 33  1  0  0  0  0
 15 16  1  0  0  0  0
 15 34  1  0  0  0  0
 15 35  1  0  0  0  0
 16 17  1  0  0  0  0
 16 36  1  0  0  0  0
 16 37  1  0  0  0  0
 17 38  1  0  0  0  0
 17 39  1  0  0  0  0
 18 40  1  0  0  0  0
M  END
> <s_m_source_file>
AV-unprocessed.smi

> <i_m_source_file_index>
3251

> <i_lp_mmshare_version>
43012

> <i_f3d_flags>
0

> <s_epik_input>
W0NIM11jMVtjSF1ubihbY0hdMSlbQ0gyXVtDSDJdW05IXVtDQEhdKFtDSDNdKUMoPU8pTjJbQ0gyXVtDSDJdW0NIMl1bQ0gyXTI=

> <s_epik_cmdline>
J2VwaWtfcHl0aG9uJywgJy1waCcsICc3LjAnLCAnLXRuJywgJzgnLCAnLW1hJywgJzIwMCcsICctbWV0YWxfYmluZGluZycsICctaW1hZScsICc8aW5maWxlLm1hZT4nLCAnLW9tYWUnLCAnPG91dGZpbGUubWFlPic=

> <r_lp_tautomer_probability>
1

> <r_epik_Ionization_Penalty>
0.734676

> <r_epik_Ionization_Penalty_Charging>
0

> <r_epik_Ionization_Penalty_Neutral>
0.734676

> <r_epik_State_Penalty>
0.75825

> <r_epik_Charging_Adjusted_Penalty>
0.75825

> <i_epik_Tot_Q>
0

> <i_epik_Tot_abs_Q>
0

> <r_epik_Metal_State_Penalty>
0.756914

> <b_epik_Metal_Only>
0

> <s_lp_Force_Field>
OPLS_2005

> <r_lp_Energy>
32.0163

> <b_lp_Chiralities_Consistent>
1

> <s_lp_Variant>
AV-unprocessed.smi:3251-3

> <Gold.Version>
5.8.1

> <Gold.Id.Protein>
6NUR|6NUR_protein|mol2

> <Gold.PLP.Fitness>
48.4562

> <Gold.PLP.PLP>
-39.8383

> <Gold.PLP.part.hbond>
-1.0000

> <Gold.PLP.part.metal>
0.0000

> <Gold.PLP.part.buried>
-2.6817

> <Gold.PLP.part.nonpolar>
-37.0388

> <Gold.PLP.part.repulsive>
1.3029

> <Gold.PLP.ligand.clash>
0.0000

> <Gold.PLP.ligand.torsion>
0.0893

> <Gold.PLP.Chemscore.Hbond>
1.0000

> <Gold.PLP.Chemscore.CHOScore>
1.9224

> <Gold.PLP.Chemscore.Metal>
0.0000

> <Gold.Chemscore.Hbonds>
donor molecule, donor type, donor heavy atom, donor atom, acceptor molecule, acceptor atom, score
      P1  H  7997  8009       L1    12  1.00
      L1  C     3    22       P1 10175  0.69
      L1  C    18    40       P1  8028  0.60

> <Gold.PLP.Chemscore.Internal.Correction>
0.0293

> <Gold.Rescore>
     Score         DG    S(hbond)    S(metal)    S(lipo)     H(rot)  DE(clash)    DE(int)     intcor
     14.06     -15.42       0.86        0.00      97.34       1.70       0.17       1.19       ----

> <Gold.Chemscore.Fitness>
14.0597

> <Gold.Chemscore.DG>
-15.4170

> <Gold.Chemscore.ZeroCoef>
-5.4800

> <Gold.Chemscore.Hbond>
0.8647

> <Gold.Chemscore.Metal>
0.0000

> <Gold.Chemscore.Lipo>
97.3358

> <Gold.Chemscore.Internal_Hbond>
0.0000

> <Gold.Chemscore.DEClash>
0.1718

> <Gold.Chemscore.DEInternal>
1.1855

> <Gold.Chemscore.Rot>
1.6951

> <Gold.Chemscore.Internal.Correction>
   9.000000E+99

> <Gold.Chemscore.Hbonds>
donor molecule, donor type, donor heavy atom, donor atom, acceptor molecule, acceptor atom, score
      P1  H  7997  8009       L1    12  0.99

> <Gold.Chemscore.Hbond.Weighted>
-2.8882

> <Gold.Chemscore.Metal.Weighted>
-0.0000

> <Gold.Chemscore.Lipo.Weighted>
-11.3883

> <Gold.Chemscore.Internal_Hbond.Weighted>
0.0000

> <Gold.Chemscore.DEClash.Weighted>
0.1718

> <Gold.Chemscore.DEInternal.Weighted>
1.1855

> <Gold.Chemscore.Rot.Weighted>
4.3395

> <Gold.Chemscore.Internal.Correction.Weighted>
   9.000000E+99

> <Gold.Protein.RotatedTorsions>
[ 6907 6896 6895 6894 ] final  -55.24 input  -60.11 | X-H torsion
[ 7974 7965 7964 7962 ] final   29.49 input  175.53 | X-H torsion
[ 8008 7997 7996 7995 ] final  156.50 input   59.86 | X-H torsion
[ 10167 10162 10161 10158 ] final  -74.31 input  -65.29 | X-H torsion
[ 10718 10713 10712 10709 ] final  113.97 input   66.30 | X-H torsion
[ 10763 10752 10751 10750 ] final -170.54 input  -60.55 | X-H torsion
[ 11005 11000 10999 10996 ] final -137.77 input  -57.11 | X-H torsion

> <Gold.Protein.ActiveResidues>
 VAL166  LYS551  ARG553  GLY616  TRP617  ASP618  TYR619  PRO620  LYS621  CYS622 
 ASP623  PHE694  ASN695  SER759  ASP760  ASP761  ALA762  ILE779  LEU786  VAL792 
 PHE793  MET794  SER795  GLU796  ALA797  LYS798  CYS799  TRP800  GLU811  SER814 

> <Gold.Protein.RotatedAtoms>
  150.8268  134.7503  159.6819 H   0  0  0  0  0  0  0  0  0  0  0  0  # atno 6907 bound_to 6896
  152.4378  134.5648  159.9914 H   0  0  0  0  0  0  0  0  0  0  0  0  # atno 6908 bound_to 6896
  151.5818  133.3339  159.3046 H   0  0  0  0  0  0  0  0  0  0  0  0  # atno 6909 bound_to 6896
  146.1668  139.6914  142.8995 H   0  0  0  0  0  0  0  0  0  0  0  0  # atno 7974 bound_to 7965
  156.2419  140.1911  156.6965 H   0  0  0  0  0  0  0  0  0  0  0  0  # atno 8008 bound_to 7997
  154.6213  140.0608  156.9645 H   0  0  0  0  0  0  0  0  0  0  0  0  # atno 8009 bound_to 7997
  155.1857  140.3280  155.4370 H   0  0  0  0  0  0  0  0  0  0  0  0  # atno 8010 bound_to 7997
  140.5038  143.2356  151.7708 H   0  0  0  0  0  0  0  0  0  0  0  0  # atno 10167 bound_to 10162
  157.6308  131.0992  150.7118 H   0  0  0  0  0  0  0  0  0  0  0  0  # atno 10718 bound_to 10713
  154.6404  135.2898  155.0110 H   0  0  0  0  0  0  0  0  0  0  0  0  # atno 10763 bound_to 10752
  154.1239  135.6544  153.4912 H   0  0  0  0  0  0  0  0  0  0  0  0  # atno 10764 bound_to 10752
  153.0324  135.5294  154.7269 H   0  0  0  0  0  0  0  0  0  0  0  0  # atno 10765 bound_to 10752
  140.8679  134.2087  157.4669 H   0  0  0  0  0  0  0  0  0  0  0  0  # atno 11005 bound_to 11000
  145.4446  141.0424  143.2838 LP  0  0  0  0  0  0  0  0  0  0  0  0  # atno 17320 bound_to 7965
  144.8104  139.5972  143.7032 LP  0  0  0  0  0  0  0  0  0  0  0  0  # atno 17321 bound_to 7965
  139.4878  144.4486  151.9681 LP  0  0  0  0  0  0  0  0  0  0  0  0  # atno 17342 bound_to 10162
  140.3575  144.3013  150.5939 LP  0  0  0  0  0  0  0  0  0  0  0  0  # atno 17343 bound_to 10162
  156.7458  130.4753  149.5467 LP  0  0  0  0  0  0  0  0  0  0  0  0  # atno 17370 bound_to 10713
  156.1510  130.6310  151.0595 LP  0  0  0  0  0  0  0  0  0  0  0  0  # atno 17371 bound_to 10713
  139.8710  134.9760  156.4906 LP  0  0  0  0  0  0  0  0  0  0  0  0  # atno 17394 bound_to 11000
  140.8607  133.8062  155.9262 LP  0  0  0  0  0  0  0  0  0  0  0  0  # atno 17395 bound_to 11000

$$$$
