AV-unprocessed.smi:2184|AV-procd|sdf|8873|dock8
  -GOLD-   2272012 73D 1   1.00000     0.00000
 Structure written by MMmdl.
 47 48  0  0  0  0  0  0  0  0  1 V2000
  149.1644  136.0124  158.2521 C   0  0  0  0  0  0  0  0  0  0  0  0
  149.4795  134.5649  157.2055 S   0  0  0  0  0  0  0  0  0  0  0  0
  149.3788  135.3070  155.5488 C   0  0  2  0  0  0  0  0  0  0  0  0
  149.6370  134.2407  154.4724 C   0  0  0  0  0  0  0  0  0  0  0  0
  150.3373  136.4946  155.3952 C   0  0  0  0  0  0  0  0  0  0  0  0
  151.1238  136.7824  156.2977 O   0  0  0  0  0  0  0  0  0  0  0  0
  150.2549  137.1845  154.2483 N   0  0  0  0  0  0  0  0  0  0  0  0
  151.0669  138.3521  153.9272 C   0  0  0  0  0  0  0  0  0  0  0  0
  151.1964  139.3654  155.0561 C   0  0  0  0  0  0  0  0  0  0  0  0
  150.2697  140.4106  155.2635 C   0  0  0  0  0  0  0  0  0  0  0  0
  150.4732  141.3028  156.3335 C   0  0  0  0  0  0  0  0  0  0  0  0
  151.5978  141.1306  157.1746 C   0  0  0  0  0  0  0  0  0  0  0  0
  151.8190  142.0124  158.2549 N   0  0  0  0  0  0  0  0  0  0  0  0
  151.9525  143.4380  157.9615 C   0  0  0  0  0  0  0  0  0  0  0  0
  151.8805  144.2797  159.2507 C   0  0  1  0  0  0  0  0  0  0  0  0
  150.4555  144.4136  159.8169 C   0  0  0  0  0  0  0  0  0  0  0  0
  152.8015  143.7769  160.2209 O   0  0  0  0  0  0  0  0  0  0  0  0
  152.6320  142.3982  160.5472 C   0  0  2  0  0  0  0  0  0  0  0  0
  153.6915  142.0243  161.5889 C   0  0  0  0  0  0  0  0  0  0  0  0
  152.7567  141.5464  159.2714 C   0  0  0  0  0  0  0  0  0  0  0  0
  152.4894  140.1307  156.9673 N   0  0  0  0  0  0  0  0  0  0  0  0
  152.2896  139.2779  155.9407 C   0  0  0  0  0  0  0  0  0  0  0  0
  149.1528  135.7179  159.3015 H   0  0  0  0  0  0  0  0  0  0  0  0
  148.2000  136.4576  158.0081 H   0  0  0  0  0  0  0  0  0  0  0  0
  149.9413  136.7646  158.1170 H   0  0  0  0  0  0  0  0  0  0  0  0
  148.3562  135.6641  155.4170 H   0  0  0  0  0  0  0  0  0  0  0  0
  149.5908  134.6683  153.4699 H   0  0  0  0  0  0  0  0  0  0  0  0
  148.8891  133.4489  154.5239 H   0  0  0  0  0  0  0  0  0  0  0  0
  150.6163  133.7757  154.5933 H   0  0  0  0  0  0  0  0  0  0  0  0
  149.5817  136.8869  153.5576 H   0  0  0  0  0  0  0  0  0  0  0  0
  152.0670  138.0205  153.6442 H   0  0  0  0  0  0  0  0  0  0  0  0
  150.6408  138.8573  153.0590 H   0  0  0  0  0  0  0  0  0  0  0  0
  149.4130  140.5432  154.6200 H   0  0  0  0  0  0  0  0  0  0  0  0
  149.7762  142.1131  156.4863 H   0  0  0  0  0  0  0  0  0  0  0  0
  152.9119  143.6047  157.4694 H   0  0  0  0  0  0  0  0  0  0  0  0
  151.1751  143.7626  157.2686 H   0  0  0  0  0  0  0  0  0  0  0  0
  152.2174  145.2875  159.0069 H   0  0  0  0  0  0  0  0  0  0  0  0
  149.8063  144.9277  159.1079 H   0  0  0  0  0  0  0  0  0  0  0  0
  150.4573  144.9918  160.7410 H   0  0  0  0  0  0  0  0  0  0  0  0
  150.0008  143.4459  160.0270 H   0  0  0  0  0  0  0  0  0  0  0  0
  151.6504  142.2437  160.9959 H   0  0  0  0  0  0  0  0  0  0  0  0
  153.6002  140.9787  161.8841 H   0  0  0  0  0  0  0  0  0  0  0  0
  153.5863  142.6334  162.4868 H   0  0  0  0  0  0  0  0  0  0  0  0
  154.6987  142.1759  161.1996 H   0  0  0  0  0  0  0  0  0  0  0  0
  152.5920  140.5002  159.5252 H   0  0  0  0  0  0  0  0  0  0  0  0
  153.7685  141.6180  158.8698 H   0  0  0  0  0  0  0  0  0  0  0  0
  153.0290  138.4997  155.8216 H   0  0  0  0  0  0  0  0  0  0  0  0
  1  2  1  0  0  0  0
  1 23  1  0  0  0  0
  1 24  1  0  0  0  0
  1 25  1  0  0  0  0
  2  3  1  0  0  0  0
  3  4  1  0  0  0  0
  3  5  1  0  0  0  0
  3 26  1  0  0  0  0
  4 27  1  0  0  0  0
  4 28  1  0  0  0  0
  4 29  1  0  0  0  0
  5  6  2  0  0  0  0
  5  7  1  0  0  0  0
  7  8  1  0  0  0  0
  7 30  1  0  0  0  0
  8  9  1  0  0  0  0
  8 31  1  0  0  0  0
  8 32  1  0  0  0  0
  9 22  1  0  0  0  0
  9 10  2  0  0  0  0
 10 11  1  0  0  0  0
 10 33  1  0  0  0  0
 11 12  2  0  0  0  0
 11 34  1  0  0  0  0
 12 13  1  0  0  0  0
 12 21  1  0  0  0  0
 13 20  1  0  0  0  0
 13 14  1  0  0  0  0
 14 15  1  0  0  0  0
 14 35  1  0  0  0  0
 14 36  1  0  0  0  0
 15 16  1  0  0  0  0
 15 17  1  0  0  0  0
 15 37  1  0  0  0  0
 16 38  1  0  0  0  0
 16 39  1  0  0  0  0
 16 40  1  0  0  0  0
 17 18  1  0  0  0  0
 18 19  1  0  0  0  0
 18 20  1  0  0  0  0
 18 41  1  0  0  0  0
 19 42  1  0  0  0  0
 19 43  1  0  0  0  0
 19 44  1  0  0  0  0
 20 45  1  0  0  0  0
 20 46  1  0  0  0  0
 21 22  2  0  0  0  0
 22 47  1  0  0  0  0
M  END
> <s_m_source_file>
AV-unprocessed.smi

> <i_m_source_file_index>
2184

> <i_lp_mmshare_version>
43012

> <i_f3d_flags>
0

> <s_epik_input>
W0NIM11TW0NASF0oW0NIM10pQyg9TylbTkhdW0NIMl1jMVtjSF1bY0hdYyhuW2NIXTEpTjJbQ0gyXVtDQEBIXShbQ0gzXSlPW0NAQEhdKFtDSDNdKVtDSDJdMg==

> <s_epik_cmdline>
J2VwaWtfcHl0aG9uJywgJy1waCcsICc3LjAnLCAnLXRuJywgJzgnLCAnLW1hJywgJzIwMCcsICctbWV0YWxfYmluZGluZycsICctaW1hZScsICc8aW5maWxlLm1hZT4nLCAnLW9tYWUnLCAnPG91dGZpbGUubWFlPic=

> <r_lp_tautomer_probability>
1

> <r_epik_Ionization_Penalty>
0.00551702

> <r_epik_Ionization_Penalty_Charging>
0

> <r_epik_Ionization_Penalty_Neutral>
0.00551702

> <r_epik_State_Penalty>
0.00403758

> <r_epik_Charging_Adjusted_Penalty>
0.00403758

> <i_epik_Tot_Q>
0

> <i_epik_Tot_abs_Q>
0

> <r_epik_Metal_State_Penalty>
-0

> <b_epik_Metal_Only>
0

> <s_lp_Force_Field>
OPLS_2005

> <r_lp_Energy>
19.1656

> <b_lp_Chiralities_Consistent>
1

> <s_lp_Variant>
AV-unprocessed.smi:2184-5

> <Gold.Version>
5.8.1

> <Gold.Id.Protein>
6NUR|6NUR_protein|mol2

> <Gold.PLP.Fitness>
47.7553

> <Gold.PLP.PLP>
-43.8922

> <Gold.PLP.part.hbond>
-2.6318

> <Gold.PLP.part.metal>
0.0000

> <Gold.PLP.part.buried>
-3.7463

> <Gold.PLP.part.nonpolar>
-36.1194

> <Gold.PLP.part.repulsive>
0.0763

> <Gold.PLP.ligand.clash>
0.0000

> <Gold.PLP.ligand.torsion>
0.7327

> <Gold.PLP.Chemscore.Hbond>
1.6528

> <Gold.PLP.Chemscore.CHOScore>
0.0000

> <Gold.PLP.Chemscore.Metal>
0.0000

> <Gold.Chemscore.Hbonds>
donor molecule, donor type, donor heavy atom, donor atom, acceptor molecule, acceptor atom, score
      L1  H     7    30       P1  7948  1.00
      P1  H  7997  8010       L1    21  0.64

> <Gold.PLP.Chemscore.Internal.Correction>
0.3701

> <Gold.Rescore>
     Score         DG    S(hbond)    S(metal)    S(lipo)     H(rot)  DE(clash)    DE(int)     intcor
     15.25     -18.46       1.00        0.00     117.43       1.59       0.07       3.15       ----

> <Gold.Chemscore.Fitness>
15.2479

> <Gold.Chemscore.DG>
-18.4643

> <Gold.Chemscore.ZeroCoef>
-5.4800

> <Gold.Chemscore.Hbond>
0.9960

> <Gold.Chemscore.Metal>
0.0000

> <Gold.Chemscore.Lipo>
117.4350

> <Gold.Chemscore.Internal_Hbond>
0.0000

> <Gold.Chemscore.DEClash>
0.0650

> <Gold.Chemscore.DEInternal>
3.1513

> <Gold.Chemscore.Rot>
1.5947

> <Gold.Chemscore.Internal.Correction>
   9.000000E+99

> <Gold.Chemscore.Hbonds>
donor molecule, donor type, donor heavy atom, donor atom, acceptor molecule, acceptor atom, score
      L1  H     7    30       P1  7948  0.77
      P1  H  7997  8010       L1    21  0.09

> <Gold.Chemscore.Hbond.Weighted>
-3.3268

> <Gold.Chemscore.Metal.Weighted>
-0.0000

> <Gold.Chemscore.Lipo.Weighted>
-13.7399

> <Gold.Chemscore.Internal_Hbond.Weighted>
0.0000

> <Gold.Chemscore.DEClash.Weighted>
0.0650

> <Gold.Chemscore.DEInternal.Weighted>
3.1513

> <Gold.Chemscore.Rot.Weighted>
4.0824

> <Gold.Chemscore.Internal.Correction.Weighted>
   9.000000E+99

> <Gold.Protein.RotatedTorsions>
[ 6907 6896 6895 6894 ] final  145.84 input  -60.11 | X-H torsion
[ 7974 7965 7964 7962 ] final   75.21 input  175.53 | X-H torsion
[ 8008 7997 7996 7995 ] final   42.78 input   59.86 | X-H torsion
[ 10167 10162 10161 10158 ] final -147.37 input  -65.29 | X-H torsion
[ 10718 10713 10712 10709 ] final  155.50 input   66.30 | X-H torsion
[ 10763 10752 10751 10750 ] final -100.91 input  -60.55 | X-H torsion
[ 11005 11000 10999 10996 ] final  138.61 input  -57.11 | X-H torsion

> <Gold.Protein.ActiveResidues>
 VAL166  LYS551  ARG553  GLY616  TRP617  ASP618  TYR619  PRO620  LYS621  CYS622 
 ASP623  PHE694  ASN695  SER759  ASP760  ASP761  ALA762  ILE779  LEU786  VAL792 
 PHE793  MET794  SER795  GLU796  ALA797  LYS798  CYS799  TRP800  GLU811  SER814 

> <Gold.Protein.RotatedAtoms>
  152.1757  133.4673  159.4931 H   0  0  0  0  0  0  0  0  0  0  0  0  # atno 6907 bound_to 6896
  150.6926  134.1897  159.4289 H   0  0  0  0  0  0  0  0  0  0  0  0  # atno 6908 bound_to 6896
  151.9806  135.0030  160.0608 H   0  0  0  0  0  0  0  0  0  0  0  0  # atno 6909 bound_to 6896
  145.7184  139.2639  143.1610 H   0  0  0  0  0  0  0  0  0  0  0  0  # atno 7974 bound_to 7965
  155.2919  140.3379  155.4252 H   0  0  0  0  0  0  0  0  0  0  0  0  # atno 8008 bound_to 7997
  156.2042  140.1744  156.7875 H   0  0  0  0  0  0  0  0  0  0  0  0  # atno 8009 bound_to 7997
  154.5599  140.0689  156.8786 H   0  0  0  0  0  0  0  0  0  0  0  0  # atno 8010 bound_to 7997
  139.7628  143.8351  152.2610 H   0  0  0  0  0  0  0  0  0  0  0  0  # atno 10167 bound_to 10162
  157.2175  131.0711  151.1932 H   0  0  0  0  0  0  0  0  0  0  0  0  # atno 10718 bound_to 10713
  154.7616  135.4917  153.9475 H   0  0  0  0  0  0  0  0  0  0  0  0  # atno 10763 bound_to 10752
  153.1258  135.6742  153.9267 H   0  0  0  0  0  0  0  0  0  0  0  0  # atno 10764 bound_to 10752
  153.8985  135.3112  155.3427 H   0  0  0  0  0  0  0  0  0  0  0  0  # atno 10765 bound_to 10752
  140.0196  134.9402  157.0447 H   0  0  0  0  0  0  0  0  0  0  0  0  # atno 11005 bound_to 11000
  146.0648  140.7932  142.9717 LP  0  0  0  0  0  0  0  0  0  0  0  0  # atno 17320 bound_to 7965
  144.6923  140.3252  143.7225 LP  0  0  0  0  0  0  0  0  0  0  0  0  # atno 17321 bound_to 7965
  139.8363  144.7231  150.9387 LP  0  0  0  0  0  0  0  0  0  0  0  0  # atno 17342 bound_to 10162
  140.7808  143.4024  151.1127 LP  0  0  0  0  0  0  0  0  0  0  0  0  # atno 17343 bound_to 10162
  157.3609  130.7131  149.6501 LP  0  0  0  0  0  0  0  0  0  0  0  0  # atno 17370 bound_to 10713
  155.9685  130.4225  150.4522 LP  0  0  0  0  0  0  0  0  0  0  0  0  # atno 17371 bound_to 10713
  140.4410  134.1681  155.7174 LP  0  0  0  0  0  0  0  0  0  0  0  0  # atno 17394 bound_to 11000
  141.1765  133.8503  157.1403 LP  0  0  0  0  0  0  0  0  0  0  0  0  # atno 17395 bound_to 11000

$$$$
