#       Name:                AV-unprocessed.smi:2405
#       Creating user name   scv26
#       Creation time:       Fri Mar 27 13:14:41 2020


#       File generated by GOLD software.
#

@<TRIPOS>MOLECULE
AV-unprocessed.smi:2405
    43    44     1
SMALL
NO_CHARGES


@<TRIPOS>ATOM
      1 ****        -3.7251   1.2858  -1.1264 C.3            1 S1                 0.0000
      2 ****        -3.3973   0.7501  -2.5241 C.3            1 S1                 0.0000
      3 ****        -2.5122  -0.4501  -2.4818 C.2            1 S1                 0.0000
      4 ****        -1.1786  -0.3813  -2.4607 N.2            1 S1                 0.0000
      5 ****        -0.5749  -1.6405  -2.3704 C.2            1 S1                 0.0000
      6 ****         0.9208  -1.7554  -2.3286 C.3            1 S1                 0.0000
      7 ****         1.4074  -1.7119  -0.8798 C.2            1 S1                 0.0000
      8 ****         1.6211  -2.7597  -0.2702 O.2            1 S1                 0.0000
      9 ****         1.5709  -0.4931  -0.3426 N.am           1 S1                 0.0000
     10 ****         1.9921  -0.2269   1.0291 C.3            1 S1                 0.0000
     11 ****         2.5853   1.1897   1.1463 C.3            1 S1                 0.0000
     12 ****         1.5913   1.9973   1.9874 C.3            1 S1                 0.0000
     13 ****         0.9225   0.9687   2.9079 C.3            1 S1                 0.0000
     14 ****         1.7805   0.7313   4.1678 C.2            1 S1                 0.0000
     15 ****         2.4174  -0.3408   4.2733 O.co2          1 S1                 0.0000
     16 ****         1.7879   1.6517   5.0146 O.co2          1 S1                -1.0000
     17 ****         0.7973  -0.2730   2.0051 C.3            1 S1                 0.0000
     18 ****        -1.4807  -2.6715  -2.3262 C.2            1 S1                 0.0000
     19 ****        -3.1241  -2.0966  -2.3787 S.3            1 S1                 0.0000
     20 ****        -4.3727   2.1606  -1.1869 H              1 S1                 0.0000
     21 ****        -2.8189   1.5774  -0.5943 H              1 S1                 0.0000
     22 ****        -4.2372   0.5324  -0.5270 H              1 S1                 0.0000
     23 ****        -4.3173   0.4871  -3.0469 H              1 S1                 0.0000
     24 ****        -2.9121   1.5264  -3.1171 H              1 S1                 0.0000
     25 ****         1.2472  -2.6889  -2.7886 H              1 S1                 0.0000
     26 ****         1.3913  -0.9517  -2.8970 H              1 S1                 0.0000
     27 ****         1.3634   0.3103  -0.9182 H              1 S1                 0.0000
     28 ****         2.7519  -0.9499   1.3323 H              1 S1                 0.0000
     29 ****         3.5412   1.1361   1.6694 H              1 S1                 0.0000
     30 ****         2.7771   1.6613   0.1816 H              1 S1                 0.0000
     31 ****         2.0771   2.8139   2.5238 H              1 S1                 0.0000
     32 ****         0.8374   2.4433   1.3377 H              1 S1                 0.0000
     33 ****        -0.0606   1.3125   3.2318 H              1 S1                 0.0000
     34 ****        -0.1432  -0.2020   1.4562 H              1 S1                 0.0000
     35 ****         0.7534  -1.2140   2.5553 H              1 S1                 0.0000
     36 ****        -1.2801  -3.7303  -2.2551 H              1 S1                 0.0000
     37 ****        -0.6670   0.4769  -2.5046 LP             1 S1                 0.0000
     38 ****         1.4765  -3.6397  -0.7225 LP             1 S1                 0.0000
     39 ****         1.9394  -2.7308   0.6774 LP             1 S1                 0.0000
     40 ****         2.9841  -0.5083   5.0800 LP             1 S1                 0.0000
     41 ****         2.3596  -1.0298   3.5509 LP             1 S1                 0.0000
     42 ****         2.3310   1.5590   5.8492 LP             1 S1                 0.0000
     43 ****         1.2507   2.4804   4.8571 LP             1 S1                 0.0000
@<TRIPOS>BOND
    1    1    2 1     
    2    1   20 1     
    3    1   21 1     
    4    1   22 1     
    5    2    3 1     
    6    2   23 1     
    7    2   24 1     
    8    3   19 1     
    9    3    4 2     
   10    4    5 1     
   11    5    6 1     
   12    5   18 2     
   13    6    7 1     
   14    6   25 1     
   15    6   26 1     
   16    7    8 2     
   17    7    9 am    
   18    9   10 1     
   19    9   27 1     
   20   10   17 1     
   21   10   11 1     
   22   10   28 1     
   23   11   12 1     
   24   11   29 1     
   25   11   30 1     
   26   12   13 1     
   27   12   31 1     
   28   12   32 1     
   29   13   14 1     
   30   13   17 1     
   31   13   33 1     
   32   14   15 ar    
   33   14   16 ar    
   34   17   34 1     
   35   17   35 1     
   36   18   19 1     
   37   18   36 1     
   38    4   37 1     
   39    8   38 1     
   40    8   39 1     
   41   15   40 1     
   42   15   41 1     
   43   16   42 1     
   44   16   43 1     
@<TRIPOS>SUBSTRUCTURE
      1 S1             1
@<TRIPOS>SET
LONE_PAIRS      STATIC     ATOMS    <user>   **** ""
7 37 38 39 40 41 42 43
DONOR_HYDROGENS      STATIC     ATOMS    <user>   **** ""
1 27
ATOM$BLUE        STATIC     ATOMS    COLORGROUP SYSTEM
7 37 38 39 40 41 42 43
ATOM$RED        STATIC     ATOMS    COLORGROUP SYSTEM
1 27
