AV-unprocessed.smi:1036|AV-procd|sdf|4516|dock9
  -GOLD-   22720 2533D 1   1.00000     0.00000
 Structure written by MMmdl.
 42 44  0  0  0  0  0  0  0  0  2 V2000
  149.4142  138.8845  153.6317 O   0  0  0  0  0  0  0  0  0  0  0  0
  150.5815  138.9640  154.4186 C   0  0  0  0  0  0  0  0  0  0  0  0
  150.4232  140.0831  155.4534 C   0  0  0  0  0  0  0  0  0  0  0  0
  151.4271  139.9835  156.4992 N   0  0  0  0  0  0  0  0  0  0  0  0
  151.5996  141.0785  157.3525 C   0  0  0  0  0  0  0  0  0  0  0  0
  151.2220  142.3595  157.0965 N   0  3  0  0  0  0  0  0  0  0  0  0
  151.5495  143.1439  158.2065 C   0  0  0  0  0  0  0  0  0  0  0  0
  151.3682  144.5029  158.4434 C   0  0  0  0  0  0  0  0  0  0  0  0
  151.8092  144.9932  159.6900 C   0  0  0  0  0  0  0  0  0  0  0  0
  152.4036  144.1441  160.6462 C   0  0  0  0  0  0  0  0  0  0  0  0
  152.5842  142.7676  160.3982 C   0  0  0  0  0  0  0  0  0  0  0  0
  152.1481  142.2889  159.1634 C   0  0  0  0  0  0  0  0  0  0  0  0
  152.1605  141.0126  158.5878 N   0  0  0  0  0  0  0  0  0  0  0  0
  152.6962  139.8720  159.3458 C   0  0  0  0  0  0  0  0  0  0  0  0
  154.2211  139.9717  159.5532 C   0  0  2  0  0  0  0  0  0  0  0  0
  154.8530  139.2853  158.4925 O   0  0  0  0  0  0  0  0  0  0  0  0
  154.6481  139.4499  160.9212 C   0  0  0  0  0  0  0  0  0  0  0  0
  155.3463  140.2889  161.8187 C   0  0  0  0  0  0  0  0  0  0  0  0
  155.7747  139.7974  163.0666 C   0  0  0  0  0  0  0  0  0  0  0  0
  156.4480  140.6072  163.9173 F   0  0  0  0  0  0  0  0  0  0  0  0
  155.5111  138.4625  163.4261 C   0  0  0  0  0  0  0  0  0  0  0  0
  154.8181  137.6197  162.5367 C   0  0  0  0  0  0  0  0  0  0  0  0
  154.3877  138.1093  161.2883 C   0  0  0  0  0  0  0  0  0  0  0  0
  153.7404  137.2776  160.4368 F   0  0  0  0  0  0  0  0  0  0  0  0
  149.5771  139.3168  152.8070 H   0  0  0  0  0  0  0  0  0  0  0  0
  150.7465  138.0029  154.9064 H   0  0  0  0  0  0  0  0  0  0  0  0
  151.4368  139.1542  153.7693 H   0  0  0  0  0  0  0  0  0  0  0  0
  150.5093  141.0550  154.9656 H   0  0  0  0  0  0  0  0  0  0  0  0
  149.4313  140.0322  155.9053 H   0  0  0  0  0  0  0  0  0  0  0  0
  151.6806  139.0643  156.8329 H   0  0  0  0  0  0  0  0  0  0  0  0
  150.9113  145.1566  157.7148 H   0  0  0  0  0  0  0  0  0  0  0  0
  151.6877  146.0422  159.9185 H   0  0  0  0  0  0  0  0  0  0  0  0
  152.7275  144.5568  161.5907 H   0  0  0  0  0  0  0  0  0  0  0  0
  153.0381  142.1255  161.1384 H   0  0  0  0  0  0  0  0  0  0  0  0
  152.1786  139.8326  160.3051 H   0  0  0  0  0  0  0  0  0  0  0  0
  152.4309  138.9553  158.8174 H   0  0  0  0  0  0  0  0  0  0  0  0
  154.5263  141.0143  159.4601 H   0  0  0  0  0  0  0  0  0  0  0  0
  155.6999  138.9879  158.7891 H   0  0  0  0  0  0  0  0  0  0  0  0
  155.5659  141.3114  161.5486 H   0  0  0  0  0  0  0  0  0  0  0  0
  155.8434  138.0837  164.3814 H   0  0  0  0  0  0  0  0  0  0  0  0
  154.6212  136.5938  162.8106 H   0  0  0  0  0  0  0  0  0  0  0  0
  150.7771  142.6675  156.2414 H   0  0  0  0  0  0  0  0  0  0  0  0
  1  2  1  0  0  0  0
  1 25  1  0  0  0  0
  2  3  1  0  0  0  0
  2 26  1  0  0  0  0
  2 27  1  0  0  0  0
  3  4  1  0  0  0  0
  3 28  1  0  0  0  0
  3 29  1  0  0  0  0
  4  5  1  0  0  0  0
  4 30  1  0  0  0  0
  5 13  1  0  0  0  0
  5  6  2  0  0  0  0
  6  7  1  0  0  0  0
  6 42  1  0  0  0  0
  7 12  2  0  0  0  0
  7  8  1  0  0  0  0
  8  9  2  0  0  0  0
  8 31  1  0  0  0  0
  9 10  1  0  0  0  0
  9 32  1  0  0  0  0
 10 11  2  0  0  0  0
 10 33  1  0  0  0  0
 11 12  1  0  0  0  0
 11 34  1  0  0  0  0
 12 13  1  0  0  0  0
 13 14  1  0  0  0  0
 14 15  1  0  0  0  0
 14 35  1  0  0  0  0
 14 36  1  0  0  0  0
 15 16  1  0  0  0  0
 15 17  1  0  0  0  0
 15 37  1  0  0  0  0
 16 38  1  0  0  0  0
 17 23  1  0  0  0  0
 17 18  2  0  0  0  0
 18 19  1  0  0  0  0
 18 39  1  0  0  0  0
 19 20  1  0  0  0  0
 19 21  2  0  0  0  0
 21 22  1  0  0  0  0
 21 40  1  0  0  0  0
 22 23  2  0  0  0  0
 22 41  1  0  0  0  0
 23 24  1  0  0  0  0
M  CHG  1   6   1
M  END
> <s_m_source_file>
AV-unprocessed.smi

> <i_m_source_file_index>
1036

> <i_lp_mmshare_version>
43012

> <i_f3d_flags>
0

> <s_epik_input>
W09IXVtDSDJdW0NIMl1bTkhdYyhuMSluKGMoYzEyKVtjSF1bY0hdW2NIXVtjSF0yKVtDSDJdW0NASF0oW09IXSljM1tjSF1jKEYpW2NIXVtjSF1jM0Y=

> <s_epik_cmdline>
J2VwaWtfcHl0aG9uJywgJy1waCcsICc3LjAnLCAnLXRuJywgJzgnLCAnLW1hJywgJzIwMCcsICctbWV0YWxfYmluZGluZycsICctaW1hZScsICc8aW5maWxlLm1hZT4nLCAnLW9tYWUnLCAnPG91dGZpbGUubWFlPic=

> <r_epik_Ionization_Penalty>
0.0688114

> <r_epik_Ionization_Penalty_Charging>
0.0688055

> <r_epik_Ionization_Penalty_Neutral>
5.85933e-06

> <r_epik_State_Penalty>
0.0602293

> <r_epik_Charging_Adjusted_Penalty>
0.129035

> <i_epik_Tot_Q>
1

> <i_epik_Tot_abs_Q>
1

> <r_epik_Metal_State_Penalty>
2.77411

> <b_epik_Metal_Only>
0

> <s_lp_Force_Field>
OPLS_2005

> <r_lp_Energy>
18.4992

> <b_lp_Chiralities_Consistent>
1

> <s_lp_Variant>
AV-unprocessed.smi:1036-1

> <Gold.Version>
5.8.1

> <Gold.Id.Protein>
6NUR|6NUR_protein|mol2

> <Gold.PLP.Fitness>
56.6742

> <Gold.PLP.PLP>
-51.9634

> <Gold.PLP.part.hbond>
-2.3542

> <Gold.PLP.part.metal>
0.0000

> <Gold.PLP.part.buried>
-5.2389

> <Gold.PLP.part.nonpolar>
-43.5915

> <Gold.PLP.part.repulsive>
0.1712

> <Gold.PLP.ligand.clash>
0.0000

> <Gold.PLP.ligand.torsion>
0.6627

> <Gold.PLP.Chemscore.Hbond>
2.0000

> <Gold.PLP.Chemscore.CHOScore>
0.0000

> <Gold.PLP.Chemscore.Metal>
0.0000

> <Gold.Chemscore.Hbonds>
donor molecule, donor type, donor heavy atom, donor atom, acceptor molecule, acceptor atom, score
      L1  H     1    25       P1  7957  1.00
      P1  H  7997  8008       L1    16  0.84

> <Gold.PLP.Chemscore.Internal.Correction>
0.0362

> <Gold.Rescore>
     Score         DG    S(hbond)    S(metal)    S(lipo)     H(rot)  DE(clash)    DE(int)     intcor
     17.59     -19.51       1.94        0.00     136.52       3.29       0.11       1.81       ----

> <Gold.Chemscore.Fitness>
17.5891

> <Gold.Chemscore.DG>
-19.5057

> <Gold.Chemscore.ZeroCoef>
-5.4800

> <Gold.Chemscore.Hbond>
1.9366

> <Gold.Chemscore.Metal>
0.0000

> <Gold.Chemscore.Lipo>
136.5226

> <Gold.Chemscore.Internal_Hbond>
0.0000

> <Gold.Chemscore.DEClash>
0.1071

> <Gold.Chemscore.DEInternal>
1.8094

> <Gold.Chemscore.Rot>
3.2874

> <Gold.Chemscore.Internal.Correction>
   9.000000E+99

> <Gold.Chemscore.Hbonds>
donor molecule, donor type, donor heavy atom, donor atom, acceptor molecule, acceptor atom, score
      L1  H     1    25       P1  7957  1.00
      P1  H  7997  8008       L1    16  0.64

> <Gold.Chemscore.Hbond.Weighted>
-6.4683

> <Gold.Chemscore.Metal.Weighted>
-0.0000

> <Gold.Chemscore.Lipo.Weighted>
-15.9731

> <Gold.Chemscore.Internal_Hbond.Weighted>
0.0000

> <Gold.Chemscore.DEClash.Weighted>
0.1071

> <Gold.Chemscore.DEInternal.Weighted>
1.8094

> <Gold.Chemscore.Rot.Weighted>
8.4158

> <Gold.Chemscore.Internal.Correction.Weighted>
   9.000000E+99

> <Gold.Protein.RotatedTorsions>
[ 6907 6896 6895 6894 ] final  -16.02 input  -60.11 | X-H torsion
[ 7974 7965 7964 7962 ] final  -17.29 input  175.53 | X-H torsion
[ 8008 7997 7996 7995 ] final  -99.96 input   59.86 | X-H torsion
[ 10167 10162 10161 10158 ] final -177.25 input  -65.29 | X-H torsion
[ 10718 10713 10712 10709 ] final   78.41 input   66.30 | X-H torsion
[ 10763 10752 10751 10750 ] final   13.89 input  -60.55 | X-H torsion
[ 11005 11000 10999 10996 ] final  115.88 input  -57.11 | X-H torsion

> <Gold.Protein.ActiveResidues>
 VAL166  LYS551  ARG553  GLY616  TRP617  ASP618  TYR619  PRO620  LYS621  CYS622 
 ASP623  PHE694  ASN695  SER759  ASP760  ASP761  ALA762  ILE779  LEU786  VAL792 
 PHE793  MET794  SER795  GLU796  ALA797  LYS798  CYS799  TRP800  GLU811  SER814 

> <Gold.Protein.RotatedAtoms>
  151.3151  135.0804  159.9285 H   0  0  0  0  0  0  0  0  0  0  0  0  # atno 6907 bound_to 6896
  152.5269  133.9696  159.7766 H   0  0  0  0  0  0  0  0  0  0  0  0  # atno 6908 bound_to 6896
  151.0007  133.6007  159.2725 H   0  0  0  0  0  0  0  0  0  0  0  0  # atno 6909 bound_to 6896
  146.1948  140.3759  142.8445 H   0  0  0  0  0  0  0  0  0  0  0  0  # atno 7974 bound_to 7965
  154.8220  140.0444  157.1417 H   0  0  0  0  0  0  0  0  0  0  0  0  # atno 8008 bound_to 7997
  154.9248  140.3032  155.5177 H   0  0  0  0  0  0  0  0  0  0  0  0  # atno 8009 bound_to 7997
  156.2981  140.2334  156.4302 H   0  0  0  0  0  0  0  0  0  0  0  0  # atno 8010 bound_to 7997
  139.5489  144.2161  152.1040 H   0  0  0  0  0  0  0  0  0  0  0  0  # atno 10167 bound_to 10162
  157.6744  130.9867  150.1782 H   0  0  0  0  0  0  0  0  0  0  0  0  # atno 10718 bound_to 10713
  153.1676  135.6807  153.8654 H   0  0  0  0  0  0  0  0  0  0  0  0  # atno 10763 bound_to 10752
  153.8028  135.3153  155.3393 H   0  0  0  0  0  0  0  0  0  0  0  0  # atno 10764 bound_to 10752
  154.7976  135.4798  154.0288 H   0  0  0  0  0  0  0  0  0  0  0  0  # atno 10765 bound_to 10752
  139.9023  134.9590  156.7113 H   0  0  0  0  0  0  0  0  0  0  0  0  # atno 11005 bound_to 11000
  144.8557  140.7067  143.6139 LP  0  0  0  0  0  0  0  0  0  0  0  0  # atno 17320 bound_to 7965
  145.3680  139.1665  143.4347 LP  0  0  0  0  0  0  0  0  0  0  0  0  # atno 17321 bound_to 7965
  140.1653  144.4987  150.6610 LP  0  0  0  0  0  0  0  0  0  0  0  0  # atno 17342 bound_to 10162
  140.6746  143.2300  151.5539 LP  0  0  0  0  0  0  0  0  0  0  0  0  # atno 17343 bound_to 10162
  156.2520  130.3701  149.8222 LP  0  0  0  0  0  0  0  0  0  0  0  0  # atno 17370 bound_to 10713
  156.5992  130.8539  151.3427 LP  0  0  0  0  0  0  0  0  0  0  0  0  # atno 17371 bound_to 10713
  140.7074  133.9253  155.8062 LP  0  0  0  0  0  0  0  0  0  0  0  0  # atno 17394 bound_to 11000
  141.0326  134.0734  157.3996 LP  0  0  0  0  0  0  0  0  0  0  0  0  # atno 17395 bound_to 11000

$$$$
