AV-unprocessed.smi:47|AV-procd|sdf|439|dock1
  -GOLD-   2262016313D 1   1.00000     0.00000
 Structure written by MMmdl.
 32 34  0  0  0  0  0  0  0  0  2 V2000
  146.4898  141.0270  152.7540 O   0  0  0  0  0  0  0  0  0  0  0  0
  147.1155  140.6607  153.9662 C   0  0  1  0  0  0  0  0  0  0  0  0
  147.7370  139.2603  153.8652 C   0  0  0  0  0  0  0  0  0  0  0  0
  148.9949  139.3365  154.6221 N   0  3  0  0  0  0  0  0  0  0  0  0
  149.5114  140.7008  154.4231 C   0  0  2  0  0  0  0  0  0  0  0  0
  150.3976  140.9720  155.6020 C   0  0  0  0  0  0  0  0  0  0  0  0
  151.3214  140.1416  156.0922 N   0  0  0  0  0  0  0  0  0  0  0  0
  151.8703  140.8043  157.1737 N   0  0  0  0  0  0  0  0  0  0  0  0
  151.2368  141.9831  157.2606 C   0  0  0  0  0  0  0  0  0  0  0  0
  151.5179  142.9944  158.2821 C   0  0  0  0  0  0  0  0  0  0  0  0
  151.0837  144.3293  158.1083 C   0  0  0  0  0  0  0  0  0  0  0  0
  151.3503  145.3008  159.0927 C   0  0  0  0  0  0  0  0  0  0  0  0
  152.0505  144.9478  160.2614 C   0  0  0  0  0  0  0  0  0  0  0  0
  152.4852  143.6220  160.4446 C   0  0  0  0  0  0  0  0  0  0  0  0
  152.2207  142.6500  159.4602 C   0  0  0  0  0  0  0  0  0  0  0  0
  150.3120  142.1166  156.2931 N   0  0  0  0  0  0  0  0  0  0  0  0
  148.2778  141.6066  154.3122 C   0  0  0  0  0  0  0  0  0  0  0  0
  146.3761  140.6813  154.7681 H   0  0  0  0  0  0  0  0  0  0  0  0
  150.0874  140.7246  153.4966 H   0  0  0  0  0  0  0  0  0  0  0  0
  149.6930  142.8983  156.1327 H   0  0  0  0  0  0  0  0  0  0  0  0
  145.5539  140.9396  152.8571 H   0  0  0  0  0  0  0  0  0  0  0  0
  147.0809  138.4768  154.2454 H   0  0  0  0  0  0  0  0  0  0  0  0
  147.9844  139.0196  152.8299 H   0  0  0  0  0  0  0  0  0  0  0  0
  148.7861  139.2212  155.6039 H   0  0  0  0  0  0  0  0  0  0  0  0
  150.5454  144.6235  157.2196 H   0  0  0  0  0  0  0  0  0  0  0  0
  151.0165  146.3182  158.9517 H   0  0  0  0  0  0  0  0  0  0  0  0
  152.2534  145.6928  161.0166 H   0  0  0  0  0  0  0  0  0  0  0  0
  153.0214  143.3491  161.3417 H   0  0  0  0  0  0  0  0  0  0  0  0
  152.5617  141.6380  159.6226 H   0  0  0  0  0  0  0  0  0  0  0  0
  148.4309  142.3978  153.5770 H   0  0  0  0  0  0  0  0  0  0  0  0
  148.0659  142.0920  155.2662 H   0  0  0  0  0  0  0  0  0  0  0  0
  149.6597  138.6356  154.3271 H   0  0  0  0  0  0  0  0  0  0  0  0
  1  2  1  0  0  0  0
  1 21  1  0  0  0  0
  2 18  1  0  0  0  0
  2 17  1  0  0  0  0
  2  3  1  0  0  0  0
  3  4  1  0  0  0  0
  3 22  1  0  0  0  0
  3 23  1  0  0  0  0
  4  5  1  0  0  0  0
  4 24  1  0  0  0  0
  4 32  1  0  0  0  0
  5 19  1  0  0  0  0
  5 17  1  0  0  0  0
  5  6  1  0  0  0  0
  6  7  2  0  0  0  0
  6 16  1  0  0  0  0
  7  8  1  0  0  0  0
  8  9  2  0  0  0  0
  9 16  1  0  0  0  0
  9 10  1  0  0  0  0
 10 15  1  0  0  0  0
 10 11  2  0  0  0  0
 11 12  1  0  0  0  0
 11 25  1  0  0  0  0
 12 13  2  0  0  0  0
 12 26  1  0  0  0  0
 13 14  1  0  0  0  0
 13 27  1  0  0  0  0
 14 15  2  0  0  0  0
 14 28  1  0  0  0  0
 15 29  1  0  0  0  0
 16 20  1  0  0  0  0
 17 30  1  0  0  0  0
 17 31  1  0  0  0  0
M  CHG  1   4   1
M  END
> <s_m_source_file>
AV-unprocessed.smi

> <i_m_source_file_index>
47

> <i_lp_mmshare_version>
43012

> <i_f3d_flags>
0

> <s_epik_input>
W09IXVtDQEhdMVtDSDJdW05IXVtDQEBIXShbQ0gyXTEpYzJuW25IXWMobjIpLWMzW2NIXVtjSF1bY0hdW2NIXVtjSF0z

> <s_epik_cmdline>
J2VwaWtfcHl0aG9uJywgJy1waCcsICc3LjAnLCAnLXRuJywgJzgnLCAnLW1hJywgJzIwMCcsICctbWV0YWxfYmluZGluZycsICctaW1hZScsICc8aW5maWxlLm1hZT4nLCAnLW9tYWUnLCAnPG91dGZpbGUubWFlPic=

> <r_lp_tautomer_probability>
0.0517155

> <r_epik_Ionization_Penalty>
2.45729

> <r_epik_Ionization_Penalty_Charging>
0.0688988

> <r_epik_Ionization_Penalty_Neutral>
2.3884

> <r_epik_State_Penalty>
2.69236

> <r_epik_Charging_Adjusted_Penalty>
2.76126

> <i_epik_Tot_Q>
1

> <i_epik_Tot_abs_Q>
1

> <r_epik_Metal_State_Penalty>
3.18974

> <b_epik_Metal_Only>
0

> <s_lp_Force_Field>
OPLS_2005

> <r_lp_Energy>
30.5648

> <b_lp_Chiralities_Consistent>
1

> <s_lp_Variant>
AV-unprocessed.smi:47-17

> <Gold.Version>
5.8.1

> <Gold.Id.Protein>
6NUR|6NUR_protein|mol2

> <Gold.PLP.Fitness>
42.0979

> <Gold.PLP.PLP>
-37.2247

> <Gold.PLP.part.hbond>
-1.9841

> <Gold.PLP.part.metal>
0.0000

> <Gold.PLP.part.buried>
-2.3369

> <Gold.PLP.part.nonpolar>
-32.1572

> <Gold.PLP.part.repulsive>
0.1378

> <Gold.PLP.ligand.clash>
0.0000

> <Gold.PLP.ligand.torsion>
0.5089

> <Gold.PLP.Chemscore.Hbond>
1.9588

> <Gold.PLP.Chemscore.CHOScore>
0.0000

> <Gold.PLP.Chemscore.Metal>
0.0000

> <Gold.Chemscore.Hbonds>
donor molecule, donor type, donor heavy atom, donor atom, acceptor molecule, acceptor atom, score
      L1  H     1    21       P1 10175  1.00
      L1  H    16    20       P1  8028  0.96

> <Gold.PLP.Chemscore.Internal.Correction>
0.0148

> <Gold.Rescore>
     Score         DG    S(hbond)    S(metal)    S(lipo)     H(rot)  DE(clash)    DE(int)     intcor
     18.23     -18.90       1.83        0.00      95.36       1.50       0.17       0.50       ----

> <Gold.Chemscore.Fitness>
18.2304

> <Gold.Chemscore.DG>
-18.9016

> <Gold.Chemscore.ZeroCoef>
-5.4800

> <Gold.Chemscore.Hbond>
1.8252

> <Gold.Chemscore.Metal>
0.0000

> <Gold.Chemscore.Lipo>
95.3555

> <Gold.Chemscore.Internal_Hbond>
0.0000

> <Gold.Chemscore.DEClash>
0.1724

> <Gold.Chemscore.DEInternal>
0.4988

> <Gold.Chemscore.Rot>
1.4966

> <Gold.Chemscore.Internal.Correction>
   9.000000E+99

> <Gold.Chemscore.Hbonds>
donor molecule, donor type, donor heavy atom, donor atom, acceptor molecule, acceptor atom, score
      L1  H     1    21       P1 10175  0.25
      L1  H    16    20       P1  8028  0.91

> <Gold.Chemscore.Hbond.Weighted>
-6.0962

> <Gold.Chemscore.Metal.Weighted>
-0.0000

> <Gold.Chemscore.Lipo.Weighted>
-11.1566

> <Gold.Chemscore.Internal_Hbond.Weighted>
0.0000

> <Gold.Chemscore.DEClash.Weighted>
0.1724

> <Gold.Chemscore.DEInternal.Weighted>
0.4988

> <Gold.Chemscore.Rot.Weighted>
3.8312

> <Gold.Chemscore.Internal.Correction.Weighted>
   9.000000E+99

> <Gold.Protein.RotatedTorsions>
[ 6907 6896 6895 6894 ] final -101.05 input  -60.11 | X-H torsion
[ 7974 7965 7964 7962 ] final  -40.53 input  175.53 | X-H torsion
[ 8008 7997 7996 7995 ] final   12.03 input   59.86 | X-H torsion
[ 10167 10162 10161 10158 ] final  -53.04 input  -65.29 | X-H torsion
[ 10718 10713 10712 10709 ] final   86.75 input   66.30 | X-H torsion
[ 10763 10752 10751 10750 ] final  -45.16 input  -60.55 | X-H torsion
[ 11005 11000 10999 10996 ] final  -29.07 input  -57.11 | X-H torsion

> <Gold.Protein.ActiveResidues>
 VAL166  LYS551  ARG553  GLY616  TRP617  ASP618  TYR619  PRO620  LYS621  CYS622 
 ASP623  PHE694  ASN695  SER759  ASP760  ASP761  ALA762  ILE779  LEU786  VAL792 
 PHE793  MET794  SER795  GLU796  ALA797  LYS798  CYS799  TRP800  GLU811  SER814 

> <Gold.Protein.RotatedAtoms>
  150.7139  134.0793  159.3891 H   0  0  0  0  0  0  0  0  0  0  0  0  # atno 6907 bound_to 6896
  151.8777  135.0463  160.0495 H   0  0  0  0  0  0  0  0  0  0  0  0  # atno 6908 bound_to 6896
  152.2593  133.5247  159.5408 H   0  0  0  0  0  0  0  0  0  0  0  0  # atno 6909 bound_to 6896
  146.0296  140.6749  142.9139 H   0  0  0  0  0  0  0  0  0  0  0  0  # atno 7974 bound_to 7965
  154.8150  140.2874  155.5826 H   0  0  0  0  0  0  0  0  0  0  0  0  # atno 8008 bound_to 7997
  156.2992  140.2561  156.2976 H   0  0  0  0  0  0  0  0  0  0  0  0  # atno 8009 bound_to 7997
  154.9403  140.0381  157.2083 H   0  0  0  0  0  0  0  0  0  0  0  0  # atno 8010 bound_to 7997
  140.6506  143.2563  151.4735 H   0  0  0  0  0  0  0  0  0  0  0  0  # atno 10167 bound_to 10162
  157.6932  131.0228  150.3020 H   0  0  0  0  0  0  0  0  0  0  0  0  # atno 10718 bound_to 10713
  154.0239  135.6665  153.4775 H   0  0  0  0  0  0  0  0  0  0  0  0  # atno 10763 bound_to 10752
  153.0568  135.5051  154.7997 H   0  0  0  0  0  0  0  0  0  0  0  0  # atno 10764 bound_to 10752
  154.6920  135.3063  154.9430 H   0  0  0  0  0  0  0  0  0  0  0  0  # atno 10765 bound_to 10752
  140.9264  133.7366  156.0873 H   0  0  0  0  0  0  0  0  0  0  0  0  # atno 11005 bound_to 11000
  144.7024  140.3711  143.7145 LP  0  0  0  0  0  0  0  0  0  0  0  0  # atno 17320 bound_to 7965
  145.7063  139.1673  143.2564 LP  0  0  0  0  0  0  0  0  0  0  0  0  # atno 17321 bound_to 7965
  139.5720  144.1905  152.1850 LP  0  0  0  0  0  0  0  0  0  0  0  0  # atno 17342 bound_to 10162
  140.1204  144.5378  150.6866 LP  0  0  0  0  0  0  0  0  0  0  0  0  # atno 17343 bound_to 10162
  156.3534  130.3835  149.7310 LP  0  0  0  0  0  0  0  0  0  0  0  0  # atno 17370 bound_to 10713
  156.4780  130.8027  151.3043 LP  0  0  0  0  0  0  0  0  0  0  0  0  # atno 17371 bound_to 10713
  140.7921  134.3606  157.5462 LP  0  0  0  0  0  0  0  0  0  0  0  0  # atno 17394 bound_to 11000
  139.8786  134.9146  156.3111 LP  0  0  0  0  0  0  0  0  0  0  0  0  # atno 17395 bound_to 11000

$$$$
