AV-unprocessed.smi:2167|AV-procd|sdf|8817|dock1
  -GOLD-   2272012 03D 1   1.00000     0.00000
 Structure written by MMmdl.
 41 42  0  0  0  0  0  0  0  0  1 V2000
  150.1968  144.6899  160.4888 C   0  0  0  0  0  0  0  0  0  0  0  0
  151.7048  144.5633  160.2276 C   0  0  0  0  0  0  0  0  0  0  0  0
  152.1794  145.3944  159.0269 C   0  0  0  0  0  0  0  0  0  0  0  0
  152.1419  143.1353  160.1308 C   0  0  0  0  0  0  0  0  0  0  0  0
  151.7491  142.3034  159.1615 N   0  0  0  0  0  0  0  0  0  0  0  0
  152.3058  141.0260  159.2844 C   0  0  0  0  0  0  0  0  0  0  0  0
  151.9878  139.9624  158.2706 C   0  0  0  0  0  0  0  0  0  0  0  0
  151.0796  140.5032  157.1612 C   0  0  0  0  0  0  0  0  0  0  0  0
  151.3872  141.5362  156.5670 O   0  0  0  0  0  0  0  0  0  0  0  0
  149.9574  139.8106  156.9014 N   0  0  0  0  0  0  0  0  0  0  0  0
  148.9528  140.1609  155.8960 C   0  0  1  0  0  0  0  0  0  0  0  0
  148.5258  141.6236  156.1572 C   0  0  0  0  0  0  0  0  0  0  0  0
  147.1479  141.9814  155.5739 C   0  0  0  0  0  0  0  0  0  0  0  0
  147.0601  141.9387  154.0406 C   0  0  0  0  0  0  0  0  0  0  0  0
  147.3166  140.5438  153.4452 C   0  0  0  0  0  0  0  0  0  0  0  0
  148.7354  140.2133  153.4158 N   0  0  0  0  0  0  0  0  0  0  0  0
  149.5468  140.0521  154.4721 C   0  0  0  0  0  0  0  0  0  0  0  0
  150.7457  139.8272  154.3055 O   0  0  0  0  0  0  0  0  0  0  0  0
  153.1213  140.8971  160.3815 C   0  0  0  0  0  0  0  0  0  0  0  0
  153.2332  142.3806  161.2873 S   0  0  0  0  0  0  0  0  0  0  0  0
  149.9099  144.1560  161.3952 H   0  0  0  0  0  0  0  0  0  0  0  0
  149.6157  144.2804  159.6619 H   0  0  0  0  0  0  0  0  0  0  0  0
  149.9065  145.7332  160.6143 H   0  0  0  0  0  0  0  0  0  0  0  0
  152.2038  144.9779  161.1045 H   0  0  0  0  0  0  0  0  0  0  0  0
  153.2637  145.3467  158.9210 H   0  0  0  0  0  0  0  0  0  0  0  0
  151.9047  146.4432  159.1420 H   0  0  0  0  0  0  0  0  0  0  0  0
  151.7376  145.0354  158.0967 H   0  0  0  0  0  0  0  0  0  0  0  0
  152.9006  139.5786  157.8139 H   0  0  0  0  0  0  0  0  0  0  0  0
  151.5030  139.1119  158.7516 H   0  0  0  0  0  0  0  0  0  0  0  0
  149.7812  138.9789  157.4458 H   0  0  0  0  0  0  0  0  0  0  0  0
  148.0945  139.4942  155.9982 H   0  0  0  0  0  0  0  0  0  0  0  0
  148.4669  141.7892  157.2344 H   0  0  0  0  0  0  0  0  0  0  0  0
  149.2823  142.3232  155.7967 H   0  0  0  0  0  0  0  0  0  0  0  0
  146.3929  141.3183  155.9982 H   0  0  0  0  0  0  0  0  0  0  0  0
  146.8806  142.9848  155.9069 H   0  0  0  0  0  0  0  0  0  0  0  0
  146.0585  142.2585  153.7514 H   0  0  0  0  0  0  0  0  0  0  0  0
  147.7438  142.6670  153.6023 H   0  0  0  0  0  0  0  0  0  0  0  0
  146.7547  139.7765  153.9794 H   0  0  0  0  0  0  0  0  0  0  0  0
  146.9610  140.5229  152.4149 H   0  0  0  0  0  0  0  0  0  0  0  0
  149.1535  140.1275  152.5007 H   0  0  0  0  0  0  0  0  0  0  0  0
  153.6660  140.0232  160.7074 H   0  0  0  0  0  0  0  0  0  0  0  0
  1  2  1  0  0  0  0
  1 21  1  0  0  0  0
  1 22  1  0  0  0  0
  1 23  1  0  0  0  0
  2  3  1  0  0  0  0
  2  4  1  0  0  0  0
  2 24  1  0  0  0  0
  3 25  1  0  0  0  0
  3 26  1  0  0  0  0
  3 27  1  0  0  0  0
  4 20  1  0  0  0  0
  4  5  2  0  0  0  0
  5  6  1  0  0  0  0
  6  7  1  0  0  0  0
  6 19  2  0  0  0  0
  7  8  1  0  0  0  0
  7 28  1  0  0  0  0
  7 29  1  0  0  0  0
  8  9  2  0  0  0  0
  8 10  1  0  0  0  0
 10 11  1  0  0  0  0
 10 30  1  0  0  0  0
 11 17  1  0  0  0  0
 11 12  1  0  0  0  0
 11 31  1  0  0  0  0
 12 13  1  0  0  0  0
 12 32  1  0  0  0  0
 12 33  1  0  0  0  0
 13 14  1  0  0  0  0
 13 34  1  0  0  0  0
 13 35  1  0  0  0  0
 14 15  1  0  0  0  0
 14 36  1  0  0  0  0
 14 37  1  0  0  0  0
 15 16  1  0  0  0  0
 15 38  1  0  0  0  0
 15 39  1  0  0  0  0
 16 17  1  0  0  0  0
 16 40  1  0  0  0  0
 17 18  2  0  0  0  0
 19 20  1  0  0  0  0
 19 41  1  0  0  0  0
M  END
> <s_m_source_file>
AV-unprocessed.smi

> <i_m_source_file_index>
2167

> <i_lp_mmshare_version>
43012

> <i_f3d_flags>
0

> <s_epik_input>
W0NIM11bQ0hdKFtDSDNdKWMxbmMoW2NIXXMxKVtDSDJdQyg9TylbTkhdW0NAQEhdMltDSDJdW0NIMl1bQ0gyXVtDSDJdW05IXUMyPU8=

> <s_epik_cmdline>
J2VwaWtfcHl0aG9uJywgJy1waCcsICc3LjAnLCAnLXRuJywgJzgnLCAnLW1hJywgJzIwMCcsICctbWV0YWxfYmluZGluZycsICctaW1hZScsICc8aW5maWxlLm1hZT4nLCAnLW9tYWUnLCAnPG91dGZpbGUubWFlPic=

> <r_lp_tautomer_probability>
1

> <r_epik_Ionization_Penalty>
3.1619e-05

> <r_epik_Ionization_Penalty_Charging>
0

> <r_epik_Ionization_Penalty_Neutral>
3.1619e-05

> <r_epik_State_Penalty>
-0

> <r_epik_Charging_Adjusted_Penalty>
0

> <i_epik_Tot_Q>
0

> <i_epik_Tot_abs_Q>
0

> <r_epik_Metal_State_Penalty>
-0

> <b_epik_Metal_Only>
0

> <s_lp_Force_Field>
OPLS_2005

> <r_lp_Energy>
3.21442

> <b_lp_Chiralities_Consistent>
1

> <s_lp_Variant>
AV-unprocessed.smi:2167-2

> <Gold.Version>
5.8.1

> <Gold.Id.Protein>
6NUR|6NUR_protein|mol2

> <Gold.PLP.Fitness>
46.4776

> <Gold.PLP.PLP>
-40.7169

> <Gold.PLP.part.hbond>
-1.9671

> <Gold.PLP.part.metal>
0.0000

> <Gold.PLP.part.buried>
-7.3007

> <Gold.PLP.part.nonpolar>
-32.7322

> <Gold.PLP.part.repulsive>
0.3126

> <Gold.PLP.ligand.clash>
0.0000

> <Gold.PLP.ligand.torsion>
0.1430

> <Gold.PLP.Chemscore.Hbond>
1.9913

> <Gold.PLP.Chemscore.CHOScore>
0.0000

> <Gold.PLP.Chemscore.Metal>
0.0000

> <Gold.Chemscore.Hbonds>
donor molecule, donor type, donor heavy atom, donor atom, acceptor molecule, acceptor atom, score
      L1  H    16    40       P1  7957  0.71
      P1  H  7989  7998       L1    18  1.00

> <Gold.PLP.Chemscore.Internal.Correction>
0.0729

> <Gold.Rescore>
     Score         DG    S(hbond)    S(metal)    S(lipo)     H(rot)  DE(clash)    DE(int)     intcor
     15.64     -19.75       1.87        0.00     102.89       1.57       0.15       3.97       ----

> <Gold.Chemscore.Fitness>
15.6353

> <Gold.Chemscore.DG>
-19.7478

> <Gold.Chemscore.ZeroCoef>
-5.4800

> <Gold.Chemscore.Hbond>
1.8735

> <Gold.Chemscore.Metal>
0.0000

> <Gold.Chemscore.Lipo>
102.8881

> <Gold.Chemscore.Internal_Hbond>
0.0000

> <Gold.Chemscore.DEClash>
0.1470

> <Gold.Chemscore.DEInternal>
3.9655

> <Gold.Chemscore.Rot>
1.5733

> <Gold.Chemscore.Internal.Correction>
   9.000000E+99

> <Gold.Chemscore.Hbonds>
donor molecule, donor type, donor heavy atom, donor atom, acceptor molecule, acceptor atom, score
      L1  H    16    40       P1  7957  0.71
      P1  H  7989  7998       L1    18  0.95

> <Gold.Chemscore.Hbond.Weighted>
-6.2574

> <Gold.Chemscore.Metal.Weighted>
-0.0000

> <Gold.Chemscore.Lipo.Weighted>
-12.0379

> <Gold.Chemscore.Internal_Hbond.Weighted>
0.0000

> <Gold.Chemscore.DEClash.Weighted>
0.1470

> <Gold.Chemscore.DEInternal.Weighted>
3.9655

> <Gold.Chemscore.Rot.Weighted>
4.0276

> <Gold.Chemscore.Internal.Correction.Weighted>
   9.000000E+99

> <Gold.Protein.RotatedTorsions>
[ 6907 6896 6895 6894 ] final -112.66 input  -60.11 | X-H torsion
[ 7974 7965 7964 7962 ] final -102.37 input  175.53 | X-H torsion
[ 8008 7997 7996 7995 ] final   30.91 input   59.86 | X-H torsion
[ 10167 10162 10161 10158 ] final  116.08 input  -65.29 | X-H torsion
[ 10718 10713 10712 10709 ] final  152.63 input   66.30 | X-H torsion
[ 10763 10752 10751 10750 ] final   85.71 input  -60.55 | X-H torsion
[ 11005 11000 10999 10996 ] final  167.88 input  -57.11 | X-H torsion

> <Gold.Protein.ActiveResidues>
 VAL166  LYS551  ARG553  GLY616  TRP617  ASP618  TYR619  PRO620  LYS621  CYS622 
 ASP623  PHE694  ASN695  SER759  ASP760  ASP761  ALA762  ILE779  LEU786  VAL792 
 PHE793  MET794  SER795  GLU796  ALA797  LYS798  CYS799  TRP800  GLU811  SER814 

> <Gold.Protein.RotatedAtoms>
  150.7774  133.9058  159.3354 H   0  0  0  0  0  0  0  0  0  0  0  0  # atno 6907 bound_to 6896
  151.6929  135.0941  160.0246 H   0  0  0  0  0  0  0  0  0  0  0  0  # atno 6908 bound_to 6896
  152.3814  133.6513  159.6200 H   0  0  0  0  0  0  0  0  0  0  0  0  # atno 6909 bound_to 6896
  145.2696  140.9294  143.2994 H   0  0  0  0  0  0  0  0  0  0  0  0  # atno 7974 bound_to 7965
  155.0980  140.3226  155.4555 H   0  0  0  0  0  0  0  0  0  0  0  0  # atno 8008 bound_to 7997
  156.2725  140.2066  156.6053 H   0  0  0  0  0  0  0  0  0  0  0  0  # atno 8009 bound_to 7997
  154.6851  140.0522  157.0293 H   0  0  0  0  0  0  0  0  0  0  0  0  # atno 8010 bound_to 7997
  139.6272  144.7110  151.2508 H   0  0  0  0  0  0  0  0  0  0  0  0  # atno 10167 bound_to 10162
  157.2553  131.0787  151.1702 H   0  0  0  0  0  0  0  0  0  0  0  0  # atno 10718 bound_to 10713
  153.1501  135.4607  154.9624 H   0  0  0  0  0  0  0  0  0  0  0  0  # atno 10763 bound_to 10752
  154.7818  135.3191  154.7976 H   0  0  0  0  0  0  0  0  0  0  0  0  # atno 10764 bound_to 10752
  153.8483  135.6924  153.4849 H   0  0  0  0  0  0  0  0  0  0  0  0  # atno 10765 bound_to 10752
  140.2814  134.7747  157.3761 H   0  0  0  0  0  0  0  0  0  0  0  0  # atno 11005 bound_to 11000
  144.9347  139.4258  143.6478 LP  0  0  0  0  0  0  0  0  0  0  0  0  # atno 17320 bound_to 7965
  146.3250  139.8276  142.8914 LP  0  0  0  0  0  0  0  0  0  0  0  0  # atno 17321 bound_to 7965
  140.7418  143.6546  150.8218 LP  0  0  0  0  0  0  0  0  0  0  0  0  # atno 17342 bound_to 10162
  140.0166  143.5586  152.2817 LP  0  0  0  0  0  0  0  0  0  0  0  0  # atno 17343 bound_to 10162
  157.3234  130.6948  149.6282 LP  0  0  0  0  0  0  0  0  0  0  0  0  # atno 17370 bound_to 10713
  155.9665  130.4328  150.4981 LP  0  0  0  0  0  0  0  0  0  0  0  0  # atno 17371 bound_to 10713
  140.1280  134.5132  155.8129 LP  0  0  0  0  0  0  0  0  0  0  0  0  # atno 17394 bound_to 11000
  141.2162  133.6779  156.6987 LP  0  0  0  0  0  0  0  0  0  0  0  0  # atno 17395 bound_to 11000

$$$$
