#       Name:                AV-unprocessed.smi:2800
#       Creating user name   scv26
#       Creation time:       Fri Mar 27 15:22:54 2020


#       File generated by GOLD software.
#

@<TRIPOS>MOLECULE
AV-unprocessed.smi:2800
    56    57     1
SMALL
NO_CHARGES


@<TRIPOS>ATOM
      1 ****        -2.1229  -1.2449  -1.3069 C.3            1 S1                 0.0000
      2 ****        -2.0570   0.0060  -0.4482 C.ar           1 S1                 0.0000
      3 ****        -3.1631   0.7808  -0.4698 N.ar           1 S1                 0.0000
      4 ****        -3.1921   1.9126   0.2716 C.ar           1 S1                 0.0000
      5 ****        -4.3587   2.6990   0.2053 N.pl3          1 S1                 0.0000
      6 ****        -5.5495   2.2600  -0.5049 C.3            1 S1                 0.0000
      7 ****        -6.5786   3.3591  -0.2443 C.3            1 S1                 0.0000
      8 ****        -6.2099   3.8551   1.1543 C.3            1 S1                 0.0000
      9 ****        -4.6874   3.6872   1.2224 C.3            1 S1                 0.0000
     10 ****        -2.0947   2.3033   1.0727 C.ar           1 S1                 0.0000
     11 ****        -0.9406   1.4980   1.0943 C.ar           1 S1                 0.0000
     12 ****        -0.9032   0.3238   0.3063 C.ar           1 S1                 0.0000
     13 ****         0.2134  -0.5574   0.2611 N.am           1 S1                 0.0000
     14 ****         1.5077  -0.2835   0.4958 C.2            1 S1                 0.0000
     15 ****         1.9501   0.7968   0.8850 O.2            1 S1                 0.0000
     16 ****         2.2757  -1.3504   0.2334 N.am           1 S1                 0.0000
     17 ****         3.7363  -1.4087   0.3296 C.3            1 S1                 0.0000
     18 ****         4.1238  -1.9612   1.7245 C.3            1 S1                 0.0000
     19 ****         5.3532  -1.4239   2.1665 O.3            1 S1                 0.0000
     20 ****         4.3361  -2.1679  -0.9003 C.3            1 S1                 0.0000
     21 ****         3.7648  -3.5979  -1.0371 C.3            1 S1                 0.0000
     22 ****         5.8729  -2.2547  -0.7991 C.3            1 S1                 0.0000
     23 ****         3.9986  -1.3913  -2.1930 C.3            1 S1                 0.0000
     24 ****         4.1075  -0.3827   0.2786 H              1 S1                 0.0000
     25 ****        -1.3547  -1.2145  -2.0801 H              1 S1                 0.0000
     26 ****        -3.0919  -1.3440  -1.7977 H              1 S1                 0.0000
     27 ****        -1.9636  -2.1339  -0.6960 H              1 S1                 0.0000
     28 ****        -5.3598   2.1287  -1.5707 H              1 S1                 0.0000
     29 ****        -5.8881   1.3085  -0.0930 H              1 S1                 0.0000
     30 ****        -6.4483   4.1658  -0.9670 H              1 S1                 0.0000
     31 ****        -7.6068   3.0040  -0.3155 H              1 S1                 0.0000
     32 ****        -6.5313   4.8799   1.3415 H              1 S1                 0.0000
     33 ****        -6.6816   3.2153   1.9014 H              1 S1                 0.0000
     34 ****        -4.3727   3.3743   2.2186 H              1 S1                 0.0000
     35 ****        -4.1832   4.6232   0.9802 H              1 S1                 0.0000
     36 ****        -2.1177   3.2072   1.6625 H              1 S1                 0.0000
     37 ****        -0.1141   1.7946   1.7207 H              1 S1                 0.0000
     38 ****         0.0192  -1.4778  -0.1048 H              1 S1                 0.0000
     39 ****         1.8165  -2.1922  -0.0816 H              1 S1                 0.0000
     40 ****         3.3811  -1.6701   2.4686 H              1 S1                 0.0000
     41 ****         4.1661  -3.0492   1.7417 H              1 S1                 0.0000
     42 ****         5.5298  -1.7521   3.0349 H              1 S1                 0.0000
     43 ****         4.1799  -4.1017  -1.9108 H              1 S1                 0.0000
     44 ****         2.6813  -3.5964  -1.1569 H              1 S1                 0.0000
     45 ****         4.0002  -4.2180  -0.1731 H              1 S1                 0.0000
     46 ****         6.1892  -2.8826   0.0338 H              1 S1                 0.0000
     47 ****         6.3189  -1.2691  -0.6611 H              1 S1                 0.0000
     48 ****         6.3071  -2.6860  -1.7019 H              1 S1                 0.0000
     49 ****         4.4397  -1.8668  -3.0697 H              1 S1                 0.0000
     50 ****         4.3778  -0.3695  -2.1526 H              1 S1                 0.0000
     51 ****         2.9238  -1.3349  -2.3684 H              1 S1                 0.0000
     52 ****        -3.9516   0.5211  -1.0273 LP             1 S1                 0.0000
     53 ****         1.3273   1.5610   1.0526 LP             1 S1                 0.0000
     54 ****         2.9324   0.9105   1.0336 LP             1 S1                 0.0000
     55 ****         5.2965  -0.4257   2.1884 LP             1 S1                 0.0000
     56 ****         6.0857  -1.7026   1.5453 LP             1 S1                 0.0000
@<TRIPOS>BOND
    1    1    2 1     
    2    1   25 1     
    3    1   26 1     
    4    1   27 1     
    5    2   12 ar    
    6    2    3 ar    
    7    3    4 ar    
    8    4    5 1     
    9    4   10 ar    
   10    5    9 1     
   11    5    6 1     
   12    6    7 1     
   13    6   28 1     
   14    6   29 1     
   15    7    8 1     
   16    7   30 1     
   17    7   31 1     
   18    8    9 1     
   19    8   32 1     
   20    8   33 1     
   21    9   34 1     
   22    9   35 1     
   23   10   11 ar    
   24   10   36 1     
   25   11   12 ar    
   26   11   37 1     
   27   12   13 1     
   28   13   14 am    
   29   13   38 1     
   30   14   15 2     
   31   14   16 am    
   32   16   17 1     
   33   16   39 1     
   34   17   24 1     
   35   17   18 1     
   36   17   20 1     
   37   18   19 1     
   38   18   40 1     
   39   18   41 1     
   40   19   42 1     
   41   20   21 1     
   42   20   22 1     
   43   20   23 1     
   44   21   43 1     
   45   21   44 1     
   46   21   45 1     
   47   22   46 1     
   48   22   47 1     
   49   22   48 1     
   50   23   49 1     
   51   23   50 1     
   52   23   51 1     
   53    3   52 1     
   54   15   53 1     
   55   15   54 1     
   56   19   55 1     
   57   19   56 1     
@<TRIPOS>SUBSTRUCTURE
      1 S1             1
@<TRIPOS>SET
LONE_PAIRS      STATIC     ATOMS    <user>   **** ""
5 52 53 54 55 56
DONOR_HYDROGENS      STATIC     ATOMS    <user>   **** ""
3 38 39 42
ATOM$BLUE        STATIC     ATOMS    COLORGROUP SYSTEM
5 52 53 54 55 56
ATOM$RED        STATIC     ATOMS    COLORGROUP SYSTEM
3 38 39 42
