AV-unprocessed.smi:2799|AV-procd|sdf|10792|dock7
  -GOLD-   2272015223D 1   1.00000     0.00000
 Structure written by MMmdl.
 52 53  0  0  0  0  0  0  0  0  2 V2000
  144.6791  135.2455  150.4997 C   0  0  0  0  0  0  0  0  0  0  0  0
  145.8389  134.7270  151.3640 C   0  0  0  0  0  0  0  0  0  0  0  0
  145.7727  133.1948  151.4825 C   0  0  0  0  0  0  0  0  0  0  0  0
  145.8277  135.4168  152.7495 C   0  0  0  0  0  0  0  0  0  0  0  0
  146.6076  136.6909  152.8154 N   0  3  1  0  0  0  0  0  0  0  0  0
  145.9322  137.7845  152.0552 C   0  0  0  0  0  0  0  0  0  0  0  0
  146.7877  139.0552  151.9804 C   0  0  0  0  0  0  0  0  0  0  0  0
  147.1294  139.5501  153.3825 C   0  0  0  0  0  0  0  0  0  0  0  0
  147.8207  138.4284  154.1582 C   0  0  0  0  0  0  0  0  0  0  0  0
  146.9700  137.1319  154.2075 C   0  0  2  0  0  0  0  0  0  0  0  0
  147.7189  136.0421  155.0299 C   0  0  0  0  0  0  0  0  0  0  0  0
  147.6638  136.2698  156.4719 N   0  0  0  0  0  0  0  0  0  0  0  0
  147.3280  135.3462  157.3841 C   0  0  0  0  0  0  0  0  0  0  0  0
  147.0372  134.1875  157.0885 O   0  0  0  0  0  0  0  0  0  0  0  0
  147.3623  135.8635  158.6260 N   0  0  0  0  0  0  0  0  0  0  0  0
  147.0516  135.2625  159.8591 C   0  0  0  0  0  0  0  0  0  0  0  0
  146.8157  133.9382  160.0399 C   0  0  0  0  0  0  0  0  0  0  0  0
  146.4932  133.4135  161.3451 C   0  0  0  0  0  0  0  0  0  0  0  0
  146.4234  134.2669  162.3761 C   0  0  0  0  0  0  0  0  0  0  0  0
  146.6548  135.6428  162.2110 N   0  0  0  0  0  0  0  0  0  0  0  0
  146.5550  136.4943  163.3991 C   0  0  0  0  0  0  0  0  0  0  0  0
  146.9680  136.1946  161.0010 C   0  0  0  0  0  0  0  0  0  0  0  0
  147.1672  137.4066  160.8850 O   0  0  0  0  0  0  0  0  0  0  0  0
  143.7123  135.0105  150.9464 H   0  0  0  0  0  0  0  0  0  0  0  0
  144.7012  134.8013  149.5041 H   0  0  0  0  0  0  0  0  0  0  0  0
  144.7339  136.3276  150.3760 H   0  0  0  0  0  0  0  0  0  0  0  0
  146.7483  134.9871  150.8254 H   0  0  0  0  0  0  0  0  0  0  0  0
  144.8706  132.8757  152.0056 H   0  0  0  0  0  0  0  0  0  0  0  0
  146.6306  132.7971  152.0250 H   0  0  0  0  0  0  0  0  0  0  0  0
  145.7679  132.7260  150.4980 H   0  0  0  0  0  0  0  0  0  0  0  0
  144.8028  135.6113  153.0698 H   0  0  0  0  0  0  0  0  0  0  0  0
  146.2261  134.6782  153.4379 H   0  0  0  0  0  0  0  0  0  0  0  0
  145.7237  137.4804  151.0321 H   0  0  0  0  0  0  0  0  0  0  0  0
  144.9695  138.0080  152.5180 H   0  0  0  0  0  0  0  0  0  0  0  0
  147.7032  138.8535  151.4227 H   0  0  0  0  0  0  0  0  0  0  0  0
  146.2543  139.8323  151.4319 H   0  0  0  0  0  0  0  0  0  0  0  0
  147.7761  140.4264  153.3276 H   0  0  0  0  0  0  0  0  0  0  0  0
  146.2223  139.8599  153.9032 H   0  0  0  0  0  0  0  0  0  0  0  0
  148.7885  138.2146  153.7021 H   0  0  0  0  0  0  0  0  0  0  0  0
  148.0312  138.7957  155.1626 H   0  0  0  0  0  0  0  0  0  0  0  0
  146.0341  137.3604  154.7203 H   0  0  0  0  0  0  0  0  0  0  0  0
  147.3092  135.0464  154.8693 H   0  0  0  0  0  0  0  0  0  0  0  0
  148.7671  136.0026  154.7325 H   0  0  0  0  0  0  0  0  0  0  0  0
  147.8950  137.1975  156.7971 H   0  0  0  0  0  0  0  0  0  0  0  0
  147.6734  136.8214  158.7008 H   0  0  0  0  0  0  0  0  0  0  0  0
  146.8463  133.2338  159.2255 H   0  0  0  0  0  0  0  0  0  0  0  0
  146.3125  132.3582  161.4875 H   0  0  0  0  0  0  0  0  0  0  0  0
  146.1881  133.9518  163.3822 H   0  0  0  0  0  0  0  0  0  0  0  0
  145.8310  137.2950  163.2408 H   0  0  0  0  0  0  0  0  0  0  0  0
  147.5212  136.9481  163.6234 H   0  0  0  0  0  0  0  0  0  0  0  0
  146.2384  135.9448  164.2863 H   0  0  0  0  0  0  0  0  0  0  0  0
  147.4828  136.5087  152.3452 H   0  0  0  0  0  0  0  0  0  0  0  0
  1  2  1  0  0  0  0
  1 24  1  0  0  0  0
  1 25  1  0  0  0  0
  1 26  1  0  0  0  0
  2  3  1  0  0  0  0
  2  4  1  0  0  0  0
  2 27  1  0  0  0  0
  3 28  1  0  0  0  0
  3 29  1  0  0  0  0
  3 30  1  0  0  0  0
  4  5  1  0  0  0  0
  4 31  1  0  0  0  0
  4 32  1  0  0  0  0
  5 10  1  0  0  0  0
  5  6  1  0  0  0  0
  5 52  1  0  0  0  0
  6  7  1  0  0  0  0
  6 33  1  0  0  0  0
  6 34  1  0  0  0  0
  7  8  1  0  0  0  0
  7 35  1  0  0  0  0
  7 36  1  0  0  0  0
  8  9  1  0  0  0  0
  8 37  1  0  0  0  0
  8 38  1  0  0  0  0
  9 10  1  0  0  0  0
  9 39  1  0  0  0  0
  9 40  1  0  0  0  0
 10 11  1  0  0  0  0
 10 41  1  0  0  0  0
 11 12  1  0  0  0  0
 11 42  1  0  0  0  0
 11 43  1  0  0  0  0
 12 13  1  0  0  0  0
 12 44  1  0  0  0  0
 13 14  2  0  0  0  0
 13 15  1  0  0  0  0
 15 16  1  0  0  0  0
 15 45  1  0  0  0  0
 16 22  1  0  0  0  0
 16 17  2  0  0  0  0
 17 18  1  0  0  0  0
 17 46  1  0  0  0  0
 18 19  2  0  0  0  0
 18 47  1  0  0  0  0
 19 20  1  0  0  0  0
 19 48  1  0  0  0  0
 20 21  1  0  0  0  0
 20 22  1  0  0  0  0
 21 49  1  0  0  0  0
 21 50  1  0  0  0  0
 21 51  1  0  0  0  0
 22 23  2  0  0  0  0
M  CHG  1   5   1
M  END
> <s_m_source_file>
AV-unprocessed.smi

> <i_m_source_file_index>
2799

> <i_lp_mmshare_version>
43012

> <i_f3d_flags>
0

> <s_epik_input>
W0NIM11bQ0hdKFtDSDNdKVtDSDJdTjFbQ0gyXVtDSDJdW0NIMl1bQ0gyXVtDQEhdMVtDSDJdW05IXUMoPU8pW05IXWMyW2NIXVtjSF1bY0hdbihbQ0gzXSljMj1P

> <s_epik_cmdline>
J2VwaWtfcHl0aG9uJywgJy1waCcsICc3LjAnLCAnLXRuJywgJzgnLCAnLW1hJywgJzIwMCcsICctbWV0YWxfYmluZGluZycsICctaW1hZScsICc8aW5maWxlLm1hZT4nLCAnLW9tYWUnLCAnPG91dGZpbGUubWFlPic=

> <r_lp_tautomer_probability>
1

> <r_epik_Ionization_Penalty>
0.0010885

> <r_epik_Ionization_Penalty_Charging>
0.00106921

> <r_epik_Ionization_Penalty_Neutral>
1.92865e-05

> <r_epik_State_Penalty>
0.000697184

> <r_epik_Charging_Adjusted_Penalty>
0.0017664

> <i_epik_Tot_Q>
1

> <i_epik_Tot_abs_Q>
1

> <r_epik_Metal_State_Penalty>
-0

> <b_epik_Metal_Only>
0

> <s_lp_Force_Field>
OPLS_2005

> <r_lp_Energy>
36.993

> <b_lp_Chiralities_Consistent>
1

> <s_lp_Variant>
AV-unprocessed.smi:2799-4

> <Gold.Version>
5.8.1

> <Gold.Id.Protein>
6NUR|6NUR_protein|mol2

> <Gold.PLP.Fitness>
48.2097

> <Gold.PLP.PLP>
-38.3947

> <Gold.PLP.part.hbond>
-3.0000

> <Gold.PLP.part.metal>
0.0000

> <Gold.PLP.part.buried>
-2.5160

> <Gold.PLP.part.nonpolar>
-33.3764

> <Gold.PLP.part.repulsive>
0.0652

> <Gold.PLP.ligand.clash>
0.0000

> <Gold.PLP.ligand.torsion>
0.7311

> <Gold.PLP.Chemscore.Hbond>
3.7280

> <Gold.PLP.Chemscore.CHOScore>
0.0000

> <Gold.PLP.Chemscore.Metal>
0.0000

> <Gold.Chemscore.Hbonds>
donor molecule, donor type, donor heavy atom, donor atom, acceptor molecule, acceptor atom, score
      L1  H     5    52       P1  7948  2.00
      P1  H  6931  6943       L1    23  0.26
      P1  H  6934  6947       L1    23  1.00

> <Gold.PLP.Chemscore.Internal.Correction>
0.0932

> <Gold.Rescore>
     Score         DG    S(hbond)    S(metal)    S(lipo)     H(rot)  DE(clash)    DE(int)     intcor
     18.28     -20.21       2.69        0.00      83.48       1.57       0.08       1.85       ----

> <Gold.Chemscore.Fitness>
18.2829

> <Gold.Chemscore.DG>
-20.2139

> <Gold.Chemscore.ZeroCoef>
-5.4800

> <Gold.Chemscore.Hbond>
2.6893

> <Gold.Chemscore.Metal>
0.0000

> <Gold.Chemscore.Lipo>
83.4836

> <Gold.Chemscore.Internal_Hbond>
0.0000

> <Gold.Chemscore.DEClash>
0.0793

> <Gold.Chemscore.DEInternal>
1.8518

> <Gold.Chemscore.Rot>
1.5688

> <Gold.Chemscore.Internal.Correction>
   9.000000E+99

> <Gold.Chemscore.Hbonds>
donor molecule, donor type, donor heavy atom, donor atom, acceptor molecule, acceptor atom, score
      L1  H     5    52       P1  7948  0.96
      P1  H  6931  6943       L1    23  0.24
      P1  H  6934  6947       L1    23  0.99

> <Gold.Chemscore.Hbond.Weighted>
-8.9824

> <Gold.Chemscore.Metal.Weighted>
-0.0000

> <Gold.Chemscore.Lipo.Weighted>
-9.7676

> <Gold.Chemscore.Internal_Hbond.Weighted>
0.0000

> <Gold.Chemscore.DEClash.Weighted>
0.0793

> <Gold.Chemscore.DEInternal.Weighted>
1.8518

> <Gold.Chemscore.Rot.Weighted>
4.0161

> <Gold.Chemscore.Internal.Correction.Weighted>
   9.000000E+99

> <Gold.Protein.RotatedTorsions>
[ 6907 6896 6895 6894 ] final  -56.63 input  -60.11 | X-H torsion
[ 7974 7965 7964 7962 ] final   18.59 input  175.53 | X-H torsion
[ 8008 7997 7996 7995 ] final -171.79 input   59.86 | X-H torsion
[ 10167 10162 10161 10158 ] final -174.67 input  -65.29 | X-H torsion
[ 10718 10713 10712 10709 ] final   61.62 input   66.30 | X-H torsion
[ 10763 10752 10751 10750 ] final   56.82 input  -60.55 | X-H torsion
[ 11005 11000 10999 10996 ] final -138.53 input  -57.11 | X-H torsion

> <Gold.Protein.ActiveResidues>
 VAL166  LYS551  ARG553  GLY616  TRP617  ASP618  TYR619  PRO620  LYS621  CYS622 
 ASP623  PHE694  ASN695  SER759  ASP760  ASP761  ALA762  ILE779  LEU786  VAL792 
 PHE793  MET794  SER795  GLU796  ALA797  LYS798  CYS799  TRP800  GLU811  SER814 

> <Gold.Protein.RotatedAtoms>
  150.8151  134.7329  159.6722 H   0  0  0  0  0  0  0  0  0  0  0  0  # atno 6907 bound_to 6896
  152.4270  134.5846  159.9967 H   0  0  0  0  0  0  0  0  0  0  0  0  # atno 6908 bound_to 6896
  151.6045  133.3316  159.3090 H   0  0  0  0  0  0  0  0  0  0  0  0  # atno 6909 bound_to 6896
  146.2180  139.8436  142.8636 H   0  0  0  0  0  0  0  0  0  0  0  0  # atno 7974 bound_to 7965
  155.9362  140.1100  157.1093 H   0  0  0  0  0  0  0  0  0  0  0  0  # atno 8008 bound_to 7997
  154.4080  140.1228  156.4933 H   0  0  0  0  0  0  0  0  0  0  0  0  # atno 8009 bound_to 7997
  155.7019  140.3472  155.4939 H   0  0  0  0  0  0  0  0  0  0  0  0  # atno 8010 bound_to 7997
  139.5621  144.1844  152.1255 H   0  0  0  0  0  0  0  0  0  0  0  0  # atno 10167 bound_to 10162
  157.5841  130.9005  149.9484 H   0  0  0  0  0  0  0  0  0  0  0  0  # atno 10718 bound_to 10713
  152.9838  135.5663  154.5291 H   0  0  0  0  0  0  0  0  0  0  0  0  # atno 10763 bound_to 10752
  154.4765  135.2787  155.1605 H   0  0  0  0  0  0  0  0  0  0  0  0  # atno 10764 bound_to 10752
  154.3131  135.6284  153.5527 H   0  0  0  0  0  0  0  0  0  0  0  0  # atno 10765 bound_to 10752
  140.8607  134.2172  157.4709 H   0  0  0  0  0  0  0  0  0  0  0  0  # atno 11005 bound_to 11000
  145.2874  141.0157  143.3683 LP  0  0  0  0  0  0  0  0  0  0  0  0  # atno 17320 bound_to 7965
  144.9103  139.4536  143.6590 LP  0  0  0  0  0  0  0  0  0  0  0  0  # atno 17321 bound_to 7965
  140.1359  144.5246  150.6773 LP  0  0  0  0  0  0  0  0  0  0  0  0  # atno 17342 bound_to 10162
  140.6902  143.2372  151.5152 LP  0  0  0  0  0  0  0  0  0  0  0  0  # atno 17343 bound_to 10162
  156.0889  130.3665  150.0434 LP  0  0  0  0  0  0  0  0  0  0  0  0  # atno 17370 bound_to 10713
  156.8568  130.9478  151.3621 LP  0  0  0  0  0  0  0  0  0  0  0  0  # atno 17371 bound_to 10713
  139.8707  134.9728  156.4787 LP  0  0  0  0  0  0  0  0  0  0  0  0  # atno 17394 bound_to 11000
  140.8686  133.8006  155.9340 LP  0  0  0  0  0  0  0  0  0  0  0  0  # atno 17395 bound_to 11000

$$$$
