AV-unprocessed.smi:1047|AV-procd|sdf|4582|dock5
  -GOLD-   22720 3 53D 1   1.00000     0.00000
 Structure written by MMmdl.
 58 60  0  0  0  0  0  0  0  0  4 V2000
  142.7170  135.8459  152.4831 C   0  0  0  0  0  0  0  0  0  0  0  0
  143.7457  136.8844  152.9524 C   0  0  0  0  0  0  0  0  0  0  0  0
  145.1463  136.4150  152.7804 N   0  3  1  0  0  0  0  0  0  0  0  0
  145.5114  136.1463  151.3681 C   0  0  0  0  0  0  0  0  0  0  0  0
  145.8027  137.4539  150.6108 C   0  0  0  0  0  0  0  0  0  0  0  0
  146.8300  138.1710  151.2849 O   0  0  0  0  0  0  0  0  0  0  0  0
  146.4618  138.5493  152.6072 C   0  0  2  0  0  0  0  0  0  0  0  0
  147.6203  139.3783  153.1875 C   0  0  0  0  0  0  0  0  0  0  0  0
  148.8949  138.6313  153.1711 N   0  3  0  0  0  0  0  0  0  0  0  0
  149.5484  138.5267  154.4919 C   0  0  0  0  0  0  0  0  0  0  0  0
  151.0785  138.6310  154.3715 C   0  0  2  0  0  0  0  0  0  0  0  0
  151.5998  137.3396  154.1236 O   0  0  0  0  0  0  0  0  0  0  0  0
  151.7179  139.2123  155.6486 C   0  0  0  0  0  0  0  0  0  0  0  0
  151.2282  140.5608  155.9726 N   0  0  0  0  0  0  0  0  0  0  0  0
  150.3612  141.3569  155.2886 C   0  0  0  0  0  0  0  0  0  0  0  0
  150.2180  142.5119  155.9950 N   0  3  0  0  0  0  0  0  0  0  0  0
  151.0021  142.4534  157.1488 C   0  0  0  0  0  0  0  0  0  0  0  0
  151.1879  143.3780  158.1695 C   0  0  0  0  0  0  0  0  0  0  0  0
  152.0621  143.0140  159.2181 C   0  0  0  0  0  0  0  0  0  0  0  0
  152.2903  144.0034  160.3483 C   0  0  0  0  0  0  0  0  0  0  0  0
  152.7150  141.7543  159.2198 C   0  0  0  0  0  0  0  0  0  0  0  0
  153.6485  141.3714  160.3556 C   0  0  0  0  0  0  0  0  0  0  0  0
  152.5148  140.8285  158.1709 C   0  0  0  0  0  0  0  0  0  0  0  0
  151.6508  141.2027  157.1438 C   0  0  0  0  0  0  0  0  0  0  0  0
  146.1755  137.2692  153.4285 C   0  0  0  0  0  0  0  0  0  0  0  0
  141.7086  136.2575  152.5334 H   0  0  0  0  0  0  0  0  0  0  0  0
  142.7278  134.9471  153.0987 H   0  0  0  0  0  0  0  0  0  0  0  0
  142.8993  135.5495  151.4497 H   0  0  0  0  0  0  0  0  0  0  0  0
  143.5979  137.7848  152.3551 H   0  0  0  0  0  0  0  0  0  0  0  0
  143.5529  137.1703  153.9860 H   0  0  0  0  0  0  0  0  0  0  0  0
  146.4033  135.5183  151.3578 H   0  0  0  0  0  0  0  0  0  0  0  0
  144.7300  135.5730  150.8679 H   0  0  0  0  0  0  0  0  0  0  0  0
  146.1371  137.2317  149.5975 H   0  0  0  0  0  0  0  0  0  0  0  0
  144.9064  138.0692  150.5196 H   0  0  0  0  0  0  0  0  0  0  0  0
  145.5735  139.1808  152.5559 H   0  0  0  0  0  0  0  0  0  0  0  0
  147.7310  140.3140  152.6378 H   0  0  0  0  0  0  0  0  0  0  0  0
  147.3934  139.6427  154.2213 H   0  0  0  0  0  0  0  0  0  0  0  0
  148.7172  137.6945  152.8362 H   0  0  0  0  0  0  0  0  0  0  0  0
  149.1732  139.3313  155.1259 H   0  0  0  0  0  0  0  0  0  0  0  0
  149.2677  137.5868  154.9699 H   0  0  0  0  0  0  0  0  0  0  0  0
  151.3344  139.2705  153.5256 H   0  0  0  0  0  0  0  0  0  0  0  0
  151.4368  137.1181  153.2188 H   0  0  0  0  0  0  0  0  0  0  0  0
  151.4832  138.5753  156.5024 H   0  0  0  0  0  0  0  0  0  0  0  0
  152.8055  139.2310  155.5758 H   0  0  0  0  0  0  0  0  0  0  0  0
  149.8731  141.1170  154.3550 H   0  0  0  0  0  0  0  0  0  0  0  0
  150.6866  144.3348  158.1624 H   0  0  0  0  0  0  0  0  0  0  0  0
  151.9613  143.5824  161.2985 H   0  0  0  0  0  0  0  0  0  0  0  0
  151.7393  144.9300  160.1851 H   0  0  0  0  0  0  0  0  0  0  0  0
  153.3477  144.2561  160.4284 H   0  0  0  0  0  0  0  0  0  0  0  0
  154.0550  140.3689  160.2185 H   0  0  0  0  0  0  0  0  0  0  0  0
  153.1183  141.3872  161.3084 H   0  0  0  0  0  0  0  0  0  0  0  0
  154.4871  142.0657  160.4134 H   0  0  0  0  0  0  0  0  0  0  0  0
  153.0174  139.8728  158.1732 H   0  0  0  0  0  0  0  0  0  0  0  0
  145.8867  137.5173  154.4491 H   0  0  0  0  0  0  0  0  0  0  0  0
  147.0915  136.6824  153.5102 H   0  0  0  0  0  0  0  0  0  0  0  0
  149.5332  139.0868  152.5345 H   0  0  0  0  0  0  0  0  0  0  0  0
  145.1795  135.5187  153.2458 H   0  0  0  0  0  0  0  0  0  0  0  0
  149.6262  143.2818  155.7095 H   0  0  0  0  0  0  0  0  0  0  0  0
  1  2  1  0  0  0  0
  1 26  1  0  0  0  0
  1 27  1  0  0  0  0
  1 28  1  0  0  0  0
  2  3  1  0  0  0  0
  2 29  1  0  0  0  0
  2 30  1  0  0  0  0
  3 25  1  0  0  0  0
  3  4  1  0  0  0  0
  3 57  1  0  0  0  0
  4  5  1  0  0  0  0
  4 31  1  0  0  0  0
  4 32  1  0  0  0  0
  5  6  1  0  0  0  0
  5 33  1  0  0  0  0
  5 34  1  0  0  0  0
  6  7  1  0  0  0  0
  7  8  1  0  0  0  0
  7 25  1  0  0  0  0
  7 35  1  0  0  0  0
  8  9  1  0  0  0  0
  8 36  1  0  0  0  0
  8 37  1  0  0  0  0
  9 10  1  0  0  0  0
  9 38  1  0  0  0  0
  9 56  1  0  0  0  0
 10 11  1  0  0  0  0
 10 39  1  0  0  0  0
 10 40  1  0  0  0  0
 11 12  1  0  0  0  0
 11 13  1  0  0  0  0
 11 41  1  0  0  0  0
 12 42  1  0  0  0  0
 13 14  1  0  0  0  0
 13 43  1  0  0  0  0
 13 44  1  0  0  0  0
 14 24  1  0  0  0  0
 14 15  1  0  0  0  0
 15 16  2  0  0  0  0
 15 45  1  0  0  0  0
 16 17  1  0  0  0  0
 16 58  1  0  0  0  0
 17 24  2  0  0  0  0
 17 18  1  0  0  0  0
 18 19  2  0  0  0  0
 18 46  1  0  0  0  0
 19 20  1  0  0  0  0
 19 21  1  0  0  0  0
 20 47  1  0  0  0  0
 20 48  1  0  0  0  0
 20 49  1  0  0  0  0
 21 22  1  0  0  0  0
 21 23  2  0  0  0  0
 22 50  1  0  0  0  0
 22 51  1  0  0  0  0
 22 52  1  0  0  0  0
 23 24  1  0  0  0  0
 23 53  1  0  0  0  0
 25 54  1  0  0  0  0
 25 55  1  0  0  0  0
M  CHG  1   3   1
M  CHG  1   9   1
M  CHG  1  16   1
M  END
> <s_m_source_file>
AV-unprocessed.smi

> <i_m_source_file_index>
1047

> <i_lp_mmshare_version>
43012

> <i_f3d_flags>
0

> <s_epik_input>
W0NIM11bQ0gyXU4xW0NIMl1bQ0gyXU9bQ0BIXShbQ0gyXTEpW0NIMl1bTkhdW0NIMl1bQ0BIXShbT0hdKVtDSDJdbihbY0hdbjIpYyhjMjMpW2NIXWMoW0NIM10pYyhbY0hdMylbQ0gzXQ==

> <s_epik_cmdline>
J2VwaWtfcHl0aG9uJywgJy1waCcsICc3LjAnLCAnLXRuJywgJzgnLCAnLW1hJywgJzIwMCcsICctbWV0YWxfYmluZGluZycsICctaW1hZScsICc8aW5maWxlLm1hZT4nLCAnLW9tYWUnLCAnPG91dGZpbGUubWFlPic=

> <r_epik_Ionization_Penalty>
1.6114

> <r_epik_Ionization_Penalty_Charging>
1.61139

> <r_epik_Ionization_Penalty_Neutral>
5.04732e-06

> <r_epik_State_Penalty>
1.63724

> <r_epik_Charging_Adjusted_Penalty>
3.24864

> <i_epik_Tot_Q>
3

> <i_epik_Tot_abs_Q>
3

> <r_epik_Metal_State_Penalty>
5.64594

> <b_epik_Metal_Only>
0

> <s_lp_Force_Field>
OPLS_2005

> <r_lp_Energy>
42.8961

> <b_lp_Chiralities_Consistent>
1

> <s_lp_Variant>
AV-unprocessed.smi:1047-23

> <Gold.Version>
5.8.1

> <Gold.Id.Protein>
6NUR|6NUR_protein|mol2

> <Gold.PLP.Fitness>
69.4794

> <Gold.PLP.PLP>
-49.5410

> <Gold.PLP.part.hbond>
-5.8886

> <Gold.PLP.part.metal>
0.0000

> <Gold.PLP.part.buried>
-1.5442

> <Gold.PLP.part.nonpolar>
-44.5934

> <Gold.PLP.part.repulsive>
1.9603

> <Gold.PLP.ligand.clash>
0.0000

> <Gold.PLP.ligand.torsion>
1.0005

> <Gold.PLP.Chemscore.Hbond>
7.2740

> <Gold.PLP.Chemscore.CHOScore>
0.0000

> <Gold.PLP.Chemscore.Metal>
0.0000

> <Gold.Chemscore.Hbonds>
donor molecule, donor type, donor heavy atom, donor atom, acceptor molecule, acceptor atom, score
      L1  H     9    38       P1  7948  2.00
      L1  H     9    56       P1  7957  0.88
      L1  H    12    42       P1  7949  0.88
      L1  H    16    58       P1  8028  2.00
      P1  H  7954  7966       L1     6  0.75
      P1  H 10752 10765       L1    12  0.41

> <Gold.PLP.Chemscore.Internal.Correction>
0.1173

> <Gold.Rescore>
     Score         DG    S(hbond)    S(metal)    S(lipo)     H(rot)  DE(clash)    DE(int)     intcor
     20.94     -24.09       2.94        0.00     136.11       2.78       2.06       1.09       ----

> <Gold.Chemscore.Fitness>
20.9418

> <Gold.Chemscore.DG>
-24.0889

> <Gold.Chemscore.ZeroCoef>
-5.4800

> <Gold.Chemscore.Hbond>
2.9381

> <Gold.Chemscore.Metal>
0.0000

> <Gold.Chemscore.Lipo>
136.1104

> <Gold.Chemscore.Internal_Hbond>
0.0000

> <Gold.Chemscore.DEClash>
2.0587

> <Gold.Chemscore.DEInternal>
1.0885

> <Gold.Chemscore.Rot>
2.7848

> <Gold.Chemscore.Internal.Correction>
   9.000000E+99

> <Gold.Chemscore.Hbonds>
donor molecule, donor type, donor heavy atom, donor atom, acceptor molecule, acceptor atom, score
      L1  H     9    38       P1  7948  0.99
      L1  H     9    56       P1  7957  0.81
      L1  H    12    42       P1  7949  0.73
      L1  H    16    58       P1  8028  0.99
      P1  H  7954  7966       L1     6  0.09
      P1  H 10752 10765       L1    12  0.03

> <Gold.Chemscore.Hbond.Weighted>
-9.8131

> <Gold.Chemscore.Metal.Weighted>
-0.0000

> <Gold.Chemscore.Lipo.Weighted>
-15.9249

> <Gold.Chemscore.Internal_Hbond.Weighted>
0.0000

> <Gold.Chemscore.DEClash.Weighted>
2.0587

> <Gold.Chemscore.DEInternal.Weighted>
1.0885

> <Gold.Chemscore.Rot.Weighted>
7.1291

> <Gold.Chemscore.Internal.Correction.Weighted>
   9.000000E+99

> <Gold.Protein.RotatedTorsions>
[ 6907 6896 6895 6894 ] final   33.91 input  -60.11 | X-H torsion
[ 7974 7965 7964 7962 ] final  -43.61 input  175.53 | X-H torsion
[ 8008 7997 7996 7995 ] final  -69.01 input   59.86 | X-H torsion
[ 10167 10162 10161 10158 ] final -162.63 input  -65.29 | X-H torsion
[ 10718 10713 10712 10709 ] final    6.21 input   66.30 | X-H torsion
[ 10763 10752 10751 10750 ] final  166.47 input  -60.55 | X-H torsion
[ 11005 11000 10999 10996 ] final   83.90 input  -57.11 | X-H torsion

> <Gold.Protein.ActiveResidues>
 VAL166  LYS551  ARG553  GLY616  TRP617  ASP618  TYR619  PRO620  LYS621  CYS622 
 ASP623  PHE694  ASN695  SER759  ASP760  ASP761  ALA762  ILE779  LEU786  VAL792 
 PHE793  MET794  SER795  GLU796  ALA797  LYS798  CYS799  TRP800  GLU811  SER814 

> <Gold.Protein.RotatedAtoms>
  152.0951  134.9380  160.0570 H   0  0  0  0  0  0  0  0  0  0  0  0  # atno 6907 bound_to 6896
  152.0617  133.4060  159.4429 H   0  0  0  0  0  0  0  0  0  0  0  0  # atno 6908 bound_to 6896
  150.6838  134.3113  159.4791 H   0  0  0  0  0  0  0  0  0  0  0  0  # atno 6909 bound_to 6896
  146.0002  140.7083  142.9274 H   0  0  0  0  0  0  0  0  0  0  0  0  # atno 7974 bound_to 7965
  154.4908  140.0862  156.7589 H   0  0  0  0  0  0  0  0  0  0  0  0  # atno 8008 bound_to 7997
  155.4236  140.3447  155.4255 H   0  0  0  0  0  0  0  0  0  0  0  0  # atno 8009 bound_to 7997
  156.1326  140.1506  156.9030 H   0  0  0  0  0  0  0  0  0  0  0  0  # atno 8010 bound_to 7997
  139.6378  144.0316  152.2068 H   0  0  0  0  0  0  0  0  0  0  0  0  # atno 10167 bound_to 10162
  156.9188  130.5783  149.5647 H   0  0  0  0  0  0  0  0  0  0  0  0  # atno 10718 bound_to 10713
  154.3394  135.2754  155.2430 H   0  0  0  0  0  0  0  0  0  0  0  0  # atno 10763 bound_to 10752
  154.4708  135.5883  153.6323 H   0  0  0  0  0  0  0  0  0  0  0  0  # atno 10764 bound_to 10752
  152.9859  135.6087  154.3594 H   0  0  0  0  0  0  0  0  0  0  0  0  # atno 10765 bound_to 10752
  139.9017  134.8178  156.2371 H   0  0  0  0  0  0  0  0  0  0  0  0  # atno 11005 bound_to 11000
  144.6917  140.3220  143.7230 LP  0  0  0  0  0  0  0  0  0  0  0  0  # atno 17320 bound_to 7965
  145.7499  139.1790  143.2327 LP  0  0  0  0  0  0  0  0  0  0  0  0  # atno 17321 bound_to 7965
  139.9998  144.6301  150.7740 LP  0  0  0  0  0  0  0  0  0  0  0  0  # atno 17342 bound_to 10162
  140.7475  143.2907  151.3339 LP  0  0  0  0  0  0  0  0  0  0  0  0  # atno 17343 bound_to 10162
  156.0501  130.5571  150.8969 LP  0  0  0  0  0  0  0  0  0  0  0  0  # atno 17370 bound_to 10713
  157.5921  131.0944  150.9102 LP  0  0  0  0  0  0  0  0  0  0  0  0  # atno 17371 bound_to 10713
  141.0308  133.6989  156.1427 LP  0  0  0  0  0  0  0  0  0  0  0  0  # atno 17394 bound_to 11000
  140.7099  134.4473  157.5582 LP  0  0  0  0  0  0  0  0  0  0  0  0  # atno 17395 bound_to 11000

$$$$
