AV-unprocessed.smi:1855|AV-procd|sdf|7532|dock8
  -GOLD-   22720 9243D 1   1.00000     0.00000
 Structure written by MMmdl.
 44 46  0  0  0  0  0  0  0  0  2 V2000
  151.8036  144.5332  160.7462 C   0  0  0  0  0  0  0  0  0  0  0  0
  151.4871  143.4545  159.8795 O   0  0  0  0  0  0  0  0  0  0  0  0
  152.2213  142.2908  159.9862 C   0  0  0  0  0  0  0  0  0  0  0  0
  153.3163  142.1283  160.8721 C   0  0  0  0  0  0  0  0  0  0  0  0
  154.0202  140.9110  160.9202 C   0  0  0  0  0  0  0  0  0  0  0  0
  153.6390  139.8444  160.0881 C   0  0  0  0  0  0  0  0  0  0  0  0
  152.5541  139.9948  159.2053 C   0  0  0  0  0  0  0  0  0  0  0  0
  151.8412  141.2179  159.1482 C   0  0  0  0  0  0  0  0  0  0  0  0
  150.7694  141.4384  158.3121 O   0  0  0  0  0  0  0  0  0  0  0  0
  150.3518  140.3988  157.4394 C   0  0  0  0  0  0  0  0  0  0  0  0
  151.1053  140.5424  156.1089 C   0  0  0  0  0  0  0  0  0  0  0  0
  150.3643  139.9403  154.9880 N   0  0  0  0  0  0  0  0  0  0  0  0
  150.6647  138.8622  154.2068 C   0  0  0  0  0  0  0  0  0  0  0  0
  151.8662  137.9751  154.3077 C   0  0  0  0  0  0  0  0  0  0  0  0
  151.9886  137.3315  155.6101 N   0  0  0  0  0  0  0  0  0  0  0  0
  152.7830  137.7545  156.6037 C   0  0  0  0  0  0  0  0  0  0  0  0
  153.5011  138.7509  156.5431 O   0  0  0  0  0  0  0  0  0  0  0  0
  149.6602  138.7333  153.2941 N   0  3  0  0  0  0  0  0  0  0  0  0
  148.7137  139.7397  153.4859 C   0  0  0  0  0  0  0  0  0  0  0  0
  147.5345  140.0226  152.8033 C   0  0  0  0  0  0  0  0  0  0  0  0
  146.7981  141.1399  153.2483 C   0  0  0  0  0  0  0  0  0  0  0  0
  147.2387  141.9241  154.3339 C   0  0  0  0  0  0  0  0  0  0  0  0
  148.4322  141.6230  155.0217 C   0  0  0  0  0  0  0  0  0  0  0  0
  149.1576  140.5188  154.5734 C   0  0  0  0  0  0  0  0  0  0  0  0
  151.1428  145.3724  160.5295 H   0  0  0  0  0  0  0  0  0  0  0  0
  152.8291  144.8751  160.5998 H   0  0  0  0  0  0  0  0  0  0  0  0
  151.6584  144.2602  161.7921 H   0  0  0  0  0  0  0  0  0  0  0  0
  153.6370  142.9241  161.5268 H   0  0  0  0  0  0  0  0  0  0  0  0
  154.8529  140.7955  161.5981 H   0  0  0  0  0  0  0  0  0  0  0  0
  154.1778  138.9091  160.1275 H   0  0  0  0  0  0  0  0  0  0  0  0
  152.2833  139.1548  158.5839 H   0  0  0  0  0  0  0  0  0  0  0  0
  150.5728  139.4235  157.8763 H   0  0  0  0  0  0  0  0  0  0  0  0
  149.2764  140.4579  157.2668 H   0  0  0  0  0  0  0  0  0  0  0  0
  151.2699  141.5951  155.8812 H   0  0  0  0  0  0  0  0  0  0  0  0
  152.0942  140.0881  156.1685 H   0  0  0  0  0  0  0  0  0  0  0  0
  151.7894  137.1981  153.5470 H   0  0  0  0  0  0  0  0  0  0  0  0
  152.7730  138.5367  154.0810 H   0  0  0  0  0  0  0  0  0  0  0  0
  151.4396  136.4980  155.7636 H   0  0  0  0  0  0  0  0  0  0  0  0
  152.7049  137.0910  157.4787 H   0  0  0  0  0  0  0  0  0  0  0  0
  147.1962  139.4248  151.9699 H   0  0  0  0  0  0  0  0  0  0  0  0
  145.8783  141.4021  152.7463 H   0  0  0  0  0  0  0  0  0  0  0  0
  146.6507  142.7755  154.6448 H   0  0  0  0  0  0  0  0  0  0  0  0
  148.7638  142.2365  155.8461 H   0  0  0  0  0  0  0  0  0  0  0  0
  149.6305  138.0099  152.5874 H   0  0  0  0  0  0  0  0  0  0  0  0
  1  2  1  0  0  0  0
  1 25  1  0  0  0  0
  1 26  1  0  0  0  0
  1 27  1  0  0  0  0
  2  3  1  0  0  0  0
  3  8  1  0  0  0  0
  3  4  2  0  0  0  0
  4  5  1  0  0  0  0
  4 28  1  0  0  0  0
  5  6  2  0  0  0  0
  5 29  1  0  0  0  0
  6  7  1  0  0  0  0
  6 30  1  0  0  0  0
  7  8  2  0  0  0  0
  7 31  1  0  0  0  0
  8  9  1  0  0  0  0
  9 10  1  0  0  0  0
 10 11  1  0  0  0  0
 10 32  1  0  0  0  0
 10 33  1  0  0  0  0
 11 12  1  0  0  0  0
 11 34  1  0  0  0  0
 11 35  1  0  0  0  0
 12 24  1  0  0  0  0
 12 13  1  0  0  0  0
 13 14  1  0  0  0  0
 13 18  2  0  0  0  0
 14 15  1  0  0  0  0
 14 36  1  0  0  0  0
 14 37  1  0  0  0  0
 15 16  1  0  0  0  0
 15 38  1  0  0  0  0
 16 17  2  0  0  0  0
 16 39  1  0  0  0  0
 18 19  1  0  0  0  0
 18 44  1  0  0  0  0
 19 24  2  0  0  0  0
 19 20  1  0  0  0  0
 20 21  2  0  0  0  0
 20 40  1  0  0  0  0
 21 22  1  0  0  0  0
 21 41  1  0  0  0  0
 22 23  2  0  0  0  0
 22 42  1  0  0  0  0
 23 24  1  0  0  0  0
 23 43  1  0  0  0  0
M  CHG  1  18   1
M  END
> <s_m_source_file>
AV-unprocessed.smi

> <i_m_source_file_index>
1855

> <i_lp_mmshare_version>
43012

> <i_f3d_flags>
0

> <s_epik_input>
W0NIM11PYzFbY0hdW2NIXVtjSF1bY0hdYzFPW0NIMl1bQ0gyXW4oYyhuMilbQ0gyXVtOSF1bQ0hdPU8pYyhjMjMpW2NIXVtjSF1bY0hdW2NIXTM=

> <s_epik_cmdline>
J2VwaWtfcHl0aG9uJywgJy1waCcsICc3LjAnLCAnLXRuJywgJzgnLCAnLW1hJywgJzIwMCcsICctbWV0YWxfYmluZGluZycsICctaW1hZScsICc8aW5maWxlLm1hZT4nLCAnLW9tYWUnLCAnPG91dGZpbGUubWFlPic=

> <r_lp_tautomer_probability>
1

> <r_epik_Ionization_Penalty>
1.39865

> <r_epik_Ionization_Penalty_Charging>
1.39865

> <r_epik_Ionization_Penalty_Neutral>
7.38905e-08

> <r_epik_State_Penalty>
1.48061

> <r_epik_Charging_Adjusted_Penalty>
2.87925

> <i_epik_Tot_Q>
1

> <i_epik_Tot_abs_Q>
1

> <r_epik_Metal_State_Penalty>
1.53473

> <b_epik_Metal_Only>
0

> <s_lp_Force_Field>
OPLS_2005

> <r_lp_Energy>
17.0983

> <b_lp_Chiralities_Consistent>
1

> <s_lp_Variant>
AV-unprocessed.smi:1855-2

> <Gold.Version>
5.8.1

> <Gold.Id.Protein>
6NUR|6NUR_protein|mol2

> <Gold.PLP.Fitness>
58.8010

> <Gold.PLP.PLP>
-50.6985

> <Gold.PLP.part.hbond>
-2.9545

> <Gold.PLP.part.metal>
0.0000

> <Gold.PLP.part.buried>
0.7814

> <Gold.PLP.part.nonpolar>
-48.8767

> <Gold.PLP.part.repulsive>
0.2629

> <Gold.PLP.ligand.clash>
0.0000

> <Gold.PLP.ligand.torsion>
0.5343

> <Gold.PLP.Chemscore.Hbond>
3.0000

> <Gold.PLP.Chemscore.CHOScore>
0.0000

> <Gold.PLP.Chemscore.Metal>
0.0000

> <Gold.Chemscore.Hbonds>
donor molecule, donor type, donor heavy atom, donor atom, acceptor molecule, acceptor atom, score
      L1  H    18    44       P1  7948  2.00
      P1  H  7997  8009       L1    17  0.93

> <Gold.PLP.Chemscore.Internal.Correction>
0.1711

> <Gold.Rescore>
     Score         DG    S(hbond)    S(metal)    S(lipo)     H(rot)  DE(clash)    DE(int)     intcor
     18.19     -18.85       1.79        0.00     124.62       2.81       0.36       0.30       ----

> <Gold.Chemscore.Fitness>
18.1883

> <Gold.Chemscore.DG>
-18.8471

> <Gold.Chemscore.ZeroCoef>
-5.4800

> <Gold.Chemscore.Hbond>
1.7912

> <Gold.Chemscore.Metal>
0.0000

> <Gold.Chemscore.Lipo>
124.6170

> <Gold.Chemscore.Internal_Hbond>
0.0000

> <Gold.Chemscore.DEClash>
0.3581

> <Gold.Chemscore.DEInternal>
0.3008

> <Gold.Chemscore.Rot>
2.8108

> <Gold.Chemscore.Internal.Correction>
   9.000000E+99

> <Gold.Chemscore.Hbonds>
donor molecule, donor type, donor heavy atom, donor atom, acceptor molecule, acceptor atom, score
      L1  H    18    44       P1  7948  0.52
      P1  H  7997  8009       L1    17  0.89

> <Gold.Chemscore.Hbond.Weighted>
-5.9825

> <Gold.Chemscore.Metal.Weighted>
-0.0000

> <Gold.Chemscore.Lipo.Weighted>
-14.5802

> <Gold.Chemscore.Internal_Hbond.Weighted>
0.0000

> <Gold.Chemscore.DEClash.Weighted>
0.3581

> <Gold.Chemscore.DEInternal.Weighted>
0.3008

> <Gold.Chemscore.Rot.Weighted>
7.1955

> <Gold.Chemscore.Internal.Correction.Weighted>
   9.000000E+99

> <Gold.Protein.RotatedTorsions>
[ 6907 6896 6895 6894 ] final  -87.39 input  -60.11 | X-H torsion
[ 7974 7965 7964 7962 ] final  -84.87 input  175.53 | X-H torsion
[ 8008 7997 7996 7995 ] final -179.84 input   59.86 | X-H torsion
[ 10167 10162 10161 10158 ] final  -81.64 input  -65.29 | X-H torsion
[ 10718 10713 10712 10709 ] final -121.89 input   66.30 | X-H torsion
[ 10763 10752 10751 10750 ] final  -15.02 input  -60.55 | X-H torsion
[ 11005 11000 10999 10996 ] final -128.67 input  -57.11 | X-H torsion

> <Gold.Protein.ActiveResidues>
 VAL166  LYS551  ARG553  GLY616  TRP617  ASP618  TYR619  PRO620  LYS621  CYS622 
 ASP623  PHE694  ASN695  SER759  ASP760  ASP761  ALA762  ILE779  LEU786  VAL792 
 PHE793  MET794  SER795  GLU796  ALA797  LYS798  CYS799  TRP800  GLU811  SER814 

> <Gold.Protein.RotatedAtoms>
  150.6866  134.2903  159.4663 H   0  0  0  0  0  0  0  0  0  0  0  0  # atno 6907 bound_to 6896
  152.0809  134.9469  160.0582 H   0  0  0  0  0  0  0  0  0  0  0  0  # atno 6908 bound_to 6896
  152.0823  133.4124  159.4543 H   0  0  0  0  0  0  0  0  0  0  0  0  # atno 6909 bound_to 6896
  145.5009  140.9547  143.1760 H   0  0  0  0  0  0  0  0  0  0  0  0  # atno 7974 bound_to 7965
  156.0351  140.1291  157.0216 H   0  0  0  0  0  0  0  0  0  0  0  0  # atno 8008 bound_to 7997
  154.4366  140.1041  156.6226 H   0  0  0  0  0  0  0  0  0  0  0  0  # atno 8009 bound_to 7997
  155.5749  140.3467  155.4527 H   0  0  0  0  0  0  0  0  0  0  0  0  # atno 8010 bound_to 7997
  140.4393  143.2520  151.8649 H   0  0  0  0  0  0  0  0  0  0  0  0  # atno 10167 bound_to 10162
  156.1374  130.6440  150.9717 H   0  0  0  0  0  0  0  0  0  0  0  0  # atno 10718 bound_to 10713
  153.5371  135.7014  153.5655 H   0  0  0  0  0  0  0  0  0  0  0  0  # atno 10763 bound_to 10752
  153.3637  135.3963  155.1737 H   0  0  0  0  0  0  0  0  0  0  0  0  # atno 10764 bound_to 10752
  154.8678  135.3795  154.4872 H   0  0  0  0  0  0  0  0  0  0  0  0  # atno 10765 bound_to 10752
  140.9497  134.1082  157.4074 H   0  0  0  0  0  0  0  0  0  0  0  0  # atno 11005 bound_to 11000
  144.7780  139.6587  143.7166 LP  0  0  0  0  0  0  0  0  0  0  0  0  # atno 17320 bound_to 7965
  146.2226  139.5664  142.9608 LP  0  0  0  0  0  0  0  0  0  0  0  0  # atno 17321 bound_to 7965
  139.4788  144.5247  151.8752 LP  0  0  0  0  0  0  0  0  0  0  0  0  # atno 17342 bound_to 10162
  140.4337  144.2081  150.5888 LP  0  0  0  0  0  0  0  0  0  0  0  0  # atno 17343 bound_to 10162
  157.6544  131.0891  150.7979 LP  0  0  0  0  0  0  0  0  0  0  0  0  # atno 17370 bound_to 10713
  156.8057  130.4936  149.5363 LP  0  0  0  0  0  0  0  0  0  0  0  0  # atno 17371 bound_to 10713
  139.8844  135.0062  156.6364 LP  0  0  0  0  0  0  0  0  0  0  0  0  # atno 17394 bound_to 11000
  140.7620  133.8809  155.8425 LP  0  0  0  0  0  0  0  0  0  0  0  0  # atno 17395 bound_to 11000

$$$$
