AV-unprocessed.smi:1275|AV-procd|sdf|5342|dock5
  -GOLD-   22720 4473D 1   1.00000     0.00000
 Structure written by MMmdl.
 42 43  0  0  0  0  0  0  0  0  1 V2000
  149.3170  132.1946  154.0342 C   0  0  0  0  0  0  0  0  0  0  0  0
  149.7680  133.1157  155.0114 O   0  0  0  0  0  0  0  0  0  0  0  0
  149.9625  134.4166  154.4823 C   0  0  0  0  0  0  0  0  0  0  0  0
  150.6291  135.2963  155.5439 C   0  0  0  0  0  0  0  0  0  0  0  0
  151.1711  136.4514  154.9104 O   0  0  0  0  0  0  0  0  0  0  0  0
  151.5163  137.5325  155.6950 C   0  0  0  0  0  0  0  0  0  0  0  0
  151.4459  138.8224  155.1324 C   0  0  0  0  0  0  0  0  0  0  0  0
  151.7895  139.9324  155.9275 C   0  0  0  0  0  0  0  0  0  0  0  0
  152.1869  139.7161  157.2683 C   0  0  0  0  0  0  0  0  0  0  0  0
  152.5740  140.7494  158.1633 N   0  0  0  0  0  0  0  0  0  0  0  0
  153.3760  140.6717  159.2436 C   0  0  0  0  0  0  0  0  0  0  0  0
  153.8983  139.6233  159.6234 O   0  0  0  0  0  0  0  0  0  0  0  0
  153.5584  141.8527  159.8872 N   0  0  0  0  0  0  0  0  0  0  0  0
  153.8767  142.0452  161.3096 C   0  0  0  0  0  0  0  0  0  0  0  0
  152.6482  142.6672  161.9967 C   0  0  0  0  0  0  0  0  0  0  0  0
  152.3117  143.8963  161.3570 O   0  0  0  0  0  0  0  0  0  0  0  0
  152.0312  143.7548  159.9651 C   0  0  1  0  0  0  0  0  0  0  0  0
  151.6676  145.1348  159.4065 C   0  0  0  0  0  0  0  0  0  0  0  0
  153.2620  143.1457  159.2631 C   0  0  0  0  0  0  0  0  0  0  0  0
  152.2432  138.3849  157.7295 C   0  0  0  0  0  0  0  0  0  0  0  0
  151.9129  137.3167  156.9736 N   0  0  0  0  0  0  0  0  0  0  0  0
  149.1815  131.2143  154.4904 H   0  0  0  0  0  0  0  0  0  0  0  0
  150.0409  132.0926  153.2248 H   0  0  0  0  0  0  0  0  0  0  0  0
  148.3602  132.5043  153.6117 H   0  0  0  0  0  0  0  0  0  0  0  0
  150.5690  134.3853  153.5758 H   0  0  0  0  0  0  0  0  0  0  0  0
  148.9943  134.8423  154.2146 H   0  0  0  0  0  0  0  0  0  0  0  0
  149.8794  135.6033  156.2748 H   0  0  0  0  0  0  0  0  0  0  0  0
  151.4002  134.7313  156.0704 H   0  0  0  0  0  0  0  0  0  0  0  0
  151.1361  138.9583  154.1068 H   0  0  0  0  0  0  0  0  0  0  0  0
  151.7548  140.9186  155.4916 H   0  0  0  0  0  0  0  0  0  0  0  0
  152.2682  141.6778  157.9106 H   0  0  0  0  0  0  0  0  0  0  0  0
  154.1657  141.1339  161.8322 H   0  0  0  0  0  0  0  0  0  0  0  0
  154.7319  142.7167  161.3972 H   0  0  0  0  0  0  0  0  0  0  0  0
  151.7973  141.9849  161.9660 H   0  0  0  0  0  0  0  0  0  0  0  0
  152.8624  142.8644  163.0470 H   0  0  0  0  0  0  0  0  0  0  0  0
  151.1728  143.0918  159.8423 H   0  0  0  0  0  0  0  0  0  0  0  0
  151.4310  145.0780  158.3437 H   0  0  0  0  0  0  0  0  0  0  0  0
  152.4899  145.8399  159.5296 H   0  0  0  0  0  0  0  0  0  0  0  0
  150.7971  145.5454  159.9187 H   0  0  0  0  0  0  0  0  0  0  0  0
  154.1252  143.8047  159.3691 H   0  0  0  0  0  0  0  0  0  0  0  0
  153.0789  143.0651  158.1907 H   0  0  0  0  0  0  0  0  0  0  0  0
  152.5563  138.1682  158.7405 H   0  0  0  0  0  0  0  0  0  0  0  0
  1  2  1  0  0  0  0
  1 22  1  0  0  0  0
  1 23  1  0  0  0  0
  1 24  1  0  0  0  0
  2  3  1  0  0  0  0
  3  4  1  0  0  0  0
  3 25  1  0  0  0  0
  3 26  1  0  0  0  0
  4  5  1  0  0  0  0
  4 27  1  0  0  0  0
  4 28  1  0  0  0  0
  5  6  1  0  0  0  0
  6 21  1  0  0  0  0
  6  7  2  0  0  0  0
  7  8  1  0  0  0  0
  7 29  1  0  0  0  0
  8  9  2  0  0  0  0
  8 30  1  0  0  0  0
  9 10  1  0  0  0  0
  9 20  1  0  0  0  0
 10 11  1  0  0  0  0
 10 31  1  0  0  0  0
 11 12  2  0  0  0  0
 11 13  1  0  0  0  0
 13 19  1  0  0  0  0
 13 14  1  0  0  0  0
 14 15  1  0  0  0  0
 14 32  1  0  0  0  0
 14 33  1  0  0  0  0
 15 16  1  0  0  0  0
 15 34  1  0  0  0  0
 15 35  1  0  0  0  0
 16 17  1  0  0  0  0
 17 18  1  0  0  0  0
 17 19  1  0  0  0  0
 17 36  1  0  0  0  0
 18 37  1  0  0  0  0
 18 38  1  0  0  0  0
 18 39  1  0  0  0  0
 19 40  1  0  0  0  0
 19 41  1  0  0  0  0
 20 21  2  0  0  0  0
 20 42  1  0  0  0  0
M  END
> <s_m_source_file>
AV-unprocessed.smi

> <i_m_source_file_index>
1275

> <i_lp_mmshare_version>
43012

> <i_f3d_flags>
0

> <s_epik_input>
W0NIM11PW0NIMl1bQ0gyXU9jMVtjSF1bY0hdYyhbY0hdbjEpW05IXUMoPU8pTjJbQ0gyXVtDSDJdT1tDQEBIXShbQ0gzXSlbQ0gyXTI=

> <s_epik_cmdline>
J2VwaWtfcHl0aG9uJywgJy1waCcsICc3LjAnLCAnLXRuJywgJzgnLCAnLW1hJywgJzIwMCcsICctbWV0YWxfYmluZGluZycsICctaW1hZScsICc8aW5maWxlLm1hZT4nLCAnLW9tYWUnLCAnPG91dGZpbGUubWFlPic=

> <r_lp_tautomer_probability>
1

> <r_epik_Ionization_Penalty>
5.69099e-05

> <r_epik_Ionization_Penalty_Charging>
0

> <r_epik_Ionization_Penalty_Neutral>
5.69099e-05

> <r_epik_State_Penalty>
-0

> <r_epik_Charging_Adjusted_Penalty>
0

> <i_epik_Tot_Q>
0

> <i_epik_Tot_abs_Q>
0

> <r_epik_Metal_State_Penalty>
-0

> <b_epik_Metal_Only>
0

> <s_lp_Force_Field>
OPLS_2005

> <r_lp_Energy>
32.9839

> <b_lp_Chiralities_Consistent>
1

> <s_lp_Variant>
AV-unprocessed.smi:1275-1

> <Gold.Version>
5.8.1

> <Gold.Id.Protein>
6NUR|6NUR_protein|mol2

> <Gold.PLP.Fitness>
44.8655

> <Gold.PLP.PLP>
-44.3851

> <Gold.PLP.part.hbond>
-1.0000

> <Gold.PLP.part.metal>
0.0000

> <Gold.PLP.part.buried>
-5.0136

> <Gold.PLP.part.nonpolar>
-38.5069

> <Gold.PLP.part.repulsive>
0.4231

> <Gold.PLP.ligand.clash>
0.9100

> <Gold.PLP.ligand.torsion>
0.8647

> <Gold.PLP.Chemscore.Hbond>
1.0000

> <Gold.PLP.Chemscore.CHOScore>
0.0000

> <Gold.PLP.Chemscore.Metal>
0.0000

> <Gold.Chemscore.Hbonds>
donor molecule, donor type, donor heavy atom, donor atom, acceptor molecule, acceptor atom, score
      P1  H 10752 10763       L1     5  0.70

> <Gold.PLP.Chemscore.Internal.Correction>
0.1200

> <Gold.Rescore>
     Score         DG    S(hbond)    S(metal)    S(lipo)     H(rot)  DE(clash)    DE(int)     intcor
     13.51     -15.72       0.84        0.00      98.97       1.62       0.02       2.20       ----

> <Gold.Chemscore.Fitness>
13.5058

> <Gold.Chemscore.DG>
-15.7246

> <Gold.Chemscore.ZeroCoef>
-5.4800

> <Gold.Chemscore.Hbond>
0.8403

> <Gold.Chemscore.Metal>
0.0000

> <Gold.Chemscore.Lipo>
98.9699

> <Gold.Chemscore.Internal_Hbond>
0.0000

> <Gold.Chemscore.DEClash>
0.0153

> <Gold.Chemscore.DEInternal>
2.2036

> <Gold.Chemscore.Rot>
1.6178

> <Gold.Chemscore.Internal.Correction>
   9.000000E+99

> <Gold.Chemscore.Hbonds>
donor molecule, donor type, donor heavy atom, donor atom, acceptor molecule, acceptor atom, score
      P1  H 10752 10763       L1     5  0.03

> <Gold.Chemscore.Hbond.Weighted>
-2.8068

> <Gold.Chemscore.Metal.Weighted>
-0.0000

> <Gold.Chemscore.Lipo.Weighted>
-11.5795

> <Gold.Chemscore.Internal_Hbond.Weighted>
0.0000

> <Gold.Chemscore.DEClash.Weighted>
0.0153

> <Gold.Chemscore.DEInternal.Weighted>
2.2036

> <Gold.Chemscore.Rot.Weighted>
4.1416

> <Gold.Chemscore.Internal.Correction.Weighted>
   9.000000E+99

> <Gold.Protein.RotatedTorsions>
[ 6907 6896 6895 6894 ] final -176.58 input  -60.11 | X-H torsion
[ 7974 7965 7964 7962 ] final  -51.07 input  175.53 | X-H torsion
[ 8008 7997 7996 7995 ] final  123.00 input   59.86 | X-H torsion
[ 10167 10162 10161 10158 ] final  177.61 input  -65.29 | X-H torsion
[ 10718 10713 10712 10709 ] final    1.21 input   66.30 | X-H torsion
[ 10763 10752 10751 10750 ] final   57.49 input  -60.55 | X-H torsion
[ 11005 11000 10999 10996 ] final -159.62 input  -57.11 | X-H torsion

> <Gold.Protein.ActiveResidues>
 VAL166  LYS551  ARG553  GLY616  TRP617  ASP618  TYR619  PRO620  LYS621  CYS622 
 ASP623  PHE694  ASN695  SER759  ASP760  ASP761  ALA762  ILE779  LEU786  VAL792 
 PHE793  MET794  SER795  GLU796  ALA797  LYS798  CYS799  TRP800  GLU811  SER814 

> <Gold.Protein.RotatedAtoms>
  151.6071  133.3351  159.3059 H   0  0  0  0  0  0  0  0  0  0  0  0  # atno 6907 bound_to 6896
  150.8176  134.7370  159.6755 H   0  0  0  0  0  0  0  0  0  0  0  0  # atno 6908 bound_to 6896
  152.4272  134.5852  160.0010 H   0  0  0  0  0  0  0  0  0  0  0  0  # atno 6909 bound_to 6896
  145.9230  140.7817  142.9638 H   0  0  0  0  0  0  0  0  0  0  0  0  # atno 7974 bound_to 7965
  156.2749  140.2773  156.1558 H   0  0  0  0  0  0  0  0  0  0  0  0  # atno 8008 bound_to 7997
  155.0805  140.0388  157.2655 H   0  0  0  0  0  0  0  0  0  0  0  0  # atno 8009 bound_to 7997
  154.6968  140.2640  155.6764 H   0  0  0  0  0  0  0  0  0  0  0  0  # atno 8010 bound_to 7997
  139.5260  144.2778  152.0573 H   0  0  0  0  0  0  0  0  0  0  0  0  # atno 10167 bound_to 10162
  156.8448  130.5533  149.5674 H   0  0  0  0  0  0  0  0  0  0  0  0  # atno 10718 bound_to 10713
  152.9851  135.5640  154.5398 H   0  0  0  0  0  0  0  0  0  0  0  0  # atno 10763 bound_to 10752
  154.4855  135.2790  155.1540 H   0  0  0  0  0  0  0  0  0  0  0  0  # atno 10764 bound_to 10752
  154.3031  135.6303  153.5486 H   0  0  0  0  0  0  0  0  0  0  0  0  # atno 10765 bound_to 10752
  140.6406  134.4555  157.5233 H   0  0  0  0  0  0  0  0  0  0  0  0  # atno 11005 bound_to 11000
  144.6755  140.2005  143.7387 LP  0  0  0  0  0  0  0  0  0  0  0  0  # atno 17320 bound_to 7965
  145.8526  139.2183  143.1763 LP  0  0  0  0  0  0  0  0  0  0  0  0  # atno 17321 bound_to 7965
  140.2234  144.4443  150.6332 LP  0  0  0  0  0  0  0  0  0  0  0  0  # atno 17342 bound_to 10162
  140.6403  143.2202  151.6304 LP  0  0  0  0  0  0  0  0  0  0  0  0  # atno 17343 bound_to 10162
  156.0860  130.5858  150.9649 LP  0  0  0  0  0  0  0  0  0  0  0  0  # atno 17370 bound_to 10713
  157.6335  131.0918  150.8394 LP  0  0  0  0  0  0  0  0  0  0  0  0  # atno 17371 bound_to 10713
  139.9082  134.8403  156.1627 LP  0  0  0  0  0  0  0  0  0  0  0  0  # atno 17394 bound_to 11000
  141.0610  133.6842  156.1952 LP  0  0  0  0  0  0  0  0  0  0  0  0  # atno 17395 bound_to 11000

$$$$
