AV-unprocessed.smi:1600|AV-procd|sdf|6428|dock1
  -GOLD-   22720 7 73D 1   1.00000     0.00000
 Structure written by MMmdl.
 46 47  0  0  0  0  0  0  0  0  2 V2000
  136.1152  140.1652  154.2464 C   0  0  0  0  0  0  0  0  0  0  0  0
  137.6149  140.2051  154.2392 C   0  0  0  0  0  0  0  0  0  0  0  0
  138.5163  139.2166  153.7482 C   0  0  0  0  0  0  0  0  0  0  0  0
  139.7405  139.7752  153.9966 C   0  0  0  0  0  0  0  0  0  0  0  0
  140.9772  139.2759  153.7322 N   0  0  0  0  0  0  0  0  0  0  0  0
  141.4161  138.0119  153.8645 C   0  0  0  0  0  0  0  0  0  0  0  0
  140.7403  137.0569  154.2481 O   0  0  0  0  0  0  0  0  0  0  0  0
  142.7135  137.9121  153.5393 N   0  0  0  0  0  0  0  0  0  0  0  0
  143.5024  136.6821  153.5708 C   0  0  0  0  0  0  0  0  0  0  0  0
  143.5152  135.9180  152.2285 C   0  0  1  0  0  0  0  0  0  0  0  0
  144.7450  136.1423  151.3492 C   0  0  0  0  0  0  0  0  0  0  0  0
  144.7731  134.9261  150.4124 C   0  0  0  0  0  0  0  0  0  0  0  0
  143.8390  133.9153  150.9723 N   0  3  1  0  0  0  0  0  0  0  0  0
  144.3146  132.5045  150.8997 C   0  0  0  0  0  0  0  0  0  0  0  0
  145.5050  132.2724  151.8492 C   0  0  0  0  0  0  0  0  0  0  0  0
  144.7169  132.1085  149.4661 C   0  0  0  0  0  0  0  0  0  0  0  0
  143.4552  134.3922  152.3188 C   0  0  0  0  0  0  0  0  0  0  0  0
  139.5564  141.0057  154.5866 N   0  0  0  0  0  0  0  0  0  0  0  0
  140.5428  141.9721  155.0288 C   0  0  0  0  0  0  0  0  0  0  0  0
  138.2399  141.2659  154.7378 N   0  0  0  0  0  0  0  0  0  0  0  0
  135.7415  139.3117  153.6805 H   0  0  0  0  0  0  0  0  0  0  0  0
  135.6945  141.0671  153.8008 H   0  0  0  0  0  0  0  0  0  0  0  0
  135.7306  140.0829  155.2630 H   0  0  0  0  0  0  0  0  0  0  0  0
  138.2815  138.2668  153.2923 H   0  0  0  0  0  0  0  0  0  0  0  0
  141.6560  139.9537  153.4181 H   0  0  0  0  0  0  0  0  0  0  0  0
  143.1906  138.7480  153.2334 H   0  0  0  0  0  0  0  0  0  0  0  0
  144.5252  136.8904  153.8894 H   0  0  0  0  0  0  0  0  0  0  0  0
  143.0769  136.0407  154.3428 H   0  0  0  0  0  0  0  0  0  0  0  0
  142.6424  136.2429  151.6596 H   0  0  0  0  0  0  0  0  0  0  0  0
  144.7017  137.0874  150.8067 H   0  0  0  0  0  0  0  0  0  0  0  0
  145.6544  136.1502  151.9511 H   0  0  0  0  0  0  0  0  0  0  0  0
  144.4439  135.1933  149.4078 H   0  0  0  0  0  0  0  0  0  0  0  0
  145.7923  134.5440  150.3371 H   0  0  0  0  0  0  0  0  0  0  0  0
  143.4951  131.8542  151.2101 H   0  0  0  0  0  0  0  0  0  0  0  0
  145.8593  131.2430  151.7864 H   0  0  0  0  0  0  0  0  0  0  0  0
  145.2429  132.4537  152.8914 H   0  0  0  0  0  0  0  0  0  0  0  0
  146.3425  132.9245  151.5990 H   0  0  0  0  0  0  0  0  0  0  0  0
  145.1061  131.0902  149.4381 H   0  0  0  0  0  0  0  0  0  0  0  0
  145.4919  132.7681  149.0744 H   0  0  0  0  0  0  0  0  0  0  0  0
  143.8709  132.1390  148.7796 H   0  0  0  0  0  0  0  0  0  0  0  0
  144.1785  134.0165  153.0427 H   0  0  0  0  0  0  0  0  0  0  0  0
  142.4656  134.0388  152.6097 H   0  0  0  0  0  0  0  0  0  0  0  0
  141.1994  141.5132  155.7684 H   0  0  0  0  0  0  0  0  0  0  0  0
  140.0570  142.8398  155.4771 H   0  0  0  0  0  0  0  0  0  0  0  0
  141.1387  142.3018  154.1778 H   0  0  0  0  0  0  0  0  0  0  0  0
  142.9997  133.9724  150.4134 H   0  0  0  0  0  0  0  0  0  0  0  0
  1  2  1  0  0  0  0
  1 21  1  0  0  0  0
  1 22  1  0  0  0  0
  1 23  1  0  0  0  0
  2 20  2  0  0  0  0
  2  3  1  0  0  0  0
  3  4  2  0  0  0  0
  3 24  1  0  0  0  0
  4  5  1  0  0  0  0
  4 18  1  0  0  0  0
  5  6  1  0  0  0  0
  5 25  1  0  0  0  0
  6  7  2  0  0  0  0
  6  8  1  0  0  0  0
  8  9  1  0  0  0  0
  8 26  1  0  0  0  0
  9 10  1  0  0  0  0
  9 27  1  0  0  0  0
  9 28  1  0  0  0  0
 10 17  1  0  0  0  0
 10 11  1  0  0  0  0
 10 29  1  0  0  0  0
 11 12  1  0  0  0  0
 11 30  1  0  0  0  0
 11 31  1  0  0  0  0
 12 13  1  0  0  0  0
 12 32  1  0  0  0  0
 12 33  1  0  0  0  0
 13 14  1  0  0  0  0
 13 17  1  0  0  0  0
 13 46  1  0  0  0  0
 14 15  1  0  0  0  0
 14 16  1  0  0  0  0
 14 34  1  0  0  0  0
 15 35  1  0  0  0  0
 15 36  1  0  0  0  0
 15 37  1  0  0  0  0
 16 38  1  0  0  0  0
 16 39  1  0  0  0  0
 16 40  1  0  0  0  0
 17 41  1  0  0  0  0
 17 42  1  0  0  0  0
 18 19  1  0  0  0  0
 18 20  1  0  0  0  0
 19 43  1  0  0  0  0
 19 44  1  0  0  0  0
 19 45  1  0  0  0  0
M  CHG  1  13   1
M  END
> <s_m_source_file>
AV-unprocessed.smi

> <i_m_source_file_index>
1600

> <i_lp_mmshare_version>
43012

> <i_f3d_flags>
0

> <s_epik_input>
W0NIM11jMVtjSF1jKG4objEpW0NIM10pW05IXUMoPU8pW05IXVtDSDJdW0NAQEhdMltDSDJdW0NIMl1OKFtDSDJdMilbQ0hdKFtDSDNdKVtDSDNd

> <s_epik_cmdline>
J2VwaWtfcHl0aG9uJywgJy1waCcsICc3LjAnLCAnLXRuJywgJzgnLCAnLW1hJywgJzIwMCcsICctbWV0YWxfYmluZGluZycsICctaW1hZScsICc8aW5maWxlLm1hZT4nLCAnLW9tYWUnLCAnPG91dGZpbGUubWFlPic=

> <r_lp_tautomer_probability>
1

> <r_epik_Ionization_Penalty>
0.000297652

> <r_epik_Ionization_Penalty_Charging>
0.000213653

> <r_epik_Ionization_Penalty_Neutral>
8.3999e-05

> <r_epik_State_Penalty>
-0

> <r_epik_Charging_Adjusted_Penalty>
0.000213653

> <i_epik_Tot_Q>
1

> <i_epik_Tot_abs_Q>
1

> <r_epik_Metal_State_Penalty>
-0

> <b_epik_Metal_Only>
0

> <s_lp_Force_Field>
OPLS_2005

> <r_lp_Energy>
33.4544

> <b_lp_Chiralities_Consistent>
1

> <s_lp_Variant>
AV-unprocessed.smi:1600-2

> <Gold.Version>
5.8.1

> <Gold.Id.Protein>
6NUR|6NUR_protein|mol2

> <Gold.PLP.Fitness>
45.2604

> <Gold.PLP.PLP>
-35.3493

> <Gold.PLP.part.hbond>
-4.0000

> <Gold.PLP.part.metal>
0.0000

> <Gold.PLP.part.buried>
-2.3162

> <Gold.PLP.part.nonpolar>
-29.6583

> <Gold.PLP.part.repulsive>
0.1546

> <Gold.PLP.ligand.clash>
0.0000

> <Gold.PLP.ligand.torsion>
1.0647

> <Gold.PLP.Chemscore.Hbond>
4.0000

> <Gold.PLP.Chemscore.CHOScore>
0.0000

> <Gold.PLP.Chemscore.Metal>
0.0000

> <Gold.Chemscore.Hbonds>
donor molecule, donor type, donor heavy atom, donor atom, acceptor molecule, acceptor atom, score
      L1  H     5    25       P1 10175  0.59
      L1  H     8    26       P1 10175  1.00
      L1  H    13    46       P1 10186  1.07

> <Gold.PLP.Chemscore.Internal.Correction>
0.0405

> <Gold.Rescore>
     Score         DG    S(hbond)    S(metal)    S(lipo)     H(rot)  DE(clash)    DE(int)     intcor
     17.16     -18.35       2.41        0.00      72.67       1.44       0.31       0.87       ----

> <Gold.Chemscore.Fitness>
17.1629

> <Gold.Chemscore.DG>
-18.3492

> <Gold.Chemscore.ZeroCoef>
-5.4800

> <Gold.Chemscore.Hbond>
2.4088

> <Gold.Chemscore.Metal>
0.0000

> <Gold.Chemscore.Lipo>
72.6686

> <Gold.Chemscore.Internal_Hbond>
0.0000

> <Gold.Chemscore.DEClash>
0.3148

> <Gold.Chemscore.DEInternal>
0.8715

> <Gold.Chemscore.Rot>
1.4369

> <Gold.Chemscore.Internal.Correction>
   9.000000E+99

> <Gold.Chemscore.Hbonds>
donor molecule, donor type, donor heavy atom, donor atom, acceptor molecule, acceptor atom, score
      L1  H     5    25       P1 10175  0.22
      L1  H     8    26       P1 10175  1.00
      L1  H    13    46       P1 10186  0.51

> <Gold.Chemscore.Hbond.Weighted>
-8.0455

> <Gold.Chemscore.Metal.Weighted>
-0.0000

> <Gold.Chemscore.Lipo.Weighted>
-8.5022

> <Gold.Chemscore.Internal_Hbond.Weighted>
0.0000

> <Gold.Chemscore.DEClash.Weighted>
0.3148

> <Gold.Chemscore.DEInternal.Weighted>
0.8715

> <Gold.Chemscore.Rot.Weighted>
3.6785

> <Gold.Chemscore.Internal.Correction.Weighted>
   9.000000E+99

> <Gold.Protein.RotatedTorsions>
[ 6907 6896 6895 6894 ] final   63.60 input  -60.11 | X-H torsion
[ 7974 7965 7964 7962 ] final  152.83 input  175.53 | X-H torsion
[ 8008 7997 7996 7995 ] final  176.11 input   59.86 | X-H torsion
[ 10167 10162 10161 10158 ] final   45.63 input  -65.29 | X-H torsion
[ 10718 10713 10712 10709 ] final  175.39 input   66.30 | X-H torsion
[ 10763 10752 10751 10750 ] final  -21.54 input  -60.55 | X-H torsion
[ 11005 11000 10999 10996 ] final   76.15 input  -57.11 | X-H torsion

> <Gold.Protein.ActiveResidues>
 VAL166  LYS551  ARG553  GLY616  TRP617  ASP618  TYR619  PRO620  LYS621  CYS622 
 ASP623  PHE694  ASN695  SER759  ASP760  ASP761  ALA762  ILE779  LEU786  VAL792 
 PHE793  MET794  SER795  GLU796  ALA797  LYS798  CYS799  TRP800  GLU811  SER814 

> <Gold.Protein.RotatedAtoms>
  152.4266  134.5857  159.9960 H   0  0  0  0  0  0  0  0  0  0  0  0  # atno 6907 bound_to 6896
  151.5992  133.3352  159.3052 H   0  0  0  0  0  0  0  0  0  0  0  0  # atno 6908 bound_to 6896
  150.8155  134.7372  159.6792 H   0  0  0  0  0  0  0  0  0  0  0  0  # atno 6909 bound_to 6896
  144.8195  139.6720  143.6106 H   0  0  0  0  0  0  0  0  0  0  0  0  # atno 7974 bound_to 7965
  156.0800  140.1392  156.9724 H   0  0  0  0  0  0  0  0  0  0  0  0  # atno 8008 bound_to 7997
  154.4579  140.0954  156.6860 H   0  0  0  0  0  0  0  0  0  0  0  0  # atno 8009 bound_to 7997
  155.5091  140.3453  155.4387 H   0  0  0  0  0  0  0  0  0  0  0  0  # atno 8010 bound_to 7997
  140.3221  144.2692  150.6181 H   0  0  0  0  0  0  0  0  0  0  0  0  # atno 10167 bound_to 10162
  156.9356  130.9985  151.2978 H   0  0  0  0  0  0  0  0  0  0  0  0  # atno 10718 bound_to 10713
  153.6378  135.6986  153.5252 H   0  0  0  0  0  0  0  0  0  0  0  0  # atno 10763 bound_to 10752
  153.2807  135.4186  155.1075 H   0  0  0  0  0  0  0  0  0  0  0  0  # atno 10764 bound_to 10752
  154.8507  135.3601  154.5921 H   0  0  0  0  0  0  0  0  0  0  0  0  # atno 10765 bound_to 10752
  139.9311  134.7576  156.1359 H   0  0  0  0  0  0  0  0  0  0  0  0  # atno 11005 bound_to 11000
  146.2500  139.6180  142.9433 LP  0  0  0  0  0  0  0  0  0  0  0  0  # atno 17320 bound_to 7965
  145.5136  141.0434  143.2474 LP  0  0  0  0  0  0  0  0  0  0  0  0  # atno 17321 bound_to 7965
  140.5474  143.2212  151.7985 LP  0  0  0  0  0  0  0  0  0  0  0  0  # atno 17342 bound_to 10162
  139.4872  144.4522  151.9641 LP  0  0  0  0  0  0  0  0  0  0  0  0  # atno 17343 bound_to 10162
  157.5819  130.8382  149.8534 LP  0  0  0  0  0  0  0  0  0  0  0  0  # atno 17370 bound_to 10713
  156.0427  130.3735  150.1394 LP  0  0  0  0  0  0  0  0  0  0  0  0  # atno 17371 bound_to 10713
  141.0900  133.6718  156.2520 LP  0  0  0  0  0  0  0  0  0  0  0  0  # atno 17394 bound_to 11000
  140.6199  134.5372  157.5546 LP  0  0  0  0  0  0  0  0  0  0  0  0  # atno 17395 bound_to 11000

$$$$
