AV-unprocessed.smi:2886|AV-procd|sdf|11088|dock9
  -GOLD-   2272015563D 1   1.00000     0.00000
 Structure written by MMmdl.
 28 30  0  0  0  0  0  0  0  0  1 V2000
  151.3848  137.3975  159.9472 O   0  0  0  0  0  0  0  0  0  0  0  0
  151.2846  138.2916  159.1093 C   0  0  0  0  0  0  0  0  0  0  0  0
  151.9519  139.4620  159.2415 N   0  0  0  0  0  0  0  0  0  0  0  0
  151.9097  140.5302  158.3789 N   0  0  0  0  0  0  0  0  0  0  0  0
  151.1766  140.4372  157.3226 C   0  0  0  0  0  0  0  0  0  0  0  0
  150.3966  139.2460  157.0030 C   0  0  0  0  0  0  0  0  0  0  0  0
  149.6066  139.1472  155.8650 N   0  0  0  0  0  0  0  0  0  0  0  0
  149.3952  140.1347  154.8151 C   0  0  1  0  0  0  0  0  0  0  0  0
  148.3992  139.6740  153.7502 C   0  0  0  0  0  0  0  0  0  0  0  0
  147.3980  140.8385  153.7396 C   0  0  1  0  0  0  0  0  0  0  0  0
  146.4834  140.8048  154.9708 C   0  0  0  0  0  0  0  0  0  0  0  0
  147.4402  141.2369  156.0806 C   0  0  0  0  0  0  0  0  0  0  0  0
  148.7533  141.4433  155.3067 C   0  0  2  0  0  0  0  0  0  0  0  0
  148.2418  141.9282  154.0764 O   0  0  0  0  0  0  0  0  0  0  0  0
  150.4602  138.2186  157.8950 C   0  0  0  0  0  0  0  0  0  0  0  0
  149.5626  136.7624  157.6238 Cl  0  0  0  0  0  0  0  0  0  0  0  0
  152.5461  139.6027  160.0460 H   0  0  0  0  0  0  0  0  0  0  0  0
  151.1049  141.2628  156.6156 H   0  0  0  0  0  0  0  0  0  0  0  0
  149.2307  138.2322  155.6593 H   0  0  0  0  0  0  0  0  0  0  0  0
  150.3381  140.3593  154.3165 H   0  0  0  0  0  0  0  0  0  0  0  0
  148.8952  139.5757  152.7843 H   0  0  0  0  0  0  0  0  0  0  0  0
  147.9170  138.7229  153.9814 H   0  0  0  0  0  0  0  0  0  0  0  0
  146.8647  140.9558  152.7958 H   0  0  0  0  0  0  0  0  0  0  0  0
  145.6680  141.5219  154.8691 H   0  0  0  0  0  0  0  0  0  0  0  0
  146.0521  139.8181  155.1422 H   0  0  0  0  0  0  0  0  0  0  0  0
  147.1057  142.1756  156.5232 H   0  0  0  0  0  0  0  0  0  0  0  0
  147.5253  140.5009  156.8804 H   0  0  0  0  0  0  0  0  0  0  0  0
  149.4539  142.1186  155.7986 H   0  0  0  0  0  0  0  0  0  0  0  0
  1  2  2  0  0  0  0
  2 15  1  0  0  0  0
  2  3  1  0  0  0  0
  3 17  1  0  0  0  0
  3  4  1  0  0  0  0
  4  5  2  0  0  0  0
  5  6  1  0  0  0  0
  5 18  1  0  0  0  0
  6  7  1  0  0  0  0
  6 15  2  0  0  0  0
  7  8  1  0  0  0  0
  7 19  1  0  0  0  0
  8 13  1  0  0  0  0
  8  9  1  0  0  0  0
  8 20  1  0  0  0  0
  9 10  1  0  0  0  0
  9 21  1  0  0  0  0
  9 22  1  0  0  0  0
 10 14  1  0  0  0  0
 10 11  1  0  0  0  0
 10 23  1  0  0  0  0
 11 12  1  0  0  0  0
 11 24  1  0  0  0  0
 11 25  1  0  0  0  0
 12 13  1  0  0  0  0
 12 26  1  0  0  0  0
 12 27  1  0  0  0  0
 13 14  1  0  0  0  0
 13 28  1  0  0  0  0
 15 16  1  0  0  0  0
M  END
> <s_m_source_file>
AV-unprocessed.smi

> <i_m_source_file_index>
2886

> <i_lp_mmshare_version>
43012

> <i_f3d_flags>
0

> <s_epik_input>
Tz1jMVtuSF1uW2NIXWMoYzFDbClbTkhdW0NASF0oW0NIMl1bQ0BASF0yMylbQ0BASF0oTzMpW0NIMl1bQ0gyXTI=

> <s_epik_cmdline>
J2VwaWtfcHl0aG9uJywgJy1waCcsICc3LjAnLCAnLXRuJywgJzgnLCAnLW1hJywgJzIwMCcsICctbWV0YWxfYmluZGluZycsICctaW1hZScsICc8aW5maWxlLm1hZT4nLCAnLW9tYWUnLCAnPG91dGZpbGUubWFlPic=

> <r_lp_tautomer_probability>
0.986175

> <r_epik_Ionization_Penalty>
0.000975594

> <r_epik_Ionization_Penalty_Charging>
0.000940184

> <r_epik_Ionization_Penalty_Neutral>
3.54099e-05

> <r_epik_State_Penalty>
0.00620319

> <r_epik_Charging_Adjusted_Penalty>
0.00714337

> <i_epik_Tot_Q>
0

> <i_epik_Tot_abs_Q>
0

> <r_epik_Metal_State_Penalty>
0.287699

> <b_epik_Metal_Only>
0

> <s_lp_Force_Field>
OPLS_2005

> <r_lp_Energy>
55.2825

> <b_lp_Chiralities_Consistent>
1

> <s_lp_Variant>
AV-unprocessed.smi:2886-2

> <Gold.Version>
5.8.1

> <Gold.Id.Protein>
6NUR|6NUR_protein|mol2

> <Gold.PLP.Fitness>
29.5777

> <Gold.PLP.PLP>
-21.4664

> <Gold.PLP.part.hbond>
-3.9894

> <Gold.PLP.part.metal>
0.0000

> <Gold.PLP.part.buried>
-0.2850

> <Gold.PLP.part.nonpolar>
-16.4019

> <Gold.PLP.part.repulsive>
0.6155

> <Gold.PLP.ligand.clash>
0.0000

> <Gold.PLP.ligand.torsion>
0.0048

> <Gold.PLP.Chemscore.Hbond>
2.7040

> <Gold.PLP.Chemscore.CHOScore>
0.0000

> <Gold.PLP.Chemscore.Metal>
0.0000

> <Gold.Chemscore.Hbonds>
donor molecule, donor type, donor heavy atom, donor atom, acceptor molecule, acceptor atom, score
      P1  H  6896  6909       L1     1  0.49
      P1  H  8011  8017       L1    14  0.06

> <Gold.PLP.Chemscore.Internal.Correction>
0.0090

> <Gold.Rescore>
     Score         DG    S(hbond)    S(metal)    S(lipo)     H(rot)  DE(clash)    DE(int)     intcor
     17.94     -18.09       2.72        0.00      52.11       1.00       0.13       0.01       ----

> <Gold.Chemscore.Fitness>
17.9442

> <Gold.Chemscore.DG>
-18.0859

> <Gold.Chemscore.ZeroCoef>
-5.4800

> <Gold.Chemscore.Hbond>
2.7152

> <Gold.Chemscore.Metal>
0.0000

> <Gold.Chemscore.Lipo>
52.1112

> <Gold.Chemscore.Internal_Hbond>
0.0000

> <Gold.Chemscore.DEClash>
0.1308

> <Gold.Chemscore.DEInternal>
0.0109

> <Gold.Chemscore.Rot>
1.0000

> <Gold.Chemscore.Internal.Correction>
   9.000000E+99

> <Gold.Chemscore.Hbonds>
donor molecule, donor type, donor heavy atom, donor atom, acceptor molecule, acceptor atom, score
      P1  H  6896  6909       L1     1  0.48
      P1  H  8011  8017       L1    14  0.05

> <Gold.Chemscore.Hbond.Weighted>
-9.0689

> <Gold.Chemscore.Metal.Weighted>
-0.0000

> <Gold.Chemscore.Lipo.Weighted>
-6.0970

> <Gold.Chemscore.Internal_Hbond.Weighted>
0.0000

> <Gold.Chemscore.DEClash.Weighted>
0.1308

> <Gold.Chemscore.DEInternal.Weighted>
0.0109

> <Gold.Chemscore.Rot.Weighted>
2.5600

> <Gold.Chemscore.Internal.Correction.Weighted>
   9.000000E+99

> <Gold.Protein.RotatedTorsions>
[ 6907 6896 6895 6894 ] final  123.07 input  -60.11 | X-H torsion
[ 7974 7965 7964 7962 ] final    4.93 input  175.53 | X-H torsion
[ 8008 7997 7996 7995 ] final  166.95 input   59.86 | X-H torsion
[ 10167 10162 10161 10158 ] final -114.35 input  -65.29 | X-H torsion
[ 10718 10713 10712 10709 ] final  171.04 input   66.30 | X-H torsion
[ 10763 10752 10751 10750 ] final  -79.34 input  -60.55 | X-H torsion
[ 11005 11000 10999 10996 ] final  179.42 input  -57.11 | X-H torsion

> <Gold.Protein.ActiveResidues>
 VAL166  LYS551  ARG553  GLY616  TRP617  ASP618  TYR619  PRO620  LYS621  CYS622 
 ASP623  PHE694  ASN695  SER759  ASP760  ASP761  ALA762  ILE779  LEU786  VAL792 
 PHE793  MET794  SER795  GLU796  ALA797  LYS798  CYS799  TRP800  GLU811  SER814 

> <Gold.Protein.RotatedAtoms>
  152.4192  133.7088  159.6466 H   0  0  0  0  0  0  0  0  0  0  0  0  # atno 6907 bound_to 6896
  150.8068  133.8484  159.3207 H   0  0  0  0  0  0  0  0  0  0  0  0  # atno 6908 bound_to 6896
  151.6205  135.1034  160.0152 H   0  0  0  0  0  0  0  0  0  0  0  0  # atno 6909 bound_to 6896
  146.2442  140.0460  142.8378 H   0  0  0  0  0  0  0  0  0  0  0  0  # atno 7974 bound_to 7965
  156.1675  140.1630  156.8505 H   0  0  0  0  0  0  0  0  0  0  0  0  # atno 8008 bound_to 7997
  154.5223  140.0775  156.8229 H   0  0  0  0  0  0  0  0  0  0  0  0  # atno 8009 bound_to 7997
  155.3581  140.3393  155.4242 H   0  0  0  0  0  0  0  0  0  0  0  0  # atno 8010 bound_to 7997
  140.1019  143.4605  152.1806 H   0  0  0  0  0  0  0  0  0  0  0  0  # atno 10167 bound_to 10162
  156.9993  131.0171  151.2835 H   0  0  0  0  0  0  0  0  0  0  0  0  # atno 10718 bound_to 10713
  154.5374  135.5699  153.6810 H   0  0  0  0  0  0  0  0  0  0  0  0  # atno 10763 bound_to 10752
  152.9954  135.6219  154.2548 H   0  0  0  0  0  0  0  0  0  0  0  0  # atno 10764 bound_to 10752
  154.2477  135.2860  155.2808 H   0  0  0  0  0  0  0  0  0  0  0  0  # atno 10765 bound_to 10752
  140.4060  134.6735  157.4588 H   0  0  0  0  0  0  0  0  0  0  0  0  # atno 11005 bound_to 11000
  145.1027  140.9355  143.4703 LP  0  0  0  0  0  0  0  0  0  0  0  0  # atno 17320 bound_to 7965
  145.0656  139.3071  143.5858 LP  0  0  0  0  0  0  0  0  0  0  0  0  # atno 17321 bound_to 7965
  139.5666  144.7439  151.4005 LP  0  0  0  0  0  0  0  0  0  0  0  0  # atno 17342 bound_to 10162
  140.6973  143.7718  150.7346 LP  0  0  0  0  0  0  0  0  0  0  0  0  # atno 17343 bound_to 10162
  157.5402  130.8115  149.8019 LP  0  0  0  0  0  0  0  0  0  0  0  0  # atno 17370 bound_to 10713
  156.0177  130.3807  150.2059 LP  0  0  0  0  0  0  0  0  0  0  0  0  # atno 17371 bound_to 10713
  140.0302  134.6418  155.9117 LP  0  0  0  0  0  0  0  0  0  0  0  0  # atno 17394 bound_to 11000
  141.1839  133.6552  156.5135 LP  0  0  0  0  0  0  0  0  0  0  0  0  # atno 17395 bound_to 11000

$$$$
