AV-unprocessed.smi:2655|AV-procd|sdf|10298|dock1
  -GOLD-   2272014313D 1   1.00000     0.00000
 Structure written by MMmdl.
 33 34  0  0  0  0  0  0  0  0  2 V2000
  146.6029  142.6158  150.7365 C   0  0  0  0  0  0  0  0  0  0  0  0
  147.4579  142.4534  151.9600 C   0  0  0  0  0  0  0  0  0  0  0  0
  147.7579  143.5240  152.6885 N   0  0  0  0  0  0  0  0  0  0  0  0
  148.5224  143.0429  153.6871 N   0  0  0  0  0  0  0  0  0  0  0  0
  148.6977  141.6871  153.5864 C   0  0  0  0  0  0  0  0  0  0  0  0
  149.4345  141.0082  154.4846 O   0  5  0  0  0  0  0  0  0  0  0  0
  148.0241  141.2494  152.4831 C   0  0  0  0  0  0  0  0  0  0  0  0
  147.9071  139.8521  151.9397 C   0  0  0  0  0  0  0  0  0  0  0  0
  148.0082  139.8397  150.4066 C   0  0  0  0  0  0  0  0  0  0  0  0
  148.4013  138.5278  149.9070 N   0  0  0  0  0  0  0  0  0  0  0  0
  148.4259  138.1712  148.6150 C   0  0  0  0  0  0  0  0  0  0  0  0
  148.1259  138.9319  147.6948 O   0  0  0  0  0  0  0  0  0  0  0  0
  148.8133  136.8923  148.4736 N   0  0  0  0  0  0  0  0  0  0  0  0
  148.9561  136.1406  147.2790 C   0  0  0  0  0  0  0  0  0  0  0  0
  149.3364  134.7703  147.1835 C   0  0  0  0  0  0  0  0  0  0  0  0
  149.3217  134.5416  145.8366 C   0  0  0  0  0  0  0  0  0  0  0  0
  149.6137  133.3369  145.0093 C   0  0  0  0  0  0  0  0  0  0  0  0
  148.9649  135.6710  145.1679 O   0  0  0  0  0  0  0  0  0  0  0  0
  148.7318  136.6896  146.0993 N   0  0  0  0  0  0  0  0  0  0  0  0
  146.8942  141.9111  149.9576 H   0  0  0  0  0  0  0  0  0  0  0  0
  146.6871  143.6198  150.3193 H   0  0  0  0  0  0  0  0  0  0  0  0
  145.5533  142.4381  150.9697 H   0  0  0  0  0  0  0  0  0  0  0  0
  148.9054  143.6380  154.4076 H   0  0  0  0  0  0  0  0  0  0  0  0
  146.9632  139.4022  152.2488 H   0  0  0  0  0  0  0  0  0  0  0  0
  148.6872  139.2148  152.3578 H   0  0  0  0  0  0  0  0  0  0  0  0
  147.0621  140.1468  149.9571 H   0  0  0  0  0  0  0  0  0  0  0  0
  148.7562  140.5626  150.0795 H   0  0  0  0  0  0  0  0  0  0  0  0
  148.6624  137.8402  150.5984 H   0  0  0  0  0  0  0  0  0  0  0  0
  149.0254  136.3930  149.3248 H   0  0  0  0  0  0  0  0  0  0  0  0
  149.5818  134.0609  147.9591 H   0  0  0  0  0  0  0  0  0  0  0  0
  149.6936  132.4464  145.6331 H   0  0  0  0  0  0  0  0  0  0  0  0
  150.5536  133.4582  144.4704 H   0  0  0  0  0  0  0  0  0  0  0  0
  148.8228  133.1674  144.2787 H   0  0  0  0  0  0  0  0  0  0  0  0
  1 20  1  0  0  0  0
  1 21  1  0  0  0  0
  1 22  1  0  0  0  0
  1  2  1  0  0  0  0
  2  7  1  0  0  0  0
  2  3  2  0  0  0  0
  3  4  1  0  0  0  0
  4 23  1  0  0  0  0
  4  5  1  0  0  0  0
  5  7  2  0  0  0  0
  5  6  1  0  0  0  0
  7  8  1  0  0  0  0
  8  9  1  0  0  0  0
  8 24  1  0  0  0  0
  8 25  1  0  0  0  0
  9 10  1  0  0  0  0
  9 26  1  0  0  0  0
  9 27  1  0  0  0  0
 10 11  1  0  0  0  0
 10 28  1  0  0  0  0
 11 12  2  0  0  0  0
 11 13  1  0  0  0  0
 13 14  1  0  0  0  0
 13 29  1  0  0  0  0
 14 19  2  0  0  0  0
 14 15  1  0  0  0  0
 15 16  2  0  0  0  0
 15 30  1  0  0  0  0
 16 17  1  0  0  0  0
 16 18  1  0  0  0  0
 17 31  1  0  0  0  0
 17 32  1  0  0  0  0
 17 33  1  0  0  0  0
 18 19  1  0  0  0  0
M  CHG  1   6  -1
M  END
> <s_m_source_file>
AV-unprocessed.smi

> <i_m_source_file_index>
2655

> <i_lp_mmshare_version>
43012

> <i_f3d_flags>
0

> <s_epik_input>
W0NIM11DMT1OW05IXUMoPU8pW0NASF0xW0NIMl1bQ0gyXVtOSF1DKD1PKVtOSF1jMltjSF1jKFtDSDNdKW9uMg==

> <s_epik_cmdline>
J2VwaWtfcHl0aG9uJywgJy1waCcsICc3LjAnLCAnLXRuJywgJzgnLCAnLW1hJywgJzIwMCcsICctbWV0YWxfYmluZGluZycsICctaW1hZScsICc8aW5maWxlLm1hZT4nLCAnLW9tYWUnLCAnPG91dGZpbGUubWFlPic=

> <r_lp_tautomer_probability>
0.99495

> <r_epik_Ionization_Penalty>
1.68606

> <r_epik_Ionization_Penalty_Charging>
0.00156442

> <r_epik_Ionization_Penalty_Neutral>
1.68449

> <r_epik_State_Penalty>
0.315845

> <r_epik_Charging_Adjusted_Penalty>
0.31741

> <i_epik_Tot_Q>
-1

> <i_epik_Tot_abs_Q>
1

> <r_epik_Metal_State_Penalty>
0.0445802

> <b_epik_Metal_Only>
0

> <s_lp_Force_Field>
OPLS_2005

> <r_lp_Energy>
-3.25288

> <b_lp_Chiralities_Consistent>
1

> <s_lp_Variant>
AV-unprocessed.smi:2655-1

> <Gold.Version>
5.8.1

> <Gold.Id.Protein>
6NUR|6NUR_protein|mol2

> <Gold.PLP.Fitness>
41.3448

> <Gold.PLP.PLP>
-32.1139

> <Gold.PLP.part.hbond>
-4.1773

> <Gold.PLP.part.metal>
0.0000

> <Gold.PLP.part.buried>
-2.7168

> <Gold.PLP.part.nonpolar>
-25.1686

> <Gold.PLP.part.repulsive>
0.5266

> <Gold.PLP.ligand.clash>
0.0000

> <Gold.PLP.ligand.torsion>
0.4067

> <Gold.PLP.Chemscore.Hbond>
3.3428

> <Gold.PLP.Chemscore.CHOScore>
0.0000

> <Gold.PLP.Chemscore.Metal>
0.0000

> <Gold.Chemscore.Hbonds>
donor molecule, donor type, donor heavy atom, donor atom, acceptor molecule, acceptor atom, score
      L1  H     4    23       P1  8028  1.00
      L1  H    10    28       P1  7948  0.80
      P1  H  7989  7998       L1     6  0.05

> <Gold.PLP.Chemscore.Internal.Correction>
0.0159

> <Gold.Rescore>
     Score         DG    S(hbond)    S(metal)    S(lipo)     H(rot)  DE(clash)    DE(int)     intcor
     14.90     -16.68       3.28        0.00      42.43       1.85       0.00       1.78       ----

> <Gold.Chemscore.Fitness>
14.8963

> <Gold.Chemscore.DG>
-16.6787

> <Gold.Chemscore.ZeroCoef>
-5.4800

> <Gold.Chemscore.Hbond>
3.2849

> <Gold.Chemscore.Metal>
0.0000

> <Gold.Chemscore.Lipo>
42.4278

> <Gold.Chemscore.Internal_Hbond>
0.0000

> <Gold.Chemscore.DEClash>
0.0015

> <Gold.Chemscore.DEInternal>
1.7809

> <Gold.Chemscore.Rot>
1.8504

> <Gold.Chemscore.Internal.Correction>
   9.000000E+99

> <Gold.Chemscore.Hbonds>
donor molecule, donor type, donor heavy atom, donor atom, acceptor molecule, acceptor atom, score
      L1  H     4    23       P1  8028  0.98
      L1  H    10    28       P1  7948  0.11
      P1  H  7989  7998       L1     6  0.03

> <Gold.Chemscore.Hbond.Weighted>
-10.9715

> <Gold.Chemscore.Metal.Weighted>
-0.0000

> <Gold.Chemscore.Lipo.Weighted>
-4.9640

> <Gold.Chemscore.Internal_Hbond.Weighted>
0.0000

> <Gold.Chemscore.DEClash.Weighted>
0.0015

> <Gold.Chemscore.DEInternal.Weighted>
1.7809

> <Gold.Chemscore.Rot.Weighted>
4.7369

> <Gold.Chemscore.Internal.Correction.Weighted>
   9.000000E+99

> <Gold.Protein.RotatedTorsions>
[ 6907 6896 6895 6894 ] final  150.65 input  -60.11 | X-H torsion
[ 7974 7965 7964 7962 ] final   43.85 input  175.53 | X-H torsion
[ 8008 7997 7996 7995 ] final  -37.18 input   59.86 | X-H torsion
[ 10167 10162 10161 10158 ] final  135.93 input  -65.29 | X-H torsion
[ 10718 10713 10712 10709 ] final -134.78 input   66.30 | X-H torsion
[ 10763 10752 10751 10750 ] final  -49.71 input  -60.55 | X-H torsion
[ 11005 11000 10999 10996 ] final  -79.15 input  -57.11 | X-H torsion

> <Gold.Protein.ActiveResidues>
 VAL166  LYS551  ARG553  GLY616  TRP617  ASP618  TYR619  PRO620  LYS621  CYS622 
 ASP623  PHE694  ASN695  SER759  ASP760  ASP761  ALA762  ILE779  LEU786  VAL792 
 PHE793  MET794  SER795  GLU796  ALA797  LYS798  CYS799  TRP800  GLU811  SER814 

> <Gold.Protein.RotatedAtoms>
  152.1115  133.4303  159.4632 H   0  0  0  0  0  0  0  0  0  0  0  0  # atno 6907 bound_to 6896
  150.6867  134.2642  159.4571 H   0  0  0  0  0  0  0  0  0  0  0  0  # atno 6908 bound_to 6896
  152.0511  134.9652  160.0625 H   0  0  0  0  0  0  0  0  0  0  0  0  # atno 6909 bound_to 6896
  146.0619  139.5140  142.9653 H   0  0  0  0  0  0  0  0  0  0  0  0  # atno 7974 bound_to 7965
  154.4058  140.1611  156.2496 H   0  0  0  0  0  0  0  0  0  0  0  0  # atno 8008 bound_to 7997
  155.9131  140.3426  155.6091 H   0  0  0  0  0  0  0  0  0  0  0  0  # atno 8009 bound_to 7997
  155.7312  140.0780  157.2278 H   0  0  0  0  0  0  0  0  0  0  0  0  # atno 8010 bound_to 7997
  139.5198  144.6491  151.5354 H   0  0  0  0  0  0  0  0  0  0  0  0  # atno 10167 bound_to 10162
  156.2591  130.7199  151.1126 H   0  0  0  0  0  0  0  0  0  0  0  0  # atno 10718 bound_to 10713
  154.0986  135.6567  153.4864 H   0  0  0  0  0  0  0  0  0  0  0  0  # atno 10763 bound_to 10752
  153.0296  135.5219  154.7309 H   0  0  0  0  0  0  0  0  0  0  0  0  # atno 10764 bound_to 10752
  154.6454  135.2994  155.0021 H   0  0  0  0  0  0  0  0  0  0  0  0  # atno 10765 bound_to 10752
  141.1667  133.7093  156.8080 H   0  0  0  0  0  0  0  0  0  0  0  0  # atno 11005 bound_to 11000
  145.6545  141.0255  143.1742 LP  0  0  0  0  0  0  0  0  0  0  0  0  # atno 17320 bound_to 7965
  144.7180  139.8129  143.7392 LP  0  0  0  0  0  0  0  0  0  0  0  0  # atno 17321 bound_to 7965
  140.6288  143.9116  150.6588 LP  0  0  0  0  0  0  0  0  0  0  0  0  # atno 17342 bound_to 10162
  140.2413  143.3661  152.1484 LP  0  0  0  0  0  0  0  0  0  0  0  0  # atno 17343 bound_to 10162
  157.7244  131.0660  150.5998 LP  0  0  0  0  0  0  0  0  0  0  0  0  # atno 17370 bound_to 10713
  156.6084  130.4373  149.5869 LP  0  0  0  0  0  0  0  0  0  0  0  0  # atno 17371 bound_to 10713
  140.2208  134.8758  157.3375 LP  0  0  0  0  0  0  0  0  0  0  0  0  # atno 17394 bound_to 11000
  140.1989  134.4279  155.7673 LP  0  0  0  0  0  0  0  0  0  0  0  0  # atno 17395 bound_to 11000

$$$$
