AV-unprocessed.smi:3188|AV-procd|sdf|12184|dock10
  -GOLD-   2272018 23D 1   1.00000     0.00000
 Structure written by MMmdl.
 40 41  0  0  0  0  0  0  0  0  2 V2000
  151.6427  145.4320  158.8954 C   0  0  0  0  0  0  0  0  0  0  0  0
  152.0143  144.2495  159.7752 C   0  0  0  0  0  0  0  0  0  0  0  0
  152.3289  144.4530  161.0688 C   0  0  0  0  0  0  0  0  0  0  0  0
  152.7826  143.3675  162.0174 C   0  0  0  0  0  0  0  0  0  0  0  0
  153.3109  142.1529  161.2511 C   0  0  0  0  0  0  0  0  0  0  0  0
  152.3298  141.7106  160.1529 C   0  0  2  0  0  0  0  0  0  0  0  0
  152.8618  140.4306  159.4790 C   0  0  0  0  0  0  0  0  0  0  0  0
  152.0364  142.8494  159.1275 C   0  0  1  0  0  0  0  0  0  0  0  0
  150.7396  142.5346  158.3352 C   0  0  0  0  0  0  0  0  0  0  0  0
  150.8372  142.8947  156.9053 N   0  3  0  0  0  0  0  0  0  0  0  0
  150.7172  141.7478  155.9851 C   0  0  0  0  0  0  0  0  0  0  0  0
  151.3584  140.4892  156.5877 C   0  0  0  0  0  0  0  0  0  0  0  0
  151.4699  139.4222  155.6122 N   0  0  0  0  0  0  0  0  0  0  0  0
  150.4760  138.8482  154.8466 C   0  0  0  0  0  0  0  0  0  0  0  0
  151.1434  137.9076  154.1148 C   0  0  0  0  0  0  0  0  0  0  0  0
  152.4935  137.9493  154.4587 N   0  0  0  0  0  0  0  0  0  0  0  0
  152.6780  138.8655  155.3560 N   0  0  0  0  0  0  0  0  0  0  0  0
  152.2387  145.4321  157.9826 H   0  0  0  0  0  0  0  0  0  0  0  0
  151.8242  146.3780  159.4069 H   0  0  0  0  0  0  0  0  0  0  0  0
  150.5857  145.4052  158.6312 H   0  0  0  0  0  0  0  0  0  0  0  0
  152.2778  145.4481  161.4864 H   0  0  0  0  0  0  0  0  0  0  0  0
  153.5649  143.7629  162.6661 H   0  0  0  0  0  0  0  0  0  0  0  0
  151.9448  143.0899  162.6575 H   0  0  0  0  0  0  0  0  0  0  0  0
  154.2751  142.3971  160.8025 H   0  0  0  0  0  0  0  0  0  0  0  0
  153.4952  141.3370  161.9512 H   0  0  0  0  0  0  0  0  0  0  0  0
  151.3930  141.4565  160.6522 H   0  0  0  0  0  0  0  0  0  0  0  0
  153.7944  140.6227  158.9476 H   0  0  0  0  0  0  0  0  0  0  0  0
  152.1557  140.0086  158.7658 H   0  0  0  0  0  0  0  0  0  0  0  0
  153.0614  139.6553  160.2194 H   0  0  0  0  0  0  0  0  0  0  0  0
  152.8701  142.8693  158.4235 H   0  0  0  0  0  0  0  0  0  0  0  0
  150.4999  141.4733  158.3775 H   0  0  0  0  0  0  0  0  0  0  0  0
  149.8958  143.0563  158.7893 H   0  0  0  0  0  0  0  0  0  0  0  0
  150.1007  143.5526  156.6933 H   0  0  0  0  0  0  0  0  0  0  0  0
  149.6621  141.5701  155.7716 H   0  0  0  0  0  0  0  0  0  0  0  0
  151.2015  141.9958  155.0396 H   0  0  0  0  0  0  0  0  0  0  0  0
  152.3556  140.7163  156.9668 H   0  0  0  0  0  0  0  0  0  0  0  0
  150.7724  140.1265  157.4335 H   0  0  0  0  0  0  0  0  0  0  0  0
  149.4372  139.1418  154.8858 H   0  0  0  0  0  0  0  0  0  0  0  0
  150.7693  137.2122  153.3774 H   0  0  0  0  0  0  0  0  0  0  0  0
  151.7276  143.3450  156.7478 H   0  0  0  0  0  0  0  0  0  0  0  0
  1  2  1  0  0  0  0
  1 18  1  0  0  0  0
  1 19  1  0  0  0  0
  1 20  1  0  0  0  0
  2  8  1  0  0  0  0
  2  3  2  0  0  0  0
  3  4  1  0  0  0  0
  3 21  1  0  0  0  0
  4  5  1  0  0  0  0
  4 22  1  0  0  0  0
  4 23  1  0  0  0  0
  5  6  1  0  0  0  0
  5 24  1  0  0  0  0
  5 25  1  0  0  0  0
  6  7  1  0  0  0  0
  6  8  1  0  0  0  0
  6 26  1  0  0  0  0
  7 27  1  0  0  0  0
  7 28  1  0  0  0  0
  7 29  1  0  0  0  0
  8  9  1  0  0  0  0
  8 30  1  0  0  0  0
  9 10  1  0  0  0  0
  9 31  1  0  0  0  0
  9 32  1  0  0  0  0
 10 11  1  0  0  0  0
 10 33  1  0  0  0  0
 10 40  1  0  0  0  0
 11 12  1  0  0  0  0
 11 34  1  0  0  0  0
 11 35  1  0  0  0  0
 12 13  1  0  0  0  0
 12 36  1  0  0  0  0
 12 37  1  0  0  0  0
 13 17  1  0  0  0  0
 13 14  1  0  0  0  0
 14 15  2  0  0  0  0
 14 38  1  0  0  0  0
 15 16  1  0  0  0  0
 15 39  1  0  0  0  0
 16 17  2  0  0  0  0
M  CHG  1  10   1
M  END
> <s_m_source_file>
AV-unprocessed.smi

> <i_m_source_file_index>
3188

> <i_lp_mmshare_version>
43012

> <i_f3d_flags>
0

> <s_epik_input>
W0NIM11DMT1bQ0hdW0NIMl1bQ0gyXVtDQEBIXShbQ0gzXSlbQ0BIXTFbQ0gyXVtOSF1bQ0gyXVtDSDJdbjJbY0hdW2NIXW5uMg==

> <s_epik_cmdline>
J2VwaWtfcHl0aG9uJywgJy1waCcsICc3LjAnLCAnLXRuJywgJzgnLCAnLW1hJywgJzIwMCcsICctbWV0YWxfYmluZGluZycsICctaW1hZScsICc8aW5maWxlLm1hZT4nLCAnLW9tYWUnLCAnPG91dGZpbGUubWFlPic=

> <r_lp_tautomer_probability>
1

> <r_epik_Ionization_Penalty>
0.007268

> <r_epik_Ionization_Penalty_Charging>
0.00726786

> <r_epik_Ionization_Penalty_Neutral>
1.34882e-07

> <r_epik_State_Penalty>
0.00542069

> <r_epik_Charging_Adjusted_Penalty>
0.0126886

> <i_epik_Tot_Q>
1

> <i_epik_Tot_abs_Q>
1

> <r_epik_Metal_State_Penalty>
-0

> <b_epik_Metal_Only>
0

> <s_lp_Force_Field>
OPLS_2005

> <r_lp_Energy>
15.008

> <b_lp_Chiralities_Consistent>
1

> <s_lp_Variant>
AV-unprocessed.smi:3188-2

> <Gold.Version>
5.8.1

> <Gold.Id.Protein>
6NUR|6NUR_protein|mol2

> <Gold.PLP.Fitness>
56.8198

> <Gold.PLP.PLP>
-46.8705

> <Gold.PLP.part.hbond>
-3.0000

> <Gold.PLP.part.metal>
0.0000

> <Gold.PLP.part.buried>
-6.2581

> <Gold.PLP.part.nonpolar>
-35.9346

> <Gold.PLP.part.repulsive>
0.0829

> <Gold.PLP.ligand.clash>
0.0000

> <Gold.PLP.ligand.torsion>
1.0425

> <Gold.PLP.Chemscore.Hbond>
2.9912

> <Gold.PLP.Chemscore.CHOScore>
1.0000

> <Gold.PLP.Chemscore.Metal>
0.0000

> <Gold.Chemscore.Hbonds>
donor molecule, donor type, donor heavy atom, donor atom, acceptor molecule, acceptor atom, score
      L1  H    10    33       P1  8028  2.00
      P1  H  7997  8008       L1    17  0.46
      P1  H 10752 10765       L1    16  0.15
      L1  C    15    39       P1  7948  0.28
      L1  C    15    39       P1  7949  0.78

> <Gold.PLP.Chemscore.Internal.Correction>
0.0605

> <Gold.Rescore>
     Score         DG    S(hbond)    S(metal)    S(lipo)     H(rot)  DE(clash)    DE(int)     intcor
     20.98     -22.10       1.92        0.00     126.09       1.78       0.11       1.01       ----

> <Gold.Chemscore.Fitness>
20.9750

> <Gold.Chemscore.DG>
-22.0973

> <Gold.Chemscore.ZeroCoef>
-5.4800

> <Gold.Chemscore.Hbond>
1.9233

> <Gold.Chemscore.Metal>
0.0000

> <Gold.Chemscore.Lipo>
126.0889

> <Gold.Chemscore.Internal_Hbond>
0.0000

> <Gold.Chemscore.DEClash>
0.1075

> <Gold.Chemscore.DEInternal>
1.0149

> <Gold.Chemscore.Rot>
1.7809

> <Gold.Chemscore.Internal.Correction>
   9.000000E+99

> <Gold.Chemscore.Hbonds>
donor molecule, donor type, donor heavy atom, donor atom, acceptor molecule, acceptor atom, score
      L1  H    10    33       P1  8028  0.98
      P1  H  7997  8008       L1    17  0.37
      P1  H 10752 10765       L1    16  0.03

> <Gold.Chemscore.Hbond.Weighted>
-6.4239

> <Gold.Chemscore.Metal.Weighted>
-0.0000

> <Gold.Chemscore.Lipo.Weighted>
-14.7524

> <Gold.Chemscore.Internal_Hbond.Weighted>
0.0000

> <Gold.Chemscore.DEClash.Weighted>
0.1075

> <Gold.Chemscore.DEInternal.Weighted>
1.0149

> <Gold.Chemscore.Rot.Weighted>
4.5590

> <Gold.Chemscore.Internal.Correction.Weighted>
   9.000000E+99

> <Gold.Protein.RotatedTorsions>
[ 6907 6896 6895 6894 ] final  -64.96 input  -60.11 | X-H torsion
[ 7974 7965 7964 7962 ] final -158.25 input  175.53 | X-H torsion
[ 8008 7997 7996 7995 ] final  -27.42 input   59.86 | X-H torsion
[ 10167 10162 10161 10158 ] final  -28.05 input  -65.29 | X-H torsion
[ 10718 10713 10712 10709 ] final  110.10 input   66.30 | X-H torsion
[ 10763 10752 10751 10750 ] final  164.75 input  -60.55 | X-H torsion
[ 11005 11000 10999 10996 ] final  -24.69 input  -57.11 | X-H torsion

> <Gold.Protein.ActiveResidues>
 VAL166  LYS551  ARG553  GLY616  TRP617  ASP618  TYR619  PRO620  LYS621  CYS622 
 ASP623  PHE694  ASN695  SER759  ASP760  ASP761  ALA762  ILE779  LEU786  VAL792 
 PHE793  MET794  SER795  GLU796  ALA797  LYS798  CYS799  TRP800  GLU811  SER814 

> <Gold.Protein.RotatedAtoms>
  150.7553  134.6226  159.6143 H   0  0  0  0  0  0  0  0  0  0  0  0  # atno 6907 bound_to 6896
  152.3528  134.6979  160.0240 H   0  0  0  0  0  0  0  0  0  0  0  0  # atno 6908 bound_to 6896
  151.7395  133.3285  159.3398 H   0  0  0  0  0  0  0  0  0  0  0  0  # atno 6909 bound_to 6896
  144.7513  140.3854  143.6045 H   0  0  0  0  0  0  0  0  0  0  0  0  # atno 7974 bound_to 7965
  154.4378  140.1873  156.0930 H   0  0  0  0  0  0  0  0  0  0  0  0  # atno 8008 bound_to 7997
  156.0351  140.3326  155.7156 H   0  0  0  0  0  0  0  0  0  0  0  0  # atno 8009 bound_to 7997
  155.5782  140.0619  157.2780 H   0  0  0  0  0  0  0  0  0  0  0  0  # atno 8010 bound_to 7997
  140.7273  143.4042  151.1214 H   0  0  0  0  0  0  0  0  0  0  0  0  # atno 10167 bound_to 10162
  157.6510  131.0926  150.6552 H   0  0  0  0  0  0  0  0  0  0  0  0  # atno 10718 bound_to 10713
  154.3136  135.2757  155.2554 H   0  0  0  0  0  0  0  0  0  0  0  0  # atno 10763 bound_to 10752
  154.4938  135.5826  153.6483 H   0  0  0  0  0  0  0  0  0  0  0  0  # atno 10764 bound_to 10752
  152.9885  135.6141  154.3315 H   0  0  0  0  0  0  0  0  0  0  0  0  # atno 10765 bound_to 10752
  140.8869  133.7615  156.0372 H   0  0  0  0  0  0  0  0  0  0  0  0  # atno 11005 bound_to 11000
  145.6933  139.1644  143.2634 LP  0  0  0  0  0  0  0  0  0  0  0  0  # atno 17320 bound_to 7965
  146.1467  140.6982  142.9341 LP  0  0  0  0  0  0  0  0  0  0  0  0  # atno 17321 bound_to 7965
  139.7666  143.8556  152.3112 LP  0  0  0  0  0  0  0  0  0  0  0  0  # atno 17342 bound_to 10162
  139.8460  144.7187  150.9272 LP  0  0  0  0  0  0  0  0  0  0  0  0  # atno 17343 bound_to 10162
  156.6863  130.4582  149.5613 LP  0  0  0  0  0  0  0  0  0  0  0  0  # atno 17370 bound_to 10713
  156.1893  130.6549  151.1043 LP  0  0  0  0  0  0  0  0  0  0  0  0  # atno 17371 bound_to 10713
  140.8394  134.3084  157.5319 LP  0  0  0  0  0  0  0  0  0  0  0  0  # atno 17394 bound_to 11000
  139.8725  134.9407  156.3778 LP  0  0  0  0  0  0  0  0  0  0  0  0  # atno 17395 bound_to 11000

$$$$
