#       Name:                AV-unprocessed.smi:1287
#       Creating user name   scv26
#       Creation time:       Fri Mar 27 04:52:40 2020


#       File generated by GOLD software.
#

@<TRIPOS>MOLECULE
AV-unprocessed.smi:1287
    52    53     1
SMALL
NO_CHARGES


@<TRIPOS>ATOM
      1 ****        -4.7100  -0.9926   0.5897 C.3            1 S1                 0.0000
      2 ****        -3.9925   0.0934  -0.2044 C.2            1 S1                 0.0000
      3 ****        -3.3834   0.9880   0.3817 O.2            1 S1                 0.0000
      4 ****        -4.0711   0.0017  -1.5416 N.am           1 S1                 0.0000
      5 ****        -3.4393   0.9191  -2.4886 C.3            1 S1                 0.0000
      6 ****        -4.1260   0.7466  -3.8536 C.3            1 S1                 0.0000
      7 ****        -1.9492   0.5779  -2.6475 C.2            1 S1                 0.0000
      8 ****        -1.5865  -0.5899  -2.7998 O.2            1 S1                 0.0000
      9 ****        -1.0963   1.6127  -2.6073 N.am           1 S1                 0.0000
     10 ****         0.3566   1.4983  -2.6810 C.3            1 S1                 0.0000
     11 ****         1.0121   1.0181  -1.3930 C.ar           1 S1                 0.0000
     12 ****         0.4544   1.2786  -0.1232 C.ar           1 S1                 0.0000
     13 ****         1.1169   0.8048   1.0250 C.ar           1 S1                 0.0000
     14 ****         2.3245   0.0816   0.8781 C.ar           1 S1                 0.0000
     15 ****         3.0028  -0.4092   2.0155 N.3            1 S1                 0.0000
     16 ****         4.3522  -0.9412   1.8315 C.3            1 S1                 0.0000
     17 ****         5.0343  -1.1592   3.1925 C.3            1 S1                 0.0000
     18 ****         4.2210  -1.9958   4.0079 O.3            1 S1                 0.0000
     19 ****         2.9513  -1.4067   4.2681 C.3            1 S1                 0.0000
     20 ****         2.1937  -1.1927   2.9462 C.3            1 S1                 0.0000
     21 ****         2.8648  -0.1526  -0.3437 N.ar           1 S1                 0.0000
     22 ****         2.2249   0.3025  -1.4413 C.ar           1 S1                 0.0000
     23 ****        -4.3882  -1.9817   0.2615 H              1 S1                 0.0000
     24 ****        -5.7887  -0.9150   0.4508 H              1 S1                 0.0000
     25 ****        -4.4943  -0.9004   1.6548 H              1 S1                 0.0000
     26 ****        -4.5866  -0.7725  -1.9344 H              1 S1                 0.0000
     27 ****        -3.5603   1.9491  -2.1462 H              1 S1                 0.0000
     28 ****        -3.6888   1.4076  -4.6031 H              1 S1                 0.0000
     29 ****        -5.1869   0.9897  -3.7878 H              1 S1                 0.0000
     30 ****        -4.0453  -0.2766  -4.2241 H              1 S1                 0.0000
     31 ****        -1.4775   2.5396  -2.4840 H              1 S1                 0.0000
     32 ****         0.6313   0.8370  -3.5046 H              1 S1                 0.0000
     33 ****         0.7634   2.4797  -2.9252 H              1 S1                 0.0000
     34 ****        -0.4655   1.8351  -0.0201 H              1 S1                 0.0000
     35 ****         0.6992   1.0132   1.9985 H              1 S1                 0.0000
     36 ****         4.2970  -1.8846   1.2863 H              1 S1                 0.0000
     37 ****         4.9520  -0.2527   1.2347 H              1 S1                 0.0000
     38 ****         6.0054  -1.6344   3.0534 H              1 S1                 0.0000
     39 ****         5.2148  -0.2072   3.6945 H              1 S1                 0.0000
     40 ****         2.3820  -2.0664   4.9230 H              1 S1                 0.0000
     41 ****         3.0785  -0.4625   4.8002 H              1 S1                 0.0000
     42 ****         1.2412  -0.7103   3.1605 H              1 S1                 0.0000
     43 ****         1.9648  -2.1556   2.4880 H              1 S1                 0.0000
     44 ****         2.6967   0.0850  -2.3883 H              1 S1                 0.0000
     45 ****        -3.3582   1.0039   1.3813 LP             1 S1                 0.0000
     46 ****        -2.9137   1.6990  -0.1416 LP             1 S1                 0.0000
     47 ****        -2.2639  -1.3252  -2.8208 LP             1 S1                 0.0000
     48 ****        -0.6147  -0.8023  -2.9024 LP             1 S1                 0.0000
     49 ****         3.1776   0.4599   2.4782 LP             1 S1                 0.0000
     50 ****         4.6889  -2.1540   4.8775 LP             1 S1                 0.0000
     51 ****         4.0831  -2.8687   3.5400 LP             1 S1                 0.0000
     52 ****         3.7250  -0.6553  -0.4300 LP             1 S1                 0.0000
@<TRIPOS>BOND
    1    1    2 1     
    2    1   23 1     
    3    1   24 1     
    4    1   25 1     
    5    2    3 2     
    6    2    4 am    
    7    4    5 1     
    8    4   26 1     
    9    5    6 1     
   10    5    7 1     
   11    5   27 1     
   12    6   28 1     
   13    6   29 1     
   14    6   30 1     
   15    7    8 2     
   16    7    9 am    
   17    9   10 1     
   18    9   31 1     
   19   10   11 1     
   20   10   32 1     
   21   10   33 1     
   22   11   22 ar    
   23   11   12 ar    
   24   12   13 ar    
   25   12   34 1     
   26   13   14 ar    
   27   13   35 1     
   28   14   15 1     
   29   14   21 ar    
   30   15   20 1     
   31   15   16 1     
   32   16   17 1     
   33   16   36 1     
   34   16   37 1     
   35   17   18 1     
   36   17   38 1     
   37   17   39 1     
   38   18   19 1     
   39   19   20 1     
   40   19   40 1     
   41   19   41 1     
   42   20   42 1     
   43   20   43 1     
   44   21   22 ar    
   45   22   44 1     
   46    3   45 1     
   47    3   46 1     
   48    8   47 1     
   49    8   48 1     
   50   15   49 1     
   51   18   50 1     
   52   18   51 1     
   53   21   52 1     
@<TRIPOS>SUBSTRUCTURE
      1 S1             1
@<TRIPOS>SET
LONE_PAIRS      STATIC     ATOMS    <user>   **** ""
8 45 46 47 48 49 50 51 52
DONOR_HYDROGENS      STATIC     ATOMS    <user>   **** ""
2 26 31
ATOM$BLUE        STATIC     ATOMS    COLORGROUP SYSTEM
8 45 46 47 48 49 50 51 52
ATOM$RED        STATIC     ATOMS    COLORGROUP SYSTEM
2 26 31
