AV-unprocessed.smi:438|AV-procd|sdf|2566|dock1
  -GOLD-   2262022543D 1   1.00000     0.00000
 Structure written by MMmdl.
 48 49  0  0  0  0  0  0  0  0  1 V2000
  144.0568  139.3520  156.0306 C   0  0  0  0  0  0  0  0  0  0  0  0
  145.0701  138.6593  155.1364 C   0  0  0  0  0  0  0  0  0  0  0  0
  146.3389  139.2485  155.0980 N   0  0  0  0  0  0  0  0  0  0  0  0
  147.2846  138.7189  154.3902 C   0  0  0  0  0  0  0  0  0  0  0  0
  149.0150  139.2477  154.1887 S   0  0  0  0  0  0  0  0  0  0  0  0
  149.0116  140.8985  154.9540 C   0  0  0  0  0  0  0  0  0  0  0  0
  150.3038  141.2114  155.7091 C   0  0  0  0  0  0  0  0  0  0  0  0
  151.2778  140.4687  155.5926 O   0  0  0  0  0  0  0  0  0  0  0  0
  150.2760  142.2960  156.5025 N   0  0  0  0  0  0  0  0  0  0  0  0
  151.3064  142.7440  157.4413 C   0  0  1  0  0  0  0  0  0  0  0  0
  151.1276  144.2346  157.8027 C   0  0  0  0  0  0  0  0  0  0  0  0
  152.2719  144.7280  158.6991 C   0  0  0  0  0  0  0  0  0  0  0  0
  152.3963  143.8598  159.9602 C   0  0  0  0  0  0  0  0  0  0  0  0
  152.5773  142.3756  159.6021 C   0  0  0  0  0  0  0  0  0  0  0  0
  151.4332  141.8553  158.7078 C   0  0  2  0  0  0  0  0  0  0  0  0
  151.6418  140.3679  158.3725 C   0  0  0  0  0  0  0  0  0  0  0  0
  147.0430  137.5666  153.6420 N   0  0  0  0  0  0  0  0  0  0  0  0
  145.8528  136.9272  153.6024 C   0  0  0  0  0  0  0  0  0  0  0  0
  145.7138  135.9117  152.9221 O   0  0  0  0  0  0  0  0  0  0  0  0
  144.7883  137.5358  154.4183 C   0  0  0  0  0  0  0  0  0  0  0  0
  143.4254  136.8439  154.4374 C   0  0  0  0  0  0  0  0  0  0  0  0
  143.4744  135.4188  155.0158 C   0  0  0  0  0  0  0  0  0  0  0  0
  142.3642  134.6613  154.5825 O   0  0  0  0  0  0  0  0  0  0  0  0
  143.1512  139.5942  155.4747 H   0  0  0  0  0  0  0  0  0  0  0  0
  144.4572  140.2814  156.4376 H   0  0  0  0  0  0  0  0  0  0  0  0
  143.7897  138.7094  156.8698 H   0  0  0  0  0  0  0  0  0  0  0  0
  148.1453  140.9883  155.6111 H   0  0  0  0  0  0  0  0  0  0  0  0
  148.8852  141.6415  154.1663 H   0  0  0  0  0  0  0  0  0  0  0  0
  149.4193  142.8308  156.5096 H   0  0  0  0  0  0  0  0  0  0  0  0
  152.2424  142.6579  156.8876 H   0  0  0  0  0  0  0  0  0  0  0  0
  151.0895  144.8386  156.8951 H   0  0  0  0  0  0  0  0  0  0  0  0
  150.1790  144.3915  158.3171 H   0  0  0  0  0  0  0  0  0  0  0  0
  153.2097  144.7042  158.1427 H   0  0  0  0  0  0  0  0  0  0  0  0
  152.1028  145.7687  158.9780 H   0  0  0  0  0  0  0  0  0  0  0  0
  153.2384  144.2010  160.5629 H   0  0  0  0  0  0  0  0  0  0  0  0
  151.5052  143.9807  160.5776 H   0  0  0  0  0  0  0  0  0  0  0  0
  153.5330  142.2401  159.0940 H   0  0  0  0  0  0  0  0  0  0  0  0
  152.6308  141.7869  160.5186 H   0  0  0  0  0  0  0  0  0  0  0  0
  150.5120  141.9340  159.2858 H   0  0  0  0  0  0  0  0  0  0  0  0
  152.5390  140.2196  157.7710 H   0  0  0  0  0  0  0  0  0  0  0  0
  150.7967  139.9576  157.8195 H   0  0  0  0  0  0  0  0  0  0  0  0
  151.7489  139.7744  159.2808 H   0  0  0  0  0  0  0  0  0  0  0  0
  147.8003  137.1789  153.0985 H   0  0  0  0  0  0  0  0  0  0  0  0
  142.9887  136.8149  153.4397 H   0  0  0  0  0  0  0  0  0  0  0  0
  142.7371  137.4498  155.0281 H   0  0  0  0  0  0  0  0  0  0  0  0
  144.3926  134.9072  154.7266 H   0  0  0  0  0  0  0  0  0  0  0  0
  143.4621  135.4581  156.1052 H   0  0  0  0  0  0  0  0  0  0  0  0
  142.5895  133.7445  154.6295 H   0  0  0  0  0  0  0  0  0  0  0  0
  1 24  1  0  0  0  0
  1 25  1  0  0  0  0
  1 26  1  0  0  0  0
  1  2  1  0  0  0  0
  2 20  2  0  0  0  0
  2  3  1  0  0  0  0
  3  4  2  0  0  0  0
  4  5  1  0  0  0  0
  4 17  1  0  0  0  0
  5  6  1  0  0  0  0
  6  7  1  0  0  0  0
  6 27  1  0  0  0  0
  6 28  1  0  0  0  0
  7  8  2  0  0  0  0
  7  9  1  0  0  0  0
  9 10  1  0  0  0  0
  9 29  1  0  0  0  0
 10 15  1  0  0  0  0
 10 11  1  0  0  0  0
 10 30  1  0  0  0  0
 11 12  1  0  0  0  0
 11 31  1  0  0  0  0
 11 32  1  0  0  0  0
 12 13  1  0  0  0  0
 12 33  1  0  0  0  0
 12 34  1  0  0  0  0
 13 14  1  0  0  0  0
 13 35  1  0  0  0  0
 13 36  1  0  0  0  0
 14 15  1  0  0  0  0
 14 37  1  0  0  0  0
 14 38  1  0  0  0  0
 15 16  1  0  0  0  0
 15 39  1  0  0  0  0
 16 40  1  0  0  0  0
 16 41  1  0  0  0  0
 16 42  1  0  0  0  0
 17 43  1  0  0  0  0
 17 18  1  0  0  0  0
 18 19  2  0  0  0  0
 18 20  1  0  0  0  0
 20 21  1  0  0  0  0
 21 22  1  0  0  0  0
 21 44  1  0  0  0  0
 21 45  1  0  0  0  0
 22 23  1  0  0  0  0
 22 46  1  0  0  0  0
 22 47  1  0  0  0  0
 23 48  1  0  0  0  0
M  END
> <s_m_source_file>
AV-unprocessed.smi

> <i_m_source_file_index>
438

> <i_lp_mmshare_version>
43012

> <i_f3d_flags>
0

> <s_epik_input>
W09IXVtDSDJdW0NIMl1jMWMoW09IXSluYyhuYzFbQ0gzXSlTW0NIMl1DKD1PKVtOSF1bQ0BASF0yW0NIMl1bQ0gyXVtDSDJdW0NIMl1bQ0BIXTJbQ0gzXQ==

> <s_epik_cmdline>
J2VwaWtfcHl0aG9uJywgJy1waCcsICc3LjAnLCAnLXRuJywgJzgnLCAnLW1hJywgJzIwMCcsICctbWV0YWxfYmluZGluZycsICctaW1hZScsICc8aW5maWxlLm1hZT4nLCAnLW9tYWUnLCAnPG91dGZpbGUubWFlPic=

> <r_lp_tautomer_probability>
0.660323

> <r_epik_Ionization_Penalty>
0.00860626

> <r_epik_Ionization_Penalty_Charging>
0.00860522

> <r_epik_Ionization_Penalty_Neutral>
1.04215e-06

> <r_epik_State_Penalty>
0.156825

> <r_epik_Charging_Adjusted_Penalty>
0.16543

> <i_epik_Tot_Q>
0

> <i_epik_Tot_abs_Q>
0

> <r_epik_Metal_State_Penalty>
0.752038

> <b_epik_Metal_Only>
0

> <s_lp_Force_Field>
OPLS_2005

> <r_lp_Energy>
14.076

> <b_lp_Chiralities_Consistent>
1

> <s_lp_Variant>
AV-unprocessed.smi:438-4

> <Gold.Version>
5.8.1

> <Gold.Id.Protein>
6NUR|6NUR_protein|mol2

> <Gold.PLP.Fitness>
46.8667

> <Gold.PLP.PLP>
-38.0440

> <Gold.PLP.part.hbond>
-4.8782

> <Gold.PLP.part.metal>
0.0000

> <Gold.PLP.part.buried>
-3.3130

> <Gold.PLP.part.nonpolar>
-30.1020

> <Gold.PLP.part.repulsive>
0.2870

> <Gold.PLP.ligand.clash>
0.0000

> <Gold.PLP.ligand.torsion>
0.7790

> <Gold.PLP.Chemscore.Hbond>
3.3939

> <Gold.PLP.Chemscore.CHOScore>
0.0000

> <Gold.PLP.Chemscore.Metal>
0.0000

> <Gold.Chemscore.Hbonds>
donor molecule, donor type, donor heavy atom, donor atom, acceptor molecule, acceptor atom, score
      L1  H     9    29       P1  8028  0.48
      L1  H    17    43       P1  7948  1.00
      L1  H    23    48       P1 10957  1.00
      P1  H  7989  7998       L1     8  0.49

> <Gold.PLP.Chemscore.Internal.Correction>
0.1989

> <Gold.Rescore>
     Score         DG    S(hbond)    S(metal)    S(lipo)     H(rot)  DE(clash)    DE(int)     intcor
     16.67     -17.87       2.67        0.00      92.18       2.86       0.04       1.15       ----

> <Gold.Chemscore.Fitness>
16.6700

> <Gold.Chemscore.DG>
-17.8654

> <Gold.Chemscore.ZeroCoef>
-5.4800

> <Gold.Chemscore.Hbond>
2.6749

> <Gold.Chemscore.Metal>
0.0000

> <Gold.Chemscore.Lipo>
92.1752

> <Gold.Chemscore.Internal_Hbond>
0.0000

> <Gold.Chemscore.DEClash>
0.0428

> <Gold.Chemscore.DEInternal>
1.1527

> <Gold.Chemscore.Rot>
2.8645

> <Gold.Chemscore.Internal.Correction>
   9.000000E+99

> <Gold.Chemscore.Hbonds>
donor molecule, donor type, donor heavy atom, donor atom, acceptor molecule, acceptor atom, score
      L1  H     9    29       P1  8028  0.48
      L1  H    17    43       P1  7948  0.99
      L1  H    23    48       P1 10957  0.98
      P1  H  7989  7998       L1     8  0.07

> <Gold.Chemscore.Hbond.Weighted>
-8.9340

> <Gold.Chemscore.Metal.Weighted>
-0.0000

> <Gold.Chemscore.Lipo.Weighted>
-10.7845

> <Gold.Chemscore.Internal_Hbond.Weighted>
0.0000

> <Gold.Chemscore.DEClash.Weighted>
0.0428

> <Gold.Chemscore.DEInternal.Weighted>
1.1527

> <Gold.Chemscore.Rot.Weighted>
7.3331

> <Gold.Chemscore.Internal.Correction.Weighted>
   9.000000E+99

> <Gold.Protein.RotatedTorsions>
[ 6907 6896 6895 6894 ] final -144.94 input  -60.11 | X-H torsion
[ 7974 7965 7964 7962 ] final  -44.45 input  175.53 | X-H torsion
[ 8008 7997 7996 7995 ] final -134.82 input   59.86 | X-H torsion
[ 10167 10162 10161 10158 ] final -107.29 input  -65.29 | X-H torsion
[ 10718 10713 10712 10709 ] final  -50.79 input   66.30 | X-H torsion
[ 10763 10752 10751 10750 ] final -151.19 input  -60.55 | X-H torsion
[ 11005 11000 10999 10996 ] final  -87.09 input  -57.11 | X-H torsion

> <Gold.Protein.ActiveResidues>
 VAL166  LYS551  ARG553  GLY616  TRP617  ASP618  TYR619  PRO620  LYS621  CYS622 
 ASP623  PHE694  ASN695  SER759  ASP760  ASP761  ALA762  ILE779  LEU786  VAL792 
 PHE793  MET794  SER795  GLU796  ALA797  LYS798  CYS799  TRP800  GLU811  SER814 

> <Gold.Protein.RotatedAtoms>
  151.1209  133.5105  159.2601 H   0  0  0  0  0  0  0  0  0  0  0  0  # atno 6907 bound_to 6896
  151.1863  135.0382  159.8823 H   0  0  0  0  0  0  0  0  0  0  0  0  # atno 6908 bound_to 6896
  152.5455  134.1055  159.8389 H   0  0  0  0  0  0  0  0  0  0  0  0  # atno 6909 bound_to 6896
  145.9919  140.7171  142.9312 H   0  0  0  0  0  0  0  0  0  0  0  0  # atno 7974 bound_to 7965
  155.3684  140.0487  157.3046 H   0  0  0  0  0  0  0  0  0  0  0  0  # atno 8008 bound_to 7997
  154.5142  140.2202  155.9060 H   0  0  0  0  0  0  0  0  0  0  0  0  # atno 8009 bound_to 7997
  156.1618  140.3115  155.8825 H   0  0  0  0  0  0  0  0  0  0  0  0  # atno 8010 bound_to 7997
  140.1785  143.3985  152.1300 H   0  0  0  0  0  0  0  0  0  0  0  0  # atno 10167 bound_to 10162
  156.1768  130.4150  149.9565 H   0  0  0  0  0  0  0  0  0  0  0  0  # atno 10718 bound_to 10713
  154.8073  135.3266  154.7398 H   0  0  0  0  0  0  0  0  0  0  0  0  # atno 10763 bound_to 10752
  153.8054  135.6900  153.4853 H   0  0  0  0  0  0  0  0  0  0  0  0  # atno 10764 bound_to 10752
  153.1826  135.4581  154.9993 H   0  0  0  0  0  0  0  0  0  0  0  0  # atno 10765 bound_to 10752
  141.1621  133.7491  156.9256 H   0  0  0  0  0  0  0  0  0  0  0  0  # atno 11005 bound_to 11000
  144.6891  140.3085  143.7252 LP  0  0  0  0  0  0  0  0  0  0  0  0  # atno 17320 bound_to 7965
  145.7617  139.1827  143.2263 LP  0  0  0  0  0  0  0  0  0  0  0  0  # atno 17321 bound_to 7965
  139.5306  144.7155  151.5069 LP  0  0  0  0  0  0  0  0  0  0  0  0  # atno 17342 bound_to 10162
  140.6535  143.8647  150.6810 LP  0  0  0  0  0  0  0  0  0  0  0  0  # atno 17343 bound_to 10162
  156.7347  130.9057  151.3628 LP  0  0  0  0  0  0  0  0  0  0  0  0  # atno 17370 bound_to 10713
  157.6841  130.9169  150.0342 LP  0  0  0  0  0  0  0  0  0  0  0  0  # atno 17371 bound_to 10713
  140.1421  134.9286  157.2481 LP  0  0  0  0  0  0  0  0  0  0  0  0  # atno 17394 bound_to 11000
  140.2824  134.3335  155.7339 LP  0  0  0  0  0  0  0  0  0  0  0  0  # atno 17395 bound_to 11000

$$$$
