AV-unprocessed.smi:2655|AV-procd|sdf|10302|dock4
  -GOLD-   2272014313D 1   1.00000     0.00000
 Structure written by MMmdl.
 33 34  0  0  0  0  0  0  0  0  2 V2000
  149.4324  139.7705  154.5139 C   0  0  0  0  0  0  0  0  0  0  0  0
  150.6728  139.3191  155.2552 C   0  0  0  0  0  0  0  0  0  0  0  0
  151.4129  140.2047  155.9955 N   0  0  0  0  0  0  0  0  0  0  0  0
  152.4846  139.5376  156.5717 N   0  5  0  0  0  0  0  0  0  0  0  0
  152.3833  138.2460  156.1684 C   0  0  0  0  0  0  0  0  0  0  0  0
  153.1371  137.3179  156.4559 O   0  0  0  0  0  0  0  0  0  0  0  0
  151.2217  138.1074  155.3174 C   0  0  0  0  0  0  0  0  0  0  0  0
  150.7535  136.8122  154.6809 C   0  0  0  0  0  0  0  0  0  0  0  0
  150.3946  135.7492  155.7317 C   0  0  0  0  0  0  0  0  0  0  0  0
  149.6646  136.3298  156.8522 N   0  0  0  0  0  0  0  0  0  0  0  0
  149.1706  135.6379  157.8889 C   0  0  0  0  0  0  0  0  0  0  0  0
  149.2817  134.4172  158.0043 O   0  0  0  0  0  0  0  0  0  0  0  0
  148.5494  136.4486  158.7621 N   0  0  0  0  0  0  0  0  0  0  0  0
  147.9176  136.1075  159.9859 C   0  0  0  0  0  0  0  0  0  0  0  0
  147.6978  134.7903  160.4843 C   0  0  0  0  0  0  0  0  0  0  0  0
  147.0711  135.0148  161.6773 C   0  0  0  0  0  0  0  0  0  0  0  0
  146.5495  134.1042  162.7355 C   0  0  0  0  0  0  0  0  0  0  0  0
  146.9195  136.3496  161.8894 O   0  0  0  0  0  0  0  0  0  0  0  0
  147.4651  137.0418  160.8020 N   0  0  0  0  0  0  0  0  0  0  0  0
  149.5335  139.5608  153.4487 H   0  0  0  0  0  0  0  0  0  0  0  0
  149.2681  140.8410  154.6396 H   0  0  0  0  0  0  0  0  0  0  0  0
  148.5558  139.2416  154.8881 H   0  0  0  0  0  0  0  0  0  0  0  0
  151.5424  136.4397  154.0268 H   0  0  0  0  0  0  0  0  0  0  0  0
  149.8947  137.0217  154.0419 H   0  0  0  0  0  0  0  0  0  0  0  0
  149.8111  134.9460  155.2783 H   0  0  0  0  0  0  0  0  0  0  0  0
  151.3023  135.2890  156.1229 H   0  0  0  0  0  0  0  0  0  0  0  0
  149.5277  137.3299  156.8351 H   0  0  0  0  0  0  0  0  0  0  0  0
  148.5307  137.4298  158.5260 H   0  0  0  0  0  0  0  0  0  0  0  0
  147.9510  133.8327  160.0553 H   0  0  0  0  0  0  0  0  0  0  0  0
  146.8940  133.0826  162.5742 H   0  0  0  0  0  0  0  0  0  0  0  0
  145.4595  134.0977  162.7364 H   0  0  0  0  0  0  0  0  0  0  0  0
  146.8875  134.4226  163.7218 H   0  0  0  0  0  0  0  0  0  0  0  0
  151.2029  141.1861  156.1088 H   0  0  0  0  0  0  0  0  0  0  0  0
  1 20  1  0  0  0  0
  1 21  1  0  0  0  0
  1 22  1  0  0  0  0
  1  2  1  0  0  0  0
  2  7  2  0  0  0  0
  2  3  1  0  0  0  0
  3  4  1  0  0  0  0
  3 33  1  0  0  0  0
  4  5  1  0  0  0  0
  5  7  1  0  0  0  0
  5  6  2  0  0  0  0
  7  8  1  0  0  0  0
  8  9  1  0  0  0  0
  8 23  1  0  0  0  0
  8 24  1  0  0  0  0
  9 10  1  0  0  0  0
  9 25  1  0  0  0  0
  9 26  1  0  0  0  0
 10 11  1  0  0  0  0
 10 27  1  0  0  0  0
 11 12  2  0  0  0  0
 11 13  1  0  0  0  0
 13 14  1  0  0  0  0
 13 28  1  0  0  0  0
 14 19  2  0  0  0  0
 14 15  1  0  0  0  0
 15 16  2  0  0  0  0
 15 29  1  0  0  0  0
 16 17  1  0  0  0  0
 16 18  1  0  0  0  0
 17 30  1  0  0  0  0
 17 31  1  0  0  0  0
 17 32  1  0  0  0  0
 18 19  1  0  0  0  0
M  CHG  1   4  -1
M  END
> <s_m_source_file>
AV-unprocessed.smi

> <i_m_source_file_index>
2655

> <i_lp_mmshare_version>
43012

> <i_f3d_flags>
0

> <s_epik_input>
W0NIM11DMT1OW05IXUMoPU8pW0NASF0xW0NIMl1bQ0gyXVtOSF1DKD1PKVtOSF1jMltjSF1jKFtDSDNdKW9uMg==

> <s_epik_cmdline>
J2VwaWtfcHl0aG9uJywgJy1waCcsICc3LjAnLCAnLXRuJywgJzgnLCAnLW1hJywgJzIwMCcsICctbWV0YWxfYmluZGluZycsICctaW1hZScsICc8aW5maWxlLm1hZT4nLCAnLW9tYWUnLCAnPG91dGZpbGUubWFlPic=

> <r_lp_tautomer_probability>
0.00220696

> <r_epik_Ionization_Penalty>
4.81787

> <r_epik_Ionization_Penalty_Charging>
2.1236

> <r_epik_Ionization_Penalty_Neutral>
2.69427

> <r_epik_State_Penalty>
2.7337

> <r_epik_Charging_Adjusted_Penalty>
4.8573

> <i_epik_Tot_Q>
-1

> <i_epik_Tot_abs_Q>
1

> <r_epik_Metal_State_Penalty>
2.0342

> <b_epik_Metal_Only>
1

> <s_lp_Force_Field>
OPLS_2005

> <r_lp_Energy>
14.0901

> <b_lp_Chiralities_Consistent>
1

> <s_lp_Variant>
AV-unprocessed.smi:2655-5

> <Gold.Version>
5.8.1

> <Gold.Id.Protein>
6NUR|6NUR_protein|mol2

> <Gold.PLP.Fitness>
44.6950

> <Gold.PLP.PLP>
-28.9250

> <Gold.PLP.part.hbond>
-5.0000

> <Gold.PLP.part.metal>
0.0000

> <Gold.PLP.part.buried>
-4.4032

> <Gold.PLP.part.nonpolar>
-21.5240

> <Gold.PLP.part.repulsive>
0.3473

> <Gold.PLP.ligand.clash>
0.0000

> <Gold.PLP.ligand.torsion>
0.1011

> <Gold.PLP.Chemscore.Hbond>
5.3232

> <Gold.PLP.Chemscore.CHOScore>
0.0000

> <Gold.PLP.Chemscore.Metal>
0.0000

> <Gold.Chemscore.Hbonds>
donor molecule, donor type, donor heavy atom, donor atom, acceptor molecule, acceptor atom, score
      P1  H  6896  6908       L1    12  1.00
      P1  H  6931  6943       L1    19  0.35
      P1  H  6934  6947       L1    19  1.00
      P1  H  7997  8008       L1     4  2.00
      P1  H 10752 10765       L1     6  0.28

> <Gold.PLP.Chemscore.Internal.Correction>
0.0025

> <Gold.Rescore>
     Score         DG    S(hbond)    S(metal)    S(lipo)     H(rot)  DE(clash)    DE(int)     intcor
     15.32     -16.68       3.01        0.00      50.37       1.85       0.05       1.31       ----

> <Gold.Chemscore.Fitness>
15.3222

> <Gold.Chemscore.DG>
-16.6814

> <Gold.Chemscore.ZeroCoef>
-5.4800

> <Gold.Chemscore.Hbond>
3.0075

> <Gold.Chemscore.Metal>
0.0000

> <Gold.Chemscore.Lipo>
50.3685

> <Gold.Chemscore.Internal_Hbond>
0.0000

> <Gold.Chemscore.DEClash>
0.0491

> <Gold.Chemscore.DEInternal>
1.3101

> <Gold.Chemscore.Rot>
1.8504

> <Gold.Chemscore.Internal.Correction>
   9.000000E+99

> <Gold.Chemscore.Hbonds>
donor molecule, donor type, donor heavy atom, donor atom, acceptor molecule, acceptor atom, score
      P1  H  6896  6908       L1    12  0.44
      P1  H  6931  6943       L1    19  0.07
      P1  H  6934  6947       L1    19  0.79
      P1  H  7997  8008       L1     4  0.69
      P1  H 10752 10765       L1     6  0.27

> <Gold.Chemscore.Hbond.Weighted>
-10.0452

> <Gold.Chemscore.Metal.Weighted>
-0.0000

> <Gold.Chemscore.Lipo.Weighted>
-5.8931

> <Gold.Chemscore.Internal_Hbond.Weighted>
0.0000

> <Gold.Chemscore.DEClash.Weighted>
0.0491

> <Gold.Chemscore.DEInternal.Weighted>
1.3101

> <Gold.Chemscore.Rot.Weighted>
4.7369

> <Gold.Chemscore.Internal.Correction.Weighted>
   9.000000E+99

> <Gold.Protein.RotatedTorsions>
[ 6907 6896 6895 6894 ] final  145.09 input  -60.11 | X-H torsion
[ 7974 7965 7964 7962 ] final  110.23 input  175.53 | X-H torsion
[ 8008 7997 7996 7995 ] final  -45.05 input   59.86 | X-H torsion
[ 10167 10162 10161 10158 ] final -134.16 input  -65.29 | X-H torsion
[ 10718 10713 10712 10709 ] final   36.20 input   66.30 | X-H torsion
[ 10763 10752 10751 10750 ] final -143.43 input  -60.55 | X-H torsion
[ 11005 11000 10999 10996 ] final  -71.23 input  -57.11 | X-H torsion

> <Gold.Protein.ActiveResidues>
 VAL166  LYS551  ARG553  GLY616  TRP617  ASP618  TYR619  PRO620  LYS621  CYS622 
 ASP623  PHE694  ASN695  SER759  ASP760  ASP761  ALA762  ILE779  LEU786  VAL792 
 PHE793  MET794  SER795  GLU796  ALA797  LYS798  CYS799  TRP800  GLU811  SER814 

> <Gold.Protein.RotatedAtoms>
  152.1853  133.4735  159.4979 H   0  0  0  0  0  0  0  0  0  0  0  0  # atno 6907 bound_to 6896
  150.6941  134.1781  159.4247 H   0  0  0  0  0  0  0  0  0  0  0  0  # atno 6908 bound_to 6896
  151.9694  135.0084  160.0602 H   0  0  0  0  0  0  0  0  0  0  0  0  # atno 6909 bound_to 6896
  145.2577  139.2715  143.4034 H   0  0  0  0  0  0  0  0  0  0  0  0  # atno 7974 bound_to 7965
  154.3999  140.1406  156.3784 H   0  0  0  0  0  0  0  0  0  0  0  0  # atno 8008 bound_to 7997
  155.8027  140.3475  155.5391 H   0  0  0  0  0  0  0  0  0  0  0  0  # atno 8009 bound_to 7997
  155.8467  140.0935  157.1691 H   0  0  0  0  0  0  0  0  0  0  0  0  # atno 8010 bound_to 7997
  139.8909  143.6724  152.2612 H   0  0  0  0  0  0  0  0  0  0  0  0  # atno 10167 bound_to 10162
  157.3320  130.7503  149.6854 H   0  0  0  0  0  0  0  0  0  0  0  0  # atno 10718 bound_to 10713
  154.8470  135.3468  154.6185 H   0  0  0  0  0  0  0  0  0  0  0  0  # atno 10763 bound_to 10752
  153.6794  135.6981  153.5127 H   0  0  0  0  0  0  0  0  0  0  0  0  # atno 10764 bound_to 10752
  153.2680  135.4302  155.0916 H   0  0  0  0  0  0  0  0  0  0  0  0  # atno 10765 bound_to 10752
  141.1588  133.6811  156.6874 H   0  0  0  0  0  0  0  0  0  0  0  0  # atno 11005 bound_to 11000
  146.3284  140.2985  142.8619 LP  0  0  0  0  0  0  0  0  0  0  0  0  # atno 17320 bound_to 7965
  144.9446  140.8115  143.5609 LP  0  0  0  0  0  0  0  0  0  0  0  0  # atno 17321 bound_to 7965
  139.7111  144.7620  151.1111 LP  0  0  0  0  0  0  0  0  0  0  0  0  # atno 17342 bound_to 10162
  140.7727  143.5330  150.9401 LP  0  0  0  0  0  0  0  0  0  0  0  0  # atno 17343 bound_to 10162
  155.9697  130.4192  150.4365 LP  0  0  0  0  0  0  0  0  0  0  0  0  # atno 17370 bound_to 10713
  157.2399  131.0523  151.2443 LP  0  0  0  0  0  0  0  0  0  0  0  0  # atno 17371 bound_to 10713
  140.3056  134.8128  157.4134 LP  0  0  0  0  0  0  0  0  0  0  0  0  # atno 17394 bound_to 11000
  140.1223  134.5203  155.8173 LP  0  0  0  0  0  0  0  0  0  0  0  0  # atno 17395 bound_to 11000

$$$$
