AV-unprocessed.smi:1702|AV-procd|sdf|6849|dock5
  -GOLD-   22720 8 23D 1   1.00000     0.00000
 Structure written by MMmdl.
 45 47  0  0  0  0  0  0  0  0  3 V2000
  145.6095  132.8004  151.2021 C   0  0  0  0  0  0  0  0  0  0  0  0
  145.4593  134.1040  151.9989 C   0  0  2  0  0  0  0  0  0  0  0  0
  145.6777  135.3412  151.1123 C   0  0  0  0  0  0  0  0  0  0  0  0
  145.5538  136.6404  151.9257 C   0  0  0  0  0  0  0  0  0  0  0  0
  146.5074  136.6510  153.0671 N   0  3  1  0  0  0  0  0  0  0  0  0
  146.5177  137.9345  153.8156 C   0  0  0  0  0  0  0  0  0  0  0  0
  147.6584  138.0232  154.8549 C   0  0  2  0  0  0  0  0  0  0  0  0
  147.2464  138.8490  155.9252 O   0  0  0  0  0  0  0  0  0  0  0  0
  148.9596  138.6288  154.2911 C   0  0  0  0  0  0  0  0  0  0  0  0
  149.2493  139.9704  154.8184 N   0  0  0  0  0  0  0  0  0  0  0  0
  148.8067  141.1830  154.3861 C   0  0  0  0  0  0  0  0  0  0  0  0
  149.3629  142.1341  155.1862 N   0  3  0  0  0  0  0  0  0  0  0  0
  150.1781  141.5228  156.1409 C   0  0  0  0  0  0  0  0  0  0  0  0
  150.9495  142.0679  157.1623 C   0  0  0  0  0  0  0  0  0  0  0  0
  151.6712  141.1616  157.9665 C   0  0  0  0  0  0  0  0  0  0  0  0
  152.4385  141.6389  158.9749 F   0  0  0  0  0  0  0  0  0  0  0  0
  151.6079  139.7704  157.7410 C   0  0  0  0  0  0  0  0  0  0  0  0
  152.3140  138.9341  158.5381 F   0  0  0  0  0  0  0  0  0  0  0  0
  150.8220  139.2294  156.7022 C   0  0  0  0  0  0  0  0  0  0  0  0
  150.1125  140.1321  155.9102 C   0  0  0  0  0  0  0  0  0  0  0  0
  146.2955  135.4834  153.9614 C   0  0  0  0  0  0  0  0  0  0  0  0
  146.4294  134.1590  153.1910 C   0  0  0  0  0  0  0  0  0  0  0  0
  146.6128  132.7011  150.7868 H   0  0  0  0  0  0  0  0  0  0  0  0
  144.9015  132.7633  150.3737 H   0  0  0  0  0  0  0  0  0  0  0  0
  145.4232  131.9308  151.8331 H   0  0  0  0  0  0  0  0  0  0  0  0
  144.4400  134.1391  152.3871 H   0  0  0  0  0  0  0  0  0  0  0  0
  146.6635  135.2953  150.6471 H   0  0  0  0  0  0  0  0  0  0  0  0
  144.9527  135.3489  150.2972 H   0  0  0  0  0  0  0  0  0  0  0  0
  145.7391  137.4853  151.2641 H   0  0  0  0  0  0  0  0  0  0  0  0
  144.5348  136.7513  152.2997 H   0  0  0  0  0  0  0  0  0  0  0  0
  146.5788  138.7529  153.0975 H   0  0  0  0  0  0  0  0  0  0  0  0
  145.5691  138.0612  154.3399 H   0  0  0  0  0  0  0  0  0  0  0  0
  147.8902  137.0382  155.2588 H   0  0  0  0  0  0  0  0  0  0  0  0
  147.6644  138.5570  156.7209 H   0  0  0  0  0  0  0  0  0  0  0  0
  149.8117  137.9738  154.4730 H   0  0  0  0  0  0  0  0  0  0  0  0
  148.8822  138.7269  153.2073 H   0  0  0  0  0  0  0  0  0  0  0  0
  148.1382  141.3600  153.5554 H   0  0  0  0  0  0  0  0  0  0  0  0
  151.0011  143.1325  157.3385 H   0  0  0  0  0  0  0  0  0  0  0  0
  150.7852  138.1621  156.5432 H   0  0  0  0  0  0  0  0  0  0  0  0
  147.0290  135.4992  154.7686 H   0  0  0  0  0  0  0  0  0  0  0  0
  145.3108  135.5518  154.4264 H   0  0  0  0  0  0  0  0  0  0  0  0
  146.2403  133.3227  153.8651 H   0  0  0  0  0  0  0  0  0  0  0  0
  147.4560  134.0453  152.8394 H   0  0  0  0  0  0  0  0  0  0  0  0
  147.4336  136.5387  152.6804 H   0  0  0  0  0  0  0  0  0  0  0  0
  149.2018  143.1281  155.0810 H   0  0  0  0  0  0  0  0  0  0  0  0
  1  2  1  0  0  0  0
  1 23  1  0  0  0  0
  1 24  1  0  0  0  0
  1 25  1  0  0  0  0
  2 22  1  0  0  0  0
  2  3  1  0  0  0  0
  2 26  1  0  0  0  0
  3  4  1  0  0  0  0
  3 27  1  0  0  0  0
  3 28  1  0  0  0  0
  4  5  1  0  0  0  0
  4 29  1  0  0  0  0
  4 30  1  0  0  0  0
  5  6  1  0  0  0  0
  5 21  1  0  0  0  0
  5 44  1  0  0  0  0
  6  7  1  0  0  0  0
  6 31  1  0  0  0  0
  6 32  1  0  0  0  0
  7  8  1  0  0  0  0
  7  9  1  0  0  0  0
  7 33  1  0  0  0  0
  8 34  1  0  0  0  0
  9 10  1  0  0  0  0
  9 35  1  0  0  0  0
  9 36  1  0  0  0  0
 10 20  1  0  0  0  0
 10 11  1  0  0  0  0
 11 12  2  0  0  0  0
 11 37  1  0  0  0  0
 12 13  1  0  0  0  0
 12 45  1  0  0  0  0
 13 20  2  0  0  0  0
 13 14  1  0  0  0  0
 14 15  2  0  0  0  0
 14 38  1  0  0  0  0
 15 16  1  0  0  0  0
 15 17  1  0  0  0  0
 17 18  1  0  0  0  0
 17 19  2  0  0  0  0
 19 20  1  0  0  0  0
 19 39  1  0  0  0  0
 21 22  1  0  0  0  0
 21 40  1  0  0  0  0
 21 41  1  0  0  0  0
 22 42  1  0  0  0  0
 22 43  1  0  0  0  0
M  CHG  1   5   1
M  CHG  1  12   1
M  END
> <s_m_source_file>
AV-unprocessed.smi

> <i_m_source_file_index>
1702

> <i_lp_mmshare_version>
43012

> <i_f3d_flags>
0

> <s_epik_input>
W0NIM11bQ0hdMVtDSDJdW0NIMl1OKFtDSDJdW0NIMl0xKVtDSDJdW0NASF0oW09IXSlbQ0gyXW4oW2NIXW4yKWMoYzIzKVtjSF1jKEYpYyhGKVtjSF0z

> <s_epik_cmdline>
J2VwaWtfcHl0aG9uJywgJy1waCcsICc3LjAnLCAnLXRuJywgJzgnLCAnLW1hJywgJzIwMCcsICctbWV0YWxfYmluZGluZycsICctaW1hZScsICc8aW5maWxlLm1hZT4nLCAnLW9tYWUnLCAnPG91dGZpbGUubWFlPic=

> <r_epik_Ionization_Penalty>
2.33291

> <r_epik_Ionization_Penalty_Charging>
2.33291

> <r_epik_Ionization_Penalty_Neutral>
6.90208e-07

> <r_epik_State_Penalty>
2.4838

> <r_epik_Charging_Adjusted_Penalty>
4.81672

> <i_epik_Tot_Q>
2

> <i_epik_Tot_abs_Q>
2

> <r_epik_Metal_State_Penalty>
6.56754

> <b_epik_Metal_Only>
0

> <s_lp_Force_Field>
OPLS_2005

> <r_lp_Energy>
33.9441

> <b_lp_Chiralities_Consistent>
1

> <s_lp_Variant>
AV-unprocessed.smi:1702-5

> <Gold.Version>
5.8.1

> <Gold.Id.Protein>
6NUR|6NUR_protein|mol2

> <Gold.PLP.Fitness>
46.0629

> <Gold.PLP.PLP>
-36.8834

> <Gold.PLP.part.hbond>
-1.9728

> <Gold.PLP.part.metal>
0.0000

> <Gold.PLP.part.buried>
-4.2820

> <Gold.PLP.part.nonpolar>
-30.9743

> <Gold.PLP.part.repulsive>
0.2409

> <Gold.PLP.ligand.clash>
0.0000

> <Gold.PLP.ligand.torsion>
1.4352

> <Gold.PLP.Chemscore.Hbond>
4.0000

> <Gold.PLP.Chemscore.CHOScore>
0.0000

> <Gold.PLP.Chemscore.Metal>
0.0000

> <Gold.Chemscore.Hbonds>
donor molecule, donor type, donor heavy atom, donor atom, acceptor molecule, acceptor atom, score
      L1  H     5    44       P1  7948  2.00
      L1  H    12    45       P1  8028  2.00

> <Gold.PLP.Chemscore.Internal.Correction>
0.0498

> <Gold.Rescore>
     Score         DG    S(hbond)    S(metal)    S(lipo)     H(rot)  DE(clash)    DE(int)     intcor
     14.11     -15.54       1.96        0.00      80.71       2.32       0.03       1.40       ----

> <Gold.Chemscore.Fitness>
14.1112

> <Gold.Chemscore.DG>
-15.5368

> <Gold.Chemscore.ZeroCoef>
-5.4800

> <Gold.Chemscore.Hbond>
1.9625

> <Gold.Chemscore.Metal>
0.0000

> <Gold.Chemscore.Lipo>
80.7138

> <Gold.Chemscore.Internal_Hbond>
0.0000

> <Gold.Chemscore.DEClash>
0.0296

> <Gold.Chemscore.DEInternal>
1.3959

> <Gold.Chemscore.Rot>
2.3210

> <Gold.Chemscore.Internal.Correction>
   9.000000E+99

> <Gold.Chemscore.Hbonds>
donor molecule, donor type, donor heavy atom, donor atom, acceptor molecule, acceptor atom, score
      L1  H     5    44       P1  7948  1.00
      L1  H    12    45       P1  8028  0.98

> <Gold.Chemscore.Hbond.Weighted>
-6.5549

> <Gold.Chemscore.Metal.Weighted>
-0.0000

> <Gold.Chemscore.Lipo.Weighted>
-9.4435

> <Gold.Chemscore.Internal_Hbond.Weighted>
0.0000

> <Gold.Chemscore.DEClash.Weighted>
0.0296

> <Gold.Chemscore.DEInternal.Weighted>
1.3959

> <Gold.Chemscore.Rot.Weighted>
5.9416

> <Gold.Chemscore.Internal.Correction.Weighted>
   9.000000E+99

> <Gold.Protein.RotatedTorsions>
[ 6907 6896 6895 6894 ] final    0.55 input  -60.11 | X-H torsion
[ 7974 7965 7964 7962 ] final  -81.48 input  175.53 | X-H torsion
[ 8008 7997 7996 7995 ] final  136.64 input   59.86 | X-H torsion
[ 10167 10162 10161 10158 ] final  159.34 input  -65.29 | X-H torsion
[ 10718 10713 10712 10709 ] final   24.42 input   66.30 | X-H torsion
[ 10763 10752 10751 10750 ] final  -51.79 input  -60.55 | X-H torsion
[ 11005 11000 10999 10996 ] final -105.02 input  -57.11 | X-H torsion

> <Gold.Protein.ActiveResidues>
 VAL166  LYS551  ARG553  GLY616  TRP617  ASP618  TYR619  PRO620  LYS621  CYS622 
 ASP623  PHE694  ASN695  SER759  ASP760  ASP761  ALA762  ILE779  LEU786  VAL792 
 PHE793  MET794  SER795  GLU796  ALA797  LYS798  CYS799  TRP800  GLU811  SER814 

> <Gold.Protein.RotatedAtoms>
  151.5783  135.1059  160.0010 H   0  0  0  0  0  0  0  0  0  0  0  0  # atno 6907 bound_to 6896
  152.4367  133.7369  159.6629 H   0  0  0  0  0  0  0  0  0  0  0  0  # atno 6908 bound_to 6896
  150.8266  133.8092  159.3139 H   0  0  0  0  0  0  0  0  0  0  0  0  # atno 6909 bound_to 6896
  145.5461  140.9503  143.1525 H   0  0  0  0  0  0  0  0  0  0  0  0  # atno 7974 bound_to 7965
  156.3004  140.2440  156.3779 H   0  0  0  0  0  0  0  0  0  0  0  0  # atno 8008 bound_to 7997
  154.8728  140.0415  157.1755 H   0  0  0  0  0  0  0  0  0  0  0  0  # atno 8009 bound_to 7997
  154.8777  140.2944  155.5447 H   0  0  0  0  0  0  0  0  0  0  0  0  # atno 8010 bound_to 7997
  139.4832  144.4739  151.8538 H   0  0  0  0  0  0  0  0  0  0  0  0  # atno 10167 bound_to 10162
  157.1795  130.6796  149.6108 H   0  0  0  0  0  0  0  0  0  0  0  0  # atno 10718 bound_to 10713
  154.1323  135.6518  153.4924 H   0  0  0  0  0  0  0  0  0  0  0  0  # atno 10763 bound_to 10752
  153.0191  135.5295  154.6989 H   0  0  0  0  0  0  0  0  0  0  0  0  # atno 10764 bound_to 10752
  154.6227  135.2966  155.0278 H   0  0  0  0  0  0  0  0  0  0  0  0  # atno 10765 bound_to 10752
  141.1073  133.8772  157.1683 H   0  0  0  0  0  0  0  0  0  0  0  0  # atno 11005 bound_to 11000
  144.7553  139.7091  143.7257 LP  0  0  0  0  0  0  0  0  0  0  0  0  # atno 17320 bound_to 7965
  146.1948  139.5209  142.9781 LP  0  0  0  0  0  0  0  0  0  0  0  0  # atno 17321 bound_to 7965
  140.4210  144.2243  150.5887 LP  0  0  0  0  0  0  0  0  0  0  0  0  # atno 17342 bound_to 10162
  140.4874  143.2359  151.8868 LP  0  0  0  0  0  0  0  0  0  0  0  0  # atno 17343 bound_to 10162
  155.9726  130.4651  150.6243 LP  0  0  0  0  0  0  0  0  0  0  0  0  # atno 17370 bound_to 10713
  157.3966  131.0803  151.1346 LP  0  0  0  0  0  0  0  0  0  0  0  0  # atno 17371 bound_to 10713
  139.9949  135.0050  157.0061 LP  0  0  0  0  0  0  0  0  0  0  0  0  # atno 17394 bound_to 11000
  140.4868  134.1233  155.7226 LP  0  0  0  0  0  0  0  0  0  0  0  0  # atno 17395 bound_to 11000

$$$$
