AV-unprocessed.smi:1576|AV-procd|sdf|6343|dock7
  -GOLD-   22720 6563D 1   1.00000     0.00000
 Structure written by MMmdl.
 45 47  0  0  0  0  0  0  0  0  1 V2000
  150.4433  135.0684  156.0189 O   0  0  0  0  0  0  0  0  0  0  0  0
  149.9044  135.4296  154.9733 C   0  0  0  0  0  0  0  0  0  0  0  0
  149.8260  136.6974  154.5347 N   0  0  0  0  0  0  0  0  0  0  0  0
  150.2525  137.8874  155.1839 C   0  0  0  0  0  0  0  0  0  0  0  0
  150.4638  137.8424  156.5755 C   0  0  0  0  0  0  0  0  0  0  0  0
  150.9100  138.9987  157.2425 C   0  0  0  0  0  0  0  0  0  0  0  0
  151.1441  140.1777  156.4971 C   0  0  0  0  0  0  0  0  0  0  0  0
  151.5939  141.3480  157.1458 N   0  0  0  0  0  0  0  0  0  0  0  0
  150.8118  142.5729  156.9579 C   0  0  0  0  0  0  0  0  0  0  0  0
  151.6106  143.8144  157.3897 C   0  0  0  0  0  0  0  0  0  0  0  0
  152.1324  143.6623  158.8259 C   0  0  0  0  0  0  0  0  0  0  0  0
  152.9471  142.3664  158.9543 C   0  0  0  0  0  0  0  0  0  0  0  0
  152.1272  141.1485  158.4948 C   0  0  0  0  0  0  0  0  0  0  0  0
  150.9570  140.2165  155.1552 N   0  0  0  0  0  0  0  0  0  0  0  0
  150.5257  139.1066  154.5194 C   0  0  0  0  0  0  0  0  0  0  0  0
  149.3342  134.5815  154.1058 N   0  0  0  0  0  0  0  0  0  0  0  0
  149.2502  133.1321  154.2742 C   0  0  2  0  0  0  0  0  0  0  0  0
  148.4020  132.4998  153.1501 C   0  0  0  0  0  0  0  0  0  0  0  0
  146.9146  132.7072  153.4638 C   0  0  0  0  0  0  0  0  0  0  0  0
  146.7801  132.7116  155.2915 S   0  0  0  0  0  0  0  0  0  0  0  0
  146.1456  133.9677  155.7193 O   0  0  0  0  0  0  0  0  0  0  0  0
  146.2712  131.4109  155.7523 O   0  0  0  0  0  0  0  0  0  0  0  0
  148.5828  132.7972  155.6171 C   0  0  0  0  0  0  0  0  0  0  0  0
  149.4387  136.8243  153.6111 H   0  0  0  0  0  0  0  0  0  0  0  0
  150.2877  136.9321  157.1299 H   0  0  0  0  0  0  0  0  0  0  0  0
  151.0827  138.9653  158.3080 H   0  0  0  0  0  0  0  0  0  0  0  0
  150.5269  142.6804  155.9103 H   0  0  0  0  0  0  0  0  0  0  0  0
  149.8907  142.5018  157.5378 H   0  0  0  0  0  0  0  0  0  0  0  0
  152.4511  143.9615  156.7099 H   0  0  0  0  0  0  0  0  0  0  0  0
  150.9871  144.7052  157.3084 H   0  0  0  0  0  0  0  0  0  0  0  0
  152.7449  144.5224  159.0983 H   0  0  0  0  0  0  0  0  0  0  0  0
  151.2932  143.6409  159.5223 H   0  0  0  0  0  0  0  0  0  0  0  0
  153.8533  142.4433  158.3518 H   0  0  0  0  0  0  0  0  0  0  0  0
  153.2716  142.2290  159.9860 H   0  0  0  0  0  0  0  0  0  0  0  0
  151.2918  140.9859  159.1770 H   0  0  0  0  0  0  0  0  0  0  0  0
  152.7533  140.2592  158.5530 H   0  0  0  0  0  0  0  0  0  0  0  0
  150.4257  139.2122  153.4507 H   0  0  0  0  0  0  0  0  0  0  0  0
  148.9248  134.9654  153.2664 H   0  0  0  0  0  0  0  0  0  0  0  0
  150.2609  132.7199  154.2620 H   0  0  0  0  0  0  0  0  0  0  0  0
  148.6632  132.8814  152.1624 H   0  0  0  0  0  0  0  0  0  0  0  0
  148.6037  131.4281  153.1303 H   0  0  0  0  0  0  0  0  0  0  0  0
  146.5749  133.6766  153.0988 H   0  0  0  0  0  0  0  0  0  0  0  0
  146.2769  131.9318  153.0392 H   0  0  0  0  0  0  0  0  0  0  0  0
  148.9018  131.8136  155.9628 H   0  0  0  0  0  0  0  0  0  0  0  0
  148.7933  133.5192  156.4066 H   0  0  0  0  0  0  0  0  0  0  0  0
  1  2  2  0  0  0  0
  2  3  1  0  0  0  0
  2 16  1  0  0  0  0
  3  4  1  0  0  0  0
  3 24  1  0  0  0  0
  4 15  1  0  0  0  0
  4  5  2  0  0  0  0
  5  6  1  0  0  0  0
  5 25  1  0  0  0  0
  6  7  2  0  0  0  0
  6 26  1  0  0  0  0
  7  8  1  0  0  0  0
  7 14  1  0  0  0  0
  8 13  1  0  0  0  0
  8  9  1  0  0  0  0
  9 10  1  0  0  0  0
  9 27  1  0  0  0  0
  9 28  1  0  0  0  0
 10 11  1  0  0  0  0
 10 29  1  0  0  0  0
 10 30  1  0  0  0  0
 11 12  1  0  0  0  0
 11 31  1  0  0  0  0
 11 32  1  0  0  0  0
 12 13  1  0  0  0  0
 12 33  1  0  0  0  0
 12 34  1  0  0  0  0
 13 35  1  0  0  0  0
 13 36  1  0  0  0  0
 14 15  2  0  0  0  0
 15 37  1  0  0  0  0
 16 17  1  0  0  0  0
 16 38  1  0  0  0  0
 17 23  1  0  0  0  0
 17 18  1  0  0  0  0
 17 39  1  0  0  0  0
 18 19  1  0  0  0  0
 18 40  1  0  0  0  0
 18 41  1  0  0  0  0
 19 20  1  0  0  0  0
 19 42  1  0  0  0  0
 19 43  1  0  0  0  0
 20 21  2  0  0  0  0
 20 22  2  0  0  0  0
 20 23  1  0  0  0  0
 23 44  1  0  0  0  0
 23 45  1  0  0  0  0
M  END
> <s_m_source_file>
AV-unprocessed.smi

> <i_m_source_file_index>
1576

> <i_lp_mmshare_version>
43012

> <i_f3d_flags>
0

> <s_epik_input>
Tz1TMSg9TylbQ0gyXVtDSDJdW0NASF0oW0NIMl0xKVtOSF1DKD1PKVtOSF1jMltjSF1bY0hdYyhuW2NIXTIpTjNbQ0gyXVtDSDJdW0NIMl1bQ0gyXVtDSDJdMw==

> <s_epik_cmdline>
J2VwaWtfcHl0aG9uJywgJy1waCcsICc3LjAnLCAnLXRuJywgJzgnLCAnLW1hJywgJzIwMCcsICctbWV0YWxfYmluZGluZycsICctaW1hZScsICc8aW5maWxlLm1hZT4nLCAnLW9tYWUnLCAnPG91dGZpbGUubWFlPic=

> <r_lp_tautomer_probability>
1

> <r_epik_Ionization_Penalty>
0.0900267

> <r_epik_Ionization_Penalty_Charging>
0

> <r_epik_Ionization_Penalty_Neutral>
0.0900267

> <r_epik_State_Penalty>
0.0748882

> <r_epik_Charging_Adjusted_Penalty>
0.0748882

> <i_epik_Tot_Q>
0

> <i_epik_Tot_abs_Q>
0

> <r_epik_Metal_State_Penalty>
0.0662821

> <b_epik_Metal_Only>
0

> <s_lp_Force_Field>
OPLS_2005

> <r_lp_Energy>
21.2293

> <b_lp_Chiralities_Consistent>
1

> <s_lp_Variant>
AV-unprocessed.smi:1576-1

> <Gold.Version>
5.8.1

> <Gold.Id.Protein>
6NUR|6NUR_protein|mol2

> <Gold.PLP.Fitness>
44.6465

> <Gold.PLP.PLP>
-34.6330

> <Gold.PLP.part.hbond>
-3.0000

> <Gold.PLP.part.metal>
0.0000

> <Gold.PLP.part.buried>
-3.1830

> <Gold.PLP.part.nonpolar>
-28.5162

> <Gold.PLP.part.repulsive>
0.3335

> <Gold.PLP.ligand.clash>
0.0000

> <Gold.PLP.ligand.torsion>
0.3502

> <Gold.PLP.Chemscore.Hbond>
2.4920

> <Gold.PLP.Chemscore.CHOScore>
0.9399

> <Gold.PLP.Chemscore.Metal>
0.0000

> <Gold.Chemscore.Hbonds>
donor molecule, donor type, donor heavy atom, donor atom, acceptor molecule, acceptor atom, score
      L1  H     3    24       P1  7948  1.00
      L1  H    16    38       P1  7948  0.99
      P1  H  7989  7998       L1    14  0.50
      L1  C    15    37       P1  7957  0.94

> <Gold.PLP.Chemscore.Internal.Correction>
0.4180

> <Gold.Rescore>
     Score         DG    S(hbond)    S(metal)    S(lipo)     H(rot)  DE(clash)    DE(int)     intcor
     14.75     -17.65       1.38        0.00      91.60       1.24       0.04       2.87       ----

> <Gold.Chemscore.Fitness>
14.7468

> <Gold.Chemscore.DG>
-17.6524

> <Gold.Chemscore.ZeroCoef>
-5.4800

> <Gold.Chemscore.Hbond>
1.3836

> <Gold.Chemscore.Metal>
0.0000

> <Gold.Chemscore.Lipo>
91.5967

> <Gold.Chemscore.Internal_Hbond>
0.0000

> <Gold.Chemscore.DEClash>
0.0391

> <Gold.Chemscore.DEInternal>
2.8665

> <Gold.Chemscore.Rot>
1.2366

> <Gold.Chemscore.Internal.Correction>
   9.000000E+99

> <Gold.Chemscore.Hbonds>
donor molecule, donor type, donor heavy atom, donor atom, acceptor molecule, acceptor atom, score
      L1  H     3    24       P1  7948  0.88
      L1  H    16    38       P1  7948  0.28
      P1  H  7989  7998       L1    14  0.02

> <Gold.Chemscore.Hbond.Weighted>
-4.6213

> <Gold.Chemscore.Metal.Weighted>
-0.0000

> <Gold.Chemscore.Lipo.Weighted>
-10.7168

> <Gold.Chemscore.Internal_Hbond.Weighted>
0.0000

> <Gold.Chemscore.DEClash.Weighted>
0.0391

> <Gold.Chemscore.DEInternal.Weighted>
2.8665

> <Gold.Chemscore.Rot.Weighted>
3.1657

> <Gold.Chemscore.Internal.Correction.Weighted>
   9.000000E+99

> <Gold.Protein.RotatedTorsions>
[ 6907 6896 6895 6894 ] final  128.24 input  -60.11 | X-H torsion
[ 7974 7965 7964 7962 ] final  -22.41 input  175.53 | X-H torsion
[ 8008 7997 7996 7995 ] final  103.93 input   59.86 | X-H torsion
[ 10167 10162 10161 10158 ] final  -18.26 input  -65.29 | X-H torsion
[ 10718 10713 10712 10709 ] final  167.34 input   66.30 | X-H torsion
[ 10763 10752 10751 10750 ] final   64.23 input  -60.55 | X-H torsion
[ 11005 11000 10999 10996 ] final   -1.12 input  -57.11 | X-H torsion

> <Gold.Protein.ActiveResidues>
 VAL166  LYS551  ARG553  GLY616  TRP617  ASP618  TYR619  PRO620  LYS621  CYS622 
 ASP623  PHE694  ASN695  SER759  ASP760  ASP761  ALA762  ILE779  LEU786  VAL792 
 PHE793  MET794  SER795  GLU796  ALA797  LYS798  CYS799  TRP800  GLU811  SER814 

> <Gold.Protein.RotatedAtoms>
  152.3738  133.6453  159.6107 H   0  0  0  0  0  0  0  0  0  0  0  0  # atno 6907 bound_to 6896
  150.7688  133.9227  159.3412 H   0  0  0  0  0  0  0  0  0  0  0  0  # atno 6908 bound_to 6896
  151.7045  135.0925  160.0308 H   0  0  0  0  0  0  0  0  0  0  0  0  # atno 6909 bound_to 6896
  146.1677  140.4476  142.8545 H   0  0  0  0  0  0  0  0  0  0  0  0  # atno 7974 bound_to 7965
  156.1528  140.3156  155.8676 H   0  0  0  0  0  0  0  0  0  0  0  0  # atno 8008 bound_to 7997
  155.3938  140.0495  157.3056 H   0  0  0  0  0  0  0  0  0  0  0  0  # atno 8009 bound_to 7997
  154.5074  140.2152  155.9236 H   0  0  0  0  0  0  0  0  0  0  0  0  # atno 8010 bound_to 7997
  140.7256  143.4934  150.9962 H   0  0  0  0  0  0  0  0  0  0  0  0  # atno 10167 bound_to 10162
  157.0529  131.0318  151.2674 H   0  0  0  0  0  0  0  0  0  0  0  0  # atno 10718 bound_to 10713
  153.0048  135.5400  154.6477 H   0  0  0  0  0  0  0  0  0  0  0  0  # atno 10763 bound_to 10752
  154.5717  135.2842  155.0823 H   0  0  0  0  0  0  0  0  0  0  0  0  # atno 10764 bound_to 10752
  154.1986  135.6488  153.5133 H   0  0  0  0  0  0  0  0  0  0  0  0  # atno 10765 bound_to 10752
  140.6438  133.9466  155.8341 H   0  0  0  0  0  0  0  0  0  0  0  0  # atno 11005 bound_to 11000
  144.8116  140.6396  143.6411 LP  0  0  0  0  0  0  0  0  0  0  0  0  # atno 17320 bound_to 7965
  145.4424  139.1534  143.3963 LP  0  0  0  0  0  0  0  0  0  0  0  0  # atno 17321 bound_to 7965
  139.8640  143.7278  152.3171 LP  0  0  0  0  0  0  0  0  0  0  0  0  # atno 17342 bound_to 10162
  139.7503  144.7536  151.0516 LP  0  0  0  0  0  0  0  0  0  0  0  0  # atno 17343 bound_to 10162
  157.5016  130.7883  149.7610 LP  0  0  0  0  0  0  0  0  0  0  0  0  # atno 17370 bound_to 10713
  156.0002  130.3884  150.2636 LP  0  0  0  0  0  0  0  0  0  0  0  0  # atno 17371 bound_to 10713
  141.0587  134.0378  157.3687 LP  0  0  0  0  0  0  0  0  0  0  0  0  # atno 17394 bound_to 11000
  139.9070  135.0182  156.7530 LP  0  0  0  0  0  0  0  0  0  0  0  0  # atno 17395 bound_to 11000

$$$$
