#       Name:                AV-unprocessed.smi:1576
#       Creating user name   scv26
#       Creation time:       Fri Mar 27 06:56:46 2020


#       File generated by GOLD software.
#

@<TRIPOS>MOLECULE
AV-unprocessed.smi:1576
    49    51     1
SMALL
NO_CHARGES


@<TRIPOS>ATOM
      1 ****        -1.9136   1.9421   0.0030 O.2            1 S1                 0.0000
      2 ****        -2.4298   0.8292  -0.1490 C.2            1 S1                 0.0000
      3 ****        -1.6628  -0.2740  -0.2091 N.am           1 S1                 0.0000
      4 ****        -0.2467  -0.3829  -0.1827 C.ar           1 S1                 0.0000
      5 ****         0.3125  -1.6006   0.2595 C.ar           1 S1                 0.0000
      6 ****         1.7131  -1.7599   0.2802 C.ar           1 S1                 0.0000
      7 ****         2.5366  -0.6968  -0.1553 C.ar           1 S1                 0.0000
      8 ****         3.9358  -0.7629  -0.1720 N.3            1 S1                 0.0000
      9 ****         4.5172  -0.8335   1.1661 C.3            1 S1                 0.0000
     10 ****         6.0501  -0.7126   1.1045 C.3            1 S1                 0.0000
     11 ****         6.6461  -1.7584   0.1483 C.3            1 S1                 0.0000
     12 ****         5.9777  -1.6578  -1.2323 C.3            1 S1                 0.0000
     13 ****         4.4476  -1.7588  -1.1097 C.3            1 S1                 0.0000
     14 ****         1.9640   0.4476  -0.5875 N.pl3          1 S1                 1.0000
     15 ****         0.6275   0.6406  -0.6220 C.ar           1 S1                 0.0000
     16 ****        -3.7543   0.5357  -0.2465 N.pl3          1 S1                -1.0000
     17 ****        -4.8360   1.5246  -0.2232 C.3            1 S1                 0.0000
     18 ****        -6.0933   0.9769  -0.9273 C.3            1 S1                 0.0000
     19 ****        -7.2852   1.8779  -0.5746 C.3            1 S1                 0.0000
     20 ****        -6.9651   2.4820   1.1279 S.o2           1 S1                 0.0000
     21 ****        -6.9878   3.9533   1.1259 O.2            1 S1                 0.0000
     22 ****        -7.7844   1.7182   2.0818 O.2            1 S1                 0.0000
     23 ****        -5.2301   1.8876   1.2176 C.3            1 S1                 0.0000
     24 ****        -2.1683  -1.1476  -0.2293 H              1 S1                 0.0000
     25 ****        -0.3261  -2.4081   0.5870 H              1 S1                 0.0000
     26 ****         2.1443  -2.6881   0.6248 H              1 S1                 0.0000
     27 ****         4.1079  -0.0362   1.7882 H              1 S1                 0.0000
     28 ****         4.2408  -1.7790   1.6350 H              1 S1                 0.0000
     29 ****         6.3247   0.2880   0.7677 H              1 S1                 0.0000
     30 ****         6.4751  -0.8308   2.1015 H              1 S1                 0.0000
     31 ****         7.7234  -1.6172   0.0577 H              1 S1                 0.0000
     32 ****         6.4949  -2.7581   0.5573 H              1 S1                 0.0000
     33 ****         6.2447  -0.7085  -1.6987 H              1 S1                 0.0000
     34 ****         6.3534  -2.4422  -1.8896 H              1 S1                 0.0000
     35 ****         4.1702  -2.7577  -0.7704 H              1 S1                 0.0000
     36 ****         3.9871  -1.6139  -2.0880 H              1 S1                 0.0000
     37 ****         0.3143   1.5977  -1.0116 H              1 S1                 0.0000
     38 ****        -4.5564   2.4460  -0.7367 H              1 S1                 0.0000
     39 ****        -5.9546   0.9061  -2.0066 H              1 S1                 0.0000
     40 ****        -6.3019  -0.0317  -0.5670 H              1 S1                 0.0000
     41 ****        -7.3388   2.7420  -1.2385 H              1 S1                 0.0000
     42 ****        -8.2384   1.3513  -0.6143 H              1 S1                 0.0000
     43 ****        -5.2133   1.0123   1.8679 H              1 S1                 0.0000
     44 ****        -4.5896   2.6560   1.6504 H              1 S1                 0.0000
     45 ****         2.5695   1.2032  -0.9082 H              1 S1                 0.0000
     46 ****        -0.9203   2.0259   0.0820 LP             1 S1                 0.0000
     47 ****        -2.4894   2.7585   0.0469 LP             1 S1                 0.0000
     48 ****         4.2560   0.1109  -0.5379 LP             1 S1                 0.0000
     49 ****        -4.0092  -0.4267  -0.3412 LP             1 S1                 0.0000
@<TRIPOS>BOND
    1    1    2 2     
    2    2    3 am    
    3    2   16 1     
    4    3    4 1     
    5    3   24 1     
    6    4   15 ar    
    7    4    5 ar    
    8    5    6 ar    
    9    5   25 1     
   10    6    7 ar    
   11    6   26 1     
   12    7    8 1     
   13    7   14 ar    
   14    8   13 1     
   15    8    9 1     
   16    9   10 1     
   17    9   27 1     
   18    9   28 1     
   19   10   11 1     
   20   10   29 1     
   21   10   30 1     
   22   11   12 1     
   23   11   31 1     
   24   11   32 1     
   25   12   13 1     
   26   12   33 1     
   27   12   34 1     
   28   13   35 1     
   29   13   36 1     
   30   14   15 ar    
   31   14   45 1     
   32   15   37 1     
   33   16   17 1     
   34   17   23 1     
   35   17   18 1     
   36   17   38 1     
   37   18   19 1     
   38   18   39 1     
   39   18   40 1     
   40   19   20 1     
   41   19   41 1     
   42   19   42 1     
   43   20   21 2     
   44   20   22 2     
   45   20   23 1     
   46   23   43 1     
   47   23   44 1     
   48    1   46 1     
   49    1   47 1     
   50    8   48 1     
   51   16   49 1     
@<TRIPOS>SUBSTRUCTURE
      1 S1             1
@<TRIPOS>SET
LONE_PAIRS      STATIC     ATOMS    <user>   **** ""
6 46 47 48 49 21 22
DONOR_HYDROGENS      STATIC     ATOMS    <user>   **** ""
2 24 45
ATOM$BLUE        STATIC     ATOMS    COLORGROUP SYSTEM
6 46 47 48 49 21 22
ATOM$RED        STATIC     ATOMS    COLORGROUP SYSTEM
2 24 45
