#       Name:                AV-unprocessed.smi:2698
#       Creating user name   scv26
#       Creation time:       Fri Mar 27 14:45:57 2020


#       File generated by GOLD software.
#

@<TRIPOS>MOLECULE
AV-unprocessed.smi:2698
    40    40     1
SMALL
NO_CHARGES


@<TRIPOS>ATOM
      1 ****        -2.8493   1.3365   3.0291 C.3            1 S1                 0.0000
      2 ****        -3.0509   0.8806   1.5713 C.3            1 S1                 0.0000
      3 ****        -4.5512   0.7381   1.2693 C.3            1 S1                 0.0000
      4 ****        -2.3012  -0.4315   1.2333 C.3            1 S1                 0.0000
      5 ****        -0.7905  -0.2749   1.0059 C.2            1 S1                 0.0000
      6 ****        -0.1130   0.4538   1.7304 O.2            1 S1                 0.0000
      7 ****        -0.2739  -0.9781  -0.0140 N.am           1 S1                 0.0000
      8 ****         1.1315  -1.0097  -0.4106 C.3            1 S1                 0.0000
      9 ****         1.4856   0.2185  -1.2770 C.3            1 S1                 0.0000
     10 ****         2.9280   0.2835  -1.7162 C.2            1 S1                 0.0000
     11 ****         3.4743  -0.0621  -2.9358 C.2            1 S1                 0.0000
     12 ****         4.8345   0.1659  -2.8303 N.pl3          1 S1                 0.0000
     13 ****         5.0586   0.6249  -1.5983 C.2            1 S1                 0.0000
     14 ****         3.9535   0.7241  -0.8714 N.2            1 S1                 0.0000
     15 ****         1.4547  -2.3619  -1.0580 C.2            1 S1                 0.0000
     16 ****         0.8752  -2.6337  -2.1331 O.co2          1 S1                 0.0000
     17 ****         2.2768  -3.0997  -0.4720 O.co2          1 S1                -1.0000
     18 ****         5.5276   0.0070  -3.5473 H              1 S1                 0.0000
     19 ****        -3.1857   0.5732   3.7313 H              1 S1                 0.0000
     20 ****        -3.4156   2.2454   3.2345 H              1 S1                 0.0000
     21 ****        -1.8069   1.5568   3.2541 H              1 S1                 0.0000
     22 ****        -2.6698   1.6696   0.9209 H              1 S1                 0.0000
     23 ****        -5.0053  -0.0417   1.8818 H              1 S1                 0.0000
     24 ****        -4.7214   0.4814   0.2233 H              1 S1                 0.0000
     25 ****        -5.0833   1.6691   1.4667 H              1 S1                 0.0000
     26 ****        -2.4629  -1.1714   2.0178 H              1 S1                 0.0000
     27 ****        -2.7297  -0.8611   0.3262 H              1 S1                 0.0000
     28 ****        -0.8989  -1.5580  -0.5553 H              1 S1                 0.0000
     29 ****         1.7352  -0.9518   0.4977 H              1 S1                 0.0000
     30 ****         0.8593   0.2267  -2.1701 H              1 S1                 0.0000
     31 ****         1.2573   1.1391  -0.7390 H              1 S1                 0.0000
     32 ****         3.0184  -0.4480  -3.8358 H              1 S1                 0.0000
     33 ****         6.0389   0.8880  -1.2293 H              1 S1                 0.0000
     34 ****        -0.5452   0.9547   2.4803 LP             1 S1                 0.0000
     35 ****         0.8697   0.5451   1.5691 LP             1 S1                 0.0000
     36 ****         3.8711   1.0435   0.0726 LP             1 S1                 0.0000
     37 ****         1.0571  -3.5026  -2.5934 LP             1 S1                 0.0000
     38 ****         0.2301  -1.9820  -2.5321 LP             1 S1                 0.0000
     39 ****         2.5179  -3.9883  -0.8621 LP             1 S1                 0.0000
     40 ****         2.6931  -2.8011   0.3868 LP             1 S1                 0.0000
@<TRIPOS>BOND
    1    1    2 1     
    2    1   19 1     
    3    1   20 1     
    4    1   21 1     
    5    2    3 1     
    6    2    4 1     
    7    2   22 1     
    8    3   23 1     
    9    3   24 1     
   10    3   25 1     
   11    4    5 1     
   12    4   26 1     
   13    4   27 1     
   14    5    6 2     
   15    5    7 am    
   16    7    8 1     
   17    7   28 1     
   18    8    9 1     
   19    8   15 1     
   20    8   29 1     
   21    9   10 1     
   22    9   30 1     
   23    9   31 1     
   24   10   14 1     
   25   10   11 2     
   26   11   12 1     
   27   11   32 1     
   28   12   18 1     
   29   12   13 1     
   30   13   14 2     
   31   13   33 1     
   32   15   16 ar    
   33   15   17 ar    
   34    6   34 1     
   35    6   35 1     
   36   14   36 1     
   37   16   37 1     
   38   16   38 1     
   39   17   39 1     
   40   17   40 1     
@<TRIPOS>SUBSTRUCTURE
      1 S1             1
@<TRIPOS>SET
LONE_PAIRS      STATIC     ATOMS    <user>   **** ""
7 34 35 36 37 38 39 40
DONOR_HYDROGENS      STATIC     ATOMS    <user>   **** ""
2 28 18
ATOM$BLUE        STATIC     ATOMS    COLORGROUP SYSTEM
7 34 35 36 37 38 39 40
ATOM$RED        STATIC     ATOMS    COLORGROUP SYSTEM
2 28 18
