#       Name:                AV-unprocessed.smi:1082
#       Creating user name   scv26
#       Creation time:       Fri Mar 27 03:24:03 2020


#       File generated by GOLD software.
#

@<TRIPOS>MOLECULE
AV-unprocessed.smi:1082
    52    54     1
SMALL
NO_CHARGES


@<TRIPOS>ATOM
      1 ****         1.0137   1.8415  -1.3356 O.2            1 S1                 0.0000
      2 ****         0.5871   0.8010  -0.8220 C.2            1 S1                 0.0000
      3 ****         1.1613  -0.4311  -0.8348 N.pl3          1 S1                -1.0000
      4 ****         2.4218  -0.7580  -1.5056 C.3            1 S1                 0.0000
      5 ****         3.1800  -1.8335  -0.7009 C.3            1 S1                 0.0000
      6 ****         3.5040  -1.3994   0.6848 N.4            1 S1                 1.0000
      7 ****         3.6539  -2.5089   1.6566 C.3            1 S1                 0.0000
      8 ****         4.8126  -2.1348   2.5916 C.3            1 S1                 0.0000
      9 ****         5.0891  -0.6630   2.3019 C.3            1 S1                 0.0000
     10 ****         4.6872  -0.5213   0.8384 C.3            1 S1                 0.0000
     11 ****        -0.5860   0.8053  -0.1663 N.am           1 S1                 0.0000
     12 ****        -1.5063   1.8802  -0.0281 C.ar           1 S1                 0.0000
     13 ****        -1.0515   3.1854   0.2862 C.ar           1 S1                 0.0000
     14 ****        -1.9812   4.2217   0.4930 C.ar           1 S1                 0.0000
     15 ****        -3.3534   3.9318   0.3995 C.ar           1 S1                 0.0000
     16 ****        -3.7542   2.6757   0.1133 N.pl3          1 S1                 1.0000
     17 ****        -2.9079   1.6391  -0.1109 C.ar           1 S1                 0.0000
     18 ****        -3.4723   0.3785  -0.4123 N.3            1 S1                 0.0000
     19 ****        -2.9472  -0.3880  -1.5385 C.3            1 S1                 0.0000
     20 ****        -4.1430  -1.1209  -2.1562 C.3            1 S1                 0.0000
     21 ****        -5.1708  -1.1523  -1.0288 C.3            1 S1                 0.0000
     22 ****        -4.9119   0.1699  -0.3116 C.3            1 S1                 0.0000
     23 ****         2.2464  -1.1326  -2.5140 H              1 S1                 0.0000
     24 ****         3.0725   0.1096  -1.6224 H              1 S1                 0.0000
     25 ****         2.5518  -2.7247  -0.6552 H              1 S1                 0.0000
     26 ****         4.0911  -2.1317  -1.2208 H              1 S1                 0.0000
     27 ****         2.7191  -2.6244   2.2059 H              1 S1                 0.0000
     28 ****         3.8661  -3.4570   1.1601 H              1 S1                 0.0000
     29 ****         4.5812  -2.3172   3.6414 H              1 S1                 0.0000
     30 ****         5.6921  -2.7284   2.3388 H              1 S1                 0.0000
     31 ****         4.4500  -0.0351   2.9243 H              1 S1                 0.0000
     32 ****         6.1256  -0.3798   2.4873 H              1 S1                 0.0000
     33 ****         5.4983  -0.8743   0.1994 H              1 S1                 0.0000
     34 ****         4.4675   0.5124   0.5686 H              1 S1                 0.0000
     35 ****        -0.9171  -0.0988   0.1371 H              1 S1                 0.0000
     36 ****         0.0021   3.3984   0.3909 H              1 S1                 0.0000
     37 ****        -1.6451   5.2200   0.7317 H              1 S1                 0.0000
     38 ****        -4.1380   4.6594   0.5484 H              1 S1                 0.0000
     39 ****        -2.4491   0.2469  -2.2729 H              1 S1                 0.0000
     40 ****        -2.2201  -1.1096  -1.1646 H              1 S1                 0.0000
     41 ****        -4.5360  -0.5412  -2.9927 H              1 S1                 0.0000
     42 ****        -3.8856  -2.1134  -2.5273 H              1 S1                 0.0000
     43 ****        -6.1964  -1.2496  -1.3861 H              1 S1                 0.0000
     44 ****        -4.9624  -1.9882  -0.3593 H              1 S1                 0.0000
     45 ****        -5.2390   0.1376   0.7282 H              1 S1                 0.0000
     46 ****        -5.4488   0.9731  -0.8181 H              1 S1                 0.0000
     47 ****         2.7072  -0.8647   1.0021 H              1 S1                 0.0000
     48 ****        -4.7565   2.4963   0.0536 H              1 S1                 0.0000
     49 ****         1.8812   1.8344  -1.8329 LP             1 S1                 0.0000
     50 ****         0.4912   2.6902  -1.2537 LP             1 S1                 0.0000
     51 ****         0.6888  -1.1679  -0.3511 LP             1 S1                 0.0000
     52 ****        -3.0814  -0.0043   0.4248 LP             1 S1                 0.0000
@<TRIPOS>BOND
    1    1    2 2     
    2    2    3 1     
    3    2   11 am    
    4    3    4 1     
    5    4    5 1     
    6    4   23 1     
    7    4   24 1     
    8    5    6 1     
    9    5   25 1     
   10    5   26 1     
   11    6   10 1     
   12    6    7 1     
   13    6   47 1     
   14    7    8 1     
   15    7   27 1     
   16    7   28 1     
   17    8    9 1     
   18    8   29 1     
   19    8   30 1     
   20    9   10 1     
   21    9   31 1     
   22    9   32 1     
   23   10   33 1     
   24   10   34 1     
   25   11   12 1     
   26   11   35 1     
   27   12   17 ar    
   28   12   13 ar    
   29   13   14 ar    
   30   13   36 1     
   31   14   15 ar    
   32   14   37 1     
   33   15   16 ar    
   34   15   38 1     
   35   16   17 ar    
   36   16   48 1     
   37   17   18 1     
   38   18   22 1     
   39   18   19 1     
   40   19   20 1     
   41   19   39 1     
   42   19   40 1     
   43   20   21 1     
   44   20   41 1     
   45   20   42 1     
   46   21   22 1     
   47   21   43 1     
   48   21   44 1     
   49   22   45 1     
   50   22   46 1     
   51    1   49 1     
   52    1   50 1     
   53    3   51 1     
   54   18   52 1     
@<TRIPOS>SUBSTRUCTURE
      1 S1             1
@<TRIPOS>SET
LONE_PAIRS      STATIC     ATOMS    <user>   **** ""
4 49 50 51 52
DONOR_HYDROGENS      STATIC     ATOMS    <user>   **** ""
3 47 35 48
ATOM$BLUE        STATIC     ATOMS    COLORGROUP SYSTEM
4 49 50 51 52
ATOM$RED        STATIC     ATOMS    COLORGROUP SYSTEM
3 47 35 48
