AV-unprocessed.smi:160|AV-procd|sdf|1358|dock4
  -GOLD-   2262019 63D 1   1.00000     0.00000
 Structure written by MMmdl.
 29 30  0  0  0  0  0  0  0  0  1 V2000
  152.2765  137.9678  154.7870 N   0  0  0  0  0  0  0  0  0  0  0  0
  152.3169  138.8952  155.7493 C   0  0  0  0  0  0  0  0  0  0  0  0
  153.1543  138.8734  156.6499 O   0  0  0  0  0  0  0  0  0  0  0  0
  151.2735  139.9754  155.6750 C   0  0  0  0  0  0  0  0  0  0  0  0
  151.1878  140.9415  156.6370 N   0  0  0  0  0  0  0  0  0  0  0  0
  150.1677  141.6343  156.1468 C   0  0  0  0  0  0  0  0  0  0  0  0
  149.6682  141.1413  155.0092 N   0  0  0  0  0  0  0  0  0  0  0  0
  148.5600  141.6514  154.1467 C   0  0  1  0  0  0  0  0  0  0  0  0
  148.3026  140.6719  153.1841 O   0  0  0  0  0  0  0  0  0  0  0  0
  146.9268  140.2976  153.1944 C   0  0  1  0  0  0  0  0  0  0  0  0
  146.7932  138.8173  152.8046 C   0  0  0  0  0  0  0  0  0  0  0  0
  147.6934  138.5056  151.7632 O   0  0  0  0  0  0  0  0  0  0  0  0
  146.4900  140.5920  154.6304 C   0  0  2  0  0  0  0  0  0  0  0  0
  145.0915  140.7611  154.7698 O   0  0  0  0  0  0  0  0  0  0  0  0
  147.2767  141.8529  154.9664 C   0  0  2  0  0  0  0  0  0  0  0  0
  146.6086  143.0362  154.5686 O   0  0  0  0  0  0  0  0  0  0  0  0
  150.3959  140.0470  154.6726 N   0  0  0  0  0  0  0  0  0  0  0  0
  148.9546  142.5666  153.7027 H   0  0  0  0  0  0  0  0  0  0  0  0
  146.3775  140.9434  152.5065 H   0  0  0  0  0  0  0  0  0  0  0  0
  146.8113  139.7806  155.2850 H   0  0  0  0  0  0  0  0  0  0  0  0
  147.4948  141.9290  156.0327 H   0  0  0  0  0  0  0  0  0  0  0  0
  152.9527  137.2183  154.7816 H   0  0  0  0  0  0  0  0  0  0  0  0
  151.5691  138.0256  154.0690 H   0  0  0  0  0  0  0  0  0  0  0  0
  149.7779  142.5203  156.6263 H   0  0  0  0  0  0  0  0  0  0  0  0
  146.9623  138.1654  153.6624 H   0  0  0  0  0  0  0  0  0  0  0  0
  145.7870  138.6142  152.4368 H   0  0  0  0  0  0  0  0  0  0  0  0
  148.4660  139.0407  151.8626 H   0  0  0  0  0  0  0  0  0  0  0  0
  144.6982  140.7343  153.9111 H   0  0  0  0  0  0  0  0  0  0  0  0
  147.2270  143.7503  154.6022 H   0  0  0  0  0  0  0  0  0  0  0  0
  1  2  1  0  0  0  0
  1 22  1  0  0  0  0
  1 23  1  0  0  0  0
  2  3  2  0  0  0  0
  2  4  1  0  0  0  0
  4 17  2  0  0  0  0
  4  5  1  0  0  0  0
  5  6  2  0  0  0  0
  6  7  1  0  0  0  0
  6 24  1  0  0  0  0
  7  8  1  0  0  0  0
  7 17  1  0  0  0  0
  8 18  1  0  0  0  0
  8 15  1  0  0  0  0
  8  9  1  0  0  0  0
  9 10  1  0  0  0  0
 10 19  1  0  0  0  0
 10 11  1  0  0  0  0
 10 13  1  0  0  0  0
 11 12  1  0  0  0  0
 11 25  1  0  0  0  0
 11 26  1  0  0  0  0
 12 27  1  0  0  0  0
 13 20  1  0  0  0  0
 13 14  1  0  0  0  0
 13 15  1  0  0  0  0
 14 28  1  0  0  0  0
 15 21  1  0  0  0  0
 15 16  1  0  0  0  0
 16 29  1  0  0  0  0
M  END
> <s_m_source_file>
AV-unprocessed.smi

> <i_m_source_file_index>
160

> <i_lp_mmshare_version>
43012

> <i_f3d_flags>
0

> <s_epik_input>
W05IMl1DKD1PKWMxbltjSF1uKG4xKVtDQEBIXTJPW0NASF0oW0NIMl1bT0hdKVtDQEBIXShbT0hdKVtDQEhdMltPSF0=

> <s_epik_cmdline>
J2VwaWtfcHl0aG9uJywgJy1waCcsICc3LjAnLCAnLXRuJywgJzgnLCAnLW1hJywgJzIwMCcsICctbWV0YWxfYmluZGluZycsICctaW1hZScsICc8aW5maWxlLm1hZT4nLCAnLW9tYWUnLCAnPG91dGZpbGUubWFlPic=

> <r_lp_tautomer_probability>
1

> <r_epik_Ionization_Penalty>
1.06932e-05

> <r_epik_Ionization_Penalty_Charging>
0

> <r_epik_Ionization_Penalty_Neutral>
1.06932e-05

> <r_epik_State_Penalty>
-0

> <r_epik_Charging_Adjusted_Penalty>
0

> <i_epik_Tot_Q>
0

> <i_epik_Tot_abs_Q>
0

> <r_epik_Metal_State_Penalty>
0.0142097

> <b_epik_Metal_Only>
0

> <s_epik_Chemistry_Notes>
This compound contains an acetal/aminal-like group ( X-CH(R)-Y where X, Y are N, S, or O) that may be acid/base labile, releasing an aldehyde.

> <s_lp_Force_Field>
OPLS_2005

> <r_lp_Energy>
39.0504

> <b_lp_Chiralities_Consistent>
1

> <s_lp_Variant>
AV-unprocessed.smi:160-16

> <Gold.Version>
5.8.1

> <Gold.Id.Protein>
6NUR|6NUR_protein|mol2

> <Gold.PLP.Fitness>
44.0837

> <Gold.PLP.PLP>
-27.9351

> <Gold.PLP.part.hbond>
-6.8141

> <Gold.PLP.part.metal>
0.0000

> <Gold.PLP.part.buried>
-3.5581

> <Gold.PLP.part.nonpolar>
-22.5736

> <Gold.PLP.part.repulsive>
4.4846

> <Gold.PLP.ligand.clash>
0.0000

> <Gold.PLP.ligand.torsion>
0.3870

> <Gold.PLP.Chemscore.Hbond>
4.6501

> <Gold.PLP.Chemscore.CHOScore>
0.9829

> <Gold.PLP.Chemscore.Metal>
0.0000

> <Gold.Chemscore.Hbonds>
donor molecule, donor type, donor heavy atom, donor atom, acceptor molecule, acceptor atom, score
      L1  H    12    27       P1  7957  0.93
      L1  H    14    28       P1 10175  1.00
      L1  H    16    29       P1  8028  0.38
      P1  H  7954  7966       L1    12  0.68
      P1  H  7989  7998       L1    17  0.67
      P1  H  7997  8008       L1     3  1.00
      L1  C     6    24       P1  8028  0.92

> <Gold.PLP.Chemscore.Internal.Correction>
0.0236

> <Gold.Rescore>
     Score         DG    S(hbond)    S(metal)    S(lipo)     H(rot)  DE(clash)    DE(int)     intcor
      6.01      -7.42       2.96        0.00      20.97       4.06       1.24       0.18       ----

> <Gold.Chemscore.Fitness>
6.0064

> <Gold.Chemscore.DG>
-7.4217

> <Gold.Chemscore.ZeroCoef>
-5.4800

> <Gold.Chemscore.Hbond>
2.9587

> <Gold.Chemscore.Metal>
0.0000

> <Gold.Chemscore.Lipo>
20.9689

> <Gold.Chemscore.Internal_Hbond>
0.0000

> <Gold.Chemscore.DEClash>
1.2367

> <Gold.Chemscore.DEInternal>
0.1785

> <Gold.Chemscore.Rot>
4.0600

> <Gold.Chemscore.Internal.Correction>
   9.000000E+99

> <Gold.Chemscore.Hbonds>
donor molecule, donor type, donor heavy atom, donor atom, acceptor molecule, acceptor atom, score
      L1  H    12    27       P1  7957  0.86
      L1  H    14    28       P1 10175  0.98
      L1  H    16    29       P1  8028  0.02
      P1  H  7954  7966       L1    12  0.06
      P1  H  7989  7998       L1    17  0.02
      P1  H  7997  8008       L1     3  0.96

> <Gold.Chemscore.Hbond.Weighted>
-9.8819

> <Gold.Chemscore.Metal.Weighted>
-0.0000

> <Gold.Chemscore.Lipo.Weighted>
-2.4534

> <Gold.Chemscore.Internal_Hbond.Weighted>
0.0000

> <Gold.Chemscore.DEClash.Weighted>
1.2367

> <Gold.Chemscore.DEInternal.Weighted>
0.1785

> <Gold.Chemscore.Rot.Weighted>
10.3936

> <Gold.Chemscore.Internal.Correction.Weighted>
   9.000000E+99

> <Gold.Protein.RotatedTorsions>
[ 6907 6896 6895 6894 ] final   39.39 input  -60.11 | X-H torsion
[ 7974 7965 7964 7962 ] final  102.72 input  175.53 | X-H torsion
[ 8008 7997 7996 7995 ] final  -68.27 input   59.86 | X-H torsion
[ 10167 10162 10161 10158 ] final  -88.18 input  -65.29 | X-H torsion
[ 10718 10713 10712 10709 ] final   70.43 input   66.30 | X-H torsion
[ 10763 10752 10751 10750 ] final  -41.09 input  -60.55 | X-H torsion
[ 11005 11000 10999 10996 ] final   92.49 input  -57.11 | X-H torsion

> <Gold.Protein.ActiveResidues>
 VAL166  LYS551  ARG553  GLY616  TRP617  ASP618  TYR619  PRO620  LYS621  CYS622 
 ASP623  PHE694  ASN695  SER759  ASP760  ASP761  ALA762  ILE779  LEU786  VAL792 
 PHE793  MET794  SER795  GLU796  ALA797  LYS798  CYS799  TRP800  GLU811  SER814 

> <Gold.Protein.RotatedAtoms>
  152.1690  134.8850  160.0535 H   0  0  0  0  0  0  0  0  0  0  0  0  # atno 6907 bound_to 6896
  151.9817  133.3755  159.4118 H   0  0  0  0  0  0  0  0  0  0  0  0  # atno 6908 bound_to 6896
  150.6899  134.3954  159.5139 H   0  0  0  0  0  0  0  0  0  0  0  0  # atno 6909 bound_to 6896
  145.3553  139.2430  143.3536 H   0  0  0  0  0  0  0  0  0  0  0  0  # atno 7974 bound_to 7965
  154.4857  140.0876  156.7480 H   0  0  0  0  0  0  0  0  0  0  0  0  # atno 8008 bound_to 7997
  155.4357  140.3451  155.4266 H   0  0  0  0  0  0  0  0  0  0  0  0  # atno 8009 bound_to 7997
  156.1257  140.1487  156.9128 H   0  0  0  0  0  0  0  0  0  0  0  0  # atno 8010 bound_to 7997
  140.3772  143.2766  151.9428 H   0  0  0  0  0  0  0  0  0  0  0  0  # atno 10167 bound_to 10162
  157.6400  130.9477  150.0650 H   0  0  0  0  0  0  0  0  0  0  0  0  # atno 10718 bound_to 10713
  153.9567  135.6744  153.4744 H   0  0  0  0  0  0  0  0  0  0  0  0  # atno 10763 bound_to 10752
  153.0858  135.4900  154.8590 H   0  0  0  0  0  0  0  0  0  0  0  0  # atno 10764 bound_to 10752
  154.7295  135.3135  154.8874 H   0  0  0  0  0  0  0  0  0  0  0  0  # atno 10765 bound_to 10752
  139.8823  134.8736  156.3580 H   0  0  0  0  0  0  0  0  0  0  0  0  # atno 11005 bound_to 11000
  146.2950  140.4177  142.8725 LP  0  0  0  0  0  0  0  0  0  0  0  0  # atno 17320 bound_to 7965
  144.8687  140.7242  143.6061 LP  0  0  0  0  0  0  0  0  0  0  0  0  # atno 17321 bound_to 7965
  139.4798  144.5852  151.7865 LP  0  0  0  0  0  0  0  0  0  0  0  0  # atno 17342 bound_to 10162
  140.4974  144.1220  150.5963 LP  0  0  0  0  0  0  0  0  0  0  0  0  # atno 17343 bound_to 10162
  156.1671  130.3645  149.9216 LP  0  0  0  0  0  0  0  0  0  0  0  0  # atno 17370 bound_to 10713
  156.7201  130.9003  151.3617 LP  0  0  0  0  0  0  0  0  0  0  0  0  # atno 17371 bound_to 10713
  140.9549  133.7426  156.0322 LP  0  0  0  0  0  0  0  0  0  0  0  0  # atno 17394 bound_to 11000
  140.8061  134.3453  157.5425 LP  0  0  0  0  0  0  0  0  0  0  0  0  # atno 17395 bound_to 11000

$$$$
