#       Name:                AV-unprocessed.smi:911
#       Creating user name   scv26
#       Creation time:       Fri Mar 27 02:04:31 2020


#       File generated by GOLD software.
#

@<TRIPOS>MOLECULE
AV-unprocessed.smi:911
    53    55     1
SMALL
NO_CHARGES


@<TRIPOS>ATOM
      1 ****        -0.5184  -1.5683   0.1910 C.3            1 S1                 0.0000
      2 ****        -1.7604  -0.8860  -0.4499 C.3            1 S1                 0.0000
      3 ****        -2.2953  -1.9131  -1.4874 C.3            1 S1                 0.0000
      4 ****        -2.8149  -0.4031   0.5662 C.3            1 S1                 0.0000
      5 ****        -3.8622   0.3175  -0.3134 C.3            1 S1                 0.0000
      6 ****        -2.9898   0.9684  -1.4073 C.3            1 S1                 0.0000
      7 ****        -1.5539   0.5577  -0.9898 C.3            1 S1                 0.0000
      8 ****        -0.5408   0.7053  -2.1424 C.3            1 S1                 0.0000
      9 ****        -1.2491   1.4116   0.2815 C.3            1 S1                 0.0000
     10 ****         0.1721   1.4612   0.6122 N.am           1 S1                 0.0000
     11 ****         1.0000   2.5125   0.4958 C.2            1 S1                 0.0000
     12 ****         0.6258   3.6281   0.1374 O.2            1 S1                 0.0000
     13 ****         2.4909   2.2792   0.7980 C.3            1 S1                 0.0000
     14 ****         2.8396   0.8717   1.0691 N.am           1 S1                 0.0000
     15 ****         3.0920   0.0576  -0.0529 C.2            1 S1                 0.0000
     16 ****         3.3661  -1.2561   0.0620 C.2            1 S1                 0.0000
     17 ****         3.5865  -2.0821  -1.1042 N.pl3          1 S1                 1.0000
     18 ****         3.9046  -3.2557  -0.9420 O.2            1 S1                 0.0000
     19 ****         3.4448  -1.5878  -2.2187 O.2            1 S1                -1.0000
     20 ****         3.4105  -1.8208   1.3966 C.2            1 S1                 0.0000
     21 ****         3.1656  -1.0489   2.4738 C.2            1 S1                 0.0000
     22 ****         2.8479   0.3771   2.3447 C.2            1 S1                 0.0000
     23 ****         2.5924   1.0795   3.3224 O.2            1 S1                 0.0000
     24 ****        -2.0790   0.6940   1.3692 C.3            1 S1                 0.0000
     25 ****        -0.7820  -2.5485   0.5891 H              1 S1                 0.0000
     26 ****        -0.0634  -1.0290   1.0167 H              1 S1                 0.0000
     27 ****         0.2644  -1.7270  -0.5513 H              1 S1                 0.0000
     28 ****        -3.1737  -1.5956  -2.0446 H              1 S1                 0.0000
     29 ****        -2.5663  -2.8484  -0.9966 H              1 S1                 0.0000
     30 ****        -1.5294  -2.1505  -2.2264 H              1 S1                 0.0000
     31 ****        -3.2417  -1.1855   1.1945 H              1 S1                 0.0000
     32 ****        -4.5784  -0.3834  -0.7428 H              1 S1                 0.0000
     33 ****        -4.4354   1.0565   0.2477 H              1 S1                 0.0000
     34 ****        -3.2513   0.5883  -2.3951 H              1 S1                 0.0000
     35 ****        -3.1238   2.0499  -1.4495 H              1 S1                 0.0000
     36 ****        -0.4431   1.7488  -2.4425 H              1 S1                 0.0000
     37 ****        -0.8539   0.1392  -3.0195 H              1 S1                 0.0000
     38 ****         0.4498   0.3474  -1.8616 H              1 S1                 0.0000
     39 ****        -1.6182   2.4314   0.1584 H              1 S1                 0.0000
     40 ****         0.5794   0.5902   0.9198 H              1 S1                 0.0000
     41 ****         3.0702   2.6387  -0.0537 H              1 S1                 0.0000
     42 ****         2.7806   2.9257   1.6279 H              1 S1                 0.0000
     43 ****         3.0224   0.5718  -1.0009 H              1 S1                 0.0000
     44 ****         3.6399  -2.8662   1.5422 H              1 S1                 0.0000
     45 ****         3.2024  -1.4908   3.4589 H              1 S1                 0.0000
     46 ****        -2.7717   1.3740   1.8665 H              1 S1                 0.0000
     47 ****        -1.4529   0.2626   2.1509 H              1 S1                 0.0000
     48 ****        -0.3366   3.7855  -0.0837 LP             1 S1                 0.0000
     49 ****         1.2841   4.3776   0.0672 LP             1 S1                 0.0000
     50 ****         4.0065  -3.6229  -0.0175 LP             1 S1                 0.0000
     51 ****         4.0620  -3.8452  -1.7343 LP             1 S1                 0.0000
     52 ****         2.3691   2.0464   3.1988 LP             1 S1                 0.0000
     53 ****         2.6081   0.6834   4.2405 LP             1 S1                 0.0000
@<TRIPOS>BOND
    1    1    2 1     
    2    1   25 1     
    3    1   26 1     
    4    1   27 1     
    5    2    7 1     
    6    2    3 1     
    7    2    4 1     
    8    3   28 1     
    9    3   29 1     
   10    3   30 1     
   11    4   24 1     
   12    4    5 1     
   13    4   31 1     
   14    5    6 1     
   15    5   32 1     
   16    5   33 1     
   17    6    7 1     
   18    6   34 1     
   19    6   35 1     
   20    7    8 1     
   21    7    9 1     
   22    8   36 1     
   23    8   37 1     
   24    8   38 1     
   25    9   10 1     
   26    9   24 1     
   27    9   39 1     
   28   10   11 am    
   29   10   40 1     
   30   11   12 2     
   31   11   13 1     
   32   13   14 1     
   33   13   41 1     
   34   13   42 1     
   35   14   22 am    
   36   14   15 1     
   37   15   16 2     
   38   15   43 1     
   39   16   17 1     
   40   16   20 1     
   41   17   18 2     
   42   17   19 1     
   43   20   21 2     
   44   20   44 1     
   45   21   22 1     
   46   21   45 1     
   47   22   23 2     
   48   24   46 1     
   49   24   47 1     
   50   12   48 1     
   51   12   49 1     
   52   18   50 1     
   53   18   51 1     
   54   23   52 1     
   55   23   53 1     
@<TRIPOS>SUBSTRUCTURE
      1 S1             1
@<TRIPOS>SET
LONE_PAIRS      STATIC     ATOMS    <user>   **** ""
7 48 49 50 51 19 52 53
DONOR_HYDROGENS      STATIC     ATOMS    <user>   **** ""
1 40
ATOM$BLUE        STATIC     ATOMS    COLORGROUP SYSTEM
7 48 49 50 51 19 52 53
ATOM$RED        STATIC     ATOMS    COLORGROUP SYSTEM
1 40
