AV-unprocessed.smi:1449|AV-procd|sdf|5896|dock4
  -GOLD-   22720 5583D 1   1.00000     0.00000
 Structure written by MMmdl.
 34 35  0  0  0  0  0  0  0  0  1 V2000
  150.9921  138.5094  154.3470 C   0  0  0  0  0  0  0  0  0  0  0  0
  150.7454  139.9085  154.4326 O   0  0  0  0  0  0  0  0  0  0  0  0
  149.4372  140.3464  154.4041 C   0  0  0  0  0  0  0  0  0  0  0  0
  148.4090  139.3905  154.2869 C   0  0  0  0  0  0  0  0  0  0  0  0
  147.0710  139.8282  154.2555 C   0  0  0  0  0  0  0  0  0  0  0  0
  146.8024  141.2146  154.3518 C   0  0  0  0  0  0  0  0  0  0  0  0
  145.5023  141.7872  154.3137 N   0  0  0  0  0  0  0  0  0  0  0  0
  145.0070  142.8148  155.0313 C   0  0  0  0  0  0  0  0  0  0  0  0
  145.6494  143.4794  155.8410 O   0  0  0  0  0  0  0  0  0  0  0  0
  143.7180  143.0984  154.7714 N   0  0  0  0  0  0  0  0  0  0  0  0
  142.8790  144.1405  155.3654 C   0  0  1  0  0  0  0  0  0  0  0  0
  143.2819  145.5333  154.8459 C   0  0  0  0  0  0  0  0  0  0  0  0
  142.1733  146.5321  155.2004 C   0  0  0  0  0  0  0  0  0  0  0  0
  140.6085  145.5778  155.1945 S   0  0  0  0  0  0  0  0  0  0  0  0
  139.9762  145.6932  156.5174 O   0  0  0  0  0  0  0  0  0  0  0  0
  139.8549  145.8713  153.9663 O   0  0  0  0  0  0  0  0  0  0  0  0
  141.3922  143.9293  155.0372 C   0  0  0  0  0  0  0  0  0  0  0  0
  147.9035  142.0896  154.4547 C   0  0  0  0  0  0  0  0  0  0  0  0
  149.1881  141.6769  154.4849 N   0  0  0  0  0  0  0  0  0  0  0  0
  152.0666  138.3307  154.3834 H   0  0  0  0  0  0  0  0  0  0  0  0
  150.6199  138.0955  153.4088 H   0  0  0  0  0  0  0  0  0  0  0  0
  150.5395  137.9717  155.1813 H   0  0  0  0  0  0  0  0  0  0  0  0
  148.6423  138.3383  154.2169 H   0  0  0  0  0  0  0  0  0  0  0  0
  146.2881  139.0946  154.1448 H   0  0  0  0  0  0  0  0  0  0  0  0
  144.8787  141.3910  153.6257 H   0  0  0  0  0  0  0  0  0  0  0  0
  143.2750  142.5366  154.0586 H   0  0  0  0  0  0  0  0  0  0  0  0
  143.0038  144.1506  156.4497 H   0  0  0  0  0  0  0  0  0  0  0  0
  144.2472  145.8508  155.2416 H   0  0  0  0  0  0  0  0  0  0  0  0
  143.3807  145.4966  153.7599 H   0  0  0  0  0  0  0  0  0  0  0  0
  142.3190  146.9321  156.2041 H   0  0  0  0  0  0  0  0  0  0  0  0
  142.1110  147.3647  154.4994 H   0  0  0  0  0  0  0  0  0  0  0  0
  141.2589  143.5962  154.0072 H   0  0  0  0  0  0  0  0  0  0  0  0
  140.9008  143.2159  155.6992 H   0  0  0  0  0  0  0  0  0  0  0  0
  147.7505  143.1573  154.5176 H   0  0  0  0  0  0  0  0  0  0  0  0
  1  2  1  0  0  0  0
  1 20  1  0  0  0  0
  1 21  1  0  0  0  0
  1 22  1  0  0  0  0
  2  3  1  0  0  0  0
  3 19  1  0  0  0  0
  3  4  2  0  0  0  0
  4  5  1  0  0  0  0
  4 23  1  0  0  0  0
  5  6  2  0  0  0  0
  5 24  1  0  0  0  0
  6  7  1  0  0  0  0
  6 18  1  0  0  0  0
  7  8  1  0  0  0  0
  7 25  1  0  0  0  0
  8  9  2  0  0  0  0
  8 10  1  0  0  0  0
 10 11  1  0  0  0  0
 10 26  1  0  0  0  0
 11 17  1  0  0  0  0
 11 12  1  0  0  0  0
 11 27  1  0  0  0  0
 12 13  1  0  0  0  0
 12 28  1  0  0  0  0
 12 29  1  0  0  0  0
 13 14  1  0  0  0  0
 13 30  1  0  0  0  0
 13 31  1  0  0  0  0
 14 15  2  0  0  0  0
 14 16  2  0  0  0  0
 14 17  1  0  0  0  0
 17 32  1  0  0  0  0
 17 33  1  0  0  0  0
 18 19  2  0  0  0  0
 18 34  1  0  0  0  0
M  END
> <s_m_source_file>
AV-unprocessed.smi

> <i_m_source_file_index>
1449

> <i_lp_mmshare_version>
43012

> <i_f3d_flags>
0

> <s_epik_input>
W0NIM11PYzFbY0hdW2NIXWMoW2NIXW4xKVtOSF1DKD1PKVtOSF1bQ0BASF0oW0NIMl0yKVtDSDJdW0NIMl1TMig9Tyk9Tw==

> <s_epik_cmdline>
J2VwaWtfcHl0aG9uJywgJy1waCcsICc3LjAnLCAnLXRuJywgJzgnLCAnLW1hJywgJzIwMCcsICctbWV0YWxfYmluZGluZycsICctaW1hZScsICc8aW5maWxlLm1hZT4nLCAnLW9tYWUnLCAnPG91dGZpbGUubWFlPic=

> <r_lp_tautomer_probability>
1

> <r_epik_Ionization_Penalty>
7.6506e-05

> <r_epik_Ionization_Penalty_Charging>
0

> <r_epik_Ionization_Penalty_Neutral>
7.6506e-05

> <r_epik_State_Penalty>
-0

> <r_epik_Charging_Adjusted_Penalty>
0

> <i_epik_Tot_Q>
0

> <i_epik_Tot_abs_Q>
0

> <r_epik_Metal_State_Penalty>
-0

> <b_epik_Metal_Only>
0

> <s_lp_Force_Field>
OPLS_2005

> <r_lp_Energy>
18.5668

> <b_lp_Chiralities_Consistent>
1

> <s_lp_Variant>
AV-unprocessed.smi:1449-2

> <Gold.Version>
5.8.1

> <Gold.Id.Protein>
6NUR|6NUR_protein|mol2

> <Gold.PLP.Fitness>
37.6941

> <Gold.PLP.PLP>
-27.7588

> <Gold.PLP.part.hbond>
-4.6247

> <Gold.PLP.part.metal>
0.0000

> <Gold.PLP.part.buried>
-4.2782

> <Gold.PLP.part.nonpolar>
-20.1449

> <Gold.PLP.part.repulsive>
0.5267

> <Gold.PLP.ligand.clash>
0.7269

> <Gold.PLP.ligand.torsion>
0.4574

> <Gold.PLP.Chemscore.Hbond>
2.8581

> <Gold.PLP.Chemscore.CHOScore>
1.0000

> <Gold.PLP.Chemscore.Metal>
0.0000

> <Gold.Chemscore.Hbonds>
donor molecule, donor type, donor heavy atom, donor atom, acceptor molecule, acceptor atom, score
      L1  H     7    25       P1 10175  0.95
      L1  H    10    26       P1 10174  0.82
      P1  H  7989  7998       L1     2  1.00
      P1  H  8011  8017       L1    19  0.09
      L1  C    18    34       P1  8028  1.00

> <Gold.PLP.Chemscore.Internal.Correction>
0.0028

> <Gold.Rescore>
     Score         DG    S(hbond)    S(metal)    S(lipo)     H(rot)  DE(clash)    DE(int)     intcor
     11.37     -12.84       1.54        0.00      47.63       1.31       0.00       1.46       ----

> <Gold.Chemscore.Fitness>
11.3701

> <Gold.Chemscore.DG>
-12.8374

> <Gold.Chemscore.ZeroCoef>
-5.4800

> <Gold.Chemscore.Hbond>
1.5391

> <Gold.Chemscore.Metal>
0.0000

> <Gold.Chemscore.Lipo>
47.6308

> <Gold.Chemscore.Internal_Hbond>
0.0000

> <Gold.Chemscore.DEClash>
0.0038

> <Gold.Chemscore.DEInternal>
1.4635

> <Gold.Chemscore.Rot>
1.3109

> <Gold.Chemscore.Internal.Correction>
   9.000000E+99

> <Gold.Chemscore.Hbonds>
donor molecule, donor type, donor heavy atom, donor atom, acceptor molecule, acceptor atom, score
      L1  H     7    25       P1 10175  0.22
      L1  H    10    26       P1 10174  0.15
      P1  H  7989  7998       L1     2  0.65
      P1  H  8011  8017       L1    19  0.01

> <Gold.Chemscore.Hbond.Weighted>
-5.1405

> <Gold.Chemscore.Metal.Weighted>
-0.0000

> <Gold.Chemscore.Lipo.Weighted>
-5.5728

> <Gold.Chemscore.Internal_Hbond.Weighted>
0.0000

> <Gold.Chemscore.DEClash.Weighted>
0.0038

> <Gold.Chemscore.DEInternal.Weighted>
1.4635

> <Gold.Chemscore.Rot.Weighted>
3.3559

> <Gold.Chemscore.Internal.Correction.Weighted>
   9.000000E+99

> <Gold.Protein.RotatedTorsions>
[ 6907 6896 6895 6894 ] final  122.44 input  -60.11 | X-H torsion
[ 7974 7965 7964 7962 ] final -123.83 input  175.53 | X-H torsion
[ 8008 7997 7996 7995 ] final  -35.04 input   59.86 | X-H torsion
[ 10167 10162 10161 10158 ] final  106.55 input  -65.29 | X-H torsion
[ 10718 10713 10712 10709 ] final  106.68 input   66.30 | X-H torsion
[ 10763 10752 10751 10750 ] final  -63.66 input  -60.55 | X-H torsion
[ 11005 11000 10999 10996 ] final  -35.46 input  -57.11 | X-H torsion

> <Gold.Protein.ActiveResidues>
 VAL166  LYS551  ARG553  GLY616  TRP617  ASP618  TYR619  PRO620  LYS621  CYS622 
 ASP623  PHE694  ASN695  SER759  ASP760  ASP761  ALA762  ILE779  LEU786  VAL792 
 PHE793  MET794  SER795  GLU796  ALA797  LYS798  CYS799  TRP800  GLU811  SER814 

> <Gold.Protein.RotatedAtoms>
  152.4242  133.7168  159.6509 H   0  0  0  0  0  0  0  0  0  0  0  0  # atno 6907 bound_to 6896
  150.8119  133.8396  159.3184 H   0  0  0  0  0  0  0  0  0  0  0  0  # atno 6908 bound_to 6896
  151.6104  135.1042  160.0131 H   0  0  0  0  0  0  0  0  0  0  0  0  # atno 6909 bound_to 6896
  145.0145  140.7935  143.4418 H   0  0  0  0  0  0  0  0  0  0  0  0  # atno 7974 bound_to 7965
  154.4105  140.1668  156.2146 H   0  0  0  0  0  0  0  0  0  0  0  0  # atno 8008 bound_to 7997
  155.9415  140.3407  155.6308 H   0  0  0  0  0  0  0  0  0  0  0  0  # atno 8009 bound_to 7997
  155.6983  140.0742  157.2411 H   0  0  0  0  0  0  0  0  0  0  0  0  # atno 8010 bound_to 7997
  139.7000  144.7095  151.1202 H   0  0  0  0  0  0  0  0  0  0  0  0  # atno 10167 bound_to 10162
  157.6658  131.0856  150.6043 H   0  0  0  0  0  0  0  0  0  0  0  0  # atno 10718 bound_to 10713
  154.3184  135.6201  153.5497 H   0  0  0  0  0  0  0  0  0  0  0  0  # atno 10763 bound_to 10752
  152.9822  135.5718  154.5098 H   0  0  0  0  0  0  0  0  0  0  0  0  # atno 10764 bound_to 10752
  154.4761  135.2861  155.1582 H   0  0  0  0  0  0  0  0  0  0  0  0  # atno 10765 bound_to 10752
  140.9797  133.7063  156.1663 H   0  0  0  0  0  0  0  0  0  0  0  0  # atno 11005 bound_to 11000
  145.1978  139.2268  143.5209 LP  0  0  0  0  0  0  0  0  0  0  0  0  # atno 17320 bound_to 7965
  146.3475  140.1788  142.8589 LP  0  0  0  0  0  0  0  0  0  0  0  0  # atno 17321 bound_to 7965
  140.7707  143.5438  150.9282 LP  0  0  0  0  0  0  0  0  0  0  0  0  # atno 17342 bound_to 10162
  139.9119  143.6710  152.3113 LP  0  0  0  0  0  0  0  0  0  0  0  0  # atno 17343 bound_to 10162
  156.6344  130.4441  149.5775 LP  0  0  0  0  0  0  0  0  0  0  0  0  # atno 17370 bound_to 10713
  156.2257  130.6764  151.1413 LP  0  0  0  0  0  0  0  0  0  0  0  0  # atno 17371 bound_to 10713
  140.7204  134.4364  157.5575 LP  0  0  0  0  0  0  0  0  0  0  0  0  # atno 17394 bound_to 11000
  139.8945  134.8705  156.2173 LP  0  0  0  0  0  0  0  0  0  0  0  0  # atno 17395 bound_to 11000

$$$$
