AV-unprocessed.smi:1406|AV-procd|sdf|5710|dock1
  -GOLD-   22720 5343D 1   1.00000     0.00000
 Structure written by MMmdl.
 41 43  0  0  0  0  0  0  0  0  2 V2000
  146.4240  138.0386  151.5160 C   0  0  0  0  0  0  0  0  0  0  0  0
  145.9661  137.7369  152.9575 C   0  0  1  0  0  0  0  0  0  0  0  0
  145.7586  136.2354  153.2230 C   0  0  0  0  0  0  0  0  0  0  0  0
  144.6959  135.8132  153.6805 O   0  0  0  0  0  0  0  0  0  0  0  0
  146.7920  135.4316  152.9274 N   0  0  0  0  0  0  0  0  0  0  0  0
  146.7740  133.9779  153.0385 C   0  0  2  0  0  0  0  0  0  0  0  0
  147.8779  133.4030  153.9386 C   0  0  0  0  0  0  0  0  0  0  0  0
  148.3298  132.1014  153.2459 C   0  0  0  0  0  0  0  0  0  0  0  0
  147.4680  131.9296  152.0529 N   0  3  1  0  0  0  0  0  0  0  0  0
  146.3473  130.9815  152.3037 C   0  0  0  0  0  0  0  0  0  0  0  0
  145.3225  130.9830  151.1619 C   0  0  0  0  0  0  0  0  0  0  0  0
  144.7620  132.3926  150.9568 C   0  0  0  0  0  0  0  0  0  0  0  0
  145.9104  133.3588  150.6469 C   0  0  0  0  0  0  0  0  0  0  0  0
  147.0478  133.3050  151.6914 C   0  0  1  0  0  0  0  0  0  0  0  0
  146.8762  138.3088  153.9435 N   0  0  0  0  0  0  0  0  0  0  0  0
  148.1533  138.6778  153.8216 C   0  0  0  0  0  0  0  0  0  0  0  0
  148.6662  139.2136  154.9200 N   0  0  0  0  0  0  0  0  0  0  0  0
  147.5759  139.1415  155.7399 C   0  0  0  0  0  0  0  0  0  0  0  0
  146.4747  138.6180  155.2018 N   0  0  0  0  0  0  0  0  0  0  0  0
  145.6983  137.6759  150.7871 H   0  0  0  0  0  0  0  0  0  0  0  0
  147.3842  137.5741  151.2874 H   0  0  0  0  0  0  0  0  0  0  0  0
  146.5320  139.1124  151.3596 H   0  0  0  0  0  0  0  0  0  0  0  0
  144.9969  138.2180  153.0983 H   0  0  0  0  0  0  0  0  0  0  0  0
  147.6324  135.8546  152.5607 H   0  0  0  0  0  0  0  0  0  0  0  0
  145.8011  133.6529  153.4120 H   0  0  0  0  0  0  0  0  0  0  0  0
  148.7217  134.0893  154.0235 H   0  0  0  0  0  0  0  0  0  0  0  0
  147.5033  133.2181  154.9459 H   0  0  0  0  0  0  0  0  0  0  0  0
  149.3625  132.2056  152.9108 H   0  0  0  0  0  0  0  0  0  0  0  0
  148.2943  131.2403  153.9150 H   0  0  0  0  0  0  0  0  0  0  0  0
  146.7545  129.9782  152.4339 H   0  0  0  0  0  0  0  0  0  0  0  0
  145.8456  131.2365  153.2387 H   0  0  0  0  0  0  0  0  0  0  0  0
  145.7873  130.6268  150.2417 H   0  0  0  0  0  0  0  0  0  0  0  0
  144.5117  130.2904  151.3895 H   0  0  0  0  0  0  0  0  0  0  0  0
  144.0396  132.3956  150.1402 H   0  0  0  0  0  0  0  0  0  0  0  0
  144.2248  132.7169  151.8488 H   0  0  0  0  0  0  0  0  0  0  0  0
  146.3231  133.1022  149.6702 H   0  0  0  0  0  0  0  0  0  0  0  0
  145.5306  134.3769  150.5525 H   0  0  0  0  0  0  0  0  0  0  0  0
  147.9209  133.7897  151.2489 H   0  0  0  0  0  0  0  0  0  0  0  0
  148.7175  138.5599  152.9081 H   0  0  0  0  0  0  0  0  0  0  0  0
  147.5920  139.4924  156.7614 H   0  0  0  0  0  0  0  0  0  0  0  0
  148.0165  131.5489  151.2949 H   0  0  0  0  0  0  0  0  0  0  0  0
  1  2  1  0  0  0  0
  1 20  1  0  0  0  0
  1 21  1  0  0  0  0
  1 22  1  0  0  0  0
  2  3  1  0  0  0  0
  2 15  1  0  0  0  0
  2 23  1  0  0  0  0
  3  4  2  0  0  0  0
  3  5  1  0  0  0  0
  5  6  1  0  0  0  0
  5 24  1  0  0  0  0
  6 14  1  0  0  0  0
  6  7  1  0  0  0  0
  6 25  1  0  0  0  0
  7  8  1  0  0  0  0
  7 26  1  0  0  0  0
  7 27  1  0  0  0  0
  8  9  1  0  0  0  0
  8 28  1  0  0  0  0
  8 29  1  0  0  0  0
  9 14  1  0  0  0  0
  9 10  1  0  0  0  0
  9 41  1  0  0  0  0
 10 11  1  0  0  0  0
 10 30  1  0  0  0  0
 10 31  1  0  0  0  0
 11 12  1  0  0  0  0
 11 32  1  0  0  0  0
 11 33  1  0  0  0  0
 12 13  1  0  0  0  0
 12 34  1  0  0  0  0
 12 35  1  0  0  0  0
 13 14  1  0  0  0  0
 13 36  1  0  0  0  0
 13 37  1  0  0  0  0
 14 38  1  0  0  0  0
 15 19  1  0  0  0  0
 15 16  1  0  0  0  0
 16 17  2  0  0  0  0
 16 39  1  0  0  0  0
 17 18  1  0  0  0  0
 18 19  2  0  0  0  0
 18 40  1  0  0  0  0
M  CHG  1   9   1
M  END
> <s_m_source_file>
AV-unprocessed.smi

> <i_m_source_file_index>
1406

> <i_lp_mmshare_version>
43012

> <i_f3d_flags>
0

> <s_epik_input>
bjFbY0hdbltjSF1uMVtDQEhdKFtDSDNdKUMoPU8pW05IXVtDQEhdKFtDSDJdW0NIMl0yKVtDQEBIXShOMjMpW0NIMl1bQ0gyXVtDSDJdW0NIMl0z

> <s_epik_cmdline>
J2VwaWtfcHl0aG9uJywgJy1waCcsICc3LjAnLCAnLXRuJywgJzgnLCAnLW1hJywgJzIwMCcsICctbWV0YWxfYmluZGluZycsICctaW1hZScsICc8aW5maWxlLm1hZT4nLCAnLW9tYWUnLCAnPG91dGZpbGUubWFlPic=

> <r_lp_tautomer_probability>
1

> <r_epik_Ionization_Penalty>
0.00197066

> <r_epik_Ionization_Penalty_Charging>
0.00196223

> <r_epik_Ionization_Penalty_Neutral>
8.43107e-06

> <r_epik_State_Penalty>
0.00133866

> <r_epik_Charging_Adjusted_Penalty>
0.00330089

> <i_epik_Tot_Q>
1

> <i_epik_Tot_abs_Q>
1

> <r_epik_Metal_State_Penalty>
-0

> <b_epik_Metal_Only>
0

> <s_lp_Force_Field>
OPLS_2005

> <r_lp_Energy>
42.7017

> <b_lp_Chiralities_Consistent>
1

> <s_lp_Variant>
AV-unprocessed.smi:1406-2

> <Gold.Version>
5.8.1

> <Gold.Id.Protein>
6NUR|6NUR_protein|mol2

> <Gold.PLP.Fitness>
36.3990

> <Gold.PLP.PLP>
-26.3520

> <Gold.PLP.part.hbond>
-1.9669

> <Gold.PLP.part.metal>
0.0000

> <Gold.PLP.part.buried>
-1.3333

> <Gold.PLP.part.nonpolar>
-24.0234

> <Gold.PLP.part.repulsive>
0.1816

> <Gold.PLP.ligand.clash>
0.0000

> <Gold.PLP.ligand.torsion>
0.7318

> <Gold.PLP.Chemscore.Hbond>
1.9913

> <Gold.PLP.Chemscore.CHOScore>
1.8107

> <Gold.PLP.Chemscore.Metal>
0.0000

> <Gold.Chemscore.Hbonds>
donor molecule, donor type, donor heavy atom, donor atom, acceptor molecule, acceptor atom, score
      L1  H     5    24       P1  7948  0.99
      L1  H     9    41       P1 10747  1.00
      L1  C    16    39       P1  7948  0.81
      L1  C    16    39       P1  7957  1.00

> <Gold.PLP.Chemscore.Internal.Correction>
0.1048

> <Gold.Rescore>
     Score         DG    S(hbond)    S(metal)    S(lipo)     H(rot)  DE(clash)    DE(int)     intcor
     14.95     -15.25       1.99        0.00      68.08       1.89       0.13       0.17       ----

> <Gold.Chemscore.Fitness>
14.9484

> <Gold.Chemscore.DG>
-15.2480

> <Gold.Chemscore.ZeroCoef>
-5.4800

> <Gold.Chemscore.Hbond>
1.9858

> <Gold.Chemscore.Metal>
0.0000

> <Gold.Chemscore.Lipo>
68.0757

> <Gold.Chemscore.Internal_Hbond>
0.0000

> <Gold.Chemscore.DEClash>
0.1274

> <Gold.Chemscore.DEInternal>
0.1722

> <Gold.Chemscore.Rot>
1.8865

> <Gold.Chemscore.Internal.Correction>
   9.000000E+99

> <Gold.Chemscore.Hbonds>
donor molecule, donor type, donor heavy atom, donor atom, acceptor molecule, acceptor atom, score
      L1  H     5    24       P1  7948  0.92
      L1  H     9    41       P1 10747  0.96

> <Gold.Chemscore.Hbond.Weighted>
-6.6326

> <Gold.Chemscore.Metal.Weighted>
-0.0000

> <Gold.Chemscore.Lipo.Weighted>
-7.9649

> <Gold.Chemscore.Internal_Hbond.Weighted>
0.0000

> <Gold.Chemscore.DEClash.Weighted>
0.1274

> <Gold.Chemscore.DEInternal.Weighted>
0.1722

> <Gold.Chemscore.Rot.Weighted>
4.8295

> <Gold.Chemscore.Internal.Correction.Weighted>
   9.000000E+99

> <Gold.Protein.RotatedTorsions>
[ 6907 6896 6895 6894 ] final  -55.16 input  -60.11 | X-H torsion
[ 7974 7965 7964 7962 ] final   73.71 input  175.53 | X-H torsion
[ 8008 7997 7996 7995 ] final  -94.17 input   59.86 | X-H torsion
[ 10167 10162 10161 10158 ] final -127.96 input  -65.29 | X-H torsion
[ 10718 10713 10712 10709 ] final    1.66 input   66.30 | X-H torsion
[ 10763 10752 10751 10750 ] final  116.51 input  -60.55 | X-H torsion
[ 11005 11000 10999 10996 ] final -111.84 input  -57.11 | X-H torsion

> <Gold.Protein.ActiveResidues>
 VAL166  LYS551  ARG553  GLY616  TRP617  ASP618  TYR619  PRO620  LYS621  CYS622 
 ASP623  PHE694  ASN695  SER759  ASP760  ASP761  ALA762  ILE779  LEU786  VAL792 
 PHE793  MET794  SER795  GLU796  ALA797  LYS798  CYS799  TRP800  GLU811  SER814 

> <Gold.Protein.RotatedAtoms>
  150.8275  134.7513  159.6825 H   0  0  0  0  0  0  0  0  0  0  0  0  # atno 6907 bound_to 6896
  152.4384  134.5636  159.9911 H   0  0  0  0  0  0  0  0  0  0  0  0  # atno 6908 bound_to 6896
  151.5805  133.3341  159.3043 H   0  0  0  0  0  0  0  0  0  0  0  0  # atno 6909 bound_to 6896
  145.7374  139.2707  143.1506 H   0  0  0  0  0  0  0  0  0  0  0  0  # atno 7974 bound_to 7965
  154.7450  140.0492  157.0844 H   0  0  0  0  0  0  0  0  0  0  0  0  # atno 8008 bound_to 7997
  155.0130  140.3138  155.4803 H   0  0  0  0  0  0  0  0  0  0  0  0  # atno 8009 bound_to 7997
  156.2873  140.2181  156.5245 H   0  0  0  0  0  0  0  0  0  0  0  0  # atno 8010 bound_to 7997
  139.9553  143.6010  152.2462 H   0  0  0  0  0  0  0  0  0  0  0  0  # atno 10167 bound_to 10162
  156.8514  130.5555  149.5669 H   0  0  0  0  0  0  0  0  0  0  0  0  # atno 10718 bound_to 10713
  153.5383  135.3564  155.2707 H   0  0  0  0  0  0  0  0  0  0  0  0  # atno 10763 bound_to 10752
  154.8720  135.4085  154.3073 H   0  0  0  0  0  0  0  0  0  0  0  0  # atno 10764 bound_to 10752
  153.3775  135.7067  153.6658 H   0  0  0  0  0  0  0  0  0  0  0  0  # atno 10765 bound_to 10752
  141.0710  133.9379  157.2484 H   0  0  0  0  0  0  0  0  0  0  0  0  # atno 11005 bound_to 11000
  146.0480  140.8098  142.9796 LP  0  0  0  0  0  0  0  0  0  0  0  0  # atno 17320 bound_to 7965
  144.6878  140.3010  143.7263 LP  0  0  0  0  0  0  0  0  0  0  0  0  # atno 17321 bound_to 7965
  139.6596  144.7662  151.1988 LP  0  0  0  0  0  0  0  0  0  0  0  0  # atno 17342 bound_to 10162
  140.7570  143.6031  150.8680 LP  0  0  0  0  0  0  0  0  0  0  0  0  # atno 17343 bound_to 10162
  156.0826  130.5832  150.9590 LP  0  0  0  0  0  0  0  0  0  0  0  0  # atno 17370 bound_to 10713
  157.6301  131.0922  150.8458 LP  0  0  0  0  0  0  0  0  0  0  0  0  # atno 17371 bound_to 10713
  139.9524  135.0173  156.9031 LP  0  0  0  0  0  0  0  0  0  0  0  0  # atno 17394 bound_to 11000
  140.5672  134.0477  155.7418 LP  0  0  0  0  0  0  0  0  0  0  0  0  # atno 17395 bound_to 11000

$$$$
