AV-unprocessed.smi:1208|AV-procd|sdf|5062|dock5
  -GOLD-   22720 4103D 1   1.00000     0.00000
 Structure written by MMmdl.
 35 36  0  0  0  0  0  0  0  0  2 V2000
  151.2909  145.2972  159.2397 C   0  0  0  0  0  0  0  0  0  0  0  0
  151.4999  143.7785  159.3232 C   0  0  1  0  0  0  0  0  0  0  0  0
  151.6230  143.2424  157.9699 N   0  0  0  0  0  0  0  0  0  0  0  0
  151.4678  141.9576  157.6139 C   0  0  0  0  0  0  0  0  0  0  0  0
  151.1122  141.0721  158.3923 O   0  0  0  0  0  0  0  0  0  0  0  0
  151.7661  141.6247  156.1484 C   0  0  0  0  0  0  0  0  0  0  0  0
  151.8160  140.1729  155.9355 N   0  0  0  0  0  0  0  0  0  0  0  0
  152.7861  139.4940  156.7916 N   0  5  0  0  0  0  0  0  0  0  0  0
  152.8554  138.1369  156.7675 C   0  0  0  0  0  0  0  0  0  0  0  0
  153.6173  137.4959  157.4877 O   0  0  0  0  0  0  0  0  0  0  0  0
  151.9902  137.4246  155.8420 C   0  0  0  0  0  0  0  0  0  0  0  0
  151.1305  138.0793  155.0368 C   0  0  0  0  0  0  0  0  0  0  0  0
  151.0017  139.5316  155.0493 C   0  0  0  0  0  0  0  0  0  0  0  0
  150.2090  140.1334  154.3251 O   0  0  0  0  0  0  0  0  0  0  0  0
  152.7500  143.4156  160.1530 C   0  0  2  0  0  0  0  0  0  0  0  0
  153.0751  141.9210  160.2248 C   0  0  0  0  0  0  0  0  0  0  0  0
  153.8941  141.8478  161.4918 C   0  0  0  0  0  0  0  0  0  0  0  0
  153.1685  142.8475  162.3873 C   0  0  0  0  0  0  0  0  0  0  0  0
  152.5825  143.8100  161.5135 O   0  0  0  0  0  0  0  0  0  0  0  0
  151.1630  145.7317  160.2314 H   0  0  0  0  0  0  0  0  0  0  0  0
  150.4002  145.5394  158.6591 H   0  0  0  0  0  0  0  0  0  0  0  0
  152.1416  145.7905  158.7683 H   0  0  0  0  0  0  0  0  0  0  0  0
  150.6233  143.3508  159.8127 H   0  0  0  0  0  0  0  0  0  0  0  0
  151.9214  143.8887  157.2536 H   0  0  0  0  0  0  0  0  0  0  0  0
  151.0048  142.0869  155.5179 H   0  0  0  0  0  0  0  0  0  0  0  0
  152.7095  142.0831  155.8448 H   0  0  0  0  0  0  0  0  0  0  0  0
  152.0406  136.3467  155.7967 H   0  0  0  0  0  0  0  0  0  0  0  0
  150.5084  137.5091  154.3631 H   0  0  0  0  0  0  0  0  0  0  0  0
  153.6222  143.9430  159.7624 H   0  0  0  0  0  0  0  0  0  0  0  0
  152.1637  141.3317  160.3365 H   0  0  0  0  0  0  0  0  0  0  0  0
  153.6120  141.5575  159.3476 H   0  0  0  0  0  0  0  0  0  0  0  0
  153.9399  140.8455  161.9183 H   0  0  0  0  0  0  0  0  0  0  0  0
  154.9132  142.1848  161.2968 H   0  0  0  0  0  0  0  0  0  0  0  0
  152.3687  142.3538  162.9404 H   0  0  0  0  0  0  0  0  0  0  0  0
  153.8373  143.3188  163.1078 H   0  0  0  0  0  0  0  0  0  0  0  0
  1  2  1  0  0  0  0
  1 20  1  0  0  0  0
  1 21  1  0  0  0  0
  1 22  1  0  0  0  0
  2  3  1  0  0  0  0
  2 15  1  0  0  0  0
  2 23  1  0  0  0  0
  3  4  1  0  0  0  0
  3 24  1  0  0  0  0
  4  5  2  0  0  0  0
  4  6  1  0  0  0  0
  6 25  1  0  0  0  0
  6 26  1  0  0  0  0
  6  7  1  0  0  0  0
  7  8  1  0  0  0  0
  7 13  1  0  0  0  0
  8  9  1  0  0  0  0
  9 10  2  0  0  0  0
  9 11  1  0  0  0  0
 11 27  1  0  0  0  0
 11 12  2  0  0  0  0
 12 28  1  0  0  0  0
 12 13  1  0  0  0  0
 13 14  2  0  0  0  0
 15 19  1  0  0  0  0
 15 16  1  0  0  0  0
 15 29  1  0  0  0  0
 16 17  1  0  0  0  0
 16 30  1  0  0  0  0
 16 31  1  0  0  0  0
 17 18  1  0  0  0  0
 17 32  1  0  0  0  0
 17 33  1  0  0  0  0
 18 19  1  0  0  0  0
 18 34  1  0  0  0  0
 18 35  1  0  0  0  0
M  CHG  1   8  -1
M  END
> <s_m_source_file>
AV-unprocessed.smi

> <i_m_source_file_index>
1208

> <i_lp_mmshare_version>
43012

> <i_f3d_flags>
0

> <s_epik_input>
TzFbQ0gyXVtDSDJdW0NIMl1bQ0BIXTFbQ0BIXShbQ0gzXSlbTkhdQyg9TylbQ0gyXW4yW25IXWMoPU8pW2NIXVtjSF1jMj1P

> <s_epik_cmdline>
J2VwaWtfcHl0aG9uJywgJy1waCcsICc3LjAnLCAnLXRuJywgJzgnLCAnLW1hJywgJzIwMCcsICctbWV0YWxfYmluZGluZycsICctaW1hZScsICc8aW5maWxlLm1hZT4nLCAnLW9tYWUnLCAnPG91dGZpbGUubWFlPic=

> <r_lp_tautomer_probability>
1

> <r_epik_Ionization_Penalty>
0.0975494

> <r_epik_Ionization_Penalty_Charging>
0.0975494

> <r_epik_Ionization_Penalty_Neutral>
2.30132e-08

> <r_epik_State_Penalty>
0.034345

> <r_epik_Charging_Adjusted_Penalty>
0.131894

> <i_epik_Tot_Q>
-1

> <i_epik_Tot_abs_Q>
1

> <r_epik_Metal_State_Penalty>
0.034345

> <b_epik_Metal_Only>
0

> <s_lp_Force_Field>
OPLS_2005

> <r_lp_Energy>
33.0818

> <b_lp_Chiralities_Consistent>
1

> <s_lp_Variant>
AV-unprocessed.smi:1208-2

> <Gold.Version>
5.8.1

> <Gold.Id.Protein>
6NUR|6NUR_protein|mol2

> <Gold.PLP.Fitness>
45.5516

> <Gold.PLP.PLP>
-37.2750

> <Gold.PLP.part.hbond>
-2.0000

> <Gold.PLP.part.metal>
0.0000

> <Gold.PLP.part.buried>
-6.2752

> <Gold.PLP.part.nonpolar>
-28.5670

> <Gold.PLP.part.repulsive>
0.2743

> <Gold.PLP.ligand.clash>
0.0000

> <Gold.PLP.ligand.torsion>
0.3667

> <Gold.PLP.Chemscore.Hbond>
3.0000

> <Gold.PLP.Chemscore.CHOScore>
0.0000

> <Gold.PLP.Chemscore.Metal>
0.0000

> <Gold.Chemscore.Hbonds>
donor molecule, donor type, donor heavy atom, donor atom, acceptor molecule, acceptor atom, score
      P1  H  7989  7998       L1    14  0.45
      P1  H  7997  8010       L1     8  2.00

> <Gold.PLP.Chemscore.Internal.Correction>
0.0101

> <Gold.Rescore>
     Score         DG    S(hbond)    S(metal)    S(lipo)     H(rot)  DE(clash)    DE(int)     intcor
     10.61     -14.09       1.10        0.00      85.84       1.99       1.61       1.87       ----

> <Gold.Chemscore.Fitness>
10.6110

> <Gold.Chemscore.DG>
-14.0904

> <Gold.Chemscore.ZeroCoef>
-5.4800

> <Gold.Chemscore.Hbond>
1.0993

> <Gold.Chemscore.Metal>
0.0000

> <Gold.Chemscore.Lipo>
85.8402

> <Gold.Chemscore.Internal_Hbond>
0.0000

> <Gold.Chemscore.DEClash>
1.6118

> <Gold.Chemscore.DEInternal>
1.8675

> <Gold.Chemscore.Rot>
1.9940

> <Gold.Chemscore.Internal.Correction>
   9.000000E+99

> <Gold.Chemscore.Hbonds>
donor molecule, donor type, donor heavy atom, donor atom, acceptor molecule, acceptor atom, score
      P1  H  7989  7998       L1    14  0.02
      P1  H  7997  8010       L1     8  0.51

> <Gold.Chemscore.Hbond.Weighted>
-3.6718

> <Gold.Chemscore.Metal.Weighted>
-0.0000

> <Gold.Chemscore.Lipo.Weighted>
-10.0433

> <Gold.Chemscore.Internal_Hbond.Weighted>
0.0000

> <Gold.Chemscore.DEClash.Weighted>
1.6118

> <Gold.Chemscore.DEInternal.Weighted>
1.8675

> <Gold.Chemscore.Rot.Weighted>
5.1047

> <Gold.Chemscore.Internal.Correction.Weighted>
   9.000000E+99

> <Gold.Protein.RotatedTorsions>
[ 6907 6896 6895 6894 ] final  122.92 input  -60.11 | X-H torsion
[ 7974 7965 7964 7962 ] final   98.96 input  175.53 | X-H torsion
[ 8008 7997 7996 7995 ] final   62.43 input   59.86 | X-H torsion
[ 10167 10162 10161 10158 ] final  -86.78 input  -65.29 | X-H torsion
[ 10718 10713 10712 10709 ] final   71.44 input   66.30 | X-H torsion
[ 10763 10752 10751 10750 ] final  -97.27 input  -60.55 | X-H torsion
[ 11005 11000 10999 10996 ] final  109.23 input  -57.11 | X-H torsion

> <Gold.Protein.ActiveResidues>
 VAL166  LYS551  ARG553  GLY616  TRP617  ASP618  TYR619  PRO620  LYS621  CYS622 
 ASP623  PHE694  ASN695  SER759  ASP760  ASP761  ALA762  ILE779  LEU786  VAL792 
 PHE793  MET794  SER795  GLU796  ALA797  LYS798  CYS799  TRP800  GLU811  SER814 

> <Gold.Protein.RotatedAtoms>
  152.4204  133.7107  159.6476 H   0  0  0  0  0  0  0  0  0  0  0  0  # atno 6907 bound_to 6896
  150.8080  133.8463  159.3202 H   0  0  0  0  0  0  0  0  0  0  0  0  # atno 6908 bound_to 6896
  151.6181  135.1036  160.0147 H   0  0  0  0  0  0  0  0  0  0  0  0  # atno 6909 bound_to 6896
  145.4052  139.2341  143.3278 H   0  0  0  0  0  0  0  0  0  0  0  0  # atno 7974 bound_to 7965
  155.6142  140.3495  155.4632 H   0  0  0  0  0  0  0  0  0  0  0  0  # atno 8008 bound_to 7997
  156.0130  140.1237  157.0459 H   0  0  0  0  0  0  0  0  0  0  0  0  # atno 8009 bound_to 7997
  154.4287  140.1078  156.5842 H   0  0  0  0  0  0  0  0  0  0  0  0  # atno 8010 bound_to 7997
  140.3909  143.2705  151.9266 H   0  0  0  0  0  0  0  0  0  0  0  0  # atno 10167 bound_to 10162
  157.6452  130.9528  150.0790 H   0  0  0  0  0  0  0  0  0  0  0  0  # atno 10718 bound_to 10713
  154.7314  135.5052  153.8969 H   0  0  0  0  0  0  0  0  0  0  0  0  # atno 10763 bound_to 10752
  153.0953  135.6670  153.9784 H   0  0  0  0  0  0  0  0  0  0  0  0  # atno 10764 bound_to 10752
  153.9584  135.3050  155.3414 H   0  0  0  0  0  0  0  0  0  0  0  0  # atno 10765 bound_to 10752
  139.8858  134.9452  156.6093 H   0  0  0  0  0  0  0  0  0  0  0  0  # atno 11005 bound_to 11000
  146.2732  140.4755  142.8806 LP  0  0  0  0  0  0  0  0  0  0  0  0  # atno 17320 bound_to 7965
  144.8347  140.6762  143.6268 LP  0  0  0  0  0  0  0  0  0  0  0  0  # atno 17321 bound_to 7965
  139.4789  144.5728  151.8060 LP  0  0  0  0  0  0  0  0  0  0  0  0  # atno 17342 bound_to 10162
  140.4841  144.1407  150.5938 LP  0  0  0  0  0  0  0  0  0  0  0  0  # atno 17343 bound_to 10162
  156.1772  130.3648  149.9085 LP  0  0  0  0  0  0  0  0  0  0  0  0  # atno 17370 bound_to 10713
  156.7046  130.8946  151.3603 LP  0  0  0  0  0  0  0  0  0  0  0  0  # atno 17371 bound_to 10713
  140.7823  133.8649  155.8578 LP  0  0  0  0  0  0  0  0  0  0  0  0  # atno 17394 bound_to 11000
  140.9749  134.1482  157.4545 LP  0  0  0  0  0  0  0  0  0  0  0  0  # atno 17395 bound_to 11000

$$$$
