AV-unprocessed.smi:1205|AV-procd|sdf|5044|dock8
  -GOLD-   22720 4 73D 1   1.00000     0.00000
 Structure written by MMmdl.
 49 50  0  0  0  0  0  0  0  0  2 V2000
  140.9115  138.3025  153.4596 C   0  0  0  0  0  0  0  0  0  0  0  0
  141.9959  137.2730  153.3366 C   0  0  0  0  0  0  0  0  0  0  0  0
  142.1035  136.0264  154.0186 C   0  0  0  0  0  0  0  0  0  0  0  0
  143.2726  135.5132  153.5269 C   0  0  0  0  0  0  0  0  0  0  0  0
  143.8819  134.3368  153.8332 N   0  0  0  0  0  0  0  0  0  0  0  0
  145.1917  134.0875  154.0056 C   0  0  0  0  0  0  0  0  0  0  0  0
  146.0925  134.9244  153.9488 O   0  0  0  0  0  0  0  0  0  0  0  0
  145.4081  132.7868  154.2518 N   0  0  0  0  0  0  0  0  0  0  0  0
  146.7097  132.1760  154.5102 C   0  0  0  0  0  0  0  0  0  0  0  0
  147.5140  131.9155  153.2100 C   0  0  1  0  0  0  0  0  0  0  0  0
  148.8096  132.7440  153.1130 C   0  0  0  0  0  0  0  0  0  0  0  0
  147.8101  130.4701  152.9851 N   0  3  1  0  0  0  0  0  0  0  0  0
  148.8843  129.8958  153.8401 C   0  0  0  0  0  0  0  0  0  0  0  0
  149.2843  128.4977  153.3436 C   0  0  0  0  0  0  0  0  0  0  0  0
  148.0646  127.5658  153.2822 C   0  0  0  0  0  0  0  0  0  0  0  0
  146.9211  128.1888  152.4584 C   0  0  2  0  0  0  0  0  0  0  0  0
  147.1958  128.1652  150.9443 C   0  0  0  0  0  0  0  0  0  0  0  0
  146.5973  129.6085  152.9688 C   0  0  0  0  0  0  0  0  0  0  0  0
  143.8057  136.4077  152.6235 N   0  0  0  0  0  0  0  0  0  0  0  0
  145.0218  136.3293  151.8369 C   0  0  0  0  0  0  0  0  0  0  0  0
  143.0095  137.4919  152.5066 N   0  0  0  0  0  0  0  0  0  0  0  0
  140.2272  138.0584  154.2724 H   0  0  0  0  0  0  0  0  0  0  0  0
  140.3269  138.3678  152.5417 H   0  0  0  0  0  0  0  0  0  0  0  0
  141.3270  139.2899  153.6628 H   0  0  0  0  0  0  0  0  0  0  0  0
  141.4260  135.6019  154.7440 H   0  0  0  0  0  0  0  0  0  0  0  0
  143.2609  133.5482  153.9388 H   0  0  0  0  0  0  0  0  0  0  0  0
  144.6070  132.1726  154.2784 H   0  0  0  0  0  0  0  0  0  0  0  0
  147.2773  132.7972  155.2044 H   0  0  0  0  0  0  0  0  0  0  0  0
  146.5216  131.2369  155.0300 H   0  0  0  0  0  0  0  0  0  0  0  0
  146.8960  132.2428  152.3724 H   0  0  0  0  0  0  0  0  0  0  0  0
  148.5949  133.8107  153.0475 H   0  0  0  0  0  0  0  0  0  0  0  0
  149.3795  132.4801  152.2215 H   0  0  0  0  0  0  0  0  0  0  0  0
  149.4551  132.5944  153.9785 H   0  0  0  0  0  0  0  0  0  0  0  0
  149.7625  130.5405  153.8340 H   0  0  0  0  0  0  0  0  0  0  0  0
  148.5447  129.8290  154.8744 H   0  0  0  0  0  0  0  0  0  0  0  0
  149.7476  128.5735  152.3593 H   0  0  0  0  0  0  0  0  0  0  0  0
  150.0404  128.0724  154.0042 H   0  0  0  0  0  0  0  0  0  0  0  0
  148.3487  126.5957  152.8728 H   0  0  0  0  0  0  0  0  0  0  0  0
  147.7115  127.3763  154.2968 H   0  0  0  0  0  0  0  0  0  0  0  0
  146.0343  127.5739  152.6180 H   0  0  0  0  0  0  0  0  0  0  0  0
  148.0571  128.7768  150.6756 H   0  0  0  0  0  0  0  0  0  0  0  0
  146.3383  128.5429  150.3869 H   0  0  0  0  0  0  0  0  0  0  0  0
  147.3888  127.1500  150.5967 H   0  0  0  0  0  0  0  0  0  0  0  0
  146.1801  129.5499  153.9748 H   0  0  0  0  0  0  0  0  0  0  0  0
  145.8261  130.0522  152.3377 H   0  0  0  0  0  0  0  0  0  0  0  0
  145.6710  135.5383  152.2117 H   0  0  0  0  0  0  0  0  0  0  0  0
  145.5601  137.2761  151.8905 H   0  0  0  0  0  0  0  0  0  0  0  0
  144.7714  136.1198  150.7968 H   0  0  0  0  0  0  0  0  0  0  0  0
  148.1660  130.4279  152.0407 H   0  0  0  0  0  0  0  0  0  0  0  0
  1  2  1  0  0  0  0
  1 22  1  0  0  0  0
  1 23  1  0  0  0  0
  1 24  1  0  0  0  0
  2 21  2  0  0  0  0
  2  3  1  0  0  0  0
  3  4  2  0  0  0  0
  3 25  1  0  0  0  0
  4  5  1  0  0  0  0
  4 19  1  0  0  0  0
  5  6  1  0  0  0  0
  5 26  1  0  0  0  0
  6  7  2  0  0  0  0
  6  8  1  0  0  0  0
  8  9  1  0  0  0  0
  8 27  1  0  0  0  0
  9 10  1  0  0  0  0
  9 28  1  0  0  0  0
  9 29  1  0  0  0  0
 10 11  1  0  0  0  0
 10 12  1  0  0  0  0
 10 30  1  0  0  0  0
 11 31  1  0  0  0  0
 11 32  1  0  0  0  0
 11 33  1  0  0  0  0
 12 18  1  0  0  0  0
 12 13  1  0  0  0  0
 12 49  1  0  0  0  0
 13 14  1  0  0  0  0
 13 34  1  0  0  0  0
 13 35  1  0  0  0  0
 14 15  1  0  0  0  0
 14 36  1  0  0  0  0
 14 37  1  0  0  0  0
 15 16  1  0  0  0  0
 15 38  1  0  0  0  0
 15 39  1  0  0  0  0
 16 17  1  0  0  0  0
 16 18  1  0  0  0  0
 16 40  1  0  0  0  0
 17 41  1  0  0  0  0
 17 42  1  0  0  0  0
 17 43  1  0  0  0  0
 18 44  1  0  0  0  0
 18 45  1  0  0  0  0
 19 20  1  0  0  0  0
 19 21  1  0  0  0  0
 20 46  1  0  0  0  0
 20 47  1  0  0  0  0
 20 48  1  0  0  0  0
M  CHG  1  12   1
M  END
> <s_m_source_file>
AV-unprocessed.smi

> <i_m_source_file_index>
1205

> <i_lp_mmshare_version>
43012

> <i_f3d_flags>
0

> <s_epik_input>
W0NIM11jMVtjSF1jKG4objEpW0NIM10pW05IXUMoPU8pW05IXVtDSDJdW0NASF0oW0NIM10pTjJbQ0gyXVtDSDJdW0NIMl1bQ0BASF0oW0NIM10pW0NIMl0y

> <s_epik_cmdline>
J2VwaWtfcHl0aG9uJywgJy1waCcsICc3LjAnLCAnLXRuJywgJzgnLCAnLW1hJywgJzIwMCcsICctbWV0YWxfYmluZGluZycsICctaW1hZScsICc8aW5maWxlLm1hZT4nLCAnLW9tYWUnLCAnPG91dGZpbGUubWFlPic=

> <r_lp_tautomer_probability>
1

> <r_epik_Ionization_Penalty>
0.0020309

> <r_epik_Ionization_Penalty_Charging>
0.00195276

> <r_epik_Ionization_Penalty_Neutral>
7.81448e-05

> <r_epik_State_Penalty>
0.00133177

> <r_epik_Charging_Adjusted_Penalty>
0.00328452

> <i_epik_Tot_Q>
1

> <i_epik_Tot_abs_Q>
1

> <r_epik_Metal_State_Penalty>
-0

> <b_epik_Metal_Only>
0

> <s_lp_Force_Field>
OPLS_2005

> <r_lp_Energy>
25.114

> <b_lp_Chiralities_Consistent>
1

> <s_lp_Variant>
AV-unprocessed.smi:1205-6

> <Gold.Version>
5.8.1

> <Gold.Id.Protein>
6NUR|6NUR_protein|mol2

> <Gold.PLP.Fitness>
40.1065

> <Gold.PLP.PLP>
-33.5572

> <Gold.PLP.part.hbond>
-3.0000

> <Gold.PLP.part.metal>
0.0000

> <Gold.PLP.part.buried>
-5.9098

> <Gold.PLP.part.nonpolar>
-26.8427

> <Gold.PLP.part.repulsive>
1.4223

> <Gold.PLP.ligand.clash>
0.0000

> <Gold.PLP.ligand.torsion>
1.2713

> <Gold.PLP.Chemscore.Hbond>
2.9913

> <Gold.PLP.Chemscore.CHOScore>
0.0000

> <Gold.PLP.Chemscore.Metal>
0.0000

> <Gold.Chemscore.Hbonds>
donor molecule, donor type, donor heavy atom, donor atom, acceptor molecule, acceptor atom, score
      L1  H     5    26       P1 10957  0.93
      L1  H     8    27       P1 10957  1.00
      L1  H    12    49       P1 10747  1.00

> <Gold.PLP.Chemscore.Internal.Correction>
0.1181

> <Gold.Rescore>
     Score         DG    S(hbond)    S(metal)    S(lipo)     H(rot)  DE(clash)    DE(int)     intcor
     15.05     -18.94       2.46        0.00      76.91       1.47       0.36       3.53       ----

> <Gold.Chemscore.Fitness>
15.0479

> <Gold.Chemscore.DG>
-18.9427

> <Gold.Chemscore.ZeroCoef>
-5.4800

> <Gold.Chemscore.Hbond>
2.4600

> <Gold.Chemscore.Metal>
0.0000

> <Gold.Chemscore.Lipo>
76.9129

> <Gold.Chemscore.Internal_Hbond>
0.0000

> <Gold.Chemscore.DEClash>
0.3620

> <Gold.Chemscore.DEInternal>
3.5328

> <Gold.Chemscore.Rot>
1.4658

> <Gold.Chemscore.Internal.Correction>
   9.000000E+99

> <Gold.Chemscore.Hbonds>
donor molecule, donor type, donor heavy atom, donor atom, acceptor molecule, acceptor atom, score
      L1  H     5    26       P1 10957  0.86
      L1  H     8    27       P1 10957  0.27
      L1  H    12    49       P1 10747  0.96

> <Gold.Chemscore.Hbond.Weighted>
-8.2164

> <Gold.Chemscore.Metal.Weighted>
-0.0000

> <Gold.Chemscore.Lipo.Weighted>
-8.9988

> <Gold.Chemscore.Internal_Hbond.Weighted>
0.0000

> <Gold.Chemscore.DEClash.Weighted>
0.3620

> <Gold.Chemscore.DEInternal.Weighted>
3.5328

> <Gold.Chemscore.Rot.Weighted>
3.7526

> <Gold.Chemscore.Internal.Correction.Weighted>
   9.000000E+99

> <Gold.Protein.RotatedTorsions>
[ 6907 6896 6895 6894 ] final -157.92 input  -60.11 | X-H torsion
[ 7974 7965 7964 7962 ] final  -32.66 input  175.53 | X-H torsion
[ 8008 7997 7996 7995 ] final  160.09 input   59.86 | X-H torsion
[ 10167 10162 10161 10158 ] final   17.91 input  -65.29 | X-H torsion
[ 10718 10713 10712 10709 ] final  171.48 input   66.30 | X-H torsion
[ 10763 10752 10751 10750 ] final   76.14 input  -60.55 | X-H torsion
[ 11005 11000 10999 10996 ] final  120.74 input  -57.11 | X-H torsion

> <Gold.Protein.ActiveResidues>
 VAL166  LYS551  ARG553  GLY616  TRP617  ASP618  TYR619  PRO620  LYS621  CYS622 
 ASP623  PHE694  ASN695  SER759  ASP760  ASP761  ALA762  ILE779  LEU786  VAL792 
 PHE793  MET794  SER795  GLU796  ALA797  LYS798  CYS799  TRP800  GLU811  SER814 

> <Gold.Protein.RotatedAtoms>
  151.3103  133.4083  159.2646 H   0  0  0  0  0  0  0  0  0  0  0  0  # atno 6907 bound_to 6896
  151.0120  134.9404  159.8023 H   0  0  0  0  0  0  0  0  0  0  0  0  # atno 6908 bound_to 6896
  152.5303  134.3067  159.9151 H   0  0  0  0  0  0  0  0  0  0  0  0  # atno 6909 bound_to 6896
  146.0973  140.5819  142.8837 H   0  0  0  0  0  0  0  0  0  0  0  0  # atno 7974 bound_to 7965
  156.2195  140.1813  156.7510 H   0  0  0  0  0  0  0  0  0  0  0  0  # atno 8008 bound_to 7997
  154.5844  140.0661  156.9178 H   0  0  0  0  0  0  0  0  0  0  0  0  # atno 8009 bound_to 7997
  155.2446  140.3324  155.4291 H   0  0  0  0  0  0  0  0  0  0  0  0  # atno 8010 bound_to 7997
  140.5692  143.9194  150.6699 H   0  0  0  0  0  0  0  0  0  0  0  0  # atno 10167 bound_to 10162
  156.9929  131.0153  151.2852 H   0  0  0  0  0  0  0  0  0  0  0  0  # atno 10718 bound_to 10713
  153.0704  135.4962  154.8292 H   0  0  0  0  0  0  0  0  0  0  0  0  # atno 10763 bound_to 10752
  154.7014  135.3002  154.9338 H   0  0  0  0  0  0  0  0  0  0  0  0  # atno 10764 bound_to 10752
  154.0060  135.6760  153.4815 H   0  0  0  0  0  0  0  0  0  0  0  0  # atno 10765 bound_to 10752
  139.9197  134.9636  156.7852 H   0  0  0  0  0  0  0  0  0  0  0  0  # atno 11005 bound_to 11000
  144.7405  140.4928  143.6873 LP  0  0  0  0  0  0  0  0  0  0  0  0  # atno 17320 bound_to 7965
  145.5924  139.1497  143.3175 LP  0  0  0  0  0  0  0  0  0  0  0  0  # atno 17321 bound_to 7965
  140.2664  143.3487  152.1277 LP  0  0  0  0  0  0  0  0  0  0  0  0  # atno 17342 bound_to 10162
  139.5108  144.6891  151.5808 LP  0  0  0  0  0  0  0  0  0  0  0  0  # atno 17343 bound_to 10162
  157.5446  130.8142  149.8070 LP  0  0  0  0  0  0  0  0  0  0  0  0  # atno 17370 bound_to 10713
  156.0200  130.3799  150.1990 LP  0  0  0  0  0  0  0  0  0  0  0  0  # atno 17371 bound_to 10713
  140.6512  133.9730  155.7756 LP  0  0  0  0  0  0  0  0  0  0  0  0  # atno 17394 bound_to 11000
  141.0707  134.0210  157.3530 LP  0  0  0  0  0  0  0  0  0  0  0  0  # atno 17395 bound_to 11000

$$$$
