AV-unprocessed.smi:1830|AV-procd|sdf|7434|dock7
  -GOLD-   22720 9123D 1   1.00000     0.00000
 Structure written by MMmdl.
 53 56  0  0  0  0  0  0  0  0  2 V2000
  149.4812  135.6295  156.0722 O   0  0  0  0  0  0  0  0  0  0  0  0
  148.9946  136.1313  155.0590 C   0  0  0  0  0  0  0  0  0  0  0  0
  148.0041  135.5658  154.3553 N   0  0  0  0  0  0  0  0  0  0  0  0
  147.3776  134.2855  154.6674 C   0  0  0  0  0  0  0  0  0  0  0  0
  146.3942  133.8515  153.5661 C   0  0  2  0  0  0  0  0  0  0  0  0
  147.1233  133.4993  152.2547 C   0  0  0  0  0  0  0  0  0  0  0  0
  146.1754  133.2074  151.1536 N   0  3  1  0  0  0  0  0  0  0  0  0
  145.5835  131.8515  151.1347 C   0  0  0  0  0  0  0  0  0  0  0  0
  144.1902  131.9971  150.5019 C   0  0  0  0  0  0  0  0  0  0  0  0
  144.0703  133.4741  150.1120 C   0  0  0  0  0  0  0  0  0  0  0  0
  145.0762  134.1852  151.0183 C   0  0  1  0  0  0  0  0  0  0  0  0
  144.4716  134.5465  152.3933 C   0  0  0  0  0  0  0  0  0  0  0  0
  145.5005  134.9253  153.2950 O   0  0  0  0  0  0  0  0  0  0  0  0
  149.3892  137.2859  154.4975 N   0  0  0  0  0  0  0  0  0  0  0  0
  150.4345  138.1588  154.9137 C   0  0  0  0  0  0  0  0  0  0  0  0
  151.6602  137.6643  155.4234 C   0  0  0  0  0  0  0  0  0  0  0  0
  152.6647  138.5701  155.8051 C   0  0  0  0  0  0  0  0  0  0  0  0
  152.4080  139.9440  155.6665 C   0  0  0  0  0  0  0  0  0  0  0  0
  151.2406  140.4313  155.2011 N   0  0  0  0  0  0  0  0  0  0  0  0
  150.2561  139.5704  154.8432 C   0  0  0  0  0  0  0  0  0  0  0  0
  149.0462  140.1390  154.3831 N   0  0  0  0  0  0  0  0  0  0  0  0
  148.9876  141.5483  154.0098 C   0  0  0  0  0  0  0  0  0  0  0  0
  147.4994  141.8794  153.9530 C   0  0  0  0  0  0  0  0  0  0  0  0
  146.9349  141.0304  155.0880 C   0  0  0  0  0  0  0  0  0  0  0  0
  147.8136  139.7746  155.0756 C   0  0  0  0  0  0  0  0  0  0  0  0
  147.6665  136.0510  153.5368 H   0  0  0  0  0  0  0  0  0  0  0  0
  148.1310  133.5150  154.8409 H   0  0  0  0  0  0  0  0  0  0  0  0
  146.8419  134.4081  155.6091 H   0  0  0  0  0  0  0  0  0  0  0  0
  145.8328  132.9860  153.9230 H   0  0  0  0  0  0  0  0  0  0  0  0
  147.7388  134.3455  151.9466 H   0  0  0  0  0  0  0  0  0  0  0  0
  147.8000  132.6555  152.3949 H   0  0  0  0  0  0  0  0  0  0  0  0
  146.2219  131.1784  150.5617 H   0  0  0  0  0  0  0  0  0  0  0  0
  145.4945  131.4451  152.1429 H   0  0  0  0  0  0  0  0  0  0  0  0
  144.0569  131.3402  149.6417 H   0  0  0  0  0  0  0  0  0  0  0  0
  143.4233  131.7387  151.2333 H   0  0  0  0  0  0  0  0  0  0  0  0
  144.3688  133.5988  149.0702 H   0  0  0  0  0  0  0  0  0  0  0  0
  143.0545  133.8587  150.2111 H   0  0  0  0  0  0  0  0  0  0  0  0
  145.4567  135.0920  150.5463 H   0  0  0  0  0  0  0  0  0  0  0  0
  143.7735  135.3772  152.2873 H   0  0  0  0  0  0  0  0  0  0  0  0
  143.9041  133.7149  152.8145 H   0  0  0  0  0  0  0  0  0  0  0  0
  148.9628  137.5180  153.6125 H   0  0  0  0  0  0  0  0  0  0  0  0
  151.8437  136.6068  155.5362 H   0  0  0  0  0  0  0  0  0  0  0  0
  153.6095  138.2194  156.1931 H   0  0  0  0  0  0  0  0  0  0  0  0
  153.1556  140.6720  155.9446 H   0  0  0  0  0  0  0  0  0  0  0  0
  149.4680  142.1713  154.7653 H   0  0  0  0  0  0  0  0  0  0  0  0
  149.4796  141.7267  153.0534 H   0  0  0  0  0  0  0  0  0  0  0  0
  147.2955  142.9439  154.0710 H   0  0  0  0  0  0  0  0  0  0  0  0
  147.0797  141.5550  152.9996 H   0  0  0  0  0  0  0  0  0  0  0  0
  147.0613  141.5569  156.0352 H   0  0  0  0  0  0  0  0  0  0  0  0
  145.8747  140.8074  154.9666 H   0  0  0  0  0  0  0  0  0  0  0  0
  147.3172  138.9809  154.5165 H   0  0  0  0  0  0  0  0  0  0  0  0
  148.0025  139.4116  156.0871 H   0  0  0  0  0  0  0  0  0  0  0  0
  146.7035  133.2698  150.2947 H   0  0  0  0  0  0  0  0  0  0  0  0
  1  2  2  0  0  0  0
  2  3  1  0  0  0  0
  2 14  1  0  0  0  0
  3  4  1  0  0  0  0
  3 26  1  0  0  0  0
  4  5  1  0  0  0  0
  4 27  1  0  0  0  0
  4 28  1  0  0  0  0
  5 13  1  0  0  0  0
  5  6  1  0  0  0  0
  5 29  1  0  0  0  0
  6  7  1  0  0  0  0
  6 30  1  0  0  0  0
  6 31  1  0  0  0  0
  7 11  1  0  0  0  0
  7  8  1  0  0  0  0
  7 53  1  0  0  0  0
  8  9  1  0  0  0  0
  8 32  1  0  0  0  0
  8 33  1  0  0  0  0
  9 10  1  0  0  0  0
  9 34  1  0  0  0  0
  9 35  1  0  0  0  0
 10 11  1  0  0  0  0
 10 36  1  0  0  0  0
 10 37  1  0  0  0  0
 11 12  1  0  0  0  0
 11 38  1  0  0  0  0
 12 13  1  0  0  0  0
 12 39  1  0  0  0  0
 12 40  1  0  0  0  0
 14 15  1  0  0  0  0
 14 41  1  0  0  0  0
 15 20  1  0  0  0  0
 15 16  2  0  0  0  0
 16 17  1  0  0  0  0
 16 42  1  0  0  0  0
 17 18  2  0  0  0  0
 17 43  1  0  0  0  0
 18 19  1  0  0  0  0
 18 44  1  0  0  0  0
 19 20  2  0  0  0  0
 20 21  1  0  0  0  0
 21 25  1  0  0  0  0
 21 22  1  0  0  0  0
 22 23  1  0  0  0  0
 22 45  1  0  0  0  0
 22 46  1  0  0  0  0
 23 24  1  0  0  0  0
 23 47  1  0  0  0  0
 23 48  1  0  0  0  0
 24 25  1  0  0  0  0
 24 49  1  0  0  0  0
 24 50  1  0  0  0  0
 25 51  1  0  0  0  0
 25 52  1  0  0  0  0
M  CHG  1   7   1
M  END
> <s_m_source_file>
AV-unprocessed.smi

> <i_m_source_file_index>
1830

> <i_lp_mmshare_version>
43012

> <i_f3d_flags>
0

> <s_epik_input>
W0NIMl0xW0NIMl1bQ0gyXVtDQEhdKE4xMilbQ0gyXU9bQ0BASF0oW0NIMl0yKVtDSDJdW05IXUMoPU8pW05IXWMzW2NIXVtjSF1bY0hdbmMzTjRbQ0gyXVtDSDJdW0NIMl1bQ0gyXTQ=

> <s_epik_cmdline>
J2VwaWtfcHl0aG9uJywgJy1waCcsICc3LjAnLCAnLXRuJywgJzgnLCAnLW1hJywgJzIwMCcsICctbWV0YWxfYmluZGluZycsICctaW1hZScsICc8aW5maWxlLm1hZT4nLCAnLW9tYWUnLCAnPG91dGZpbGUubWFlPic=

> <r_lp_tautomer_probability>
1

> <r_epik_Ionization_Penalty>
0.193547

> <r_epik_Ionization_Penalty_Charging>
0.10673

> <r_epik_Ionization_Penalty_Neutral>
0.0868166

> <r_epik_State_Penalty>
0.173595

> <r_epik_Charging_Adjusted_Penalty>
0.280326

> <i_epik_Tot_Q>
1

> <i_epik_Tot_abs_Q>
1

> <r_epik_Metal_State_Penalty>
0.164683

> <b_epik_Metal_Only>
0

> <s_lp_Force_Field>
OPLS_2005

> <r_lp_Energy>
64.5086

> <b_lp_Chiralities_Consistent>
1

> <s_lp_Variant>
AV-unprocessed.smi:1830-3

> <Gold.Version>
5.8.1

> <Gold.Id.Protein>
6NUR|6NUR_protein|mol2

> <Gold.PLP.Fitness>
43.3469

> <Gold.PLP.PLP>
-38.8332

> <Gold.PLP.part.hbond>
-3.0000

> <Gold.PLP.part.metal>
0.0000

> <Gold.PLP.part.buried>
-3.7213

> <Gold.PLP.part.nonpolar>
-33.4273

> <Gold.PLP.part.repulsive>
0.3521

> <Gold.PLP.ligand.clash>
0.0000

> <Gold.PLP.ligand.torsion>
0.5453

> <Gold.PLP.Chemscore.Hbond>
1.7631

> <Gold.PLP.Chemscore.CHOScore>
0.0000

> <Gold.PLP.Chemscore.Metal>
0.0000

> <Gold.Chemscore.Hbonds>
donor molecule, donor type, donor heavy atom, donor atom, acceptor molecule, acceptor atom, score
      L1  H     3    26       P1  7948  0.29
      L1  H    14    41       P1  7948  0.34
      P1  H  7989  7998       L1    19  0.68

> <Gold.PLP.Chemscore.Internal.Correction>
0.3151

> <Gold.Rescore>
     Score         DG    S(hbond)    S(metal)    S(lipo)     H(rot)  DE(clash)    DE(int)     intcor
     14.53     -17.06       1.04        0.00     100.19       1.41       0.13       2.40       ----

> <Gold.Chemscore.Fitness>
14.5275

> <Gold.Chemscore.DG>
-17.0632

> <Gold.Chemscore.ZeroCoef>
-5.4800

> <Gold.Chemscore.Hbond>
1.0365

> <Gold.Chemscore.Metal>
0.0000

> <Gold.Chemscore.Lipo>
100.1916

> <Gold.Chemscore.Internal_Hbond>
0.0000

> <Gold.Chemscore.DEClash>
0.1348

> <Gold.Chemscore.DEInternal>
2.4008

> <Gold.Chemscore.Rot>
1.4067

> <Gold.Chemscore.Internal.Correction>
   9.000000E+99

> <Gold.Chemscore.Hbonds>
donor molecule, donor type, donor heavy atom, donor atom, acceptor molecule, acceptor atom, score
      L1  H     3    26       P1  7948  0.28
      L1  H    14    41       P1  7948  0.34
      P1  H  7989  7998       L1    19  0.03

> <Gold.Chemscore.Hbond.Weighted>
-3.4619

> <Gold.Chemscore.Metal.Weighted>
-0.0000

> <Gold.Chemscore.Lipo.Weighted>
-11.7224

> <Gold.Chemscore.Internal_Hbond.Weighted>
0.0000

> <Gold.Chemscore.DEClash.Weighted>
0.1348

> <Gold.Chemscore.DEInternal.Weighted>
2.4008

> <Gold.Chemscore.Rot.Weighted>
3.6011

> <Gold.Chemscore.Internal.Correction.Weighted>
   9.000000E+99

> <Gold.Protein.RotatedTorsions>
[ 6907 6896 6895 6894 ] final  -67.23 input  -60.11 | X-H torsion
[ 7974 7965 7964 7962 ] final   60.45 input  175.53 | X-H torsion
[ 8008 7997 7996 7995 ] final  127.25 input   59.86 | X-H torsion
[ 10167 10162 10161 10158 ] final  -21.57 input  -65.29 | X-H torsion
[ 10718 10713 10712 10709 ] final -108.52 input   66.30 | X-H torsion
[ 10763 10752 10751 10750 ] final   20.67 input  -60.55 | X-H torsion
[ 11005 11000 10999 10996 ] final  -70.21 input  -57.11 | X-H torsion

> <Gold.Protein.ActiveResidues>
 VAL166  LYS551  ARG553  GLY616  TRP617  ASP618  TYR619  PRO620  LYS621  CYS622 
 ASP623  PHE694  ASN695  SER759  ASP760  ASP761  ALA762  ILE779  LEU786  VAL792 
 PHE793  MET794  SER795  GLU796  ALA797  LYS798  CYS799  TRP800  GLU811  SER814 

> <Gold.Protein.RotatedAtoms>
  150.7421  134.5910  159.5987 H   0  0  0  0  0  0  0  0  0  0  0  0  # atno 6907 bound_to 6896
  152.3298  134.7271  160.0301 H   0  0  0  0  0  0  0  0  0  0  0  0  # atno 6908 bound_to 6896
  151.7758  133.3309  159.3494 H   0  0  0  0  0  0  0  0  0  0  0  0  # atno 6909 bound_to 6896
  145.8959  139.3545  143.0621 H   0  0  0  0  0  0  0  0  0  0  0  0  # atno 7974 bound_to 7965
  156.2886  140.2673  156.2242 H   0  0  0  0  0  0  0  0  0  0  0  0  # atno 8008 bound_to 7997
  155.0137  140.0387  157.2428 H   0  0  0  0  0  0  0  0  0  0  0  0  # atno 8009 bound_to 7997
  154.7495  140.2740  155.6309 H   0  0  0  0  0  0  0  0  0  0  0  0  # atno 8010 bound_to 7997
  140.7282  143.4615  151.0372 H   0  0  0  0  0  0  0  0  0  0  0  0  # atno 10167 bound_to 10162
  156.0490  130.5717  150.7973 H   0  0  0  0  0  0  0  0  0  0  0  0  # atno 10718 bound_to 10713
  153.1058  135.6684  153.9589 H   0  0  0  0  0  0  0  0  0  0  0  0  # atno 10763 bound_to 10752
  153.9147  135.3021  155.3449 H   0  0  0  0  0  0  0  0  0  0  0  0  # atno 10764 bound_to 10752
  154.7479  135.5049  153.9313 H   0  0  0  0  0  0  0  0  0  0  0  0  # atno 10765 bound_to 10752
  141.1569  133.6784  156.6717 H   0  0  0  0  0  0  0  0  0  0  0  0  # atno 11005 bound_to 11000
  145.8851  140.9338  143.0581 LP  0  0  0  0  0  0  0  0  0  0  0  0  # atno 17320 bound_to 7965
  144.6733  140.0831  143.7468 LP  0  0  0  0  0  0  0  0  0  0  0  0  # atno 17321 bound_to 7965
  139.8300  143.7703  152.3179 LP  0  0  0  0  0  0  0  0  0  0  0  0  # atno 17342 bound_to 10162
  139.7816  144.7442  151.0080 LP  0  0  0  0  0  0  0  0  0  0  0  0  # atno 17343 bound_to 10162
  157.5396  131.0940  150.9845 LP  0  0  0  0  0  0  0  0  0  0  0  0  # atno 17370 bound_to 10713
  157.0131  130.5644  149.5323 LP  0  0  0  0  0  0  0  0  0  0  0  0  # atno 17371 bound_to 10713
  140.3170  134.8039  157.4222 LP  0  0  0  0  0  0  0  0  0  0  0  0  # atno 17394 bound_to 11000
  140.1130  134.5320  155.8249 LP  0  0  0  0  0  0  0  0  0  0  0  0  # atno 17395 bound_to 11000

$$$$
