AV-unprocessed.smi:1961|AV-procd|sdf|7921|dock10
  -GOLD-   2272010 93D 1   1.00000     0.00000
 Structure written by MMmdl.
 35 36  0  0  0  0  0  0  0  0  2 V2000
  147.1779  141.7253  155.7021 C   0  0  0  0  0  0  0  0  0  0  0  0
  148.0479  141.2998  154.5105 C   0  0  0  0  0  0  0  0  0  0  0  0
  147.3361  140.3249  153.5612 C   0  0  0  0  0  0  0  0  0  0  0  0
  149.3870  140.7897  154.9430 C   0  0  0  0  0  0  0  0  0  0  0  0
  150.2073  140.1121  154.1337 N   0  0  0  0  0  0  0  0  0  0  0  0
  151.3872  139.7497  154.7666 N   0  0  0  0  0  0  0  0  0  0  0  0
  151.4494  140.1634  156.0400 C   0  0  0  0  0  0  0  0  0  0  0  0
  152.5072  139.9123  156.8290 N   0  5  0  0  0  0  0  0  0  0  0  0
  152.3790  139.9819  158.1737 C   0  0  0  0  0  0  0  0  0  0  0  0
  151.3494  139.7781  158.8216 O   0  0  0  0  0  0  0  0  0  0  0  0
  153.5126  140.3044  158.8097 N   0  0  0  0  0  0  0  0  0  0  0  0
  153.6533  140.4352  160.2536 C   0  0  0  0  0  0  0  0  0  0  0  0
  153.6863  141.9133  160.6658 C   0  0  1  0  0  0  0  0  0  0  0  0
  152.3621  142.6412  160.4400 C   0  0  0  0  0  0  0  0  0  0  0  0
  152.4571  143.7679  161.4427 C   0  0  0  0  0  0  0  0  0  0  0  0
  153.1350  143.0776  162.6224 C   0  0  0  0  0  0  0  0  0  0  0  0
  153.9421  142.0446  162.0629 O   0  0  0  0  0  0  0  0  0  0  0  0
  150.0094  141.0334  156.5671 S   0  0  0  0  0  0  0  0  0  0  0  0
  147.6816  142.4824  156.3041 H   0  0  0  0  0  0  0  0  0  0  0  0
  146.9536  140.8781  156.3512 H   0  0  0  0  0  0  0  0  0  0  0  0
  146.2301  142.1466  155.3665 H   0  0  0  0  0  0  0  0  0  0  0  0
  148.2373  142.2052  153.9321 H   0  0  0  0  0  0  0  0  0  0  0  0
  147.9509  140.1119  152.6861 H   0  0  0  0  0  0  0  0  0  0  0  0
  146.3915  140.7393  153.2086 H   0  0  0  0  0  0  0  0  0  0  0  0
  147.1194  139.3769  154.0548 H   0  0  0  0  0  0  0  0  0  0  0  0
  154.3381  140.4610  158.2501 H   0  0  0  0  0  0  0  0  0  0  0  0
  152.8131  139.9357  160.7384 H   0  0  0  0  0  0  0  0  0  0  0  0
  154.5633  139.9302  160.5813 H   0  0  0  0  0  0  0  0  0  0  0  0
  154.4768  142.4395  160.1278 H   0  0  0  0  0  0  0  0  0  0  0  0
  152.2375  142.9894  159.4142 H   0  0  0  0  0  0  0  0  0  0  0  0
  151.5190  141.9942  160.6870 H   0  0  0  0  0  0  0  0  0  0  0  0
  153.0952  144.5623  161.0538 H   0  0  0  0  0  0  0  0  0  0  0  0
  151.4892  144.1991  161.6992 H   0  0  0  0  0  0  0  0  0  0  0  0
  153.7299  143.7683  163.2205 H   0  0  0  0  0  0  0  0  0  0  0  0
  152.3910  142.6186  163.2748 H   0  0  0  0  0  0  0  0  0  0  0  0
  1  2  1  0  0  0  0
  1 19  1  0  0  0  0
  1 20  1  0  0  0  0
  1 21  1  0  0  0  0
  2  3  1  0  0  0  0
  2  4  1  0  0  0  0
  2 22  1  0  0  0  0
  3 23  1  0  0  0  0
  3 24  1  0  0  0  0
  3 25  1  0  0  0  0
  4 18  1  0  0  0  0
  4  5  2  0  0  0  0
  5  6  1  0  0  0  0
  6  7  2  0  0  0  0
  7  8  1  0  0  0  0
  7 18  1  0  0  0  0
  8  9  1  0  0  0  0
  9 10  2  0  0  0  0
  9 11  1  0  0  0  0
 11 12  1  0  0  0  0
 11 26  1  0  0  0  0
 12 13  1  0  0  0  0
 12 27  1  0  0  0  0
 12 28  1  0  0  0  0
 13 17  1  0  0  0  0
 13 14  1  0  0  0  0
 13 29  1  0  0  0  0
 14 15  1  0  0  0  0
 14 30  1  0  0  0  0
 14 31  1  0  0  0  0
 15 16  1  0  0  0  0
 15 32  1  0  0  0  0
 15 33  1  0  0  0  0
 16 17  1  0  0  0  0
 16 34  1  0  0  0  0
 16 35  1  0  0  0  0
M  CHG  1   8  -1
M  END
> <s_m_source_file>
AV-unprocessed.smi

> <i_m_source_file_index>
1961

> <i_lp_mmshare_version>
43012

> <i_f3d_flags>
0

> <s_epik_input>
W0NIM11bQ0hdKFtDSDNdKWMxbm5jKHMxKVtOSF1DKD1PKVtOSF1bQ0gyXVtDQEBIXTJbQ0gyXVtDSDJdW0NIMl1PMg==

> <s_epik_cmdline>
J2VwaWtfcHl0aG9uJywgJy1waCcsICc3LjAnLCAnLXRuJywgJzgnLCAnLW1hJywgJzIwMCcsICctbWV0YWxfYmluZGluZycsICctaW1hZScsICc8aW5maWxlLm1hZT4nLCAnLW9tYWUnLCAnPG91dGZpbGUubWFlPic=

> <r_lp_tautomer_probability>
1

> <r_epik_Ionization_Penalty>
4.36179

> <r_epik_Ionization_Penalty_Charging>
4.21437

> <r_epik_Ionization_Penalty_Neutral>
0.147417

> <r_epik_State_Penalty>
4.21389

> <r_epik_Charging_Adjusted_Penalty>
8.42826

> <i_epik_Tot_Q>
-1

> <i_epik_Tot_abs_Q>
1

> <r_epik_Metal_State_Penalty>
0.693772

> <b_epik_Metal_Only>
1

> <s_lp_Force_Field>
OPLS_2005

> <r_lp_Energy>
8.86259

> <b_lp_Chiralities_Consistent>
1

> <s_lp_Variant>
AV-unprocessed.smi:1961-4

> <Gold.Version>
5.8.1

> <Gold.Id.Protein>
6NUR|6NUR_protein|mol2

> <Gold.PLP.Fitness>
44.5513

> <Gold.PLP.PLP>
-40.1985

> <Gold.PLP.part.hbond>
-3.6174

> <Gold.PLP.part.metal>
0.0000

> <Gold.PLP.part.buried>
-4.9435

> <Gold.PLP.part.nonpolar>
-31.5293

> <Gold.PLP.part.repulsive>
1.4317

> <Gold.PLP.ligand.clash>
0.0000

> <Gold.PLP.ligand.torsion>
0.8738

> <Gold.PLP.Chemscore.Hbond>
2.0000

> <Gold.PLP.Chemscore.CHOScore>
0.0000

> <Gold.PLP.Chemscore.Metal>
0.0000

> <Gold.Chemscore.Hbonds>
donor molecule, donor type, donor heavy atom, donor atom, acceptor molecule, acceptor atom, score
      P1  H  7997  8009       L1     8  2.00

> <Gold.PLP.Chemscore.Internal.Correction>
0.1004

> <Gold.Rescore>
     Score         DG    S(hbond)    S(metal)    S(lipo)     H(rot)  DE(clash)    DE(int)     intcor
     13.23     -15.01       0.91        0.00      86.56       1.42       0.08       1.70       ----

> <Gold.Chemscore.Fitness>
13.2307

> <Gold.Chemscore.DG>
-15.0096

> <Gold.Chemscore.ZeroCoef>
-5.4800

> <Gold.Chemscore.Hbond>
0.9086

> <Gold.Chemscore.Metal>
0.0000

> <Gold.Chemscore.Lipo>
86.5648

> <Gold.Chemscore.Internal_Hbond>
0.0000

> <Gold.Chemscore.DEClash>
0.0752

> <Gold.Chemscore.DEInternal>
1.7037

> <Gold.Chemscore.Rot>
1.4193

> <Gold.Chemscore.Internal.Correction>
   9.000000E+99

> <Gold.Chemscore.Hbonds>
donor molecule, donor type, donor heavy atom, donor atom, acceptor molecule, acceptor atom, score
      P1  H  7997  8009       L1     8  0.69

> <Gold.Chemscore.Hbond.Weighted>
-3.0348

> <Gold.Chemscore.Metal.Weighted>
-0.0000

> <Gold.Chemscore.Lipo.Weighted>
-10.1281

> <Gold.Chemscore.Internal_Hbond.Weighted>
0.0000

> <Gold.Chemscore.DEClash.Weighted>
0.0752

> <Gold.Chemscore.DEInternal.Weighted>
1.7037

> <Gold.Chemscore.Rot.Weighted>
3.6333

> <Gold.Chemscore.Internal.Correction.Weighted>
   9.000000E+99

> <Gold.Protein.RotatedTorsions>
[ 6907 6896 6895 6894 ] final   36.51 input  -60.11 | X-H torsion
[ 7974 7965 7964 7962 ] final -135.24 input  175.53 | X-H torsion
[ 8008 7997 7996 7995 ] final -163.28 input   59.86 | X-H torsion
[ 10167 10162 10161 10158 ] final   40.96 input  -65.29 | X-H torsion
[ 10718 10713 10712 10709 ] final  162.59 input   66.30 | X-H torsion
[ 10763 10752 10751 10750 ] final  173.26 input  -60.55 | X-H torsion
[ 11005 11000 10999 10996 ] final -115.35 input  -57.11 | X-H torsion

> <Gold.Protein.ActiveResidues>
 VAL166  LYS551  ARG553  GLY616  TRP617  ASP618  TYR619  PRO620  LYS621  CYS622 
 ASP623  PHE694  ASN695  SER759  ASP760  ASP761  ALA762  ILE779  LEU786  VAL792 
 PHE793  MET794  SER795  GLU796  ALA797  LYS798  CYS799  TRP800  GLU811  SER814 

> <Gold.Protein.RotatedAtoms>
  152.1307  134.9137  160.0558 H   0  0  0  0  0  0  0  0  0  0  0  0  # atno 6907 bound_to 6896
  152.0242  133.3906  159.4279 H   0  0  0  0  0  0  0  0  0  0  0  0  # atno 6908 bound_to 6896
  150.6856  134.3514  159.4954 H   0  0  0  0  0  0  0  0  0  0  0  0  # atno 6909 bound_to 6896
  144.9032  140.6798  143.5072 H   0  0  0  0  0  0  0  0  0  0  0  0  # atno 7974 bound_to 7965
  155.8190  140.0916  157.1860 H   0  0  0  0  0  0  0  0  0  0  0  0  # atno 8008 bound_to 7997
  154.3979  140.1440  156.3537 H   0  0  0  0  0  0  0  0  0  0  0  0  # atno 8009 bound_to 7997
  155.8286  140.3443  155.5561 H   0  0  0  0  0  0  0  0  0  0  0  0  # atno 8010 bound_to 7997
  140.3691  144.2129  150.6134 H   0  0  0  0  0  0  0  0  0  0  0  0  # atno 10167 bound_to 10162
  157.1203  131.0491  151.2418 H   0  0  0  0  0  0  0  0  0  0  0  0  # atno 10718 bound_to 10713
  154.4376  135.2761  155.1870 H   0  0  0  0  0  0  0  0  0  0  0  0  # atno 10763 bound_to 10752
  154.3750  135.6100  153.5764 H   0  0  0  0  0  0  0  0  0  0  0  0  # atno 10764 bound_to 10752
  152.9839  135.5866  154.4698 H   0  0  0  0  0  0  0  0  0  0  0  0  # atno 10765 bound_to 10752
  141.0493  133.9712  157.2863 H   0  0  0  0  0  0  0  0  0  0  0  0  # atno 11005 bound_to 11000
  145.3581  139.1688  143.4398 LP  0  0  0  0  0  0  0  0  0  0  0  0  # atno 17320 bound_to 7965
  146.3119  140.3641  142.8667 LP  0  0  0  0  0  0  0  0  0  0  0  0  # atno 17321 bound_to 7965
  140.5051  143.2306  151.8620 LP  0  0  0  0  0  0  0  0  0  0  0  0  # atno 17342 bound_to 10162
  139.4805  144.5014  151.9055 LP  0  0  0  0  0  0  0  0  0  0  0  0  # atno 17343 bound_to 10162
  157.4482  130.7583  149.7128 LP  0  0  0  0  0  0  0  0  0  0  0  0  # atno 17370 bound_to 10713
  155.9830  130.4004  150.3387 LP  0  0  0  0  0  0  0  0  0  0  0  0  # atno 17371 bound_to 10713
  139.9337  135.0198  156.8487 LP  0  0  0  0  0  0  0  0  0  0  0  0  # atno 17394 bound_to 11000
  140.6085  134.0104  155.7567 LP  0  0  0  0  0  0  0  0  0  0  0  0  # atno 17395 bound_to 11000

$$$$
