AV-unprocessed.smi:466|AV-procd|sdf|2642|dock2
  -GOLD-   2262023 53D 1   1.00000     0.00000
 Structure written by MMmdl.
 44 46  0  0  0  0  0  0  0  0  2 V2000
  147.3799  136.8341  162.8121 C   0  0  0  0  0  0  0  0  0  0  0  0
  147.8869  137.2312  161.5468 O   0  0  0  0  0  0  0  0  0  0  0  0
  148.0000  136.2756  160.5573 C   0  0  0  0  0  0  0  0  0  0  0  0
  147.4314  134.9799  160.6455 C   0  0  0  0  0  0  0  0  0  0  0  0
  147.5862  134.0598  159.5926 C   0  0  0  0  0  0  0  0  0  0  0  0
  148.3100  134.4211  158.4434 C   0  0  0  0  0  0  0  0  0  0  0  0
  148.8798  135.7036  158.3456 C   0  0  0  0  0  0  0  0  0  0  0  0
  148.7269  136.6379  159.4001 C   0  0  0  0  0  0  0  0  0  0  0  0
  149.2536  137.9102  159.3776 O   0  0  0  0  0  0  0  0  0  0  0  0
  149.4113  138.5720  158.1312 C   0  0  0  0  0  0  0  0  0  0  0  0
  150.7616  139.3041  158.1361 C   0  0  0  0  0  0  0  0  0  0  0  0
  150.6285  140.7108  157.7214 N   0  0  0  0  0  0  0  0  0  0  0  0
  149.8246  141.2827  156.7765 C   0  0  0  0  0  0  0  0  0  0  0  0
  148.8236  140.5871  155.9042 C   0  0  0  0  0  0  0  0  0  0  0  0
  148.5878  141.3190  154.5741 C   0  0  0  0  0  0  0  0  0  0  0  0
  149.5881  140.9549  153.6476 O   0  0  0  0  0  0  0  0  0  0  0  0
  150.0511  142.6275  156.8209 N   0  3  0  0  0  0  0  0  0  0  0  0
  151.0131  142.9174  157.7881 C   0  0  0  0  0  0  0  0  0  0  0  0
  151.5604  144.1313  158.1922 C   0  0  0  0  0  0  0  0  0  0  0  0
  152.5169  144.0808  159.2274 C   0  0  0  0  0  0  0  0  0  0  0  0
  152.8967  142.8575  159.8160 C   0  0  0  0  0  0  0  0  0  0  0  0
  152.3387  141.6333  159.3930 C   0  0  0  0  0  0  0  0  0  0  0  0
  151.3907  141.6913  158.3708 C   0  0  0  0  0  0  0  0  0  0  0  0
  147.3575  137.6984  163.4758 H   0  0  0  0  0  0  0  0  0  0  0  0
  148.0143  136.0781  163.2766 H   0  0  0  0  0  0  0  0  0  0  0  0
  146.3609  136.4533  162.7322 H   0  0  0  0  0  0  0  0  0  0  0  0
  146.8697  134.6668  161.5123 H   0  0  0  0  0  0  0  0  0  0  0  0
  147.1490  133.0751  159.6680 H   0  0  0  0  0  0  0  0  0  0  0  0
  148.4293  133.7135  157.6359 H   0  0  0  0  0  0  0  0  0  0  0  0
  149.4325  135.9470  157.4511 H   0  0  0  0  0  0  0  0  0  0  0  0
  149.3848  137.8496  157.3143 H   0  0  0  0  0  0  0  0  0  0  0  0
  148.6061  139.2921  157.9754 H   0  0  0  0  0  0  0  0  0  0  0  0
  151.2228  139.2635  159.1231 H   0  0  0  0  0  0  0  0  0  0  0  0
  151.4596  138.8132  157.4589 H   0  0  0  0  0  0  0  0  0  0  0  0
  149.1628  139.5718  155.7005 H   0  0  0  0  0  0  0  0  0  0  0  0
  147.8872  140.4981  156.4561 H   0  0  0  0  0  0  0  0  0  0  0  0
  147.6130  141.0680  154.1550 H   0  0  0  0  0  0  0  0  0  0  0  0
  148.6162  142.3994  154.7190 H   0  0  0  0  0  0  0  0  0  0  0  0
  149.2504  140.2703  153.0901 H   0  0  0  0  0  0  0  0  0  0  0  0
  151.2675  145.0701  157.7453 H   0  0  0  0  0  0  0  0  0  0  0  0
  152.9658  144.9986  159.5789 H   0  0  0  0  0  0  0  0  0  0  0  0
  153.6285  142.8569  160.6105 H   0  0  0  0  0  0  0  0  0  0  0  0
  152.6307  140.7042  159.8595 H   0  0  0  0  0  0  0  0  0  0  0  0
  149.5723  143.2992  156.2350 H   0  0  0  0  0  0  0  0  0  0  0  0
  1  2  1  0  0  0  0
  1 24  1  0  0  0  0
  1 25  1  0  0  0  0
  1 26  1  0  0  0  0
  2  3  1  0  0  0  0
  3  8  1  0  0  0  0
  3  4  2  0  0  0  0
  4  5  1  0  0  0  0
  4 27  1  0  0  0  0
  5  6  2  0  0  0  0
  5 28  1  0  0  0  0
  6  7  1  0  0  0  0
  6 29  1  0  0  0  0
  7  8  2  0  0  0  0
  7 30  1  0  0  0  0
  8  9  1  0  0  0  0
  9 10  1  0  0  0  0
 10 11  1  0  0  0  0
 10 31  1  0  0  0  0
 10 32  1  0  0  0  0
 11 12  1  0  0  0  0
 11 33  1  0  0  0  0
 11 34  1  0  0  0  0
 12 23  1  0  0  0  0
 12 13  1  0  0  0  0
 13 14  1  0  0  0  0
 13 17  2  0  0  0  0
 14 15  1  0  0  0  0
 14 35  1  0  0  0  0
 14 36  1  0  0  0  0
 15 16  1  0  0  0  0
 15 37  1  0  0  0  0
 15 38  1  0  0  0  0
 16 39  1  0  0  0  0
 17 18  1  0  0  0  0
 17 44  1  0  0  0  0
 18 23  2  0  0  0  0
 18 19  1  0  0  0  0
 19 20  2  0  0  0  0
 19 40  1  0  0  0  0
 20 21  1  0  0  0  0
 20 41  1  0  0  0  0
 21 22  2  0  0  0  0
 21 42  1  0  0  0  0
 22 23  1  0  0  0  0
 22 43  1  0  0  0  0
M  CHG  1  17   1
M  END
> <s_m_source_file>
AV-unprocessed.smi

> <i_m_source_file_index>
466

> <i_lp_mmshare_version>
43012

> <i_f3d_flags>
0

> <s_epik_input>
W0NIM11PYzFbY0hdW2NIXVtjSF1bY0hdYzFPW0NIMl1bQ0gyXW4oYyhuMilbQ0gyXVtDSDJdW09IXSljKGMyMylbY0hdW2NIXVtjSF1bY0hdMw==

> <s_epik_cmdline>
J2VwaWtfcHl0aG9uJywgJy1waCcsICc3LjAnLCAnLXRuJywgJzgnLCAnLW1hJywgJzIwMCcsICctbWV0YWxfYmluZGluZycsICctaW1hZScsICc8aW5maWxlLm1hZT4nLCAnLW9tYWUnLCAnPG91dGZpbGUubWFlPic=

> <r_lp_tautomer_probability>
1

> <r_epik_Ionization_Penalty>
0.720978

> <r_epik_Ionization_Penalty_Charging>
0.720978

> <r_epik_Ionization_Penalty_Neutral>
5.89567e-08

> <r_epik_State_Penalty>
0.7454

> <r_epik_Charging_Adjusted_Penalty>
1.46638

> <i_epik_Tot_Q>
1

> <i_epik_Tot_abs_Q>
1

> <r_epik_Metal_State_Penalty>
4.64029

> <b_epik_Metal_Only>
0

> <s_lp_Force_Field>
OPLS_2005

> <r_lp_Energy>
24.0837

> <b_lp_Chiralities_Consistent>
1

> <s_lp_Variant>
AV-unprocessed.smi:466-2

> <Gold.Version>
5.8.1

> <Gold.Id.Protein>
6NUR|6NUR_protein|mol2

> <Gold.PLP.Fitness>
61.4117

> <Gold.PLP.PLP>
-48.3310

> <Gold.PLP.part.hbond>
-7.4893

> <Gold.PLP.part.metal>
0.0000

> <Gold.PLP.part.buried>
-4.9786

> <Gold.PLP.part.nonpolar>
-36.3577

> <Gold.PLP.part.repulsive>
0.0306

> <Gold.PLP.ligand.clash>
0.0000

> <Gold.PLP.ligand.torsion>
1.9401

> <Gold.PLP.Chemscore.Hbond>
5.5680

> <Gold.PLP.Chemscore.CHOScore>
0.0000

> <Gold.PLP.Chemscore.Metal>
0.0000

> <Gold.Chemscore.Hbonds>
donor molecule, donor type, donor heavy atom, donor atom, acceptor molecule, acceptor atom, score
      L1  H    16    39       P1  7957  0.53
      L1  H    17    44       P1  8028  2.00
      P1  H  6931  6943       L1     2  1.00
      P1  H  6934  6947       L1     2  0.67
      P1  H  7989  7998       L1    16  0.34
      P1  H  8011  8017       L1    16  1.00

> <Gold.PLP.Chemscore.Internal.Correction>
0.2570

> <Gold.Rescore>
     Score         DG    S(hbond)    S(metal)    S(lipo)     H(rot)  DE(clash)    DE(int)     intcor
     20.71     -23.39       3.37        0.00     115.53       2.68       0.06       2.62       ----

> <Gold.Chemscore.Fitness>
20.7111

> <Gold.Chemscore.DG>
-23.3948

> <Gold.Chemscore.ZeroCoef>
-5.4800

> <Gold.Chemscore.Hbond>
3.3739

> <Gold.Chemscore.Metal>
0.0000

> <Gold.Chemscore.Lipo>
115.5295

> <Gold.Chemscore.Internal_Hbond>
0.0000

> <Gold.Chemscore.DEClash>
0.0635

> <Gold.Chemscore.DEInternal>
2.6203

> <Gold.Chemscore.Rot>
2.6840

> <Gold.Chemscore.Internal.Correction>
   9.000000E+99

> <Gold.Chemscore.Hbonds>
donor molecule, donor type, donor heavy atom, donor atom, acceptor molecule, acceptor atom, score
      L1  H    16    39       P1  7957  0.51
      L1  H    17    44       P1  8028  1.00
      P1  H  6931  6943       L1     2  0.37
      P1  H  6934  6947       L1     2  0.50
      P1  H  7989  7998       L1    16  0.18
      P1  H  8011  8017       L1    16  0.17

> <Gold.Chemscore.Hbond.Weighted>
-11.2688

> <Gold.Chemscore.Metal.Weighted>
-0.0000

> <Gold.Chemscore.Lipo.Weighted>
-13.5170

> <Gold.Chemscore.Internal_Hbond.Weighted>
0.0000

> <Gold.Chemscore.DEClash.Weighted>
0.0635

> <Gold.Chemscore.DEInternal.Weighted>
2.6203

> <Gold.Chemscore.Rot.Weighted>
6.8710

> <Gold.Chemscore.Internal.Correction.Weighted>
   9.000000E+99

> <Gold.Protein.RotatedTorsions>
[ 6907 6896 6895 6894 ] final  169.82 input  -60.11 | X-H torsion
[ 7974 7965 7964 7962 ] final  -30.23 input  175.53 | X-H torsion
[ 8008 7997 7996 7995 ] final    8.62 input   59.86 | X-H torsion
[ 10167 10162 10161 10158 ] final  173.15 input  -65.29 | X-H torsion
[ 10718 10713 10712 10709 ] final   22.22 input   66.30 | X-H torsion
[ 10763 10752 10751 10750 ] final   58.15 input  -60.55 | X-H torsion
[ 11005 11000 10999 10996 ] final  127.70 input  -57.11 | X-H torsion

> <Gold.Protein.ActiveResidues>
 VAL166  LYS551  ARG553  GLY616  TRP617  ASP618  TYR619  PRO620  LYS621  CYS622 
 ASP623  PHE694  ASN695  SER759  ASP760  ASP761  ALA762  ILE779  LEU786  VAL792 
 PHE793  MET794  SER795  GLU796  ALA797  LYS798  CYS799  TRP800  GLU811  SER814 

> <Gold.Protein.RotatedAtoms>
  151.8258  133.3401  159.3597 H   0  0  0  0  0  0  0  0  0  0  0  0  # atno 6907 bound_to 6896
  150.7280  134.5530  159.5813 H   0  0  0  0  0  0  0  0  0  0  0  0  # atno 6908 bound_to 6896
  152.2972  134.7654  160.0416 H   0  0  0  0  0  0  0  0  0  0  0  0  # atno 6909 bound_to 6896
  146.1158  140.5514  142.8757 H   0  0  0  0  0  0  0  0  0  0  0  0  # atno 7974 bound_to 7965
  154.7693  140.2799  155.6151 H   0  0  0  0  0  0  0  0  0  0  0  0  # atno 8008 bound_to 7997
  156.2930  140.2644  156.2419 H   0  0  0  0  0  0  0  0  0  0  0  0  # atno 8009 bound_to 7997
  154.9920  140.0373  157.2313 H   0  0  0  0  0  0  0  0  0  0  0  0  # atno 8010 bound_to 7997
  139.5099  144.3293  152.0127 H   0  0  0  0  0  0  0  0  0  0  0  0  # atno 10167 bound_to 10162
  157.1494  130.6667  149.6006 H   0  0  0  0  0  0  0  0  0  0  0  0  # atno 10718 bound_to 10713
  152.9865  135.5616  154.5506 H   0  0  0  0  0  0  0  0  0  0  0  0  # atno 10763 bound_to 10752
  154.4944  135.2794  155.1473 H   0  0  0  0  0  0  0  0  0  0  0  0  # atno 10764 bound_to 10752
  154.2929  135.6322  153.5446 H   0  0  0  0  0  0  0  0  0  0  0  0  # atno 10765 bound_to 10752
  139.9521  134.9620  156.8893 H   0  0  0  0  0  0  0  0  0  0  0  0  # atno 11005 bound_to 11000
  144.7552  140.5289  143.6774 LP  0  0  0  0  0  0  0  0  0  0  0  0  # atno 17320 bound_to 7965
  145.5569  139.1478  143.3363 LP  0  0  0  0  0  0  0  0  0  0  0  0  # atno 17321 bound_to 7965
  140.2733  144.3940  150.6144 LP  0  0  0  0  0  0  0  0  0  0  0  0  # atno 17342 bound_to 10162
  140.6072  143.2168  151.6957 LP  0  0  0  0  0  0  0  0  0  0  0  0  # atno 17343 bound_to 10162
  155.9773  130.4750  150.6587 LP  0  0  0  0  0  0  0  0  0  0  0  0  # atno 17370 bound_to 10713
  157.4235  131.0840  151.1108 LP  0  0  0  0  0  0  0  0  0  0  0  0  # atno 17371 bound_to 10713
  140.5695  134.0457  155.7425 LP  0  0  0  0  0  0  0  0  0  0  0  0  # atno 17394 bound_to 11000
  141.1186  133.9499  157.2774 LP  0  0  0  0  0  0  0  0  0  0  0  0  # atno 17395 bound_to 11000

$$$$
