AV-unprocessed.smi:260|AV-procd|sdf|1976|dock6
  -GOLD-   2262021143D 1   1.00000     0.00000
 Structure written by MMmdl.
 53 56  0  0  0  0  0  0  0  0  1 V2000
  147.2096  133.5097  152.5660 C   0  0  0  0  0  0  0  0  0  0  0  0
  148.3796  133.4127  153.4252 N   0  0  0  0  0  0  0  0  0  0  0  0
  148.3856  133.7062  154.7353 C   0  0  0  0  0  0  0  0  0  0  0  0
  147.3747  134.0994  155.3194 O   0  0  0  0  0  0  0  0  0  0  0  0
  149.7104  133.5473  155.5271 C   0  0  2  0  0  0  0  0  0  0  0  0
  150.2906  132.1448  155.2578 C   0  0  0  0  0  0  0  0  0  0  0  0
  149.5862  133.8375  157.0407 C   0  0  0  0  0  0  0  0  0  0  0  0
  149.6989  135.3626  157.1648 C   0  0  0  0  0  0  0  0  0  0  0  0
  150.3762  135.8003  155.9532 N   0  0  0  0  0  0  0  0  0  0  0  0
  151.0996  136.9491  155.9090 C   0  0  0  0  0  0  0  0  0  0  0  0
  152.0242  137.0971  154.9234 N   0  0  0  0  0  0  0  0  0  0  0  0
  152.7552  138.2117  154.8384 C   0  0  0  0  0  0  0  0  0  0  0  0
  152.7248  139.2900  155.6222 N   0  0  0  0  0  0  0  0  0  0  0  0
  151.7951  139.1561  156.6104 C   0  0  0  0  0  0  0  0  0  0  0  0
  150.9441  138.0329  156.8238 C   0  0  0  0  0  0  0  0  0  0  0  0
  150.1201  138.2761  157.9176 N   0  0  0  0  0  0  0  0  0  0  0  0
  150.4702  139.4624  158.3314 C   0  0  0  0  0  0  0  0  0  0  0  0
  151.4826  140.0570  157.6140 N   0  0  0  0  0  0  0  0  0  0  0  0
  152.0561  141.3711  157.8495 C   0  0  0  0  0  0  0  0  0  0  0  0
  151.2591  142.2253  158.8623 C   0  0  2  0  0  0  0  0  0  0  0  0
  150.5853  143.2023  158.0948 O   0  0  0  0  0  0  0  0  0  0  0  0
  152.1117  142.9783  159.9097 C   0  0  2  0  0  0  0  0  0  0  0  0
  153.0088  142.1130  160.7985 C   0  0  0  0  0  0  0  0  0  0  0  0
  153.1853  142.9413  162.0606 C   0  0  0  0  0  0  0  0  0  0  0  0
  152.0614  143.9749  161.9805 C   0  0  0  0  0  0  0  0  0  0  0  0
  151.2578  143.5562  160.8869 O   0  0  0  0  0  0  0  0  0  0  0  0
  150.6991  134.6538  155.1125 C   0  0  0  0  0  0  0  0  0  0  0  0
  147.4698  133.2161  151.5493 H   0  0  0  0  0  0  0  0  0  0  0  0
  146.8302  134.5318  152.5393 H   0  0  0  0  0  0  0  0  0  0  0  0
  146.4144  132.8519  152.9182 H   0  0  0  0  0  0  0  0  0  0  0  0
  149.2391  133.0949  153.0014 H   0  0  0  0  0  0  0  0  0  0  0  0
  151.2491  132.0085  155.7596 H   0  0  0  0  0  0  0  0  0  0  0  0
  150.4587  131.9734  154.1936 H   0  0  0  0  0  0  0  0  0  0  0  0
  149.6200  131.3639  155.6187 H   0  0  0  0  0  0  0  0  0  0  0  0
  148.6854  133.4413  157.5105 H   0  0  0  0  0  0  0  0  0  0  0  0
  150.4276  133.3841  157.5666 H   0  0  0  0  0  0  0  0  0  0  0  0
  148.7114  135.8231  157.2046 H   0  0  0  0  0  0  0  0  0  0  0  0
  150.2457  135.6394  158.0667 H   0  0  0  0  0  0  0  0  0  0  0  0
  153.4665  138.2427  154.0263 H   0  0  0  0  0  0  0  0  0  0  0  0
  149.9986  139.9372  159.1796 H   0  0  0  0  0  0  0  0  0  0  0  0
  153.0913  141.2626  158.1749 H   0  0  0  0  0  0  0  0  0  0  0  0
  152.0896  141.8759  156.8827 H   0  0  0  0  0  0  0  0  0  0  0  0
  150.5085  141.6107  159.3605 H   0  0  0  0  0  0  0  0  0  0  0  0
  150.7288  143.0161  157.1795 H   0  0  0  0  0  0  0  0  0  0  0  0
  152.7100  143.7596  159.4364 H   0  0  0  0  0  0  0  0  0  0  0  0
  152.5055  141.1783  161.0491 H   0  0  0  0  0  0  0  0  0  0  0  0
  153.9616  141.8726  160.3283 H   0  0  0  0  0  0  0  0  0  0  0  0
  153.1036  142.3189  162.9521 H   0  0  0  0  0  0  0  0  0  0  0  0
  154.1578  143.4343  162.0812 H   0  0  0  0  0  0  0  0  0  0  0  0
  151.4753  144.0296  162.8979 H   0  0  0  0  0  0  0  0  0  0  0  0
  152.4646  144.9671  161.7726 H   0  0  0  0  0  0  0  0  0  0  0  0
  151.7288  134.3465  155.3017 H   0  0  0  0  0  0  0  0  0  0  0  0
  150.6195  134.9107  154.0551 H   0  0  0  0  0  0  0  0  0  0  0  0
  1  2  1  0  0  0  0
  1 28  1  0  0  0  0
  1 29  1  0  0  0  0
  1 30  1  0  0  0  0
  2  3  1  0  0  0  0
  2 31  1  0  0  0  0
  3  4  2  0  0  0  0
  3  5  1  0  0  0  0
  5 27  1  0  0  0  0
  5  6  1  0  0  0  0
  5  7  1  0  0  0  0
  6 32  1  0  0  0  0
  6 33  1  0  0  0  0
  6 34  1  0  0  0  0
  7  8  1  0  0  0  0
  7 35  1  0  0  0  0
  7 36  1  0  0  0  0
  8  9  1  0  0  0  0
  8 37  1  0  0  0  0
  8 38  1  0  0  0  0
  9 10  1  0  0  0  0
  9 27  1  0  0  0  0
 10 15  1  0  0  0  0
 10 11  2  0  0  0  0
 11 12  1  0  0  0  0
 12 13  2  0  0  0  0
 12 39  1  0  0  0  0
 13 14  1  0  0  0  0
 14 18  1  0  0  0  0
 14 15  2  0  0  0  0
 15 16  1  0  0  0  0
 16 17  2  0  0  0  0
 17 18  1  0  0  0  0
 17 40  1  0  0  0  0
 18 19  1  0  0  0  0
 19 20  1  0  0  0  0
 19 41  1  0  0  0  0
 19 42  1  0  0  0  0
 20 21  1  0  0  0  0
 20 22  1  0  0  0  0
 20 43  1  0  0  0  0
 21 44  1  0  0  0  0
 22 26  1  0  0  0  0
 22 23  1  0  0  0  0
 22 45  1  0  0  0  0
 23 24  1  0  0  0  0
 23 46  1  0  0  0  0
 23 47  1  0  0  0  0
 24 25  1  0  0  0  0
 24 48  1  0  0  0  0
 24 49  1  0  0  0  0
 25 26  1  0  0  0  0
 25 50  1  0  0  0  0
 25 51  1  0  0  0  0
 27 52  1  0  0  0  0
 27 53  1  0  0  0  0
M  END
> <s_m_source_file>
AV-unprocessed.smi

> <i_m_source_file_index>
260

> <i_lp_mmshare_version>
43012

> <i_f3d_flags>
0

> <s_epik_input>
W0NIM11bTkhdQyg9TylbQ0BAXTEoW0NIM10pW0NIMl1bQ0gyXU4oW0NIMl0xKWMobltjSF1uMiljKGMyMyluW2NIXW4zW0NIMl1bQ0BIXShbT0hdKVtDQEBIXTRbQ0gyXVtDSDJdW0NIMl1PNA==

> <s_epik_cmdline>
J2VwaWtfcHl0aG9uJywgJy1waCcsICc3LjAnLCAnLXRuJywgJzgnLCAnLW1hJywgJzIwMCcsICctbWV0YWxfYmluZGluZycsICctaW1hZScsICc8aW5maWxlLm1hZT4nLCAnLW9tYWUnLCAnPG91dGZpbGUubWFlPic=

> <r_lp_tautomer_probability>
1

> <r_epik_Ionization_Penalty>
0.00115068

> <r_epik_Ionization_Penalty_Charging>
0

> <r_epik_Ionization_Penalty_Neutral>
0.00115068

> <r_epik_State_Penalty>
0.000668876

> <r_epik_Charging_Adjusted_Penalty>
0.000668876

> <i_epik_Tot_Q>
0

> <i_epik_Tot_abs_Q>
0

> <r_epik_Metal_State_Penalty>
-0

> <b_epik_Metal_Only>
0

> <s_lp_Force_Field>
OPLS_2005

> <r_lp_Energy>
52.371

> <b_lp_Chiralities_Consistent>
1

> <s_lp_Variant>
AV-unprocessed.smi:260-2

> <Gold.Version>
5.8.1

> <Gold.Id.Protein>
6NUR|6NUR_protein|mol2

> <Gold.PLP.Fitness>
48.5637

> <Gold.PLP.PLP>
-44.1322

> <Gold.PLP.part.hbond>
-4.0000

> <Gold.PLP.part.metal>
0.0000

> <Gold.PLP.part.buried>
-5.8372

> <Gold.PLP.part.nonpolar>
-34.5705

> <Gold.PLP.part.repulsive>
0.3001

> <Gold.PLP.ligand.clash>
0.0000

> <Gold.PLP.ligand.torsion>
1.1415

> <Gold.PLP.Chemscore.Hbond>
2.1246

> <Gold.PLP.Chemscore.CHOScore>
0.0000

> <Gold.PLP.Chemscore.Metal>
0.0000

> <Gold.Chemscore.Hbonds>
donor molecule, donor type, donor heavy atom, donor atom, acceptor molecule, acceptor atom, score
      P1  H  7997  8009       L1    13  1.00
      P1  H 10752 10764       L1    11  0.83

> <Gold.PLP.Chemscore.Internal.Correction>
0.3408

> <Gold.Rescore>
     Score         DG    S(hbond)    S(metal)    S(lipo)     H(rot)  DE(clash)    DE(int)     intcor
     11.87     -15.55       1.65        0.00      94.28       2.53       1.26       2.42       ----

> <Gold.Chemscore.Fitness>
11.8672

> <Gold.Chemscore.DG>
-15.5519

> <Gold.Chemscore.ZeroCoef>
-5.4800

> <Gold.Chemscore.Hbond>
1.6488

> <Gold.Chemscore.Metal>
0.0000

> <Gold.Chemscore.Lipo>
94.2829

> <Gold.Chemscore.Internal_Hbond>
0.0000

> <Gold.Chemscore.DEClash>
1.2640

> <Gold.Chemscore.DEInternal>
2.4207

> <Gold.Chemscore.Rot>
2.5259

> <Gold.Chemscore.Internal.Correction>
   9.000000E+99

> <Gold.Chemscore.Hbonds>
donor molecule, donor type, donor heavy atom, donor atom, acceptor molecule, acceptor atom, score
      P1  H  7997  8009       L1    13  0.86
      P1  H 10752 10764       L1    11  0.61

> <Gold.Chemscore.Hbond.Weighted>
-5.5071

> <Gold.Chemscore.Metal.Weighted>
-0.0000

> <Gold.Chemscore.Lipo.Weighted>
-11.0311

> <Gold.Chemscore.Internal_Hbond.Weighted>
0.0000

> <Gold.Chemscore.DEClash.Weighted>
1.2640

> <Gold.Chemscore.DEInternal.Weighted>
2.4207

> <Gold.Chemscore.Rot.Weighted>
6.4663

> <Gold.Chemscore.Internal.Correction.Weighted>
   9.000000E+99

> <Gold.Protein.RotatedTorsions>
[ 6907 6896 6895 6894 ] final  168.71 input  -60.11 | X-H torsion
[ 7974 7965 7964 7962 ] final -102.64 input  175.53 | X-H torsion
[ 8008 7997 7996 7995 ] final -155.05 input   59.86 | X-H torsion
[ 10167 10162 10161 10158 ] final  -25.43 input  -65.29 | X-H torsion
[ 10718 10713 10712 10709 ] final -103.07 input   66.30 | X-H torsion
[ 10763 10752 10751 10750 ] final  -78.77 input  -60.55 | X-H torsion
[ 11005 11000 10999 10996 ] final  -76.76 input  -57.11 | X-H torsion

> <Gold.Protein.ActiveResidues>
 VAL166  LYS551  ARG553  GLY616  TRP617  ASP618  TYR619  PRO620  LYS621  CYS622 
 ASP623  PHE694  ASN695  SER759  ASP760  ASP761  ALA762  ILE779  LEU786  VAL792 
 PHE793  MET794  SER795  GLU796  ALA797  LYS798  CYS799  TRP800  GLU811  SER814 

> <Gold.Protein.RotatedAtoms>
  151.8434  133.3427  159.3650 H   0  0  0  0  0  0  0  0  0  0  0  0  # atno 6907 bound_to 6896
  150.7228  134.5369  159.5737 H   0  0  0  0  0  0  0  0  0  0  0  0  # atno 6908 bound_to 6896
  152.2847  134.7789  160.0441 H   0  0  0  0  0  0  0  0  0  0  0  0  # atno 6909 bound_to 6896
  145.2662  140.9284  143.3012 H   0  0  0  0  0  0  0  0  0  0  0  0  # atno 7974 bound_to 7965
  155.6959  140.0761  157.2429 H   0  0  0  0  0  0  0  0  0  0  0  0  # atno 8008 bound_to 7997
  154.4081  140.1656  156.2190 H   0  0  0  0  0  0  0  0  0  0  0  0  # atno 8009 bound_to 7997
  155.9411  140.3384  155.6331 H   0  0  0  0  0  0  0  0  0  0  0  0  # atno 8010 bound_to 7997
  140.7286  143.4266  151.0867 H   0  0  0  0  0  0  0  0  0  0  0  0  # atno 10167 bound_to 10162
  156.0252  130.5450  150.7200 H   0  0  0  0  0  0  0  0  0  0  0  0  # atno 10718 bound_to 10713
  154.5301  135.5718  153.6752 H   0  0  0  0  0  0  0  0  0  0  0  0  # atno 10763 bound_to 10752
  152.9937  135.6202  154.2640 H   0  0  0  0  0  0  0  0  0  0  0  0  # atno 10764 bound_to 10752
  154.2566  135.2857  155.2775 H   0  0  0  0  0  0  0  0  0  0  0  0  # atno 10765 bound_to 10752
  141.1656  133.6996  156.7717 H   0  0  0  0  0  0  0  0  0  0  0  0  # atno 11005 bound_to 11000
  144.9375  139.4227  143.6465 LP  0  0  0  0  0  0  0  0  0  0  0  0  # atno 17320 bound_to 7965
  146.3260  139.8318  142.8907 LP  0  0  0  0  0  0  0  0  0  0  0  0  # atno 17321 bound_to 7965
  139.7918  143.8208  152.3152 LP  0  0  0  0  0  0  0  0  0  0  0  0  # atno 17342 bound_to 10162
  139.8194  144.7302  150.9592 LP  0  0  0  0  0  0  0  0  0  0  0  0  # atno 17343 bound_to 10162
  157.4818  131.0903  151.0527 LP  0  0  0  0  0  0  0  0  0  0  0  0  # atno 17370 bound_to 10713
  157.0958  130.5961  149.5449 LP  0  0  0  0  0  0  0  0  0  0  0  0  # atno 17371 bound_to 10713
  140.2459  134.8578  157.3619 LP  0  0  0  0  0  0  0  0  0  0  0  0  # atno 17394 bound_to 11000
  140.1750  134.4561  155.7807 LP  0  0  0  0  0  0  0  0  0  0  0  0  # atno 17395 bound_to 11000

$$$$
