AV-unprocessed.smi:101|AV-procd|sdf|937|dock7
  -GOLD-   2262017453D 1   1.00000     0.00000
 Structure written by MMmdl.
 43 45  0  0  0  0  0  0  0  0  2 V2000
  151.4633  136.8880  155.9246 C   0  0  0  0  0  0  0  0  0  0  0  0
  150.6748  138.0513  155.3484 C   0  0  0  0  0  0  0  0  0  0  0  0
  149.3584  137.9551  155.0577 C   0  0  0  0  0  0  0  0  0  0  0  0
  148.6409  139.0194  154.5364 N   0  0  0  0  0  0  0  0  0  0  0  0
  147.1564  138.9105  154.2308 C   0  0  2  0  0  0  0  0  0  0  0  0
  146.6803  137.6661  154.6534 O   0  0  0  0  0  0  0  0  0  0  0  0
  146.4820  136.8206  153.5265 C   0  0  1  0  0  0  0  0  0  0  0  0
  145.5526  135.6493  153.8704 C   0  0  0  0  0  0  0  0  0  0  0  0
  145.8764  134.5629  153.0190 O   0  0  0  0  0  0  0  0  0  0  0  0
  146.7053  133.5900  153.4396 C   0  0  0  0  0  0  0  0  0  0  0  0
  147.6139  133.7702  154.2529 O   0  0  0  0  0  0  0  0  0  0  0  0
  146.4067  132.2695  152.8136 C   0  0  0  0  0  0  0  0  0  0  0  0
  145.3693  132.1734  151.8568 C   0  0  0  0  0  0  0  0  0  0  0  0
  145.0653  130.9391  151.2500 C   0  0  0  0  0  0  0  0  0  0  0  0
  145.7956  129.7861  151.5917 C   0  0  0  0  0  0  0  0  0  0  0  0
  146.8299  129.8682  152.5421 C   0  0  0  0  0  0  0  0  0  0  0  0
  147.1347  131.1011  153.1510 C   0  0  0  0  0  0  0  0  0  0  0  0
  145.9760  137.7946  152.4606 C   0  0  1  0  0  0  0  0  0  0  0  0
  144.6014  138.0756  152.6504 O   0  0  0  0  0  0  0  0  0  0  0  0
  146.8228  139.0355  152.7203 C   0  0  2  0  0  0  0  0  0  0  0  0
  147.9601  139.0124  151.8751 O   0  0  0  0  0  0  0  0  0  0  0  0
  149.2953  140.2578  154.3072 C   0  0  0  0  0  0  0  0  0  0  0  0
  148.6282  141.1840  153.8453 O   0  0  0  0  0  0  0  0  0  0  0  0
  150.6233  140.3639  154.5954 N   0  5  0  0  0  0  0  0  0  0  0  0
  151.3536  139.3292  155.1018 C   0  0  0  0  0  0  0  0  0  0  0  0
  152.5530  139.4377  155.3548 O   0  0  0  0  0  0  0  0  0  0  0  0
  150.8383  136.0017  156.0366 H   0  0  0  0  0  0  0  0  0  0  0  0
  151.8610  137.1473  156.9062 H   0  0  0  0  0  0  0  0  0  0  0  0
  152.2976  136.6318  155.2708 H   0  0  0  0  0  0  0  0  0  0  0  0
  148.8653  137.0147  155.2477 H   0  0  0  0  0  0  0  0  0  0  0  0
  146.6793  139.6762  154.8450 H   0  0  0  0  0  0  0  0  0  0  0  0
  147.4473  136.4320  153.1976 H   0  0  0  0  0  0  0  0  0  0  0  0
  145.6574  135.3683  154.9193 H   0  0  0  0  0  0  0  0  0  0  0  0
  144.5128  135.9323  153.7025 H   0  0  0  0  0  0  0  0  0  0  0  0
  144.7950  133.0455  151.5787 H   0  0  0  0  0  0  0  0  0  0  0  0
  144.2702  130.8777  150.5216 H   0  0  0  0  0  0  0  0  0  0  0  0
  145.5627  128.8399  151.1260 H   0  0  0  0  0  0  0  0  0  0  0  0
  147.3916  128.9840  152.8059 H   0  0  0  0  0  0  0  0  0  0  0  0
  147.9345  131.1279  153.8769 H   0  0  0  0  0  0  0  0  0  0  0  0
  146.1040  137.3984  151.4521 H   0  0  0  0  0  0  0  0  0  0  0  0
  144.4912  139.0139  152.6748 H   0  0  0  0  0  0  0  0  0  0  0  0
  146.2752  139.9613  152.5381 H   0  0  0  0  0  0  0  0  0  0  0  0
  148.1891  138.1090  151.7138 H   0  0  0  0  0  0  0  0  0  0  0  0
  1  2  1  0  0  0  0
  1 27  1  0  0  0  0
  1 28  1  0  0  0  0
  1 29  1  0  0  0  0
  2 25  1  0  0  0  0
  2  3  2  0  0  0  0
  3  4  1  0  0  0  0
  3 30  1  0  0  0  0
  4  5  1  0  0  0  0
  4 22  1  0  0  0  0
  5 20  1  0  0  0  0
  5  6  1  0  0  0  0
  5 31  1  0  0  0  0
  6  7  1  0  0  0  0
  7  8  1  0  0  0  0
  7 18  1  0  0  0  0
  7 32  1  0  0  0  0
  8  9  1  0  0  0  0
  8 33  1  0  0  0  0
  8 34  1  0  0  0  0
  9 10  1  0  0  0  0
 10 11  2  0  0  0  0
 10 12  1  0  0  0  0
 12 17  1  0  0  0  0
 12 13  2  0  0  0  0
 13 14  1  0  0  0  0
 13 35  1  0  0  0  0
 14 15  2  0  0  0  0
 14 36  1  0  0  0  0
 15 16  1  0  0  0  0
 15 37  1  0  0  0  0
 16 17  2  0  0  0  0
 16 38  1  0  0  0  0
 17 39  1  0  0  0  0
 18 19  1  0  0  0  0
 18 20  1  0  0  0  0
 18 40  1  0  0  0  0
 19 41  1  0  0  0  0
 20 21  1  0  0  0  0
 20 42  1  0  0  0  0
 21 43  1  0  0  0  0
 22 23  2  0  0  0  0
 22 24  1  0  0  0  0
 24 25  1  0  0  0  0
 25 26  2  0  0  0  0
M  CHG  1  24  -1
M  END
> <s_m_source_file>
AV-unprocessed.smi

> <i_m_source_file_index>
101

> <i_lp_mmshare_version>
43012

> <i_f3d_flags>
0

> <s_epik_input>
Tz1jMVtuSF1jKD1PKW4oW2NIXWMxW0NIM10pW0NAQEhdMk9bQ0BIXShbQ0BASF0oW09IXSlbQ0BIXTJbT0hdKVtDSDJdT0MoPU8pYzNbY0hdW2NIXVtjSF1bY0hdW2NIXTM=

> <s_epik_cmdline>
J2VwaWtfcHl0aG9uJywgJy1waCcsICc3LjAnLCAnLXRuJywgJzgnLCAnLW1hJywgJzIwMCcsICctbWV0YWxfYmluZGluZycsICctaW1hZScsICc8aW5maWxlLm1hZT4nLCAnLW9tYWUnLCAnPG91dGZpbGUubWFlPic=

> <r_lp_tautomer_probability>
0.999537

> <r_epik_Ionization_Penalty>
3.21006

> <r_epik_Ionization_Penalty_Charging>
5.75142e-08

> <r_epik_Ionization_Penalty_Neutral>
3.21006

> <r_epik_State_Penalty>
3.20925

> <r_epik_Charging_Adjusted_Penalty>
3.20925

> <i_epik_Tot_Q>
-1

> <i_epik_Tot_abs_Q>
1

> <r_epik_Metal_State_Penalty>
0.119957

> <b_epik_Metal_Only>
1

> <s_epik_Chemistry_Notes>
This compound has an ester and may undergo hydrolysis at high or low pH. This compound contains an acetal/aminal-like group ( X-CH(R)-Y where X, Y are N, S, or O) that may be acid/base labile, releasing an aldehyde.

> <s_lp_Force_Field>
OPLS_2005

> <r_lp_Energy>
45.504

> <b_lp_Chiralities_Consistent>
1

> <s_lp_Variant>
AV-unprocessed.smi:101-25

> <Gold.Version>
5.8.1

> <Gold.Id.Protein>
6NUR|6NUR_protein|mol2

> <Gold.PLP.Fitness>
45.6053

> <Gold.PLP.PLP>
-34.9321

> <Gold.PLP.part.hbond>
-5.0191

> <Gold.PLP.part.metal>
0.0000

> <Gold.PLP.part.buried>
-3.3848

> <Gold.PLP.part.nonpolar>
-27.1368

> <Gold.PLP.part.repulsive>
1.1187

> <Gold.PLP.ligand.clash>
0.0000

> <Gold.PLP.ligand.torsion>
1.0427

> <Gold.PLP.Chemscore.Hbond>
4.2259

> <Gold.PLP.Chemscore.CHOScore>
0.0000

> <Gold.PLP.Chemscore.Metal>
0.0000

> <Gold.Chemscore.Hbonds>
donor molecule, donor type, donor heavy atom, donor atom, acceptor molecule, acceptor atom, score
      L1  H    19    41       P1 10175  1.00
      L1  H    21    43       P1  7948  1.00
      P1  H  7989  7998       L1    24  1.00
      P1  H  7997  8008       L1    26  0.83
      P1  H  8011  8017       L1    23  0.34

> <Gold.PLP.Chemscore.Internal.Correction>
0.0808

> <Gold.Rescore>
     Score         DG    S(hbond)    S(metal)    S(lipo)     H(rot)  DE(clash)    DE(int)     intcor
     15.74     -18.41       3.66        0.00      77.48       3.27       1.54       1.13       ----

> <Gold.Chemscore.Fitness>
15.7375

> <Gold.Chemscore.DG>
-18.4053

> <Gold.Chemscore.ZeroCoef>
-5.4800

> <Gold.Chemscore.Hbond>
3.6588

> <Gold.Chemscore.Metal>
0.0000

> <Gold.Chemscore.Lipo>
77.4758

> <Gold.Chemscore.Internal_Hbond>
0.0000

> <Gold.Chemscore.DEClash>
1.5378

> <Gold.Chemscore.DEInternal>
1.1300

> <Gold.Chemscore.Rot>
3.2656

> <Gold.Chemscore.Internal.Correction>
   9.000000E+99

> <Gold.Chemscore.Hbonds>
donor molecule, donor type, donor heavy atom, donor atom, acceptor molecule, acceptor atom, score
      L1  H    19    41       P1 10175  0.98
      L1  H    21    43       P1  7948  0.97
      P1  H  7989  7998       L1    24  0.24
      P1  H  7997  8008       L1    26  0.82
      P1  H  8011  8017       L1    23  0.27

> <Gold.Chemscore.Hbond.Weighted>
-12.2205

> <Gold.Chemscore.Metal.Weighted>
-0.0000

> <Gold.Chemscore.Lipo.Weighted>
-9.0647

> <Gold.Chemscore.Internal_Hbond.Weighted>
0.0000

> <Gold.Chemscore.DEClash.Weighted>
1.5378

> <Gold.Chemscore.DEInternal.Weighted>
1.1300

> <Gold.Chemscore.Rot.Weighted>
8.3598

> <Gold.Chemscore.Internal.Correction.Weighted>
   9.000000E+99

> <Gold.Protein.RotatedTorsions>
[ 6907 6896 6895 6894 ] final   23.14 input  -60.11 | X-H torsion
[ 7974 7965 7964 7962 ] final -116.15 input  175.53 | X-H torsion
[ 8008 7997 7996 7995 ] final  -32.81 input   59.86 | X-H torsion
[ 10167 10162 10161 10158 ] final  -94.29 input  -65.29 | X-H torsion
[ 10718 10713 10712 10709 ] final  -47.49 input   66.30 | X-H torsion
[ 10763 10752 10751 10750 ] final -138.12 input  -60.55 | X-H torsion
[ 11005 11000 10999 10996 ] final -137.30 input  -57.11 | X-H torsion

> <Gold.Protein.ActiveResidues>
 VAL166  LYS551  ARG553  GLY616  TRP617  ASP618  TYR619  PRO620  LYS621  CYS622 
 ASP623  PHE694  ASN695  SER759  ASP760  ASP761  ALA762  ILE779  LEU786  VAL792 
 PHE793  MET794  SER795  GLU796  ALA797  LYS798  CYS799  TRP800  GLU811  SER814 

> <Gold.Protein.RotatedAtoms>
  151.9379  135.0227  160.0533 H   0  0  0  0  0  0  0  0  0  0  0  0  # atno 6907 bound_to 6896
  152.2062  133.4873  159.5093 H   0  0  0  0  0  0  0  0  0  0  0  0  # atno 6908 bound_to 6896
  150.6965  134.1443  159.4159 H   0  0  0  0  0  0  0  0  0  0  0  0  # atno 6909 bound_to 6896
  145.1000  140.8546  143.3931 H   0  0  0  0  0  0  0  0  0  0  0  0  # atno 7974 bound_to 7965
  154.4168  140.1727  156.1787 H   0  0  0  0  0  0  0  0  0  0  0  0  # atno 8008 bound_to 7997
  155.9700  140.3386  155.6543 H   0  0  0  0  0  0  0  0  0  0  0  0  # atno 8009 bound_to 7997
  155.6638  140.0704  157.2535 H   0  0  0  0  0  0  0  0  0  0  0  0  # atno 8010 bound_to 7997
  140.3160  143.3077  152.0098 H   0  0  0  0  0  0  0  0  0  0  0  0  # atno 10167 bound_to 10162
  156.2079  130.4159  149.9153 H   0  0  0  0  0  0  0  0  0  0  0  0  # atno 10718 bound_to 10713
  154.8645  135.3622  154.5333 H   0  0  0  0  0  0  0  0  0  0  0  0  # atno 10763 bound_to 10752
  153.5958  135.7014  153.5409 H   0  0  0  0  0  0  0  0  0  0  0  0  # atno 10764 bound_to 10752
  153.3334  135.4118  155.1475 H   0  0  0  0  0  0  0  0  0  0  0  0  # atno 10765 bound_to 10752
  140.8724  134.2034  157.4642 H   0  0  0  0  0  0  0  0  0  0  0  0  # atno 11005 bound_to 11000
  145.0966  139.2852  143.5708 LP  0  0  0  0  0  0  0  0  0  0  0  0  # atno 17320 bound_to 7965
  146.3530  140.0520  142.8635 LP  0  0  0  0  0  0  0  0  0  0  0  0  # atno 17321 bound_to 7965
  139.4884  144.6348  151.6998 LP  0  0  0  0  0  0  0  0  0  0  0  0  # atno 17342 bound_to 10162
  140.5526  144.0400  150.6133 LP  0  0  0  0  0  0  0  0  0  0  0  0  # atno 17343 bound_to 10162
  156.6841  130.8870  151.3580 LP  0  0  0  0  0  0  0  0  0  0  0  0  # atno 17370 bound_to 10713
  157.7022  130.9346  150.0821 LP  0  0  0  0  0  0  0  0  0  0  0  0  # atno 17371 bound_to 10713
  139.8713  134.9780  156.4982 LP  0  0  0  0  0  0  0  0  0  0  0  0  # atno 17394 bound_to 11000
  140.8557  133.8098  155.9214 LP  0  0  0  0  0  0  0  0  0  0  0  0  # atno 17395 bound_to 11000

$$$$
