AV-unprocessed.smi:429|AV-procd|sdf|2545|dock9
  -GOLD-   2262022513D 1   1.00000     0.00000
 Structure written by MMmdl.
 43 44  0  0  0  0  0  0  0  0  1 V2000
  149.4708  131.5956  155.2029 C   0  0  0  0  0  0  0  0  0  0  0  0
  148.7140  132.5747  154.2988 C   0  0  0  0  0  0  0  0  0  0  0  0
  149.4763  133.8905  154.0857 C   0  0  0  0  0  0  0  0  0  0  0  0
  149.6496  134.6875  155.3915 C   0  0  0  0  0  0  0  0  0  0  0  0
  150.7341  135.7655  155.2983 C   0  0  0  0  0  0  0  0  0  0  0  0
  151.6644  135.7906  156.1046 O   0  0  0  0  0  0  0  0  0  0  0  0
  150.5966  136.6610  154.3083 N   0  0  0  0  0  0  0  0  0  0  0  0
  151.5153  137.7647  154.0462 C   0  0  0  0  0  0  0  0  0  0  0  0
  151.5839  138.8011  155.1588 C   0  0  0  0  0  0  0  0  0  0  0  0
  150.5845  139.7814  155.3307 C   0  0  0  0  0  0  0  0  0  0  0  0
  150.7125  140.7118  156.3794 C   0  0  0  0  0  0  0  0  0  0  0  0
  151.8396  140.6416  157.2326 C   0  0  0  0  0  0  0  0  0  0  0  0
  151.9850  141.5592  158.2963 N   0  0  0  0  0  0  0  0  0  0  0  0
  151.8212  142.9816  158.0009 C   0  0  0  0  0  0  0  0  0  0  0  0
  151.7299  143.7939  159.3036 C   0  0  0  0  0  0  0  0  0  0  0  0
  152.8696  143.5292  160.1143 O   0  0  0  0  0  0  0  0  0  0  0  0
  152.9475  142.1569  160.4842 C   0  0  0  0  0  0  0  0  0  0  0  0
  153.0792  141.2834  159.2245 C   0  0  0  0  0  0  0  0  0  0  0  0
  152.8062  139.7073  157.0528 N   0  0  0  0  0  0  0  0  0  0  0  0
  152.6780  138.8171  156.0467 C   0  0  0  0  0  0  0  0  0  0  0  0
  148.9075  130.6713  155.3318 H   0  0  0  0  0  0  0  0  0  0  0  0
  149.6396  132.0230  156.1918 H   0  0  0  0  0  0  0  0  0  0  0  0
  150.4415  131.3375  154.7788 H   0  0  0  0  0  0  0  0  0  0  0  0
  148.5267  132.1004  153.3349 H   0  0  0  0  0  0  0  0  0  0  0  0
  147.7370  132.7843  154.7354 H   0  0  0  0  0  0  0  0  0  0  0  0
  150.4544  133.6701  153.6552 H   0  0  0  0  0  0  0  0  0  0  0  0
  148.9453  134.4992  153.3523 H   0  0  0  0  0  0  0  0  0  0  0  0
  148.7014  135.1564  155.6601 H   0  0  0  0  0  0  0  0  0  0  0  0
  149.9071  134.0123  156.2082 H   0  0  0  0  0  0  0  0  0  0  0  0
  149.8026  136.5698  153.6912 H   0  0  0  0  0  0  0  0  0  0  0  0
  152.5128  137.3703  153.8441 H   0  0  0  0  0  0  0  0  0  0  0  0
  151.1919  138.2659  153.1337 H   0  0  0  0  0  0  0  0  0  0  0  0
  149.7310  139.8280  154.6707 H   0  0  0  0  0  0  0  0  0  0  0  0
  149.9562  141.4719  156.5064 H   0  0  0  0  0  0  0  0  0  0  0  0
  152.6671  143.3268  157.4048 H   0  0  0  0  0  0  0  0  0  0  0  0
  150.9179  143.1438  157.4115 H   0  0  0  0  0  0  0  0  0  0  0  0
  151.6934  144.8599  159.0794 H   0  0  0  0  0  0  0  0  0  0  0  0
  150.8167  143.5521  159.8499 H   0  0  0  0  0  0  0  0  0  0  0  0
  153.8122  142.0129  161.1321 H   0  0  0  0  0  0  0  0  0  0  0  0
  152.0664  141.8743  161.0626 H   0  0  0  0  0  0  0  0  0  0  0  0
  153.1036  140.2365  159.5230 H   0  0  0  0  0  0  0  0  0  0  0  0
  154.0254  141.4920  158.7236 H   0  0  0  0  0  0  0  0  0  0  0  0
  153.4746  138.0942  155.9506 H   0  0  0  0  0  0  0  0  0  0  0  0
  1  2  1  0  0  0  0
  1 21  1  0  0  0  0
  1 22  1  0  0  0  0
  1 23  1  0  0  0  0
  2  3  1  0  0  0  0
  2 24  1  0  0  0  0
  2 25  1  0  0  0  0
  3  4  1  0  0  0  0
  3 26  1  0  0  0  0
  3 27  1  0  0  0  0
  4  5  1  0  0  0  0
  4 28  1  0  0  0  0
  4 29  1  0  0  0  0
  5  6  2  0  0  0  0
  5  7  1  0  0  0  0
  7  8  1  0  0  0  0
  7 30  1  0  0  0  0
  8  9  1  0  0  0  0
  8 31  1  0  0  0  0
  8 32  1  0  0  0  0
  9 20  1  0  0  0  0
  9 10  2  0  0  0  0
 10 11  1  0  0  0  0
 10 33  1  0  0  0  0
 11 12  2  0  0  0  0
 11 34  1  0  0  0  0
 12 13  1  0  0  0  0
 12 19  1  0  0  0  0
 13 18  1  0  0  0  0
 13 14  1  0  0  0  0
 14 15  1  0  0  0  0
 14 35  1  0  0  0  0
 14 36  1  0  0  0  0
 15 16  1  0  0  0  0
 15 37  1  0  0  0  0
 15 38  1  0  0  0  0
 16 17  1  0  0  0  0
 17 18  1  0  0  0  0
 17 39  1  0  0  0  0
 17 40  1  0  0  0  0
 18 41  1  0  0  0  0
 18 42  1  0  0  0  0
 19 20  2  0  0  0  0
 20 43  1  0  0  0  0
M  END
> <s_m_source_file>
AV-unprocessed.smi

> <i_m_source_file_index>
429

> <i_lp_mmshare_version>
43012

> <i_f3d_flags>
0

> <s_epik_input>
W0NIM11bQ0gyXVtDSDJdW0NIMl1DKD1PKVtOSF1bQ0gyXWMxW2NIXVtjSF1jKG5bY0hdMSlOMltDSDJdW0NIMl1PW0NIMl1bQ0gyXTI=

> <s_epik_cmdline>
J2VwaWtfcHl0aG9uJywgJy1waCcsICc3LjAnLCAnLXRuJywgJzgnLCAnLW1hJywgJzIwMCcsICctbWV0YWxfYmluZGluZycsICctaW1hZScsICc8aW5maWxlLm1hZT4nLCAnLW9tYWUnLCAnPG91dGZpbGUubWFlPic=

> <r_lp_tautomer_probability>
1

> <r_epik_Ionization_Penalty>
0.00508978

> <r_epik_Ionization_Penalty_Charging>
0

> <r_epik_Ionization_Penalty_Neutral>
0.00508978

> <r_epik_State_Penalty>
0.0037045

> <r_epik_Charging_Adjusted_Penalty>
0.0037045

> <i_epik_Tot_Q>
0

> <i_epik_Tot_abs_Q>
0

> <r_epik_Metal_State_Penalty>
-0

> <b_epik_Metal_Only>
0

> <s_lp_Force_Field>
OPLS_2005

> <r_lp_Energy>
15.7693

> <b_lp_Chiralities_Consistent>
1

> <s_lp_Variant>
AV-unprocessed.smi:429-1

> <Gold.Version>
5.8.1

> <Gold.Id.Protein>
6NUR|6NUR_protein|mol2

> <Gold.PLP.Fitness>
48.3082

> <Gold.PLP.PLP>
-40.0354

> <Gold.PLP.part.hbond>
-4.0000

> <Gold.PLP.part.metal>
0.0000

> <Gold.PLP.part.buried>
-2.6609

> <Gold.PLP.part.nonpolar>
-33.6608

> <Gold.PLP.part.repulsive>
0.0938

> <Gold.PLP.ligand.clash>
0.0000

> <Gold.PLP.ligand.torsion>
0.5052

> <Gold.PLP.Chemscore.Hbond>
2.9760

> <Gold.PLP.Chemscore.CHOScore>
0.0000

> <Gold.PLP.Chemscore.Metal>
0.0000

> <Gold.Chemscore.Hbonds>
donor molecule, donor type, donor heavy atom, donor atom, acceptor molecule, acceptor atom, score
      L1  H     7    30       P1  7948  1.00
      P1  H  7997  8010       L1    19  0.98
      P1  H 10752 10763       L1     6  1.00

> <Gold.PLP.Chemscore.Internal.Correction>
0.3552

> <Gold.Rescore>
     Score         DG    S(hbond)    S(metal)    S(lipo)     H(rot)  DE(clash)    DE(int)     intcor
     18.52     -19.63       2.17        0.00      97.79       1.77       0.57       0.54       ----

> <Gold.Chemscore.Fitness>
18.5235

> <Gold.Chemscore.DG>
-19.6330

> <Gold.Chemscore.ZeroCoef>
-5.4800

> <Gold.Chemscore.Hbond>
2.1673

> <Gold.Chemscore.Metal>
0.0000

> <Gold.Chemscore.Lipo>
97.7888

> <Gold.Chemscore.Internal_Hbond>
0.0000

> <Gold.Chemscore.DEClash>
0.5654

> <Gold.Chemscore.DEInternal>
0.5440

> <Gold.Chemscore.Rot>
1.7684

> <Gold.Chemscore.Internal.Correction>
   9.000000E+99

> <Gold.Chemscore.Hbonds>
donor molecule, donor type, donor heavy atom, donor atom, acceptor molecule, acceptor atom, score
      L1  H     7    30       P1  7948  0.36
      P1  H  7997  8010       L1    19  0.24
      P1  H 10752 10763       L1     6  0.26

> <Gold.Chemscore.Hbond.Weighted>
-7.2387

> <Gold.Chemscore.Metal.Weighted>
-0.0000

> <Gold.Chemscore.Lipo.Weighted>
-11.4413

> <Gold.Chemscore.Internal_Hbond.Weighted>
0.0000

> <Gold.Chemscore.DEClash.Weighted>
0.5654

> <Gold.Chemscore.DEInternal.Weighted>
0.5440

> <Gold.Chemscore.Rot.Weighted>
4.5271

> <Gold.Chemscore.Internal.Correction.Weighted>
   9.000000E+99

> <Gold.Protein.RotatedTorsions>
[ 6907 6896 6895 6894 ] final  -26.75 input  -60.11 | X-H torsion
[ 7974 7965 7964 7962 ] final    8.73 input  175.53 | X-H torsion
[ 8008 7997 7996 7995 ] final   40.27 input   59.86 | X-H torsion
[ 10167 10162 10161 10158 ] final   71.21 input  -65.29 | X-H torsion
[ 10718 10713 10712 10709 ] final   55.02 input   66.30 | X-H torsion
[ 10763 10752 10751 10750 ] final   84.11 input  -60.55 | X-H torsion
[ 11005 11000 10999 10996 ] final  141.80 input  -57.11 | X-H torsion

> <Gold.Protein.ActiveResidues>
 VAL166  LYS551  ARG553  GLY616  TRP617  ASP618  TYR619  PRO620  LYS621  CYS622 
 ASP623  PHE694  ASN695  SER759  ASP760  ASP761  ALA762  ILE779  LEU786  VAL792 
 PHE793  MET794  SER795  GLU796  ALA797  LYS798  CYS799  TRP800  GLU811  SER814 

> <Gold.Protein.RotatedAtoms>
  151.1566  135.0253  159.8691 H   0  0  0  0  0  0  0  0  0  0  0  0  # atno 6907 bound_to 6896
  152.5452  134.1327  159.8456 H   0  0  0  0  0  0  0  0  0  0  0  0  # atno 6908 bound_to 6896
  151.1418  133.4920  159.2629 H   0  0  0  0  0  0  0  0  0  0  0  0  # atno 6909 bound_to 6896
  146.2412  139.9890  142.8428 H   0  0  0  0  0  0  0  0  0  0  0  0  # atno 7974 bound_to 7965
  155.2504  140.3352  155.4283 H   0  0  0  0  0  0  0  0  0  0  0  0  # atno 8008 bound_to 7997
  156.2218  140.1812  156.7502 H   0  0  0  0  0  0  0  0  0  0  0  0  # atno 8009 bound_to 7997
  154.5837  140.0649  156.9125 H   0  0  0  0  0  0  0  0  0  0  0  0  # atno 8010 bound_to 7997
  140.0485  144.5331  150.7380 H   0  0  0  0  0  0  0  0  0  0  0  0  # atno 10167 bound_to 10162
  157.5308  130.8629  149.8685 H   0  0  0  0  0  0  0  0  0  0  0  0  # atno 10718 bound_to 10713
  153.1352  135.4666  154.9410 H   0  0  0  0  0  0  0  0  0  0  0  0  # atno 10763 bound_to 10752
  154.7699  135.3156  154.8213 H   0  0  0  0  0  0  0  0  0  0  0  0  # atno 10764 bound_to 10752
  153.8747  135.6900  153.4825 H   0  0  0  0  0  0  0  0  0  0  0  0  # atno 10765 bound_to 10752
  140.0429  134.9295  157.0876 H   0  0  0  0  0  0  0  0  0  0  0  0  # atno 11005 bound_to 11000
  145.1521  140.9628  143.4426 LP  0  0  0  0  0  0  0  0  0  0  0  0  # atno 17320 bound_to 7965
  145.0195  139.3437  143.6079 LP  0  0  0  0  0  0  0  0  0  0  0  0  # atno 17321 bound_to 7965
  140.7227  143.2605  151.4224 LP  0  0  0  0  0  0  0  0  0  0  0  0  # atno 17342 bound_to 10162
  139.5968  144.1381  152.2153 LP  0  0  0  0  0  0  0  0  0  0  0  0  # atno 17343 bound_to 10162
  156.0421  130.3736  150.1409 LP  0  0  0  0  0  0  0  0  0  0  0  0  # atno 17370 bound_to 10713
  156.9594  130.9800  151.3482 LP  0  0  0  0  0  0  0  0  0  0  0  0  # atno 17371 bound_to 10713
  140.4040  134.2052  155.7163 LP  0  0  0  0  0  0  0  0  0  0  0  0  # atno 17394 bound_to 11000
  141.1892  133.8243  157.0965 LP  0  0  0  0  0  0  0  0  0  0  0  0  # atno 17395 bound_to 11000

$$$$
