AV-unprocessed.smi:3155|AV-procd|sdf|12025|dock8
  -GOLD-   2272017443D 1   1.00000     0.00000
 Structure written by MMmdl.
 38 39  0  0  0  0  0  0  0  0  2 V2000
  148.7828  142.7956  158.5662 C   0  0  0  0  0  0  0  0  0  0  0  0
  149.7045  141.8137  157.8225 C   0  0  2  0  0  0  0  0  0  0  0  0
  151.1898  141.9737  158.2260 C   0  0  0  0  0  0  0  0  0  0  0  0
  151.4740  143.2461  158.8646 N   0  0  0  0  0  0  0  0  0  0  0  0
  151.3010  144.5181  158.3602 C   0  0  0  0  0  0  0  0  0  0  0  0
  151.7154  145.3951  159.3213 C   0  0  0  0  0  0  0  0  0  0  0  0
  152.1395  144.5537  160.3873 C   0  0  0  0  0  0  0  0  0  0  0  0
  151.9974  143.2676  160.1092 N   0  0  0  0  0  0  0  0  0  0  0  0
  149.5222  141.9885  156.3643 N   0  3  0  0  0  0  0  0  0  0  0  0
  148.4177  141.2126  155.7576 C   0  0  0  0  0  0  0  0  0  0  0  0
  147.8422  141.9010  154.5112 C   0  0  0  0  0  0  0  0  0  0  0  0
  148.4103  141.7699  153.4258 O   0  0  0  0  0  0  0  0  0  0  0  0
  146.7208  142.6378  154.6491 N   0  0  0  0  0  0  0  0  0  0  0  0
  146.0355  142.8367  155.9250 C   0  0  0  0  0  0  0  0  0  0  0  0
  145.0035  143.9359  155.6721 C   0  0  0  0  0  0  0  0  0  0  0  0
  144.7139  143.8376  154.1806 C   0  0  0  0  0  0  0  0  0  0  0  0
  146.0294  143.3488  153.5741 C   0  0  0  0  0  0  0  0  0  0  0  0
  148.8057  142.6338  159.6442 H   0  0  0  0  0  0  0  0  0  0  0  0
  147.7465  142.6782  158.2473 H   0  0  0  0  0  0  0  0  0  0  0  0
  149.0735  143.8298  158.3784 H   0  0  0  0  0  0  0  0  0  0  0  0
  149.3762  140.8050  158.0779 H   0  0  0  0  0  0  0  0  0  0  0  0
  151.4951  141.1858  158.9145 H   0  0  0  0  0  0  0  0  0  0  0  0
  151.8288  141.8838  157.3464 H   0  0  0  0  0  0  0  0  0  0  0  0
  150.8996  144.6925  157.3726 H   0  0  0  0  0  0  0  0  0  0  0  0
  151.7184  146.4738  159.2703 H   0  0  0  0  0  0  0  0  0  0  0  0
  152.5449  144.8377  161.3473 H   0  0  0  0  0  0  0  0  0  0  0  0
  149.3234  142.9644  156.1954 H   0  0  0  0  0  0  0  0  0  0  0  0
  148.7794  140.2227  155.4810 H   0  0  0  0  0  0  0  0  0  0  0  0
  147.6206  141.0848  156.4909 H   0  0  0  0  0  0  0  0  0  0  0  0
  145.5424  141.9069  156.2127 H   0  0  0  0  0  0  0  0  0  0  0  0
  146.7240  143.1170  156.7239 H   0  0  0  0  0  0  0  0  0  0  0  0
  144.1091  143.8265  156.2860 H   0  0  0  0  0  0  0  0  0  0  0  0
  145.4441  144.9087  155.8946 H   0  0  0  0  0  0  0  0  0  0  0  0
  143.9340  143.0945  154.0090 H   0  0  0  0  0  0  0  0  0  0  0  0
  144.3756  144.7818  153.7524 H   0  0  0  0  0  0  0  0  0  0  0  0
  146.6381  144.1963  153.2561 H   0  0  0  0  0  0  0  0  0  0  0  0
  145.8475  142.7130  152.7066 H   0  0  0  0  0  0  0  0  0  0  0  0
  150.3848  141.7567  155.8924 H   0  0  0  0  0  0  0  0  0  0  0  0
  1  2  1  0  0  0  0
  1 18  1  0  0  0  0
  1 19  1  0  0  0  0
  1 20  1  0  0  0  0
  2  3  1  0  0  0  0
  2  9  1  0  0  0  0
  2 21  1  0  0  0  0
  3  4  1  0  0  0  0
  3 22  1  0  0  0  0
  3 23  1  0  0  0  0
  4  8  1  0  0  0  0
  4  5  1  0  0  0  0
  5  6  2  0  0  0  0
  5 24  1  0  0  0  0
  6  7  1  0  0  0  0
  6 25  1  0  0  0  0
  7  8  2  0  0  0  0
  7 26  1  0  0  0  0
  9 10  1  0  0  0  0
  9 27  1  0  0  0  0
  9 38  1  0  0  0  0
 10 11  1  0  0  0  0
 10 28  1  0  0  0  0
 10 29  1  0  0  0  0
 11 12  2  0  0  0  0
 11 13  1  0  0  0  0
 13 17  1  0  0  0  0
 13 14  1  0  0  0  0
 14 15  1  0  0  0  0
 14 30  1  0  0  0  0
 14 31  1  0  0  0  0
 15 16  1  0  0  0  0
 15 32  1  0  0  0  0
 15 33  1  0  0  0  0
 16 17  1  0  0  0  0
 16 34  1  0  0  0  0
 16 35  1  0  0  0  0
 17 36  1  0  0  0  0
 17 37  1  0  0  0  0
M  CHG  1   9   1
M  END
> <s_m_source_file>
AV-unprocessed.smi

> <i_m_source_file_index>
3155

> <i_lp_mmshare_version>
43012

> <i_f3d_flags>
0

> <s_epik_input>
bjFbY0hdW2NIXVtjSF1uMVtDSDJdW0NAQEhdKFtDSDNdKVtOSF1bQ0gyXUMoPU8pTjJbQ0gyXVtDSDJdW0NIMl1bQ0gyXTI=

> <s_epik_cmdline>
J2VwaWtfcHl0aG9uJywgJy1waCcsICc3LjAnLCAnLXRuJywgJzgnLCAnLW1hJywgJzIwMCcsICctbWV0YWxfYmluZGluZycsICctaW1hZScsICc8aW5maWxlLm1hZT4nLCAnLW9tYWUnLCAnPG91dGZpbGUubWFlPic=

> <r_lp_tautomer_probability>
1

> <r_epik_Ionization_Penalty>
0.120138

> <r_epik_Ionization_Penalty_Charging>
0.120135

> <r_epik_Ionization_Penalty_Neutral>
3.43791e-06

> <r_epik_State_Penalty>
0.109683

> <r_epik_Charging_Adjusted_Penalty>
0.229818

> <i_epik_Tot_Q>
1

> <i_epik_Tot_abs_Q>
1

> <r_epik_Metal_State_Penalty>
0.109693

> <b_epik_Metal_Only>
0

> <s_lp_Force_Field>
OPLS_2005

> <r_lp_Energy>
27.5308

> <b_lp_Chiralities_Consistent>
1

> <s_lp_Variant>
AV-unprocessed.smi:3155-1

> <Gold.Version>
5.8.1

> <Gold.Id.Protein>
6NUR|6NUR_protein|mol2

> <Gold.PLP.Fitness>
42.9956

> <Gold.PLP.PLP>
-35.0415

> <Gold.PLP.part.hbond>
-2.0000

> <Gold.PLP.part.metal>
0.0000

> <Gold.PLP.part.buried>
-2.7370

> <Gold.PLP.part.nonpolar>
-29.9807

> <Gold.PLP.part.repulsive>
0.2494

> <Gold.PLP.ligand.clash>
0.0000

> <Gold.PLP.ligand.torsion>
1.4360

> <Gold.PLP.Chemscore.Hbond>
2.6027

> <Gold.PLP.Chemscore.CHOScore>
0.9982

> <Gold.PLP.Chemscore.Metal>
0.0000

> <Gold.Chemscore.Hbonds>
donor molecule, donor type, donor heavy atom, donor atom, acceptor molecule, acceptor atom, score
      L1  H     9    27       P1  8028  2.00
      P1  H  8011  8017       L1    12  0.58
      L1  C     5    24       P1  8028  0.82

> <Gold.PLP.Chemscore.Internal.Correction>
0.0236

> <Gold.Rescore>
     Score         DG    S(hbond)    S(metal)    S(lipo)     H(rot)  DE(clash)    DE(int)     intcor
     12.93     -14.92       1.59        0.00      75.46       1.84       0.38       1.61       ----

> <Gold.Chemscore.Fitness>
12.9295

> <Gold.Chemscore.DG>
-14.9216

> <Gold.Chemscore.ZeroCoef>
-5.4800

> <Gold.Chemscore.Hbond>
1.5913

> <Gold.Chemscore.Metal>
0.0000

> <Gold.Chemscore.Lipo>
75.4565

> <Gold.Chemscore.Internal_Hbond>
0.0000

> <Gold.Chemscore.DEClash>
0.3840

> <Gold.Chemscore.DEInternal>
1.6081

> <Gold.Chemscore.Rot>
1.8366

> <Gold.Chemscore.Internal.Correction>
   9.000000E+99

> <Gold.Chemscore.Hbonds>
donor molecule, donor type, donor heavy atom, donor atom, acceptor molecule, acceptor atom, score
      L1  H     9    27       P1  8028  1.00
      P1  H  8011  8017       L1    12  0.58

> <Gold.Chemscore.Hbond.Weighted>
-5.3148

> <Gold.Chemscore.Metal.Weighted>
-0.0000

> <Gold.Chemscore.Lipo.Weighted>
-8.8284

> <Gold.Chemscore.Internal_Hbond.Weighted>
0.0000

> <Gold.Chemscore.DEClash.Weighted>
0.3840

> <Gold.Chemscore.DEInternal.Weighted>
1.6081

> <Gold.Chemscore.Rot.Weighted>
4.7017

> <Gold.Chemscore.Internal.Correction.Weighted>
   9.000000E+99

> <Gold.Protein.RotatedTorsions>
[ 6907 6896 6895 6894 ] final -142.83 input  -60.11 | X-H torsion
[ 7974 7965 7964 7962 ] final   38.82 input  175.53 | X-H torsion
[ 8008 7997 7996 7995 ] final   22.73 input   59.86 | X-H torsion
[ 10167 10162 10161 10158 ] final  -75.36 input  -65.29 | X-H torsion
[ 10718 10713 10712 10709 ] final  -23.67 input   66.30 | X-H torsion
[ 10763 10752 10751 10750 ] final -138.81 input  -60.55 | X-H torsion
[ 11005 11000 10999 10996 ] final   95.27 input  -57.11 | X-H torsion

> <Gold.Protein.ActiveResidues>
 VAL166  LYS551  ARG553  GLY616  TRP617  ASP618  TYR619  PRO620  LYS621  CYS622 
 ASP623  PHE694  ASN695  SER759  ASP760  ASP761  ALA762  ILE779  LEU786  VAL792 
 PHE793  MET794  SER795  GLU796  ALA797  LYS798  CYS799  TRP800  GLU811  SER814 

> <Gold.Protein.RotatedAtoms>
  151.0923  133.5306  159.2614 H   0  0  0  0  0  0  0  0  0  0  0  0  # atno 6907 bound_to 6896
  151.2169  135.0502  159.8943 H   0  0  0  0  0  0  0  0  0  0  0  0  # atno 6908 bound_to 6896
  152.5435  134.0731  159.8256 H   0  0  0  0  0  0  0  0  0  0  0  0  # atno 6909 bound_to 6896
  146.1032  139.5726  142.9400 H   0  0  0  0  0  0  0  0  0  0  0  0  # atno 7974 bound_to 7965
  154.9701  140.3089  155.4992 H   0  0  0  0  0  0  0  0  0  0  0  0  # atno 8008 bound_to 7997
  156.2967  140.2285  156.4732 H   0  0  0  0  0  0  0  0  0  0  0  0  # atno 8009 bound_to 7997
  154.7885  140.0441  157.1170 H   0  0  0  0  0  0  0  0  0  0  0  0  # atno 8010 bound_to 7997
  140.4949  143.2372  151.7847 H   0  0  0  0  0  0  0  0  0  0  0  0  # atno 10167 bound_to 10162
  156.4880  130.4560  149.6772 H   0  0  0  0  0  0  0  0  0  0  0  0  # atno 10718 bound_to 10713
  154.8627  135.3601  154.5445 H   0  0  0  0  0  0  0  0  0  0  0  0  # atno 10763 bound_to 10752
  153.6065  135.7011  153.5368 H   0  0  0  0  0  0  0  0  0  0  0  0  # atno 10764 bound_to 10752
  153.3246  135.4141  155.1406 H   0  0  0  0  0  0  0  0  0  0  0  0  # atno 10765 bound_to 10752
  139.8790  134.8890  156.3986 H   0  0  0  0  0  0  0  0  0  0  0  0  # atno 11005 bound_to 11000
  145.5812  141.0382  143.2121 LP  0  0  0  0  0  0  0  0  0  0  0  0  # atno 17320 bound_to 7965
  144.7450  139.7346  143.7296 LP  0  0  0  0  0  0  0  0  0  0  0  0  # atno 17321 bound_to 7965
  139.4859  144.4600  151.9552 LP  0  0  0  0  0  0  0  0  0  0  0  0  # atno 17342 bound_to 10162
  140.3688  144.2882  150.5923 LP  0  0  0  0  0  0  0  0  0  0  0  0  # atno 17343 bound_to 10162
  156.3455  130.7404  151.2356 LP  0  0  0  0  0  0  0  0  0  0  0  0  # atno 17370 bound_to 10713
  157.7477  131.0392  150.4537 LP  0  0  0  0  0  0  0  0  0  0  0  0  # atno 17371 bound_to 10713
  140.9283  133.7597  155.9992 LP  0  0  0  0  0  0  0  0  0  0  0  0  # atno 17394 bound_to 11000
  140.8361  134.3122  157.5331 LP  0  0  0  0  0  0  0  0  0  0  0  0  # atno 17395 bound_to 11000

$$$$
