#       Name:                AV-unprocessed.smi:3244
#       Creating user name   scv26
#       Creation time:       Fri Mar 27 18:27:32 2020


#       File generated by GOLD software.
#

@<TRIPOS>MOLECULE
AV-unprocessed.smi:3244
    44    45     1
SMALL
NO_CHARGES


@<TRIPOS>ATOM
      1 ****        -1.6176   3.5970   0.5463 C.3            1 S1                 0.0000
      2 ****        -2.3979   2.5867  -0.3109 C.3            1 S1                 0.0000
      3 ****        -1.8647   1.2206  -0.1761 N.am           1 S1                 0.0000
      4 ****        -2.0927   0.5094   0.9590 C.2            1 S1                 0.0000
      5 ****        -2.8753   0.8909   1.8303 O.2            1 S1                 0.0000
      6 ****        -1.3563  -0.8167   1.1962 C.3            1 S1                 0.0000
      7 ****         0.0784  -0.6081   1.4296 N.3            1 S1                 0.0000
      8 ****         0.8455  -1.8497   1.4557 C.3            1 S1                 0.0000
      9 ****         0.6705  -2.5509   2.8137 C.3            1 S1                 0.0000
     10 ****         2.3283  -1.5202   1.1876 C.3            1 S1                 0.0000
     11 ****         2.5471  -0.9820  -0.1452 N.pl3          1 S1                 0.0000
     12 ****         2.4805  -1.6396  -1.3557 C.2            1 S1                 0.0000
     13 ****         2.7590  -0.7257  -2.3312 C.2            1 S1                 0.0000
     14 ****         2.9923   0.4781  -1.6095 C.2            1 S1                 0.0000
     15 ****         2.8680   0.3209  -0.3015 N.2            1 S1                 0.0000
     16 ****        -0.9267   0.8278  -1.1969 C.3            1 S1                 0.0000
     17 ****        -1.2901   0.9491  -2.6662 C.3            1 S1                 0.0000
     18 ****        -1.1884  -0.4109  -2.0332 C.3            1 S1                 0.0000
     19 ****        -2.0091   4.6045   0.4057 H              1 S1                 0.0000
     20 ****        -0.5621   3.6107   0.2725 H              1 S1                 0.0000
     21 ****        -1.6846   3.3651   1.6094 H              1 S1                 0.0000
     22 ****        -3.4538   2.6037  -0.0359 H              1 S1                 0.0000
     23 ****        -2.3692   2.9233  -1.3461 H              1 S1                 0.0000
     24 ****        -1.7962  -1.3102   2.0632 H              1 S1                 0.0000
     25 ****        -1.5170  -1.4861   0.3526 H              1 S1                 0.0000
     26 ****         0.2531  -0.0736   2.2687 H              1 S1                 0.0000
     27 ****         0.4979  -2.5154   0.6637 H              1 S1                 0.0000
     28 ****         1.2790  -3.4542   2.8647 H              1 S1                 0.0000
     29 ****        -0.3625  -2.8529   2.9855 H              1 S1                 0.0000
     30 ****         0.9720  -1.9036   3.6382 H              1 S1                 0.0000
     31 ****         2.7093  -0.8163   1.9300 H              1 S1                 0.0000
     32 ****         2.9329  -2.4231   1.2803 H              1 S1                 0.0000
     33 ****         2.2375  -2.6899  -1.4210 H              1 S1                 0.0000
     34 ****         2.7910  -0.8916  -3.3977 H              1 S1                 0.0000
     35 ****         3.2461   1.4545  -1.9947 H              1 S1                 0.0000
     36 ****         0.1157   1.0323  -0.9625 H              1 S1                 0.0000
     37 ****        -2.2897   1.2820  -2.9387 H              1 S1                 0.0000
     38 ****        -0.4994   1.2425  -3.3537 H              1 S1                 0.0000
     39 ****        -0.3318  -1.0277  -2.2958 H              1 S1                 0.0000
     40 ****        -2.1208  -0.9510  -1.8803 H              1 S1                 0.0000
     41 ****        -3.3697   1.7525   1.7158 LP             1 S1                 0.0000
     42 ****        -3.0162   0.3390   2.6522 LP             1 S1                 0.0000
     43 ****         0.3963  -0.0792   0.6427 LP             1 S1                 0.0000
     44 ****         2.9854   1.0120   0.4117 LP             1 S1                 0.0000
@<TRIPOS>BOND
    1    1    2 1     
    2    1   19 1     
    3    1   20 1     
    4    1   21 1     
    5    2    3 1     
    6    2   22 1     
    7    2   23 1     
    8    3    4 am    
    9    3   16 1     
   10    4    5 2     
   11    4    6 1     
   12    6    7 1     
   13    6   24 1     
   14    6   25 1     
   15    7    8 1     
   16    7   26 1     
   17    8    9 1     
   18    8   10 1     
   19    8   27 1     
   20    9   28 1     
   21    9   29 1     
   22    9   30 1     
   23   10   11 1     
   24   10   31 1     
   25   10   32 1     
   26   11   15 1     
   27   11   12 1     
   28   12   13 2     
   29   12   33 1     
   30   13   14 1     
   31   13   34 1     
   32   14   15 2     
   33   14   35 1     
   34   16   18 1     
   35   16   17 1     
   36   16   36 1     
   37   17   18 1     
   38   17   37 1     
   39   17   38 1     
   40   18   39 1     
   41   18   40 1     
   42    5   41 1     
   43    5   42 1     
   44    7   43 1     
   45   15   44 1     
@<TRIPOS>SUBSTRUCTURE
      1 S1             1
@<TRIPOS>SET
LONE_PAIRS      STATIC     ATOMS    <user>   **** ""
4 41 42 43 44
DONOR_HYDROGENS      STATIC     ATOMS    <user>   **** ""
1 26
ATOM$BLUE        STATIC     ATOMS    COLORGROUP SYSTEM
4 41 42 43 44
ATOM$RED        STATIC     ATOMS    COLORGROUP SYSTEM
1 26
