#       Name:                AV-unprocessed.smi:465
#       Creating user name   scv26
#       Creation time:       Thu Mar 26 23:04:55 2020


#       File generated by GOLD software.
#

@<TRIPOS>MOLECULE
AV-unprocessed.smi:465
    47    49     1
SMALL
NO_CHARGES


@<TRIPOS>ATOM
      1 ****        -5.8714   1.8188   1.1048 C.3            1 S1                 0.0000
      2 ****        -4.3838   1.5342   1.0803 C.ar           1 S1                 0.0000
      3 ****        -3.5333   2.2960   0.2557 C.ar           1 S1                 0.0000
      4 ****        -2.1509   2.0295   0.2289 C.ar           1 S1                 0.0000
      5 ****        -1.5971   1.0023   1.0207 C.ar           1 S1                 0.0000
      6 ****        -0.2360   0.8067   0.9307 O.3            1 S1                 0.0000
      7 ****         0.3645  -0.1576   1.7855 C.3            1 S1                 0.0000
      8 ****         1.8772  -0.1844   1.5302 C.3            1 S1                 0.0000
      9 ****         2.2027  -0.5900   0.1535 N.pl3          1 S1                 0.0000
     10 ****         2.3653   0.1535  -0.9813 C.2            1 S1                 0.0000
     11 ****         2.2348   1.6375  -1.1253 C.3            1 S1                 0.0000
     12 ****         1.1078   2.0113  -2.0988 C.3            1 S1                 0.0000
     13 ****         0.9747   3.4144  -2.1641 O.3            1 S1                 0.0000
     14 ****         2.6729  -0.7136  -1.9878 N.pl3          1 S1                 1.0000
     15 ****         2.6831  -2.0211  -1.5025 C.ar           1 S1                 0.0000
     16 ****         2.9288  -3.2297  -2.1468 C.ar           1 S1                 0.0000
     17 ****         2.8506  -4.3952  -1.3567 C.ar           1 S1                 0.0000
     18 ****         2.5381  -4.3311   0.0167 C.ar           1 S1                 0.0000
     19 ****         2.2934  -3.0993   0.6590 C.ar           1 S1                 0.0000
     20 ****         2.3752  -1.9507  -0.1287 C.ar           1 S1                 0.0000
     21 ****        -2.4587   0.2398   1.8491 C.ar           1 S1                 0.0000
     22 ****        -3.8419   0.5049   1.8757 C.ar           1 S1                 0.0000
     23 ****        -6.0593   2.8909   1.0384 H              1 S1                 0.0000
     24 ****        -6.3266   1.4523   2.0255 H              1 S1                 0.0000
     25 ****        -6.3609   1.3310   0.2616 H              1 S1                 0.0000
     26 ****        -3.9382   3.0874  -0.3581 H              1 S1                 0.0000
     27 ****        -1.5091   2.6242  -0.4042 H              1 S1                 0.0000
     28 ****         0.1773   0.0996   2.8293 H              1 S1                 0.0000
     29 ****        -0.0556  -1.1475   1.6004 H              1 S1                 0.0000
     30 ****         2.3092   0.8006   1.7058 H              1 S1                 0.0000
     31 ****         2.3765  -0.8573   2.2273 H              1 S1                 0.0000
     32 ****         2.0444   2.0876  -0.1514 H              1 S1                 0.0000
     33 ****         3.1856   2.0407  -1.4754 H              1 S1                 0.0000
     34 ****         1.3133   1.6276  -3.0985 H              1 S1                 0.0000
     35 ****         0.1605   1.5807  -1.7741 H              1 S1                 0.0000
     36 ****         0.2687   3.6234  -2.7569 H              1 S1                 0.0000
     37 ****         3.1655  -3.2811  -3.1994 H              1 S1                 0.0000
     38 ****         3.0317  -5.3576  -1.8133 H              1 S1                 0.0000
     39 ****         2.4847  -5.2455   0.5895 H              1 S1                 0.0000
     40 ****         2.0518  -3.0639   1.7108 H              1 S1                 0.0000
     41 ****        -2.0839  -0.5566   2.4735 H              1 S1                 0.0000
     42 ****        -4.4854  -0.0867   2.5106 H              1 S1                 0.0000
     43 ****         2.8536  -0.4279  -2.9416 H              1 S1                 0.0000
     44 ****         0.2025   1.6851   1.1211 LP             1 S1                 0.0000
     45 ****        -0.0379   0.5324  -0.0103 LP             1 S1                 0.0000
     46 ****         1.8261   3.8183  -2.4986 LP             1 S1                 0.0000
     47 ****         0.7691   3.7760  -1.2547 LP             1 S1                 0.0000
@<TRIPOS>BOND
    1    1    2 1     
    2    1   23 1     
    3    1   24 1     
    4    1   25 1     
    5    2   22 ar    
    6    2    3 ar    
    7    3    4 ar    
    8    3   26 1     
    9    4    5 ar    
   10    4   27 1     
   11    5    6 1     
   12    5   21 ar    
   13    6    7 1     
   14    7    8 1     
   15    7   28 1     
   16    7   29 1     
   17    8    9 1     
   18    8   30 1     
   19    8   31 1     
   20    9   20 1     
   21    9   10 1     
   22   10   11 1     
   23   10   14 2     
   24   11   12 1     
   25   11   32 1     
   26   11   33 1     
   27   12   13 1     
   28   12   34 1     
   29   12   35 1     
   30   13   36 1     
   31   14   15 1     
   32   14   43 1     
   33   15   20 ar    
   34   15   16 ar    
   35   16   17 ar    
   36   16   37 1     
   37   17   18 ar    
   38   17   38 1     
   39   18   19 ar    
   40   18   39 1     
   41   19   20 ar    
   42   19   40 1     
   43   21   22 ar    
   44   21   41 1     
   45   22   42 1     
   46    6   44 1     
   47    6   45 1     
   48   13   46 1     
   49   13   47 1     
@<TRIPOS>SUBSTRUCTURE
      1 S1             1
@<TRIPOS>SET
LONE_PAIRS      STATIC     ATOMS    <user>   **** ""
4 44 45 46 47
DONOR_HYDROGENS      STATIC     ATOMS    <user>   **** ""
2 36 43
ATOM$BLUE        STATIC     ATOMS    COLORGROUP SYSTEM
4 44 45 46 47
ATOM$RED        STATIC     ATOMS    COLORGROUP SYSTEM
2 36 43
