AV-unprocessed.smi:1047|AV-procd|sdf|4571|dock3
  -GOLD-   22720 3 23D 1   1.00000     0.00000
 Structure written by MMmdl.
 56 58  0  0  0  0  0  0  0  0  2 V2000
  144.5533  134.3835  150.3696 C   0  0  0  0  0  0  0  0  0  0  0  0
  144.8190  135.8488  150.7444 C   0  0  0  0  0  0  0  0  0  0  0  0
  145.6203  136.0409  151.9521 N   0  0  0  0  0  0  0  0  0  0  0  0
  145.2313  135.0958  152.9929 C   0  0  0  0  0  0  0  0  0  0  0  0
  146.0597  135.2812  154.2751 C   0  0  0  0  0  0  0  0  0  0  0  0
  145.9346  136.6247  154.7301 O   0  0  0  0  0  0  0  0  0  0  0  0
  146.3600  137.5818  153.7627 C   0  0  2  0  0  0  0  0  0  0  0  0
  146.1904  138.9827  154.3655 C   0  0  0  0  0  0  0  0  0  0  0  0
  146.3636  140.0270  153.3370 N   0  3  0  0  0  0  0  0  0  0  0  0
  147.1523  141.1903  153.7878 C   0  0  0  0  0  0  0  0  0  0  0  0
  148.4934  140.7522  154.4052 C   0  0  1  0  0  0  0  0  0  0  0  0
  149.5121  140.9093  153.4360 O   0  0  0  0  0  0  0  0  0  0  0  0
  148.8767  141.5409  155.6766 C   0  0  0  0  0  0  0  0  0  0  0  0
  150.0698  141.0353  156.3369 N   0  0  0  0  0  0  0  0  0  0  0  0
  150.7987  139.9596  155.9807 C   0  0  0  0  0  0  0  0  0  0  0  0
  151.8674  139.6761  156.7187 N   0  0  0  0  0  0  0  0  0  0  0  0
  151.8202  140.6761  157.6744 C   0  0  0  0  0  0  0  0  0  0  0  0
  152.6792  140.9456  158.7621 C   0  0  0  0  0  0  0  0  0  0  0  0
  152.4366  142.0388  159.6237 C   0  0  0  0  0  0  0  0  0  0  0  0
  153.3876  142.2921  160.7804 C   0  0  0  0  0  0  0  0  0  0  0  0
  151.3179  142.8820  159.4041 C   0  0  0  0  0  0  0  0  0  0  0  0
  151.0348  144.0592  160.3208 C   0  0  0  0  0  0  0  0  0  0  0  0
  150.4500  142.6279  158.3215 C   0  0  0  0  0  0  0  0  0  0  0  0
  150.7042  141.5392  157.4683 C   0  0  0  0  0  0  0  0  0  0  0  0
  145.5198  137.3983  152.4827 C   0  0  0  0  0  0  0  0  0  0  0  0
  143.8616  134.3230  149.5293 H   0  0  0  0  0  0  0  0  0  0  0  0
  144.1085  133.8389  151.2029 H   0  0  0  0  0  0  0  0  0  0  0  0
  145.4651  133.8655  150.0738 H   0  0  0  0  0  0  0  0  0  0  0  0
  145.2863  136.3613  149.9022 H   0  0  0  0  0  0  0  0  0  0  0  0
  143.8500  136.3293  150.8864 H   0  0  0  0  0  0  0  0  0  0  0  0
  144.1727  135.2190  153.2279 H   0  0  0  0  0  0  0  0  0  0  0  0
  145.3531  134.0743  152.6308 H   0  0  0  0  0  0  0  0  0  0  0  0
  145.7082  134.6059  155.0552 H   0  0  0  0  0  0  0  0  0  0  0  0
  147.1099  135.0454  154.0954 H   0  0  0  0  0  0  0  0  0  0  0  0
  147.4134  137.4157  153.5285 H   0  0  0  0  0  0  0  0  0  0  0  0
  145.1927  139.0801  154.7960 H   0  0  0  0  0  0  0  0  0  0  0  0
  146.9069  139.1375  155.1737 H   0  0  0  0  0  0  0  0  0  0  0  0
  146.8239  139.6152  152.5376 H   0  0  0  0  0  0  0  0  0  0  0  0
  147.3126  141.8692  152.9488 H   0  0  0  0  0  0  0  0  0  0  0  0
  146.5665  141.7318  154.5317 H   0  0  0  0  0  0  0  0  0  0  0  0
  148.4401  139.6940  154.6647 H   0  0  0  0  0  0  0  0  0  0  0  0
  149.3487  140.3075  152.7255 H   0  0  0  0  0  0  0  0  0  0  0  0
  149.0419  142.5896  155.4269 H   0  0  0  0  0  0  0  0  0  0  0  0
  148.0536  141.5254  156.3924 H   0  0  0  0  0  0  0  0  0  0  0  0
  150.5343  139.3556  155.1249 H   0  0  0  0  0  0  0  0  0  0  0  0
  153.5301  140.3018  158.9305 H   0  0  0  0  0  0  0  0  0  0  0  0
  152.8524  142.2637  161.7297 H   0  0  0  0  0  0  0  0  0  0  0  0
  153.8606  143.2692  160.6779 H   0  0  0  0  0  0  0  0  0  0  0  0
  154.1772  141.5411  160.8191 H   0  0  0  0  0  0  0  0  0  0  0  0
  150.1663  144.6264  159.9846 H   0  0  0  0  0  0  0  0  0  0  0  0
  151.8871  144.7385  160.3476 H   0  0  0  0  0  0  0  0  0  0  0  0
  150.8363  143.7121  161.3348 H   0  0  0  0  0  0  0  0  0  0  0  0
  149.5941  143.2626  158.1463 H   0  0  0  0  0  0  0  0  0  0  0  0
  145.8576  138.1184  151.7380 H   0  0  0  0  0  0  0  0  0  0  0  0
  144.4757  137.6346  152.6944 H   0  0  0  0  0  0  0  0  0  0  0  0
  145.4520  140.3536  153.0495 H   0  0  0  0  0  0  0  0  0  0  0  0
  1  2  1  0  0  0  0
  1 26  1  0  0  0  0
  1 27  1  0  0  0  0
  1 28  1  0  0  0  0
  2  3  1  0  0  0  0
  2 29  1  0  0  0  0
  2 30  1  0  0  0  0
  3 25  1  0  0  0  0
  3  4  1  0  0  0  0
  4  5  1  0  0  0  0
  4 31  1  0  0  0  0
  4 32  1  0  0  0  0
  5  6  1  0  0  0  0
  5 33  1  0  0  0  0
  5 34  1  0  0  0  0
  6  7  1  0  0  0  0
  7  8  1  0  0  0  0
  7 25  1  0  0  0  0
  7 35  1  0  0  0  0
  8  9  1  0  0  0  0
  8 36  1  0  0  0  0
  8 37  1  0  0  0  0
  9 10  1  0  0  0  0
  9 38  1  0  0  0  0
  9 56  1  0  0  0  0
 10 11  1  0  0  0  0
 10 39  1  0  0  0  0
 10 40  1  0  0  0  0
 11 12  1  0  0  0  0
 11 13  1  0  0  0  0
 11 41  1  0  0  0  0
 12 42  1  0  0  0  0
 13 14  1  0  0  0  0
 13 43  1  0  0  0  0
 13 44  1  0  0  0  0
 14 24  1  0  0  0  0
 14 15  1  0  0  0  0
 15 16  2  0  0  0  0
 15 45  1  0  0  0  0
 16 17  1  0  0  0  0
 17 24  2  0  0  0  0
 17 18  1  0  0  0  0
 18 19  2  0  0  0  0
 18 46  1  0  0  0  0
 19 20  1  0  0  0  0
 19 21  1  0  0  0  0
 20 47  1  0  0  0  0
 20 48  1  0  0  0  0
 20 49  1  0  0  0  0
 21 22  1  0  0  0  0
 21 23  2  0  0  0  0
 22 50  1  0  0  0  0
 22 51  1  0  0  0  0
 22 52  1  0  0  0  0
 23 24  1  0  0  0  0
 23 53  1  0  0  0  0
 25 54  1  0  0  0  0
 25 55  1  0  0  0  0
M  CHG  1   9   1
M  END
> <s_m_source_file>
AV-unprocessed.smi

> <i_m_source_file_index>
1047

> <i_lp_mmshare_version>
43012

> <i_f3d_flags>
0

> <s_epik_input>
W0NIM11bQ0gyXU4xW0NIMl1bQ0gyXU9bQ0BIXShbQ0gyXTEpW0NIMl1bTkhdW0NIMl1bQ0BIXShbT0hdKVtDSDJdbihbY0hdbjIpYyhjMjMpW2NIXWMoW0NIM10pYyhbY0hdMylbQ0gzXQ==

> <s_epik_cmdline>
J2VwaWtfcHl0aG9uJywgJy1waCcsICc3LjAnLCAnLXRuJywgJzgnLCAnLW1hJywgJzIwMCcsICctbWV0YWxfYmluZGluZycsICctaW1hZScsICc8aW5maWxlLm1hZT4nLCAnLW9tYWUnLCAnPG91dGZpbGUubWFlPic=

> <r_epik_Ionization_Penalty>
0.692425

> <r_epik_Ionization_Penalty_Charging>
0.0243549

> <r_epik_Ionization_Penalty_Neutral>
0.66807

> <r_epik_State_Penalty>
0.592789

> <r_epik_Charging_Adjusted_Penalty>
0.617144

> <i_epik_Tot_Q>
1

> <i_epik_Tot_abs_Q>
1

> <r_epik_Metal_State_Penalty>
0.508021

> <b_epik_Metal_Only>
0

> <s_lp_Force_Field>
OPLS_2005

> <r_lp_Energy>
28.1656

> <b_lp_Chiralities_Consistent>
1

> <s_lp_Variant>
AV-unprocessed.smi:1047-12

> <Gold.Version>
5.8.1

> <Gold.Id.Protein>
6NUR|6NUR_protein|mol2

> <Gold.PLP.Fitness>
54.3616

> <Gold.PLP.PLP>
-44.0840

> <Gold.PLP.part.hbond>
-3.2431

> <Gold.PLP.part.metal>
0.0000

> <Gold.PLP.part.buried>
-5.7341

> <Gold.PLP.part.nonpolar>
-35.6589

> <Gold.PLP.part.repulsive>
0.2197

> <Gold.PLP.ligand.clash>
0.0000

> <Gold.PLP.ligand.torsion>
1.1215

> <Gold.PLP.Chemscore.Hbond>
4.0828

> <Gold.PLP.Chemscore.CHOScore>
0.0000

> <Gold.PLP.Chemscore.Metal>
0.0000

> <Gold.Chemscore.Hbonds>
donor molecule, donor type, donor heavy atom, donor atom, acceptor molecule, acceptor atom, score
      L1  H     9    56       P1 10175  2.00
      L1  H    12    42       P1  7957  0.86
      P1  H  7989  7998       L1    12  0.24
      P1  H  8011  8017       L1    12  0.75

> <Gold.PLP.Chemscore.Internal.Correction>
0.2723

> <Gold.Rescore>
     Score         DG    S(hbond)    S(metal)    S(lipo)     H(rot)  DE(clash)    DE(int)     intcor
     19.69     -20.90       2.38        0.00     120.88       2.60       0.17       1.03       ----

> <Gold.Chemscore.Fitness>
19.6915

> <Gold.Chemscore.DG>
-20.9009

> <Gold.Chemscore.ZeroCoef>
-5.4800

> <Gold.Chemscore.Hbond>
2.3790

> <Gold.Chemscore.Metal>
0.0000

> <Gold.Chemscore.Lipo>
120.8829

> <Gold.Chemscore.Internal_Hbond>
0.0000

> <Gold.Chemscore.DEClash>
0.1749

> <Gold.Chemscore.DEInternal>
1.0345

> <Gold.Chemscore.Rot>
2.6049

> <Gold.Chemscore.Internal.Correction>
   9.000000E+99

> <Gold.Chemscore.Hbonds>
donor molecule, donor type, donor heavy atom, donor atom, acceptor molecule, acceptor atom, score
      L1  H     9    56       P1 10175  0.96
      L1  H    12    42       P1  7957  0.86
      P1  H  7989  7998       L1    12  0.06
      P1  H  8011  8017       L1    12  0.09

> <Gold.Chemscore.Hbond.Weighted>
-7.9460

> <Gold.Chemscore.Metal.Weighted>
-0.0000

> <Gold.Chemscore.Lipo.Weighted>
-14.1433

> <Gold.Chemscore.Internal_Hbond.Weighted>
0.0000

> <Gold.Chemscore.DEClash.Weighted>
0.1749

> <Gold.Chemscore.DEInternal.Weighted>
1.0345

> <Gold.Chemscore.Rot.Weighted>
6.6685

> <Gold.Chemscore.Internal.Correction.Weighted>
   9.000000E+99

> <Gold.Protein.RotatedTorsions>
[ 6907 6896 6895 6894 ] final -172.59 input  -60.11 | X-H torsion
[ 7974 7965 7964 7962 ] final   82.21 input  175.53 | X-H torsion
[ 8008 7997 7996 7995 ] final  144.86 input   59.86 | X-H torsion
[ 10167 10162 10161 10158 ] final  -31.49 input  -65.29 | X-H torsion
[ 10718 10713 10712 10709 ] final -166.78 input   66.30 | X-H torsion
[ 10763 10752 10751 10750 ] final -118.67 input  -60.55 | X-H torsion
[ 11005 11000 10999 10996 ] final -150.74 input  -57.11 | X-H torsion

> <Gold.Protein.ActiveResidues>
 VAL166  LYS551  ARG553  GLY616  TRP617  ASP618  TYR619  PRO620  LYS621  CYS622 
 ASP623  PHE694  ASN695  SER759  ASP760  ASP761  ALA762  ILE779  LEU786  VAL792 
 PHE793  MET794  SER795  GLU796  ALA797  LYS798  CYS799  TRP800  GLU811  SER814 

> <Gold.Protein.RotatedAtoms>
  151.5425  133.3430  159.2937 H   0  0  0  0  0  0  0  0  0  0  0  0  # atno 6907 bound_to 6896
  150.8527  134.7859  159.7032 H   0  0  0  0  0  0  0  0  0  0  0  0  # atno 6908 bound_to 6896
  152.4569  134.5280  159.9854 H   0  0  0  0  0  0  0  0  0  0  0  0  # atno 6909 bound_to 6896
  145.6280  139.2399  143.2101 H   0  0  0  0  0  0  0  0  0  0  0  0  # atno 7974 bound_to 7965
  156.2898  140.2224  156.5122 H   0  0  0  0  0  0  0  0  0  0  0  0  # atno 8008 bound_to 7997
  154.7599  140.0474  157.0986 H   0  0  0  0  0  0  0  0  0  0  0  0  # atno 8009 bound_to 7997
  155.0004  140.3101  155.4873 H   0  0  0  0  0  0  0  0  0  0  0  0  # atno 8010 bound_to 7997
  140.7235  143.3766  151.1677 H   0  0  0  0  0  0  0  0  0  0  0  0  # atno 10167 bound_to 10162
  156.6728  130.9090  151.3046 H   0  0  0  0  0  0  0  0  0  0  0  0  # atno 10718 bound_to 10713
  154.8594  135.4266  154.2176 H   0  0  0  0  0  0  0  0  0  0  0  0  # atno 10763 bound_to 10752
  153.3188  135.6981  153.7055 H   0  0  0  0  0  0  0  0  0  0  0  0  # atno 10764 bound_to 10752
  153.6118  135.3518  155.2955 H   0  0  0  0  0  0  0  0  0  0  0  0  # atno 10765 bound_to 10752
  140.7370  134.3557  157.5155 H   0  0  0  0  0  0  0  0  0  0  0  0  # atno 11005 bound_to 11000
  146.1379  140.7098  142.9381 LP  0  0  0  0  0  0  0  0  0  0  0  0  # atno 17320 bound_to 7965
  144.7205  140.4356  143.7012 LP  0  0  0  0  0  0  0  0  0  0  0  0  # atno 17321 bound_to 7965
  139.7348  143.9016  152.3031 LP  0  0  0  0  0  0  0  0  0  0  0  0  # atno 17342 bound_to 10162
  139.8817  144.7014  150.8870 LP  0  0  0  0  0  0  0  0  0  0  0  0  # atno 17343 bound_to 10162
  157.7071  130.9398  150.0967 LP  0  0  0  0  0  0  0  0  0  0  0  0  # atno 17370 bound_to 10713
  156.1926  130.3655  149.8890 LP  0  0  0  0  0  0  0  0  0  0  0  0  # atno 17371 bound_to 10713
  139.8814  134.9056  156.2903 LP  0  0  0  0  0  0  0  0  0  0  0  0  # atno 17394 bound_to 11000
  140.9870  133.7232  156.0757 LP  0  0  0  0  0  0  0  0  0  0  0  0  # atno 17395 bound_to 11000

$$$$
