#       Name:                AV-unprocessed.smi:2428
#       Creating user name   scv26
#       Creation time:       Fri Mar 27 13:21:34 2020


#       File generated by GOLD software.
#

@<TRIPOS>MOLECULE
AV-unprocessed.smi:2428
    33    34     1
SMALL
NO_CHARGES


@<TRIPOS>ATOM
      1 ****        -5.6525  -1.2342  -2.3741 F              1 S1                 0.0000
      2 ****        -5.4157  -0.7240  -1.1663 C.3            1 S1                 0.0000
      3 ****        -5.9218   0.5085  -1.1154 F              1 S1                 0.0000
      4 ****        -6.0373  -1.4717  -0.2543 F              1 S1                 0.0000
      5 ****        -3.9182  -0.7257  -0.9053 C.ar           1 S1                 0.0000
      6 ****        -3.2407  -1.9321  -0.6336 C.ar           1 S1                 0.0000
      7 ****        -1.8520  -1.9001  -0.4017 C.ar           1 S1                 0.0000
      8 ****        -1.1830  -0.6596  -0.4498 C.ar           1 S1                 0.0000
      9 ****         0.1990  -0.6323  -0.2192 N.pl3          1 S1                 0.0000
     10 ****         0.9004   0.6348  -0.0727 C.3            1 S1                 0.0000
     11 ****         2.3900   0.4193   0.2229 C.3            1 S1                 0.0000
     12 ****         3.2004   1.7131   0.2644 C.3            1 S1                 0.0000
     13 ****         4.3790   1.3681   1.1622 C.3            1 S1                 0.0000
     14 ****         3.9487   0.0760   1.8630 C.3            1 S1                 0.0000
     15 ****         2.5756  -0.0854   1.5357 O.3            1 S1                 0.0000
     16 ****        -1.8268   0.5017  -0.7158 N.ar           1 S1                 0.0000
     17 ****        -3.1584   0.4639  -0.9376 C.ar           1 S1                 0.0000
     18 ****        -3.7762  -2.8696  -0.6037 H              1 S1                 0.0000
     19 ****        -1.3144  -2.8132  -0.1906 H              1 S1                 0.0000
     20 ****         0.6784  -1.4821   0.0408 H              1 S1                 0.0000
     21 ****         0.7935   1.1997  -0.9996 H              1 S1                 0.0000
     22 ****         0.4381   1.2237   0.7208 H              1 S1                 0.0000
     23 ****         2.8330  -0.2704  -0.4986 H              1 S1                 0.0000
     24 ****         3.5049   2.0503  -0.7268 H              1 S1                 0.0000
     25 ****         2.6137   2.5095   0.7247 H              1 S1                 0.0000
     26 ****         5.2892   1.2060   0.5835 H              1 S1                 0.0000
     27 ****         4.5727   2.1698   1.8759 H              1 S1                 0.0000
     28 ****         4.5118  -0.7749   1.4769 H              1 S1                 0.0000
     29 ****         4.0921   0.1170   2.9428 H              1 S1                 0.0000
     30 ****        -3.6236   1.4152  -1.1485 H              1 S1                 0.0000
     31 ****         2.3282  -1.0538   1.5677 LP             1 S1                 0.0000
     32 ****         2.0080   0.4251   2.1816 LP             1 S1                 0.0000
     33 ****        -1.3275   1.3675  -0.7473 LP             1 S1                 0.0000
@<TRIPOS>BOND
    1    1    2 1     
    2    2    3 1     
    3    2    4 1     
    4    2    5 1     
    5    5   17 ar    
    6    5    6 ar    
    7    6    7 ar    
    8    6   18 1     
    9    7    8 ar    
   10    7   19 1     
   11    8    9 1     
   12    8   16 ar    
   13    9   10 1     
   14    9   20 1     
   15   10   11 1     
   16   10   21 1     
   17   10   22 1     
   18   11   15 1     
   19   11   12 1     
   20   11   23 1     
   21   12   13 1     
   22   12   24 1     
   23   12   25 1     
   24   13   14 1     
   25   13   26 1     
   26   13   27 1     
   27   14   15 1     
   28   14   28 1     
   29   14   29 1     
   30   16   17 ar    
   31   17   30 1     
   32   15   31 1     
   33   15   32 1     
   34   16   33 1     
@<TRIPOS>SUBSTRUCTURE
      1 S1             1
@<TRIPOS>SET
LONE_PAIRS      STATIC     ATOMS    <user>   **** ""
3 31 32 33
DONOR_HYDROGENS      STATIC     ATOMS    <user>   **** ""
1 20
ATOM$BLUE        STATIC     ATOMS    COLORGROUP SYSTEM
3 31 32 33
ATOM$RED        STATIC     ATOMS    COLORGROUP SYSTEM
1 20
