AV-unprocessed.smi:358|AV-procd|sdf|2417|dock9
  -GOLD-   2262022353D 1   1.00000     0.00000
 Structure written by MMmdl.
 37 39  0  0  0  0  0  0  0  0  1 V2000
  149.6485  138.4684  153.2916 N   0  0  0  0  0  0  0  0  0  0  0  0
  149.7633  139.0487  154.4882 C   0  0  0  0  0  0  0  0  0  0  0  0
  150.1150  140.2204  154.6145 O   0  0  0  0  0  0  0  0  0  0  0  0
  149.4369  138.1823  155.7093 C   0  0  0  0  0  0  0  0  0  0  0  0
  150.3877  137.0897  155.8817 N   0  0  0  0  0  0  0  0  0  0  0  0
  151.7241  137.1401  156.0598 C   0  0  0  0  0  0  0  0  0  0  0  0
  152.6257  138.6499  156.1147 S   0  0  0  0  0  0  0  0  0  0  0  0
  151.9332  139.2708  157.6747 C   0  0  0  0  0  0  0  0  0  0  0  0
  152.7985  140.3263  158.3653 C   0  0  0  0  0  0  0  0  0  0  0  0
  153.9392  140.0571  158.7435 O   0  0  0  0  0  0  0  0  0  0  0  0
  152.2395  141.5369  158.5100 N   0  0  0  0  0  0  0  0  0  0  0  0
  152.8598  142.6715  159.1137 C   0  0  0  0  0  0  0  0  0  0  0  0
  152.2015  143.2590  160.3434 C   0  0  0  0  0  0  0  0  0  0  0  0
  152.1321  143.9962  159.0345 C   0  0  0  0  0  0  0  0  0  0  0  0
  152.2937  135.9416  156.2053 N   0  0  0  0  0  0  0  0  0  0  0  0
  151.2640  135.0314  156.1169 N   0  0  0  0  0  0  0  0  0  0  0  0
  150.1645  135.7594  155.9086 C   0  0  0  0  0  0  0  0  0  0  0  0
  148.7964  135.1685  155.7787 C   0  0  0  0  0  0  0  0  0  0  0  0
  148.5408  133.7097  156.0883 C   0  0  0  0  0  0  0  0  0  0  0  0
  148.4657  134.1981  154.6660 C   0  0  0  0  0  0  0  0  0  0  0  0
  149.8511  139.0000  152.4571 H   0  0  0  0  0  0  0  0  0  0  0  0
  149.3587  137.5037  153.2222 H   0  0  0  0  0  0  0  0  0  0  0  0
  149.4372  138.8059  156.6035 H   0  0  0  0  0  0  0  0  0  0  0  0
  148.4327  137.7658  155.6219 H   0  0  0  0  0  0  0  0  0  0  0  0
  150.9519  139.7026  157.4764 H   0  0  0  0  0  0  0  0  0  0  0  0
  151.7825  138.4250  158.3469 H   0  0  0  0  0  0  0  0  0  0  0  0
  151.2988  141.6647  158.1664 H   0  0  0  0  0  0  0  0  0  0  0  0
  153.9475  142.7196  159.0887 H   0  0  0  0  0  0  0  0  0  0  0  0
  151.2876  142.7914  160.7051 H   0  0  0  0  0  0  0  0  0  0  0  0
  152.8523  143.6655  161.1150 H   0  0  0  0  0  0  0  0  0  0  0  0
  152.7371  144.8945  158.9305 H   0  0  0  0  0  0  0  0  0  0  0  0
  151.1724  144.0200  158.5214 H   0  0  0  0  0  0  0  0  0  0  0  0
  148.0362  135.8909  156.0691 H   0  0  0  0  0  0  0  0  0  0  0  0
  149.3927  133.0882  156.3575 H   0  0  0  0  0  0  0  0  0  0  0  0
  147.6052  133.4587  156.5840 H   0  0  0  0  0  0  0  0  0  0  0  0
  147.4807  134.2745  154.2101 H   0  0  0  0  0  0  0  0  0  0  0  0
  149.2684  133.8982  153.9954 H   0  0  0  0  0  0  0  0  0  0  0  0
  1  2  1  0  0  0  0
  1 21  1  0  0  0  0
  1 22  1  0  0  0  0
  2  3  2  0  0  0  0
  2  4  1  0  0  0  0
  4  5  1  0  0  0  0
  4 23  1  0  0  0  0
  4 24  1  0  0  0  0
  5 17  1  0  0  0  0
  5  6  1  0  0  0  0
  6  7  1  0  0  0  0
  6 15  2  0  0  0  0
  7  8  1  0  0  0  0
  8  9  1  0  0  0  0
  8 25  1  0  0  0  0
  8 26  1  0  0  0  0
  9 10  2  0  0  0  0
  9 11  1  0  0  0  0
 11 12  1  0  0  0  0
 11 27  1  0  0  0  0
 12 14  1  0  0  0  0
 12 13  1  0  0  0  0
 12 28  1  0  0  0  0
 13 14  1  0  0  0  0
 13 29  1  0  0  0  0
 13 30  1  0  0  0  0
 14 31  1  0  0  0  0
 14 32  1  0  0  0  0
 15 16  1  0  0  0  0
 16 17  2  0  0  0  0
 17 18  1  0  0  0  0
 18 20  1  0  0  0  0
 18 19  1  0  0  0  0
 18 33  1  0  0  0  0
 19 20  1  0  0  0  0
 19 34  1  0  0  0  0
 19 35  1  0  0  0  0
 20 36  1  0  0  0  0
 20 37  1  0  0  0  0
M  END
> <s_m_source_file>
AV-unprocessed.smi

> <i_m_source_file_index>
358

> <i_lp_mmshare_version>
43012

> <i_f3d_flags>
0

> <s_epik_input>
W0NIMl0xW0NIMl1bQ0hdMWMybm5jKG4yW0NIMl1DKD1PKVtOSDJdKVNbQ0gyXUMoPU8pW05IXVtDSF0zW0NIMl1bQ0gyXTM=

> <s_epik_cmdline>
J2VwaWtfcHl0aG9uJywgJy1waCcsICc3LjAnLCAnLXRuJywgJzgnLCAnLW1hJywgJzIwMCcsICctbWV0YWxfYmluZGluZycsICctaW1hZScsICc8aW5maWxlLm1hZT4nLCAnLW9tYWUnLCAnPG91dGZpbGUubWFlPic=

> <r_lp_tautomer_probability>
1

> <r_epik_Ionization_Penalty>
5.83215e-07

> <r_epik_Ionization_Penalty_Charging>
0

> <r_epik_Ionization_Penalty_Neutral>
5.83215e-07

> <r_epik_State_Penalty>
-0

> <r_epik_Charging_Adjusted_Penalty>
0

> <i_epik_Tot_Q>
0

> <i_epik_Tot_abs_Q>
0

> <r_epik_Metal_State_Penalty>
-0

> <b_epik_Metal_Only>
0

> <s_lp_Force_Field>
OPLS_2005

> <r_lp_Energy>
18.9456

> <b_lp_Chiralities_Consistent>
1

> <s_lp_Variant>
AV-unprocessed.smi:358-1

> <Gold.Version>
5.8.1

> <Gold.Id.Protein>
6NUR|6NUR_protein|mol2

> <Gold.PLP.Fitness>
44.6373

> <Gold.PLP.PLP>
-30.2635

> <Gold.PLP.part.hbond>
-5.4662

> <Gold.PLP.part.metal>
0.0000

> <Gold.PLP.part.buried>
-1.5247

> <Gold.PLP.part.nonpolar>
-22.3311

> <Gold.PLP.part.repulsive>
0.3384

> <Gold.PLP.ligand.clash>
0.0000

> <Gold.PLP.ligand.torsion>
0.3460

> <Gold.PLP.Chemscore.Hbond>
4.9440

> <Gold.PLP.Chemscore.CHOScore>
0.0000

> <Gold.PLP.Chemscore.Metal>
0.0000

> <Gold.Chemscore.Hbonds>
donor molecule, donor type, donor heavy atom, donor atom, acceptor molecule, acceptor atom, score
      L1  H     1    21       P1  7957  1.00
      L1  H     1    22       P1  7948  0.75
      P1  H  7989  7998       L1     3  1.00
      P1  H  7997  8010       L1    10  0.98
      P1  H 10752 10764       L1    15  0.91

> <Gold.PLP.Chemscore.Internal.Correction>
0.2337

> <Gold.Rescore>
     Score         DG    S(hbond)    S(metal)    S(lipo)     H(rot)  DE(clash)    DE(int)     intcor
     16.63     -16.96       3.99        0.00      56.45       3.30       0.01       0.32       ----

> <Gold.Chemscore.Fitness>
16.6288

> <Gold.Chemscore.DG>
-16.9578

> <Gold.Chemscore.ZeroCoef>
-5.4800

> <Gold.Chemscore.Hbond>
3.9872

> <Gold.Chemscore.Metal>
0.0000

> <Gold.Chemscore.Lipo>
56.4482

> <Gold.Chemscore.Internal_Hbond>
0.0000

> <Gold.Chemscore.DEClash>
0.0060

> <Gold.Chemscore.DEInternal>
0.3230

> <Gold.Chemscore.Rot>
3.2984

> <Gold.Chemscore.Internal.Correction>
   9.000000E+99

> <Gold.Chemscore.Hbonds>
donor molecule, donor type, donor heavy atom, donor atom, acceptor molecule, acceptor atom, score
      L1  H     1    21       P1  7957  0.65
      L1  H     1    22       P1  7948  0.71
      P1  H  7989  7998       L1     3  0.90
      P1  H  7997  8010       L1    10  0.52
      P1  H 10752 10764       L1    15  0.18

> <Gold.Chemscore.Hbond.Weighted>
-13.3172

> <Gold.Chemscore.Metal.Weighted>
-0.0000

> <Gold.Chemscore.Lipo.Weighted>
-6.6044

> <Gold.Chemscore.Internal_Hbond.Weighted>
0.0000

> <Gold.Chemscore.DEClash.Weighted>
0.0060

> <Gold.Chemscore.DEInternal.Weighted>
0.3230

> <Gold.Chemscore.Rot.Weighted>
8.4438

> <Gold.Chemscore.Internal.Correction.Weighted>
   9.000000E+99

> <Gold.Protein.RotatedTorsions>
[ 6907 6896 6895 6894 ] final -172.48 input  -60.11 | X-H torsion
[ 7974 7965 7964 7962 ] final  135.15 input  175.53 | X-H torsion
[ 8008 7997 7996 7995 ] final    9.21 input   59.86 | X-H torsion
[ 10167 10162 10161 10158 ] final  -41.14 input  -65.29 | X-H torsion
[ 10718 10713 10712 10709 ] final   79.90 input   66.30 | X-H torsion
[ 10763 10752 10751 10750 ] final  -32.75 input  -60.55 | X-H torsion
[ 11005 11000 10999 10996 ] final  144.13 input  -57.11 | X-H torsion

> <Gold.Protein.ActiveResidues>
 VAL166  LYS551  ARG553  GLY616  TRP617  ASP618  TYR619  PRO620  LYS621  CYS622 
 ASP623  PHE694  ASN695  SER759  ASP760  ASP761  ALA762  ILE779  LEU786  VAL792 
 PHE793  MET794  SER795  GLU796  ALA797  LYS798  CYS799  TRP800  GLU811  SER814 

> <Gold.Protein.RotatedAtoms>
  151.5406  133.3433  159.2934 H   0  0  0  0  0  0  0  0  0  0  0  0  # atno 6907 bound_to 6896
  150.8538  134.7873  159.7040 H   0  0  0  0  0  0  0  0  0  0  0  0  # atno 6908 bound_to 6896
  152.4577  134.5263  159.9849 H   0  0  0  0  0  0  0  0  0  0  0  0  # atno 6909 bound_to 6896
  144.9692  139.4624  143.5441 H   0  0  0  0  0  0  0  0  0  0  0  0  # atno 7974 bound_to 7965
  154.7770  140.2812  155.6093 H   0  0  0  0  0  0  0  0  0  0  0  0  # atno 8008 bound_to 7997
  156.2943  140.2630  156.2514 H   0  0  0  0  0  0  0  0  0  0  0  0  # atno 8009 bound_to 7997
  154.9831  140.0374  157.2276 H   0  0  0  0  0  0  0  0  0  0  0  0  # atno 8010 bound_to 7997
  140.7012  143.3112  151.3025 H   0  0  0  0  0  0  0  0  0  0  0  0  # atno 10167 bound_to 10162
  157.6790  130.9935  150.2000 H   0  0  0  0  0  0  0  0  0  0  0  0  # atno 10718 bound_to 10713
  153.8188  135.6876  153.4830 H   0  0  0  0  0  0  0  0  0  0  0  0  # atno 10763 bound_to 10752
  153.1582  135.4590  154.9732 H   0  0  0  0  0  0  0  0  0  0  0  0  # atno 10764 bound_to 10752
  154.7936  135.3311  154.7662 H   0  0  0  0  0  0  0  0  0  0  0  0  # atno 10765 bound_to 10752
  140.0608  134.9206  157.1180 H   0  0  0  0  0  0  0  0  0  0  0  0  # atno 11005 bound_to 11000
  146.3377  139.8893  142.8811 LP  0  0  0  0  0  0  0  0  0  0  0  0  # atno 17320 bound_to 7965
  145.2584  141.0068  143.3841 LP  0  0  0  0  0  0  0  0  0  0  0  0  # atno 17321 bound_to 7965
  139.6535  144.0319  152.2643 LP  0  0  0  0  0  0  0  0  0  0  0  0  # atno 17342 bound_to 10162
  139.9863  144.6393  150.7855 LP  0  0  0  0  0  0  0  0  0  0  0  0  # atno 17343 bound_to 10162
  156.2693  130.3720  149.8049 LP  0  0  0  0  0  0  0  0  0  0  0  0  # atno 17370 bound_to 10713
  156.5771  130.8449  151.3372 LP  0  0  0  0  0  0  0  0  0  0  0  0  # atno 17371 bound_to 10713
  140.3774  134.2325  155.7173 LP  0  0  0  0  0  0  0  0  0  0  0  0  # atno 17394 bound_to 11000
  141.1972  133.8064  157.0638 LP  0  0  0  0  0  0  0  0  0  0  0  0  # atno 17395 bound_to 11000

$$$$
