AV-unprocessed.smi:3322|AV-procd|sdf|12773|dock5
  -GOLD-   2272019113D 1   1.00000     0.00000
 Structure written by MMmdl.
 39 40  0  0  0  0  0  0  0  0  2 V2000
  146.6950  140.4162  152.6398 C   0  0  0  0  0  0  0  0  0  0  0  0
  147.0355  138.9289  152.8337 C   0  0  2  0  0  0  0  0  0  0  0  0
  148.4933  138.7919  153.0666 N   0  3  0  0  0  0  0  0  0  0  0  0
  148.9386  139.0743  154.4479 C   0  0  0  0  0  0  0  0  0  0  0  0
  149.2802  140.5607  154.6218 C   0  0  0  0  0  0  0  0  0  0  0  0
  149.9626  140.8103  155.8765 N   0  0  0  0  0  0  0  0  0  0  0  0
  149.6182  141.6893  156.8819 C   0  0  0  0  0  0  0  0  0  0  0  0
  150.5592  141.5707  157.8642 C   0  0  0  0  0  0  0  0  0  0  0  0
  151.4485  140.5793  157.3632 C   0  0  0  0  0  0  0  0  0  0  0  0
  151.0879  140.1252  156.1734 N   0  0  0  0  0  0  0  0  0  0  0  0
  146.5691  138.1095  151.6100 C   0  0  0  0  0  0  0  0  0  0  0  0
  146.8885  138.5124  150.4897 O   0  0  0  0  0  0  0  0  0  0  0  0
  145.8248  136.9877  151.7809 N   0  0  0  0  0  0  0  0  0  0  0  0
  145.3771  136.0594  150.7355 C   0  0  0  0  0  0  0  0  0  0  0  0
  146.0062  134.6791  151.0010 C   0  0  0  0  0  0  0  0  0  0  0  0
  145.6466  134.2253  152.3026 O   0  0  0  0  0  0  0  0  0  0  0  0
  146.0583  135.1165  153.3347 C   0  0  0  0  0  0  0  0  0  0  0  0
  145.4201  136.4972  153.1034 C   0  0  0  0  0  0  0  0  0  0  0  0
  145.6256  140.5735  152.4998 H   0  0  0  0  0  0  0  0  0  0  0  0
  147.2055  140.8324  151.7701 H   0  0  0  0  0  0  0  0  0  0  0  0
  146.9953  141.0014  153.5094 H   0  0  0  0  0  0  0  0  0  0  0  0
  146.5486  138.5673  153.7388 H   0  0  0  0  0  0  0  0  0  0  0  0
  148.7680  137.8524  152.8164 H   0  0  0  0  0  0  0  0  0  0  0  0
  148.1478  138.7877  155.1426 H   0  0  0  0  0  0  0  0  0  0  0  0
  149.8125  138.4670  154.6864 H   0  0  0  0  0  0  0  0  0  0  0  0
  149.9195  140.9011  153.8059 H   0  0  0  0  0  0  0  0  0  0  0  0
  148.3755  141.1699  154.5921 H   0  0  0  0  0  0  0  0  0  0  0  0
  148.7436  142.3198  156.8163 H   0  0  0  0  0  0  0  0  0  0  0  0
  150.6049  142.1091  158.7993 H   0  0  0  0  0  0  0  0  0  0  0  0
  152.3387  140.1786  157.8253 H   0  0  0  0  0  0  0  0  0  0  0  0
  144.2888  135.9861  150.7647 H   0  0  0  0  0  0  0  0  0  0  0  0
  145.6270  136.3685  149.7238 H   0  0  0  0  0  0  0  0  0  0  0  0
  145.6524  133.9558  150.2661 H   0  0  0  0  0  0  0  0  0  0  0  0
  147.0925  134.7221  150.9093 H   0  0  0  0  0  0  0  0  0  0  0  0
  145.7444  134.7115  154.2971 H   0  0  0  0  0  0  0  0  0  0  0  0
  147.1471  135.1875  153.3562 H   0  0  0  0  0  0  0  0  0  0  0  0
  145.7004  137.1689  153.9157 H   0  0  0  0  0  0  0  0  0  0  0  0
  144.3326  136.4181  153.1417 H   0  0  0  0  0  0  0  0  0  0  0  0
  148.9691  139.4404  152.4560 H   0  0  0  0  0  0  0  0  0  0  0  0
  1  2  1  0  0  0  0
  1 19  1  0  0  0  0
  1 20  1  0  0  0  0
  1 21  1  0  0  0  0
  2  3  1  0  0  0  0
  2 11  1  0  0  0  0
  2 22  1  0  0  0  0
  3  4  1  0  0  0  0
  3 23  1  0  0  0  0
  3 39  1  0  0  0  0
  4  5  1  0  0  0  0
  4 24  1  0  0  0  0
  4 25  1  0  0  0  0
  5  6  1  0  0  0  0
  5 26  1  0  0  0  0
  5 27  1  0  0  0  0
  6 10  1  0  0  0  0
  6  7  1  0  0  0  0
  7  8  2  0  0  0  0
  7 28  1  0  0  0  0
  8  9  1  0  0  0  0
  8 29  1  0  0  0  0
  9 10  2  0  0  0  0
  9 30  1  0  0  0  0
 11 12  2  0  0  0  0
 11 13  1  0  0  0  0
 13 18  1  0  0  0  0
 13 14  1  0  0  0  0
 14 15  1  0  0  0  0
 14 31  1  0  0  0  0
 14 32  1  0  0  0  0
 15 16  1  0  0  0  0
 15 33  1  0  0  0  0
 15 34  1  0  0  0  0
 16 17  1  0  0  0  0
 17 18  1  0  0  0  0
 17 35  1  0  0  0  0
 17 36  1  0  0  0  0
 18 37  1  0  0  0  0
 18 38  1  0  0  0  0
M  CHG  1   3   1
M  END
> <s_m_source_file>
AV-unprocessed.smi

> <i_m_source_file_index>
3322

> <i_lp_mmshare_version>
43012

> <i_f3d_flags>
0

> <s_epik_input>
W0NIMl0xW0NIMl1PW0NIMl1bQ0gyXU4xQyg9TylbQ0BIXShbQ0gzXSlbTkhdW0NIMl1bQ0gyXW4yW2NIXVtjSF1bY0hdbjI=

> <s_epik_cmdline>
J2VwaWtfcHl0aG9uJywgJy1waCcsICc3LjAnLCAnLXRuJywgJzgnLCAnLW1hJywgJzIwMCcsICctbWV0YWxfYmluZGluZycsICctaW1hZScsICc8aW5maWxlLm1hZT4nLCAnLW9tYWUnLCAnPG91dGZpbGUubWFlPic=

> <r_lp_tautomer_probability>
1

> <r_epik_Ionization_Penalty>
0.3254

> <r_epik_Ionization_Penalty_Charging>
0.325398

> <r_epik_Ionization_Penalty_Neutral>
2.29478e-06

> <r_epik_State_Penalty>
0.320187

> <r_epik_Charging_Adjusted_Penalty>
0.645585

> <i_epik_Tot_Q>
1

> <i_epik_Tot_abs_Q>
1

> <r_epik_Metal_State_Penalty>
0.320558

> <b_epik_Metal_Only>
0

> <s_lp_Force_Field>
OPLS_2005

> <r_lp_Energy>
25.684

> <b_lp_Chiralities_Consistent>
1

> <s_lp_Variant>
AV-unprocessed.smi:3322-1

> <Gold.Version>
5.8.1

> <Gold.Id.Protein>
6NUR|6NUR_protein|mol2

> <Gold.PLP.Fitness>
44.0987

> <Gold.PLP.PLP>
-30.5784

> <Gold.PLP.part.hbond>
-3.0000

> <Gold.PLP.part.metal>
0.0000

> <Gold.PLP.part.buried>
0.2354

> <Gold.PLP.part.nonpolar>
-28.7600

> <Gold.PLP.part.repulsive>
1.1326

> <Gold.PLP.ligand.clash>
0.0000

> <Gold.PLP.ligand.torsion>
0.6788

> <Gold.PLP.Chemscore.Hbond>
3.9440

> <Gold.PLP.Chemscore.CHOScore>
1.0000

> <Gold.PLP.Chemscore.Metal>
0.0000

> <Gold.Chemscore.Hbonds>
donor molecule, donor type, donor heavy atom, donor atom, acceptor molecule, acceptor atom, score
      L1  H     3    23       P1  7948  2.00
      L1  H     3    39       P1  7957  1.00
      P1  H  7954  7966       L1    12  0.82
      L1  C     7    28       P1  8028  0.55

> <Gold.PLP.Chemscore.Internal.Correction>
0.0459

> <Gold.Rescore>
     Score         DG    S(hbond)    S(metal)    S(lipo)     H(rot)  DE(clash)    DE(int)     intcor
     16.36     -17.13       2.97        0.00      56.68       1.91       0.16       0.62       ----

> <Gold.Chemscore.Fitness>
16.3572

> <Gold.Chemscore.DG>
-17.1281

> <Gold.Chemscore.ZeroCoef>
-5.4800

> <Gold.Chemscore.Hbond>
2.9655

> <Gold.Chemscore.Metal>
0.0000

> <Gold.Chemscore.Lipo>
56.6817

> <Gold.Chemscore.Internal_Hbond>
0.0000

> <Gold.Chemscore.DEClash>
0.1552

> <Gold.Chemscore.DEInternal>
0.6156

> <Gold.Chemscore.Rot>
1.9095

> <Gold.Chemscore.Internal.Correction>
   9.000000E+99

> <Gold.Chemscore.Hbonds>
donor molecule, donor type, donor heavy atom, donor atom, acceptor molecule, acceptor atom, score
      L1  H     3    23       P1  7948  1.00
      L1  H     3    39       P1  7957  0.95
      P1  H  7954  7966       L1    12  0.71

> <Gold.Chemscore.Hbond.Weighted>
-9.9047

> <Gold.Chemscore.Metal.Weighted>
-0.0000

> <Gold.Chemscore.Lipo.Weighted>
-6.6318

> <Gold.Chemscore.Internal_Hbond.Weighted>
0.0000

> <Gold.Chemscore.DEClash.Weighted>
0.1552

> <Gold.Chemscore.DEInternal.Weighted>
0.6156

> <Gold.Chemscore.Rot.Weighted>
4.8884

> <Gold.Chemscore.Internal.Correction.Weighted>
   9.000000E+99

> <Gold.Protein.RotatedTorsions>
[ 6907 6896 6895 6894 ] final  -20.48 input  -60.11 | X-H torsion
[ 7974 7965 7964 7962 ] final -177.80 input  175.53 | X-H torsion
[ 8008 7997 7996 7995 ] final   53.63 input   59.86 | X-H torsion
[ 10167 10162 10161 10158 ] final -135.44 input  -65.29 | X-H torsion
[ 10718 10713 10712 10709 ] final -127.21 input   66.30 | X-H torsion
[ 10763 10752 10751 10750 ] final  176.91 input  -60.55 | X-H torsion
[ 11005 11000 10999 10996 ] final  138.37 input  -57.11 | X-H torsion

> <Gold.Protein.ActiveResidues>
 VAL166  LYS551  ARG553  GLY616  TRP617  ASP618  TYR619  PRO620  LYS621  CYS622 
 ASP623  PHE694  ASN695  SER759  ASP760  ASP761  ALA762  ILE779  LEU786  VAL792 
 PHE793  MET794  SER795  GLU796  ALA797  LYS798  CYS799  TRP800  GLU811  SER814 

> <Gold.Protein.RotatedAtoms>
  151.2476  135.0611  159.9048 H   0  0  0  0  0  0  0  0  0  0  0  0  # atno 6907 bound_to 6896
  152.5384  134.0367  159.8059 H   0  0  0  0  0  0  0  0  0  0  0  0  # atno 6908 bound_to 6896
  151.0570  133.5526  159.2668 H   0  0  0  0  0  0  0  0  0  0  0  0  # atno 6909 bound_to 6896
  144.7129  140.0964  143.6419 H   0  0  0  0  0  0  0  0  0  0  0  0  # atno 7974 bound_to 7965
  155.4714  140.3465  155.4326 H   0  0  0  0  0  0  0  0  0  0  0  0  # atno 8008 bound_to 7997
  156.1098  140.1458  156.9383 H   0  0  0  0  0  0  0  0  0  0  0  0  # atno 8009 bound_to 7997
  154.4749  140.0888  156.7215 H   0  0  0  0  0  0  0  0  0  0  0  0  # atno 8010 bound_to 7997
  139.8778  143.6876  152.2631 H   0  0  0  0  0  0  0  0  0  0  0  0  # atno 10167 bound_to 10162
  156.1836  130.6748  151.0336 H   0  0  0  0  0  0  0  0  0  0  0  0  # atno 10718 bound_to 10713
  154.4875  135.2777  155.1523 H   0  0  0  0  0  0  0  0  0  0  0  0  # atno 10763 bound_to 10752
  154.3208  135.6210  153.5510 H   0  0  0  0  0  0  0  0  0  0  0  0  # atno 10764 bound_to 10752
  152.9883  135.5742  154.5289 H   0  0  0  0  0  0  0  0  0  0  0  0  # atno 10765 bound_to 10752
  140.0178  134.9410  157.0413 H   0  0  0  0  0  0  0  0  0  0  0  0  # atno 11005 bound_to 11000
  145.9576  139.2777  143.1175 LP  0  0  0  0  0  0  0  0  0  0  0  0  # atno 17320 bound_to 7965
  145.9256  140.9085  143.0383 LP  0  0  0  0  0  0  0  0  0  0  0  0  # atno 17321 bound_to 7965
  139.7224  144.7600  151.0934 LP  0  0  0  0  0  0  0  0  0  0  0  0  # atno 17342 bound_to 10162
  140.7750  143.5191  150.9558 LP  0  0  0  0  0  0  0  0  0  0  0  0  # atno 17343 bound_to 10162
  157.6884  131.0818  150.7177 LP  0  0  0  0  0  0  0  0  0  0  0  0  # atno 17370 bound_to 10713
  156.7234  130.4687  149.5517 LP  0  0  0  0  0  0  0  0  0  0  0  0  # atno 17371 bound_to 10713
  140.4439  134.1652  155.7176 LP  0  0  0  0  0  0  0  0  0  0  0  0  # atno 17394 bound_to 11000
  141.1754  133.8524  157.1436 LP  0  0  0  0  0  0  0  0  0  0  0  0  # atno 17395 bound_to 11000

$$$$
