AV-unprocessed.smi:1102|AV-procd|sdf|4770|dock1
  -GOLD-   22720 3313D 1   1.00000     0.00000
 Structure written by MMmdl.
 39 40  0  0  0  0  0  0  0  0  1 V2000
  144.5977  131.5588  151.0534 C   0  0  0  0  0  0  0  0  0  0  0  0
  144.2113  132.7758  150.3501 N   0  0  0  0  0  0  0  0  0  0  0  0
  143.7218  132.6972  148.9775 C   0  0  0  0  0  0  0  0  0  0  0  0
  144.3885  134.0377  150.9626 C   0  0  0  0  0  0  0  0  0  0  0  0
  143.4730  134.5266  151.9274 C   0  0  0  0  0  0  0  0  0  0  0  0
  143.6927  135.7890  152.5113 C   0  0  0  0  0  0  0  0  0  0  0  0
  144.8290  136.5357  152.1245 C   0  0  0  0  0  0  0  0  0  0  0  0
  145.1507  137.8263  152.6249 N   0  0  0  0  0  0  0  0  0  0  0  0
  146.2015  138.6060  152.3177 C   0  0  0  0  0  0  0  0  0  0  0  0
  147.0796  138.3305  151.5002 O   0  0  0  0  0  0  0  0  0  0  0  0
  146.1706  139.7537  153.0092 N   0  0  0  0  0  0  0  0  0  0  0  0
  147.1632  140.8177  152.9104 C   0  0  0  0  0  0  0  0  0  0  0  0
  147.0270  141.8276  154.0621 C   0  0  1  0  0  0  0  0  0  0  0  0
  145.9102  142.8499  153.8603 C   0  0  0  0  0  0  0  0  0  0  0  0
  145.5306  143.2508  155.2781 C   0  0  0  0  0  0  0  0  0  0  0  0
  146.1945  142.1887  156.1595 C   0  0  0  0  0  0  0  0  0  0  0  0
  146.6279  141.1792  155.2592 O   0  0  0  0  0  0  0  0  0  0  0  0
  145.6740  135.9755  151.1472 C   0  0  0  0  0  0  0  0  0  0  0  0
  145.4678  134.7662  150.5860 N   0  0  0  0  0  0  0  0  0  0  0  0
  144.0010  131.4328  151.9572 H   0  0  0  0  0  0  0  0  0  0  0  0
  145.6516  131.5938  151.3312 H   0  0  0  0  0  0  0  0  0  0  0  0
  144.4481  130.6762  150.4313 H   0  0  0  0  0  0  0  0  0  0  0  0
  142.7513  133.1863  148.8871 H   0  0  0  0  0  0  0  0  0  0  0  0
  143.6028  131.6628  148.6558 H   0  0  0  0  0  0  0  0  0  0  0  0
  144.4196  133.1824  148.2945 H   0  0  0  0  0  0  0  0  0  0  0  0
  142.6033  133.9625  152.2285 H   0  0  0  0  0  0  0  0  0  0  0  0
  142.9789  136.1605  153.2294 H   0  0  0  0  0  0  0  0  0  0  0  0
  144.4717  138.2264  153.2557 H   0  0  0  0  0  0  0  0  0  0  0  0
  145.4125  139.8991  153.6597 H   0  0  0  0  0  0  0  0  0  0  0  0
  148.1658  140.3870  152.9024 H   0  0  0  0  0  0  0  0  0  0  0  0
  147.0344  141.3206  151.9518 H   0  0  0  0  0  0  0  0  0  0  0  0
  147.9711  142.3480  154.2355 H   0  0  0  0  0  0  0  0  0  0  0  0
  146.2234  143.6962  153.2484 H   0  0  0  0  0  0  0  0  0  0  0  0
  145.0530  142.3828  153.3734 H   0  0  0  0  0  0  0  0  0  0  0  0
  145.9011  144.2456  155.5277 H   0  0  0  0  0  0  0  0  0  0  0  0
  144.4472  143.2556  155.4013 H   0  0  0  0  0  0  0  0  0  0  0  0
  147.0618  142.6050  156.6740 H   0  0  0  0  0  0  0  0  0  0  0  0
  145.5165  141.7820  156.9101 H   0  0  0  0  0  0  0  0  0  0  0  0
  146.5480  136.5108  150.8054 H   0  0  0  0  0  0  0  0  0  0  0  0
  1  2  1  0  0  0  0
  1 20  1  0  0  0  0
  1 21  1  0  0  0  0
  1 22  1  0  0  0  0
  2  3  1  0  0  0  0
  2  4  1  0  0  0  0
  3 23  1  0  0  0  0
  3 24  1  0  0  0  0
  3 25  1  0  0  0  0
  4 19  1  0  0  0  0
  4  5  2  0  0  0  0
  5  6  1  0  0  0  0
  5 26  1  0  0  0  0
  6  7  2  0  0  0  0
  6 27  1  0  0  0  0
  7  8  1  0  0  0  0
  7 18  1  0  0  0  0
  8  9  1  0  0  0  0
  8 28  1  0  0  0  0
  9 10  2  0  0  0  0
  9 11  1  0  0  0  0
 11 12  1  0  0  0  0
 11 29  1  0  0  0  0
 12 13  1  0  0  0  0
 12 30  1  0  0  0  0
 12 31  1  0  0  0  0
 13 17  1  0  0  0  0
 13 14  1  0  0  0  0
 13 32  1  0  0  0  0
 14 15  1  0  0  0  0
 14 33  1  0  0  0  0
 14 34  1  0  0  0  0
 15 16  1  0  0  0  0
 15 35  1  0  0  0  0
 15 36  1  0  0  0  0
 16 17  1  0  0  0  0
 16 37  1  0  0  0  0
 16 38  1  0  0  0  0
 18 19  2  0  0  0  0
 18 39  1  0  0  0  0
M  END
> <s_m_source_file>
AV-unprocessed.smi

> <i_m_source_file_index>
1102

> <i_lp_mmshare_version>
43012

> <i_f3d_flags>
0

> <s_epik_input>
W0NIM11OKFtDSDNdKWMxW2NIXVtjSF1jKFtjSF1uMSlbTkhdQyg9TylbTkhdW0NIMl1bQ0BASF0yW0NIMl1bQ0gyXVtDSDJdTzI=

> <s_epik_cmdline>
J2VwaWtfcHl0aG9uJywgJy1waCcsICc3LjAnLCAnLXRuJywgJzgnLCAnLW1hJywgJzIwMCcsICctbWV0YWxfYmluZGluZycsICctaW1hZScsICc8aW5maWxlLm1hZT4nLCAnLW9tYWUnLCAnPG91dGZpbGUubWFlPic=

> <r_lp_tautomer_probability>
1

> <r_epik_Ionization_Penalty>
0.605145

> <r_epik_Ionization_Penalty_Charging>
0

> <r_epik_Ionization_Penalty_Neutral>
0.605145

> <r_epik_State_Penalty>
0.618734

> <r_epik_Charging_Adjusted_Penalty>
0.618734

> <i_epik_Tot_Q>
0

> <i_epik_Tot_abs_Q>
0

> <r_epik_Metal_State_Penalty>
0.302184

> <b_epik_Metal_Only>
0

> <s_lp_Force_Field>
OPLS_2005

> <r_lp_Energy>
20.895

> <b_lp_Chiralities_Consistent>
1

> <s_lp_Variant>
AV-unprocessed.smi:1102-4

> <Gold.Version>
5.8.1

> <Gold.Id.Protein>
6NUR|6NUR_protein|mol2

> <Gold.PLP.Fitness>
40.6832

> <Gold.PLP.PLP>
-37.0518

> <Gold.PLP.part.hbond>
-3.9067

> <Gold.PLP.part.metal>
0.0000

> <Gold.PLP.part.buried>
-5.2309

> <Gold.PLP.part.nonpolar>
-32.7501

> <Gold.PLP.part.repulsive>
4.4162

> <Gold.PLP.ligand.clash>
0.0000

> <Gold.PLP.ligand.torsion>
1.7433

> <Gold.PLP.Chemscore.Hbond>
1.3578

> <Gold.PLP.Chemscore.CHOScore>
1.0000

> <Gold.PLP.Chemscore.Metal>
0.0000

> <Gold.Chemscore.Hbonds>
donor molecule, donor type, donor heavy atom, donor atom, acceptor molecule, acceptor atom, score
      L1  H    11    29       P1 10175  0.08
      P1  H  7954  7966       L1    10  1.00
      L1  C    18    39       P1  7948  0.76

> <Gold.PLP.Chemscore.Internal.Correction>
0.0446

> <Gold.Rescore>
     Score         DG    S(hbond)    S(metal)    S(lipo)     H(rot)  DE(clash)    DE(int)     intcor
     11.12     -16.23       1.66        0.00      71.14       1.21       1.84       3.27       ----

> <Gold.Chemscore.Fitness>
11.1182

> <Gold.Chemscore.DG>
-16.2299

> <Gold.Chemscore.ZeroCoef>
-5.4800

> <Gold.Chemscore.Hbond>
1.6575

> <Gold.Chemscore.Metal>
0.0000

> <Gold.Chemscore.Lipo>
71.1395

> <Gold.Chemscore.Internal_Hbond>
0.0000

> <Gold.Chemscore.DEClash>
1.8417

> <Gold.Chemscore.DEInternal>
3.2700

> <Gold.Chemscore.Rot>
1.2146

> <Gold.Chemscore.Internal.Correction>
   9.000000E+99

> <Gold.Chemscore.Hbonds>
donor molecule, donor type, donor heavy atom, donor atom, acceptor molecule, acceptor atom, score
      L1  H    11    29       P1 10175  0.10
      P1  H  7954  7966       L1    10  0.97

> <Gold.Chemscore.Hbond.Weighted>
-5.5359

> <Gold.Chemscore.Metal.Weighted>
-0.0000

> <Gold.Chemscore.Lipo.Weighted>
-8.3233

> <Gold.Chemscore.Internal_Hbond.Weighted>
0.0000

> <Gold.Chemscore.DEClash.Weighted>
1.8417

> <Gold.Chemscore.DEInternal.Weighted>
3.2700

> <Gold.Chemscore.Rot.Weighted>
3.1093

> <Gold.Chemscore.Internal.Correction.Weighted>
   9.000000E+99

> <Gold.Protein.RotatedTorsions>
[ 6907 6896 6895 6894 ] final   83.15 input  -60.11 | X-H torsion
[ 7974 7965 7964 7962 ] final -170.98 input  175.53 | X-H torsion
[ 8008 7997 7996 7995 ] final   70.06 input   59.86 | X-H torsion
[ 10167 10162 10161 10158 ] final  104.64 input  -65.29 | X-H torsion
[ 10718 10713 10712 10709 ] final -149.44 input   66.30 | X-H torsion
[ 10763 10752 10751 10750 ] final  -31.49 input  -60.55 | X-H torsion
[ 11005 11000 10999 10996 ] final  173.12 input  -57.11 | X-H torsion

> <Gold.Protein.ActiveResidues>
 VAL166  LYS551  ARG553  GLY616  TRP617  ASP618  TYR619  PRO620  LYS621  CYS622 
 ASP623  PHE694  ASN695  SER759  ASP760  ASP761  ALA762  ILE779  LEU786  VAL792 
 PHE793  MET794  SER795  GLU796  ALA797  LYS798  CYS799  TRP800  GLU811  SER814 

> <Gold.Protein.RotatedAtoms>
  152.5319  134.2940  159.9053 H   0  0  0  0  0  0  0  0  0  0  0  0  # atno 6907 bound_to 6896
  151.2892  133.4167  159.2639 H   0  0  0  0  0  0  0  0  0  0  0  0  # atno 6908 bound_to 6896
  151.0216  134.9489  159.8119 H   0  0  0  0  0  0  0  0  0  0  0  0  # atno 6909 bound_to 6896
  144.7163  140.1990  143.6340 H   0  0  0  0  0  0  0  0  0  0  0  0  # atno 7974 bound_to 7965
  155.7331  140.3491  155.5069 H   0  0  0  0  0  0  0  0  0  0  0  0  # atno 8008 bound_to 7997
  155.9164  140.1059  157.1262 H   0  0  0  0  0  0  0  0  0  0  0  0  # atno 8009 bound_to 7997
  154.4063  140.1258  156.4610 H   0  0  0  0  0  0  0  0  0  0  0  0  # atno 8010 bound_to 7997
  139.7160  144.7068  151.0949 H   0  0  0  0  0  0  0  0  0  0  0  0  # atno 10167 bound_to 10162
  156.4332  130.8086  151.2313 H   0  0  0  0  0  0  0  0  0  0  0  0  # atno 10718 bound_to 10713
  153.7983  135.6892  153.4860 H   0  0  0  0  0  0  0  0  0  0  0  0  # atno 10763 bound_to 10752
  153.1705  135.4544  154.9894 H   0  0  0  0  0  0  0  0  0  0  0  0  # atno 10764 bound_to 10752
  154.8017  135.3340  154.7473 H   0  0  0  0  0  0  0  0  0  0  0  0  # atno 10765 bound_to 10752
  140.3370  134.7308  157.4175 H   0  0  0  0  0  0  0  0  0  0  0  0  # atno 11005 bound_to 11000
  145.8697  139.2265  143.1668 LP  0  0  0  0  0  0  0  0  0  0  0  0  # atno 17320 bound_to 7965
  146.0096  140.8447  142.9977 LP  0  0  0  0  0  0  0  0  0  0  0  0  # atno 17321 bound_to 7965
  140.7744  143.5229  150.9515 LP  0  0  0  0  0  0  0  0  0  0  0  0  # atno 17342 bound_to 10162
  139.8915  143.6947  152.3144 LP  0  0  0  0  0  0  0  0  0  0  0  0  # atno 17343 bound_to 10162
  157.7508  131.0192  150.3656 LP  0  0  0  0  0  0  0  0  0  0  0  0  # atno 17370 bound_to 10713
  156.3997  130.3913  149.6968 LP  0  0  0  0  0  0  0  0  0  0  0  0  # atno 17371 bound_to 10713
  140.0812  134.5728  155.8538 LP  0  0  0  0  0  0  0  0  0  0  0  0  # atno 17394 bound_to 11000
  141.2048  133.6642  156.6145 LP  0  0  0  0  0  0  0  0  0  0  0  0  # atno 17395 bound_to 11000

$$$$
