AV-unprocessed.smi:2912|AV-procd|sdf|11181|dock1
  -GOLD-   2272016 73D 1   1.00000     0.00000
 Structure written by MMmdl.
 31 32  0  0  0  0  0  0  0  0  1 V2000
  153.0619  143.5749  163.3461 C   0  0  0  0  0  0  0  0  0  0  0  0
  153.0985  142.8558  162.0911 N   0  0  0  0  0  0  0  0  0  0  0  0
  153.6767  141.6362  161.8148 C   0  0  0  0  0  0  0  0  0  0  0  0
  153.4413  141.3591  160.4973 C   0  0  0  0  0  0  0  0  0  0  0  0
  153.8270  140.1328  159.7107 C   0  0  0  0  0  0  0  0  0  0  0  0
  152.6115  139.3748  159.1404 C   0  0  0  0  0  0  0  0  0  0  0  0
  152.4674  139.5819  157.7010 N   0  0  0  0  0  0  0  0  0  0  0  0
  151.5488  140.3680  157.1138 C   0  0  0  0  0  0  0  0  0  0  0  0
  150.7991  141.1080  157.7525 O   0  0  0  0  0  0  0  0  0  0  0  0
  151.4542  140.2841  155.5813 C   0  0  0  0  0  0  0  0  0  0  0  0
  149.7621  140.0150  154.9978 S   0  0  0  0  0  0  0  0  0  0  0  0
  149.9520  138.2176  155.0616 C   0  0  0  0  0  0  0  0  0  0  0  0
  151.2916  137.8492  154.4110 C   0  0  0  0  0  0  0  0  0  0  0  0
  152.5826  139.0274  154.9143 S   0  0  0  0  0  0  0  0  0  0  0  0
  152.7109  142.4961  160.0471 C   0  0  0  0  0  0  0  0  0  0  0  0
  152.5051  143.3873  161.0031 N   0  0  0  0  0  0  0  0  0  0  0  0
  153.6332  143.0364  164.1024 H   0  0  0  0  0  0  0  0  0  0  0  0
  152.0300  143.6730  163.6842 H   0  0  0  0  0  0  0  0  0  0  0  0
  153.4927  144.5680  163.2162 H   0  0  0  0  0  0  0  0  0  0  0  0
  154.1897  141.0641  162.5737 H   0  0  0  0  0  0  0  0  0  0  0  0
  154.4928  140.4001  158.8896 H   0  0  0  0  0  0  0  0  0  0  0  0
  154.4006  139.4495  160.3379 H   0  0  0  0  0  0  0  0  0  0  0  0
  152.6972  138.3118  159.3711 H   0  0  0  0  0  0  0  0  0  0  0  0
  151.7006  139.7169  159.6322 H   0  0  0  0  0  0  0  0  0  0  0  0
  153.0500  139.0152  157.1016 H   0  0  0  0  0  0  0  0  0  0  0  0
  151.7754  141.2526  155.1978 H   0  0  0  0  0  0  0  0  0  0  0  0
  149.9455  137.9061  156.1066 H   0  0  0  0  0  0  0  0  0  0  0  0
  149.1148  137.7249  154.5675 H   0  0  0  0  0  0  0  0  0  0  0  0
  151.5913  136.8308  154.6575 H   0  0  0  0  0  0  0  0  0  0  0  0
  151.1958  137.9044  153.3265 H   0  0  0  0  0  0  0  0  0  0  0  0
  152.3133  142.6908  159.0620 H   0  0  0  0  0  0  0  0  0  0  0  0
  1  2  1  0  0  0  0
  1 17  1  0  0  0  0
  1 18  1  0  0  0  0
  1 19  1  0  0  0  0
  2 16  1  0  0  0  0
  2  3  1  0  0  0  0
  3  4  2  0  0  0  0
  3 20  1  0  0  0  0
  4  5  1  0  0  0  0
  4 15  1  0  0  0  0
  5  6  1  0  0  0  0
  5 21  1  0  0  0  0
  5 22  1  0  0  0  0
  6  7  1  0  0  0  0
  6 23  1  0  0  0  0
  6 24  1  0  0  0  0
  7  8  1  0  0  0  0
  7 25  1  0  0  0  0
  8  9  2  0  0  0  0
  8 10  1  0  0  0  0
 10 14  1  0  0  0  0
 10 11  1  0  0  0  0
 10 26  1  0  0  0  0
 11 12  1  0  0  0  0
 12 13  1  0  0  0  0
 12 27  1  0  0  0  0
 12 28  1  0  0  0  0
 13 14  1  0  0  0  0
 13 29  1  0  0  0  0
 13 30  1  0  0  0  0
 15 16  2  0  0  0  0
 15 31  1  0  0  0  0
M  END
> <s_m_source_file>
AV-unprocessed.smi

> <i_m_source_file_index>
2912

> <i_lp_mmshare_version>
43012

> <i_f3d_flags>
0

> <s_epik_input>
W0NIM11uMVtjSF1jKFtjSF1uMSlbQ0gyXVtDSDJdW05IXUMoPU8pW0NIXTJTW0NIMl1bQ0gyXVMy

> <s_epik_cmdline>
J2VwaWtfcHl0aG9uJywgJy1waCcsICc3LjAnLCAnLXRuJywgJzgnLCAnLW1hJywgJzIwMCcsICctbWV0YWxfYmluZGluZycsICctaW1hZScsICc8aW5maWxlLm1hZT4nLCAnLW9tYWUnLCAnPG91dGZpbGUubWFlPic=

> <r_lp_tautomer_probability>
1

> <r_epik_Ionization_Penalty>
0.000416309

> <r_epik_Ionization_Penalty_Charging>
0

> <r_epik_Ionization_Penalty_Neutral>
0.000416309

> <r_epik_State_Penalty>
-0

> <r_epik_Charging_Adjusted_Penalty>
0

> <i_epik_Tot_Q>
0

> <i_epik_Tot_abs_Q>
0

> <r_epik_Metal_State_Penalty>
-0

> <b_epik_Metal_Only>
0

> <s_epik_Chemistry_Notes>
This compound contains an acetal/aminal-like group ( X-CH(R)-Y where X, Y are N, S, or O) that may be acid/base labile, releasing an aldehyde.

> <s_lp_Force_Field>
OPLS_2005

> <r_lp_Energy>
6.65343

> <b_lp_Chiralities_Consistent>
1

> <s_lp_Variant>
AV-unprocessed.smi:2912-1

> <Gold.Version>
5.8.1

> <Gold.Id.Protein>
6NUR|6NUR_protein|mol2

> <Gold.PLP.Fitness>
37.1156

> <Gold.PLP.PLP>
-38.1077

> <Gold.PLP.part.hbond>
0.0000

> <Gold.PLP.part.metal>
0.0000

> <Gold.PLP.part.buried>
-2.9609

> <Gold.PLP.part.nonpolar>
-35.5561

> <Gold.PLP.part.repulsive>
0.1912

> <Gold.PLP.ligand.clash>
0.0000

> <Gold.PLP.ligand.torsion>
0.5184

> <Gold.PLP.Chemscore.Hbond>
0.0000

> <Gold.PLP.Chemscore.CHOScore>
0.0000

> <Gold.PLP.Chemscore.Metal>
0.0000

> <Gold.PLP.Chemscore.Internal.Correction>
0.0447

> <Gold.Rescore>
     Score         DG    S(hbond)    S(metal)    S(lipo)     H(rot)  DE(clash)    DE(int)     intcor
     11.80     -12.43       0.00        0.00      93.17       1.54       0.13       0.50       ----

> <Gold.Chemscore.Fitness>
11.7963

> <Gold.Chemscore.DG>
-12.4299

> <Gold.Chemscore.ZeroCoef>
-5.4800

> <Gold.Chemscore.Hbond>
0.0000

> <Gold.Chemscore.Metal>
0.0000

> <Gold.Chemscore.Lipo>
93.1709

> <Gold.Chemscore.Internal_Hbond>
0.0000

> <Gold.Chemscore.DEClash>
0.1317

> <Gold.Chemscore.DEInternal>
0.5019

> <Gold.Chemscore.Rot>
1.5434

> <Gold.Chemscore.Internal.Correction>
   9.000000E+99

> <Gold.Chemscore.Hbond.Weighted>
-0.0000

> <Gold.Chemscore.Metal.Weighted>
-0.0000

> <Gold.Chemscore.Lipo.Weighted>
-10.9010

> <Gold.Chemscore.Internal_Hbond.Weighted>
0.0000

> <Gold.Chemscore.DEClash.Weighted>
0.1317

> <Gold.Chemscore.DEInternal.Weighted>
0.5019

> <Gold.Chemscore.Rot.Weighted>
3.9511

> <Gold.Chemscore.Internal.Correction.Weighted>
   9.000000E+99

> <Gold.Protein.RotatedTorsions>
[ 6907 6896 6895 6894 ] final  168.17 input  -60.11 | X-H torsion
[ 7974 7965 7964 7962 ] final    8.00 input  175.53 | X-H torsion
[ 8008 7997 7996 7995 ] final  -81.41 input   59.86 | X-H torsion
[ 10167 10162 10161 10158 ] final  130.49 input  -65.29 | X-H torsion
[ 10718 10713 10712 10709 ] final -127.44 input   66.30 | X-H torsion
[ 10763 10752 10751 10750 ] final -143.94 input  -60.55 | X-H torsion
[ 11005 11000 10999 10996 ] final   49.49 input  -57.11 | X-H torsion

> <Gold.Protein.ActiveResidues>
 VAL166  LYS551  ARG553  GLY616  TRP617  ASP618  TYR619  PRO620  LYS621  CYS622 
 ASP623  PHE694  ASN695  SER759  ASP760  ASP761  ALA762  ILE779  LEU786  VAL792 
 PHE793  MET794  SER795  GLU796  ALA797  LYS798  CYS799  TRP800  GLU811  SER814 

> <Gold.Protein.RotatedAtoms>
  151.8518  133.3441  159.3675 H   0  0  0  0  0  0  0  0  0  0  0  0  # atno 6907 bound_to 6896
  150.7204  134.5292  159.5701 H   0  0  0  0  0  0  0  0  0  0  0  0  # atno 6908 bound_to 6896
  152.2787  134.7853  160.0452 H   0  0  0  0  0  0  0  0  0  0  0  0  # atno 6909 bound_to 6896
  146.2421  139.9999  142.8417 H   0  0  0  0  0  0  0  0  0  0  0  0  # atno 7974 bound_to 7965
  154.5981  140.0648  156.9330 H   0  0  0  0  0  0  0  0  0  0  0  0  # atno 8008 bound_to 7997
  155.2180  140.3328  155.4301 H   0  0  0  0  0  0  0  0  0  0  0  0  # atno 8009 bound_to 7997
  156.2300  140.1836  156.7250 H   0  0  0  0  0  0  0  0  0  0  0  0  # atno 8010 bound_to 7997
  139.5427  144.6746  151.4571 H   0  0  0  0  0  0  0  0  0  0  0  0  # atno 10167 bound_to 10162
  156.1857  130.6762  151.0361 H   0  0  0  0  0  0  0  0  0  0  0  0  # atno 10718 bound_to 10713
  154.8449  135.3454  154.6266 H   0  0  0  0  0  0  0  0  0  0  0  0  # atno 10763 bound_to 10752
  153.6876  135.6976  153.5104 H   0  0  0  0  0  0  0  0  0  0  0  0  # atno 10764 bound_to 10752
  153.2620  135.4320  155.0859 H   0  0  0  0  0  0  0  0  0  0  0  0  # atno 10765 bound_to 10752
  140.1098  134.4969  155.8687 H   0  0  0  0  0  0  0  0  0  0  0  0  # atno 11005 bound_to 11000
  145.1425  140.9579  143.4480 LP  0  0  0  0  0  0  0  0  0  0  0  0  # atno 17320 bound_to 7965
  145.0282  139.3364  143.6038 LP  0  0  0  0  0  0  0  0  0  0  0  0  # atno 17321 bound_to 7965
  140.6664  143.8389  150.6947 LP  0  0  0  0  0  0  0  0  0  0  0  0  # atno 17342 bound_to 10162
  140.1799  143.4123  152.1940 LP  0  0  0  0  0  0  0  0  0  0  0  0  # atno 17343 bound_to 10162
  157.6897  131.0814  150.7142 LP  0  0  0  0  0  0  0  0  0  0  0  0  # atno 17370 bound_to 10713
  156.7199  130.4677  149.5525 LP  0  0  0  0  0  0  0  0  0  0  0  0  # atno 17371 bound_to 10713
  141.2127  133.6723  156.6683 LP  0  0  0  0  0  0  0  0  0  0  0  0  # atno 17394 bound_to 11000
  140.3106  134.8089  157.4173 LP  0  0  0  0  0  0  0  0  0  0  0  0  # atno 17395 bound_to 11000

$$$$
