AV-unprocessed.smi:2588|AV-procd|sdf|10150|dock3
  -GOLD-   2272014163D 1   1.00000     0.00000
 Structure written by MMmdl.
 39 40  0  0  0  0  0  0  0  0  1 V2000
  149.7085  145.1809  160.3271 C   0  0  0  0  0  0  0  0  0  0  0  0
  151.1767  144.7008  160.3667 C   0  0  0  0  0  0  0  0  0  0  0  0
  151.9904  145.5586  159.3716 C   0  0  0  0  0  0  0  0  0  0  0  0
  151.2944  143.2569  160.0721 N   0  0  0  0  0  0  0  0  0  0  0  0
  152.6675  142.7730  160.2924 C   0  0  0  0  0  0  0  0  0  0  0  0
  152.7780  141.2552  160.0667 C   0  0  0  0  0  0  0  0  0  0  0  0
  152.3535  140.8754  158.6423 C   0  0  0  0  0  0  0  0  0  0  0  0
  152.3332  139.4261  158.4699 N   0  0  0  0  0  0  0  0  0  0  0  0
  153.4067  138.6243  158.5395 C   0  0  0  0  0  0  0  0  0  0  0  0
  154.5484  139.0415  158.7402 O   0  0  0  0  0  0  0  0  0  0  0  0
  153.1444  137.1270  158.3303 C   0  0  0  0  0  0  0  0  0  0  0  0
  151.7917  136.8456  157.8472 N   0  0  0  0  0  0  0  0  0  0  0  0
  150.7850  136.7685  158.7590 N   0  0  0  0  0  0  0  0  0  0  0  0
  149.6589  136.5307  158.1955 C   0  0  0  0  0  0  0  0  0  0  0  0
  149.6876  136.3608  156.4353 S   0  0  0  0  0  0  0  0  0  0  0  0
  151.4471  136.6536  156.5121 C   0  0  0  0  0  0  0  0  0  0  0  0
  152.1767  136.6713  155.5223 O   0  0  0  0  0  0  0  0  0  0  0  0
  150.9593  141.4546  158.3859 C   0  0  0  0  0  0  0  0  0  0  0  0
  150.9239  142.9648  158.6775 C   0  0  0  0  0  0  0  0  0  0  0  0
  149.6498  146.2681  160.3844 H   0  0  0  0  0  0  0  0  0  0  0  0
  149.1256  144.8104  161.1696 H   0  0  0  0  0  0  0  0  0  0  0  0
  149.2129  144.8753  159.4047 H   0  0  0  0  0  0  0  0  0  0  0  0
  151.5652  144.8857  161.3695 H   0  0  0  0  0  0  0  0  0  0  0  0
  151.7683  146.6190  159.4955 H   0  0  0  0  0  0  0  0  0  0  0  0
  151.7611  145.2963  158.3380 H   0  0  0  0  0  0  0  0  0  0  0  0
  153.0656  145.4644  159.5193 H   0  0  0  0  0  0  0  0  0  0  0  0
  153.3616  143.3048  159.6394 H   0  0  0  0  0  0  0  0  0  0  0  0
  152.9862  142.9580  161.3161 H   0  0  0  0  0  0  0  0  0  0  0  0
  153.8033  140.9334  160.2523 H   0  0  0  0  0  0  0  0  0  0  0  0
  152.1542  140.7348  160.7951 H   0  0  0  0  0  0  0  0  0  0  0  0
  153.0504  141.3166  157.9269 H   0  0  0  0  0  0  0  0  0  0  0  0
  151.4340  139.0010  158.2956 H   0  0  0  0  0  0  0  0  0  0  0  0
  153.8651  136.7248  157.6163 H   0  0  0  0  0  0  0  0  0  0  0  0
  153.3239  136.6094  159.2740 H   0  0  0  0  0  0  0  0  0  0  0  0
  148.6974  136.4254  158.6980 H   0  0  0  0  0  0  0  0  0  0  0  0
  150.6657  141.2737  157.3513 H   0  0  0  0  0  0  0  0  0  0  0  0
  150.2211  140.9489  159.0105 H   0  0  0  0  0  0  0  0  0  0  0  0
  149.9106  143.2994  158.4659 H   0  0  0  0  0  0  0  0  0  0  0  0
  151.5868  143.4991  157.9951 H   0  0  0  0  0  0  0  0  0  0  0  0
  1  2  1  0  0  0  0
  1 20  1  0  0  0  0
  1 21  1  0  0  0  0
  1 22  1  0  0  0  0
  2  3  1  0  0  0  0
  2  4  1  0  0  0  0
  2 23  1  0  0  0  0
  3 24  1  0  0  0  0
  3 25  1  0  0  0  0
  3 26  1  0  0  0  0
  4 19  1  0  0  0  0
  4  5  1  0  0  0  0
  5  6  1  0  0  0  0
  5 27  1  0  0  0  0
  5 28  1  0  0  0  0
  6  7  1  0  0  0  0
  6 29  1  0  0  0  0
  6 30  1  0  0  0  0
  7  8  1  0  0  0  0
  7 18  1  0  0  0  0
  7 31  1  0  0  0  0
  8  9  1  0  0  0  0
  8 32  1  0  0  0  0
  9 10  2  0  0  0  0
  9 11  1  0  0  0  0
 11 12  1  0  0  0  0
 11 33  1  0  0  0  0
 11 34  1  0  0  0  0
 12 16  1  0  0  0  0
 12 13  1  0  0  0  0
 13 14  2  0  0  0  0
 14 15  1  0  0  0  0
 14 35  1  0  0  0  0
 15 16  1  0  0  0  0
 16 17  2  0  0  0  0
 18 19  1  0  0  0  0
 18 36  1  0  0  0  0
 18 37  1  0  0  0  0
 19 38  1  0  0  0  0
 19 39  1  0  0  0  0
M  END
> <s_m_source_file>
AV-unprocessed.smi

> <i_m_source_file_index>
2588

> <i_lp_mmshare_version>
43012

> <i_f3d_flags>
0

> <s_epik_input>
W0NIM11bQ0hdKFtDSDNdKU4xW0NIMl1bQ0gyXVtDSF0oW0NIMl1bQ0gyXTEpW05IXUMoPU8pW0NIMl1uMm5bY0hdc2MyPU8=

> <s_epik_cmdline>
J2VwaWtfcHl0aG9uJywgJy1waCcsICc3LjAnLCAnLXRuJywgJzgnLCAnLW1hJywgJzIwMCcsICctbWV0YWxfYmluZGluZycsICctaW1hZScsICc8aW5maWxlLm1hZT4nLCAnLW9tYWUnLCAnPG91dGZpbGUubWFlPic=

> <r_lp_tautomer_probability>
1

> <r_epik_Ionization_Penalty>
2.47038

> <r_epik_Ionization_Penalty_Charging>
1.38606e-08

> <r_epik_Ionization_Penalty_Neutral>
2.47038

> <r_epik_State_Penalty>
2.63325

> <r_epik_Charging_Adjusted_Penalty>
2.63325

> <i_epik_Tot_Q>
0

> <i_epik_Tot_abs_Q>
0

> <r_epik_Metal_State_Penalty>
2.63325

> <b_epik_Metal_Only>
0

> <s_lp_Force_Field>
OPLS_2005

> <r_lp_Energy>
19.6439

> <b_lp_Chiralities_Consistent>
1

> <s_lp_Variant>
AV-unprocessed.smi:2588-3

> <Gold.Version>
5.8.1

> <Gold.Id.Protein>
6NUR|6NUR_protein|mol2

> <Gold.PLP.Fitness>
39.2803

> <Gold.PLP.PLP>
-31.2895

> <Gold.PLP.part.hbond>
-3.3280

> <Gold.PLP.part.metal>
0.0000

> <Gold.PLP.part.buried>
-5.3283

> <Gold.PLP.part.nonpolar>
-23.2941

> <Gold.PLP.part.repulsive>
0.1791

> <Gold.PLP.ligand.clash>
0.0000

> <Gold.PLP.ligand.torsion>
0.5091

> <Gold.PLP.Chemscore.Hbond>
3.0000

> <Gold.PLP.Chemscore.CHOScore>
0.0000

> <Gold.PLP.Chemscore.Metal>
0.0000

> <Gold.Chemscore.Hbonds>
donor molecule, donor type, donor heavy atom, donor atom, acceptor molecule, acceptor atom, score
      P1  H  6896  6909       L1    13  0.99
      P1  H  7997  8010       L1    10  1.00
      P1  H 10752 10763       L1    17  1.00

> <Gold.PLP.Chemscore.Internal.Correction>
0.0090

> <Gold.Rescore>
     Score         DG    S(hbond)    S(metal)    S(lipo)     H(rot)  DE(clash)    DE(int)     intcor
     18.55     -19.18       2.60        0.00      83.08       1.83       0.01       0.62       ----

> <Gold.Chemscore.Fitness>
18.5543

> <Gold.Chemscore.DG>
-19.1833

> <Gold.Chemscore.ZeroCoef>
-5.4800

> <Gold.Chemscore.Hbond>
2.5974

> <Gold.Chemscore.Metal>
0.0000

> <Gold.Chemscore.Lipo>
83.0844

> <Gold.Chemscore.Internal_Hbond>
0.0000

> <Gold.Chemscore.DEClash>
0.0073

> <Gold.Chemscore.DEInternal>
0.6217

> <Gold.Chemscore.Rot>
1.8332

> <Gold.Chemscore.Internal.Correction>
   9.000000E+99

> <Gold.Chemscore.Hbonds>
donor molecule, donor type, donor heavy atom, donor atom, acceptor molecule, acceptor atom, score
      P1  H  6896  6909       L1    13  0.17
      P1  H  7997  8010       L1    10  0.65
      P1  H 10752 10763       L1    17  0.93

> <Gold.Chemscore.Hbond.Weighted>
-8.6754

> <Gold.Chemscore.Metal.Weighted>
-0.0000

> <Gold.Chemscore.Lipo.Weighted>
-9.7209

> <Gold.Chemscore.Internal_Hbond.Weighted>
0.0000

> <Gold.Chemscore.DEClash.Weighted>
0.0073

> <Gold.Chemscore.DEInternal.Weighted>
0.6217

> <Gold.Chemscore.Rot.Weighted>
4.6930

> <Gold.Chemscore.Internal.Correction.Weighted>
   9.000000E+99

> <Gold.Protein.RotatedTorsions>
[ 6907 6896 6895 6894 ] final   90.66 input  -60.11 | X-H torsion
[ 7974 7965 7964 7962 ] final -163.56 input  175.53 | X-H torsion
[ 8008 7997 7996 7995 ] final    3.65 input   59.86 | X-H torsion
[ 10167 10162 10161 10158 ] final  -21.42 input  -65.29 | X-H torsion
[ 10718 10713 10712 10709 ] final  145.05 input   66.30 | X-H torsion
[ 10763 10752 10751 10750 ] final   79.45 input  -60.55 | X-H torsion
[ 11005 11000 10999 10996 ] final  -71.44 input  -57.11 | X-H torsion

> <Gold.Protein.ActiveResidues>
 VAL166  LYS551  ARG553  GLY616  TRP617  ASP618  TYR619  PRO620  LYS621  CYS622 
 ASP623  PHE694  ASN695  SER759  ASP760  ASP761  ALA762  ILE779  LEU786  VAL792 
 PHE793  MET794  SER795  GLU796  ALA797  LYS798  CYS799  TRP800  GLU811  SER814 

> <Gold.Protein.RotatedAtoms>
  152.5446  134.1777  159.8622 H   0  0  0  0  0  0  0  0  0  0  0  0  # atno 6907 bound_to 6896
  151.1782  133.4735  159.2601 H   0  0  0  0  0  0  0  0  0  0  0  0  # atno 6908 bound_to 6896
  151.1206  135.0088  159.8592 H   0  0  0  0  0  0  0  0  0  0  0  0  # atno 6909 bound_to 6896
  144.7322  140.3090  143.6191 H   0  0  0  0  0  0  0  0  0  0  0  0  # atno 7974 bound_to 7965
  154.7062  140.2683  155.6672 H   0  0  0  0  0  0  0  0  0  0  0  0  # atno 8008 bound_to 7997
  156.2781  140.2762  156.1613 H   0  0  0  0  0  0  0  0  0  0  0  0  # atno 8009 bound_to 7997
  155.0696  140.0372  157.2594 H   0  0  0  0  0  0  0  0  0  0  0  0  # atno 8010 bound_to 7997
  140.7282  143.4630  151.0353 H   0  0  0  0  0  0  0  0  0  0  0  0  # atno 10167 bound_to 10162
  157.3499  131.0949  151.1009 H   0  0  0  0  0  0  0  0  0  0  0  0  # atno 10718 bound_to 10713
  153.0954  135.4839  154.8768 H   0  0  0  0  0  0  0  0  0  0  0  0  # atno 10763 bound_to 10752
  154.7318  135.3062  154.8881 H   0  0  0  0  0  0  0  0  0  0  0  0  # atno 10764 bound_to 10752
  153.9515  135.6823  153.4797 H   0  0  0  0  0  0  0  0  0  0  0  0  # atno 10765 bound_to 10752
  141.1592  133.6817  156.6906 H   0  0  0  0  0  0  0  0  0  0  0  0  # atno 11005 bound_to 11000
  145.7684  139.1849  143.2226 LP  0  0  0  0  0  0  0  0  0  0  0  0  # atno 17320 bound_to 7965
  146.0930  140.7633  142.9586 LP  0  0  0  0  0  0  0  0  0  0  0  0  # atno 17321 bound_to 7965
  139.8316  143.7684  152.3180 LP  0  0  0  0  0  0  0  0  0  0  0  0  # atno 17342 bound_to 10162
  139.7801  144.7447  151.0100 LP  0  0  0  0  0  0  0  0  0  0  0  0  # atno 17343 bound_to 10162
  157.2188  130.6472  149.5803 LP  0  0  0  0  0  0  0  0  0  0  0  0  # atno 17370 bound_to 10713
  155.9720  130.4636  150.6187 LP  0  0  0  0  0  0  0  0  0  0  0  0  # atno 17371 bound_to 10713
  140.3033  134.8146  157.4116 LP  0  0  0  0  0  0  0  0  0  0  0  0  # atno 17394 bound_to 11000
  140.1242  134.5179  155.8158 LP  0  0  0  0  0  0  0  0  0  0  0  0  # atno 17395 bound_to 11000

$$$$
