#       Name:                AV-unprocessed.smi:79
#       Creating user name   scv26
#       Creation time:       Thu Mar 26 17:13:20 2020


#       File generated by GOLD software.
#

@<TRIPOS>MOLECULE
AV-unprocessed.smi:79
    66    69     1
SMALL
NO_CHARGES


@<TRIPOS>ATOM
      1 ****        -5.2419   2.0116   3.7062 C.3            1 S1                 0.0000
      2 ****        -3.8188   2.0411   4.2834 C.3            1 S1                 0.0000
      3 ****        -3.8364   2.8421   5.4462 O.3            1 S1                 0.0000
      4 ****        -2.7828   2.6303   3.3045 C.3            1 S1                 0.0000
      5 ****        -2.6305   1.8240   2.0664 N.4            1 S1                 1.0000
      6 ****        -1.8809   0.5562   2.2728 C.3            1 S1                 0.0000
      7 ****        -1.8280  -0.2752   0.9800 C.3            1 S1                 0.0000
      8 ****        -1.2994   0.5219  -0.1248 N.3            1 S1                 0.0000
      9 ****         0.0461   0.4460  -0.3032 C.ar           1 S1                 0.0000
     10 ****         0.8126   1.5639  -0.1939 N.ar           1 S1                 0.0000
     11 ****         2.1373   1.4946  -0.3557 C.ar           1 S1                 0.0000
     12 ****         2.8889   0.4270  -0.6293 N.ar           1 S1                 0.0000
     13 ****         2.1269  -0.6977  -0.7471 C.ar           1 S1                 0.0000
     14 ****         0.7133  -0.7763  -0.5994 C.ar           1 S1                 0.0000
     15 ****         0.2904  -2.0853  -0.7970 N.2            1 S1                 0.0000
     16 ****         1.3907  -2.7437  -1.0393 C.2            1 S1                 0.0000
     17 ****         2.5404  -1.9864  -1.0389 N.pl3          1 S1                 0.0000
     18 ****         3.8954  -2.4571  -1.2830 C.3            1 S1                 0.0000
     19 ****         4.2317  -2.6318  -2.7755 C.3            1 S1                 0.0000
     20 ****         4.0945  -1.2638  -3.4742 C.3            1 S1                 0.0000
     21 ****         4.4999  -1.3047  -4.8280 O.3            1 S1                 0.0000
     22 ****         5.5198  -3.4162  -3.0648 C.3            1 S1                 0.0000
     23 ****         4.8357  -4.3170  -3.9639 O.3            1 S1                 0.0000
     24 ****         3.5665  -3.8195  -3.4862 C.3            1 S1                 0.0000
     25 ****        -1.9839   1.7972  -0.3633 C.3            1 S1                 0.0000
     26 ****        -3.3680   1.5794  -0.9991 C.3            1 S1                 0.0000
     27 ****        -2.0750   2.6222   0.9414 C.3            1 S1                 0.0000
     28 ****        -5.2980   1.3772   2.8214 H              1 S1                 0.0000
     29 ****        -5.5781   3.0095   3.4224 H              1 S1                 0.0000
     30 ****        -5.9514   1.6169   4.4343 H              1 S1                 0.0000
     31 ****        -3.5317   1.0370   4.5937 H              1 S1                 0.0000
     32 ****        -2.9868   2.8006   5.8587 H              1 S1                 0.0000
     33 ****        -3.0975   3.6414   3.0408 H              1 S1                 0.0000
     34 ****        -1.8098   2.7311   3.7885 H              1 S1                 0.0000
     35 ****        -0.8679   0.7850   2.6082 H              1 S1                 0.0000
     36 ****        -2.3453  -0.0421   3.0553 H              1 S1                 0.0000
     37 ****        -1.2350  -1.1728   1.1522 H              1 S1                 0.0000
     38 ****        -2.8274  -0.6228   0.7177 H              1 S1                 0.0000
     39 ****         2.6714   2.4275  -0.2499 H              1 S1                 0.0000
     40 ****         1.3909  -3.8070  -1.2289 H              1 S1                 0.0000
     41 ****         4.5938  -1.7637  -0.8126 H              1 S1                 0.0000
     42 ****         4.0162  -3.4013  -0.7504 H              1 S1                 0.0000
     43 ****         3.0618  -0.9153  -3.4581 H              1 S1                 0.0000
     44 ****         4.6922  -0.5066  -2.9657 H              1 S1                 0.0000
     45 ****         3.9720  -1.9441  -5.2813 H              1 S1                 0.0000
     46 ****         6.3003  -2.8375  -3.5601 H              1 S1                 0.0000
     47 ****         5.9232  -3.9424  -2.1980 H              1 S1                 0.0000
     48 ****         3.0880  -4.5319  -2.8132 H              1 S1                 0.0000
     49 ****         2.8922  -3.5368  -4.2953 H              1 S1                 0.0000
     50 ****        -1.4121   2.3760  -1.0902 H              1 S1                 0.0000
     51 ****        -3.8345   2.5318  -1.2518 H              1 S1                 0.0000
     52 ****        -4.0486   1.0484  -0.3335 H              1 S1                 0.0000
     53 ****        -3.2862   1.0022  -1.9207 H              1 S1                 0.0000
     54 ****        -2.6876   3.5088   0.7731 H              1 S1                 0.0000
     55 ****        -1.0849   2.9814   1.2255 H              1 S1                 0.0000
     56 ****        -3.5642   1.5648   1.7817 H              1 S1                 0.0000
     57 ****        -4.5333   2.5022   6.0777 LP             1 S1                 0.0000
     58 ****        -4.0438   3.7886   5.1990 LP             1 S1                 0.0000
     59 ****        -1.5886   0.0417  -0.9529 LP             1 S1                 0.0000
     60 ****         0.3822   2.4435   0.0089 LP             1 S1                 0.0000
     61 ****         3.8831   0.4487  -0.7344 LP             1 S1                 0.0000
     62 ****        -0.6434  -2.4412  -0.7616 LP             1 S1                 0.0000
     63 ****         5.4642  -1.5636  -4.8833 LP             1 S1                 0.0000
     64 ****         4.3719  -0.4050  -5.2454 LP             1 S1                 0.0000
     65 ****         4.9941  -5.2854  -3.7716 LP             1 S1                 0.0000
     66 ****         5.0074  -4.1370  -4.9324 LP             1 S1                 0.0000
@<TRIPOS>BOND
    1    1    2 1     
    2    1   28 1     
    3    1   29 1     
    4    1   30 1     
    5    2    3 1     
    6    2    4 1     
    7    2   31 1     
    8    3   32 1     
    9    4    5 1     
   10    4   33 1     
   11    4   34 1     
   12    5   27 1     
   13    5    6 1     
   14    5   56 1     
   15    6    7 1     
   16    6   35 1     
   17    6   36 1     
   18    7    8 1     
   19    7   37 1     
   20    7   38 1     
   21    8    9 1     
   22    8   25 1     
   23    9   14 ar    
   24    9   10 ar    
   25   10   11 ar    
   26   11   12 ar    
   27   11   39 1     
   28   12   13 ar    
   29   13   17 1     
   30   13   14 ar    
   31   14   15 1     
   32   15   16 2     
   33   16   17 1     
   34   16   40 1     
   35   17   18 1     
   36   18   19 1     
   37   18   41 1     
   38   18   42 1     
   39   19   24 1     
   40   19   20 1     
   41   19   22 1     
   42   20   21 1     
   43   20   43 1     
   44   20   44 1     
   45   21   45 1     
   46   22   23 1     
   47   22   46 1     
   48   22   47 1     
   49   23   24 1     
   50   24   48 1     
   51   24   49 1     
   52   25   26 1     
   53   25   27 1     
   54   25   50 1     
   55   26   51 1     
   56   26   52 1     
   57   26   53 1     
   58   27   54 1     
   59   27   55 1     
   60    3   57 1     
   61    3   58 1     
   62    8   59 1     
   63   10   60 1     
   64   12   61 1     
   65   15   62 1     
   66   21   63 1     
   67   21   64 1     
   68   23   65 1     
   69   23   66 1     
@<TRIPOS>SUBSTRUCTURE
      1 S1             1
@<TRIPOS>SET
LONE_PAIRS      STATIC     ATOMS    <user>   **** ""
10 57 58 59 60 61 62 63 64 65 66
DONOR_HYDROGENS      STATIC     ATOMS    <user>   **** ""
3 32 56 45
ATOM$BLUE        STATIC     ATOMS    COLORGROUP SYSTEM
10 57 58 59 60 61 62 63 64 65 66
ATOM$RED        STATIC     ATOMS    COLORGROUP SYSTEM
3 32 56 45
