AV-unprocessed.smi:3077|AV-procd|sdf|11729|dock2
  -GOLD-   2272017123D 1   1.00000     0.00000
 Structure written by MMmdl.
 28 29  0  0  0  0  0  0  0  0  2 V2000
  151.5956  138.7301  154.7067 C   0  0  0  0  0  0  0  0  0  0  0  0
  150.3290  138.9910  154.1130 C   0  0  0  0  0  0  0  0  0  0  0  0
  149.6307  139.8967  154.7790 N   0  0  0  0  0  0  0  0  0  0  0  0
  150.4279  140.2473  155.8111 N   0  0  0  0  0  0  0  0  0  0  0  0
  149.9669  141.2299  156.7752 C   0  0  0  0  0  0  0  0  0  0  0  0
  151.0950  142.1439  157.2961 C   0  0  2  0  0  0  0  0  0  0  0  0
  151.7317  141.6331  158.6093 C   0  0  0  0  0  0  0  0  0  0  0  0
  152.8087  142.6007  159.1243 C   0  0  0  0  0  0  0  0  0  0  0  0
  152.2335  144.0170  159.2626 C   0  0  0  0  0  0  0  0  0  0  0  0
  151.6078  144.4806  157.9375 C   0  0  0  0  0  0  0  0  0  0  0  0
  150.5792  143.5207  157.4804 N   0  3  0  0  0  0  0  0  0  0  0  0
  151.6193  139.5527  155.7961 C   0  0  0  0  0  0  0  0  0  0  0  0
  152.3647  138.0435  154.3849 H   0  0  0  0  0  0  0  0  0  0  0  0
  149.8983  138.5508  153.2259 H   0  0  0  0  0  0  0  0  0  0  0  0
  149.1835  141.8252  156.3037 H   0  0  0  0  0  0  0  0  0  0  0  0
  149.4984  140.7002  157.6060 H   0  0  0  0  0  0  0  0  0  0  0  0
  151.8734  142.1931  156.5325 H   0  0  0  0  0  0  0  0  0  0  0  0
  150.9598  141.5083  159.3699 H   0  0  0  0  0  0  0  0  0  0  0  0
  152.1784  140.6496  158.4600 H   0  0  0  0  0  0  0  0  0  0  0  0
  153.1968  142.2565  160.0834 H   0  0  0  0  0  0  0  0  0  0  0  0
  153.6527  142.6126  158.4333 H   0  0  0  0  0  0  0  0  0  0  0  0
  151.4794  144.0317  160.0508 H   0  0  0  0  0  0  0  0  0  0  0  0
  153.0163  144.7111  159.5699 H   0  0  0  0  0  0  0  0  0  0  0  0
  151.1494  145.4623  158.0586 H   0  0  0  0  0  0  0  0  0  0  0  0
  152.3750  144.5792  157.1683 H   0  0  0  0  0  0  0  0  0  0  0  0
  150.2005  143.8454  156.6019 H   0  0  0  0  0  0  0  0  0  0  0  0
  152.3768  139.6992  156.5521 H   0  0  0  0  0  0  0  0  0  0  0  0
  149.8370  143.4957  158.1649 H   0  0  0  0  0  0  0  0  0  0  0  0
  1 12  2  0  0  0  0
  1  2  1  0  0  0  0
  1 13  1  0  0  0  0
  2  3  2  0  0  0  0
  2 14  1  0  0  0  0
  3  4  1  0  0  0  0
  4  5  1  0  0  0  0
  4 12  1  0  0  0  0
  5  6  1  0  0  0  0
  5 15  1  0  0  0  0
  5 16  1  0  0  0  0
  6 11  1  0  0  0  0
  6  7  1  0  0  0  0
  6 17  1  0  0  0  0
  7  8  1  0  0  0  0
  7 18  1  0  0  0  0
  7 19  1  0  0  0  0
  8  9  1  0  0  0  0
  8 20  1  0  0  0  0
  8 21  1  0  0  0  0
  9 10  1  0  0  0  0
  9 22  1  0  0  0  0
  9 23  1  0  0  0  0
 10 11  1  0  0  0  0
 10 24  1  0  0  0  0
 10 25  1  0  0  0  0
 11 26  1  0  0  0  0
 11 28  1  0  0  0  0
 12 27  1  0  0  0  0
M  CHG  1  11   1
M  END
> <s_m_source_file>
AV-unprocessed.smi

> <i_m_source_file_index>
3077

> <i_lp_mmshare_version>
43012

> <i_f3d_flags>
0

> <s_epik_input>
W2NIXTFbY0hdW2NIXW5uMVtDSDJdW0NAQEhdMltDSDJdW0NIMl1bQ0gyXVtDSDJdW05IXTI=

> <s_epik_cmdline>
J2VwaWtfcHl0aG9uJywgJy1waCcsICc3LjAnLCAnLXRuJywgJzgnLCAnLW1hJywgJzIwMCcsICctbWV0YWxfYmluZGluZycsICctaW1hZScsICc8aW5maWxlLm1hZT4nLCAnLW9tYWUnLCAnPG91dGZpbGUubWFlPic=

> <r_lp_tautomer_probability>
1

> <r_epik_Ionization_Penalty>
0.000655985

> <r_epik_Ionization_Penalty_Charging>
0.000651447

> <r_epik_Ionization_Penalty_Neutral>
4.5377e-06

> <r_epik_State_Penalty>
0.000412577

> <r_epik_Charging_Adjusted_Penalty>
0.00106402

> <i_epik_Tot_Q>
1

> <i_epik_Tot_abs_Q>
1

> <r_epik_Metal_State_Penalty>
-0

> <b_epik_Metal_Only>
0

> <s_lp_Force_Field>
OPLS_2005

> <r_lp_Energy>
13.5088

> <b_lp_Chiralities_Consistent>
1

> <s_lp_Variant>
AV-unprocessed.smi:3077-1

> <Gold.Version>
5.8.1

> <Gold.Id.Protein>
6NUR|6NUR_protein|mol2

> <Gold.PLP.Fitness>
38.6296

> <Gold.PLP.PLP>
-31.0325

> <Gold.PLP.part.hbond>
-1.0000

> <Gold.PLP.part.metal>
0.0000

> <Gold.PLP.part.buried>
-3.6685

> <Gold.PLP.part.nonpolar>
-27.2881

> <Gold.PLP.part.repulsive>
0.0877

> <Gold.PLP.ligand.clash>
0.0000

> <Gold.PLP.ligand.torsion>
0.8134

> <Gold.PLP.Chemscore.Hbond>
2.0000

> <Gold.PLP.Chemscore.CHOScore>
1.0732

> <Gold.PLP.Chemscore.Metal>
0.0000

> <Gold.Chemscore.Hbonds>
donor molecule, donor type, donor heavy atom, donor atom, acceptor molecule, acceptor atom, score
      L1  H    11    26       P1  8028  1.98
      L1  C     2    14       P1  7948  0.31
      L1  C     2    14       P1  7957  0.74

> <Gold.PLP.Chemscore.Internal.Correction>
0.0041

> <Gold.Rescore>
     Score         DG    S(hbond)    S(metal)    S(lipo)     H(rot)  DE(clash)    DE(int)     intcor
     14.58     -15.38       1.00        0.00      82.23       1.19       0.00       0.80       ----

> <Gold.Chemscore.Fitness>
14.5810

> <Gold.Chemscore.DG>
-15.3793

> <Gold.Chemscore.ZeroCoef>
-5.4800

> <Gold.Chemscore.Hbond>
0.9953

> <Gold.Chemscore.Metal>
0.0000

> <Gold.Chemscore.Lipo>
82.2250

> <Gold.Chemscore.Internal_Hbond>
0.0000

> <Gold.Chemscore.DEClash>
0.0000

> <Gold.Chemscore.DEInternal>
0.7982

> <Gold.Chemscore.Rot>
1.1896

> <Gold.Chemscore.Internal.Correction>
   9.000000E+99

> <Gold.Chemscore.Hbonds>
donor molecule, donor type, donor heavy atom, donor atom, acceptor molecule, acceptor atom, score
      L1  H    11    26       P1  8028  0.94

> <Gold.Chemscore.Hbond.Weighted>
-3.3242

> <Gold.Chemscore.Metal.Weighted>
-0.0000

> <Gold.Chemscore.Lipo.Weighted>
-9.6203

> <Gold.Chemscore.Internal_Hbond.Weighted>
0.0000

> <Gold.Chemscore.DEClash.Weighted>
0.0000

> <Gold.Chemscore.DEInternal.Weighted>
0.7982

> <Gold.Chemscore.Rot.Weighted>
3.0453

> <Gold.Chemscore.Internal.Correction.Weighted>
   9.000000E+99

> <Gold.Protein.RotatedTorsions>
[ 6907 6896 6895 6894 ] final  -37.37 input  -60.11 | X-H torsion
[ 7974 7965 7964 7962 ] final  172.82 input  175.53 | X-H torsion
[ 8008 7997 7996 7995 ] final  -22.27 input   59.86 | X-H torsion
[ 10167 10162 10161 10158 ] final   45.69 input  -65.29 | X-H torsion
[ 10718 10713 10712 10709 ] final -168.63 input   66.30 | X-H torsion
[ 10763 10752 10751 10750 ] final  114.18 input  -60.55 | X-H torsion
[ 11005 11000 10999 10996 ] final   83.23 input  -57.11 | X-H torsion

> <Gold.Protein.ActiveResidues>
 VAL166  LYS551  ARG553  GLY616  TRP617  ASP618  TYR619  PRO620  LYS621  CYS622 
 ASP623  PHE694  ASN695  SER759  ASP760  ASP761  ALA762  ILE779  LEU786  VAL792 
 PHE793  MET794  SER795  GLU796  ALA797  LYS798  CYS799  TRP800  GLU811  SER814 

> <Gold.Protein.RotatedAtoms>
  151.0156  134.9430  159.8030 H   0  0  0  0  0  0  0  0  0  0  0  0  # atno 6907 bound_to 6896
  152.5313  134.2971  159.9074 H   0  0  0  0  0  0  0  0  0  0  0  0  # atno 6908 bound_to 6896
  151.2978  133.4094  159.2671 H   0  0  0  0  0  0  0  0  0  0  0  0  # atno 6909 bound_to 6896
  144.7258  139.9555  143.6433 H   0  0  0  0  0  0  0  0  0  0  0  0  # atno 7974 bound_to 7965
  154.4654  140.2012  156.0132 H   0  0  0  0  0  0  0  0  0  0  0  0  # atno 8008 bound_to 7997
  156.0917  140.3257  155.7796 H   0  0  0  0  0  0  0  0  0  0  0  0  # atno 8009 bound_to 7997
  155.4944  140.0549  157.2939 H   0  0  0  0  0  0  0  0  0  0  0  0  # atno 8010 bound_to 7997
  140.3216  144.2698  150.6182 H   0  0  0  0  0  0  0  0  0  0  0  0  # atno 10167 bound_to 10162
  156.6998  130.9192  151.3078 H   0  0  0  0  0  0  0  0  0  0  0  0  # atno 10718 bound_to 10713
  153.5035  135.3633  155.2551 H   0  0  0  0  0  0  0  0  0  0  0  0  # atno 10763 bound_to 10752
  154.8746  135.4005  154.3451 H   0  0  0  0  0  0  0  0  0  0  0  0  # atno 10764 bound_to 10752
  153.4092  135.7077  153.6438 H   0  0  0  0  0  0  0  0  0  0  0  0  # atno 10765 bound_to 10752
  139.9038  134.8129  156.2281 H   0  0  0  0  0  0  0  0  0  0  0  0  # atno 11005 bound_to 11000
  146.0678  139.3668  143.0542 LP  0  0  0  0  0  0  0  0  0  0  0  0  # atno 17320 bound_to 7965
  145.8008  140.9771  143.0999 LP  0  0  0  0  0  0  0  0  0  0  0  0  # atno 17321 bound_to 7965
  140.5478  143.2211  151.7977 LP  0  0  0  0  0  0  0  0  0  0  0  0  # atno 17342 bound_to 10162
  139.4873  144.4516  151.9647 LP  0  0  0  0  0  0  0  0  0  0  0  0  # atno 17343 bound_to 10162
  157.6977  130.9300  150.0694 LP  0  0  0  0  0  0  0  0  0  0  0  0  # atno 17370 bound_to 10713
  156.1737  130.3647  149.9130 LP  0  0  0  0  0  0  0  0  0  0  0  0  # atno 17371 bound_to 10713
  141.0363  133.6961  156.1518 LP  0  0  0  0  0  0  0  0  0  0  0  0  # atno 17394 bound_to 11000
  140.7022  134.4552  157.5585 LP  0  0  0  0  0  0  0  0  0  0  0  0  # atno 17395 bound_to 11000

$$$$
