AV-unprocessed.smi:1257|AV-procd|sdf|5286|dock5
  -GOLD-   22720 4403D 1   1.00000     0.00000
 Structure written by MMmdl.
 47 48  0  0  0  0  0  0  0  0  1 V2000
  145.3828  134.1358  152.0633 C   0  0  0  0  0  0  0  0  0  0  0  0
  145.8584  134.9926  153.2444 C   0  0  0  0  0  0  0  0  0  0  0  0
  146.4326  136.2565  152.7968 N   0  0  0  0  0  0  0  0  0  0  0  0
  145.9412  137.4713  153.0845 C   0  0  0  0  0  0  0  0  0  0  0  0
  144.9277  137.6439  153.7640 O   0  0  0  0  0  0  0  0  0  0  0  0
  146.7080  138.6618  152.4944 C   0  0  0  0  0  0  0  0  0  0  0  0
  147.5388  139.3466  153.4816 N   0  0  0  0  0  0  0  0  0  0  0  0
  147.1436  139.7027  154.7152 C   0  0  0  0  0  0  0  0  0  0  0  0
  146.0434  139.4165  155.1878 O   0  0  0  0  0  0  0  0  0  0  0  0
  148.1628  140.4431  155.5308 C   0  0  0  0  0  0  0  0  0  0  0  0
  149.4087  140.8023  154.9759 C   0  0  0  0  0  0  0  0  0  0  0  0
  150.3514  141.4702  155.7813 C   0  0  0  0  0  0  0  0  0  0  0  0
  150.0295  141.7557  157.1290 C   0  0  0  0  0  0  0  0  0  0  0  0
  150.9608  142.4205  157.9547 N   0  0  0  0  0  0  0  0  0  0  0  0
  151.9107  141.5609  158.6531 C   0  0  0  0  0  0  0  0  0  0  0  0
  152.6147  142.3427  159.7768 C   0  0  1  0  0  0  0  0  0  0  0  0
  153.7182  141.5146  160.4433 C   0  0  0  0  0  0  0  0  0  0  0  0
  153.2125  143.5223  159.2401 O   0  0  0  0  0  0  0  0  0  0  0  0
  152.3054  144.4043  158.5753 C   0  0  2  0  0  0  0  0  0  0  0  0
  151.3643  145.1222  159.5590 C   0  0  0  0  0  0  0  0  0  0  0  0
  151.5627  143.6540  157.4531 C   0  0  0  0  0  0  0  0  0  0  0  0
  148.8379  141.3954  157.6651 N   0  0  0  0  0  0  0  0  0  0  0  0
  147.9369  140.7572  156.8893 C   0  0  0  0  0  0  0  0  0  0  0  0
  144.9818  133.1845  152.4130 H   0  0  0  0  0  0  0  0  0  0  0  0
  146.2023  133.9195  151.3775 H   0  0  0  0  0  0  0  0  0  0  0  0
  144.5958  134.6371  151.4987 H   0  0  0  0  0  0  0  0  0  0  0  0
  145.0352  135.1758  153.9369 H   0  0  0  0  0  0  0  0  0  0  0  0
  146.6212  134.4523  153.8055 H   0  0  0  0  0  0  0  0  0  0  0  0
  147.2664  136.2039  152.2296 H   0  0  0  0  0  0  0  0  0  0  0  0
  147.3145  138.3306  151.6494 H   0  0  0  0  0  0  0  0  0  0  0  0
  145.9872  139.3781  152.0993 H   0  0  0  0  0  0  0  0  0  0  0  0
  148.4695  139.6063  153.1890 H   0  0  0  0  0  0  0  0  0  0  0  0
  149.6466  140.5728  153.9473 H   0  0  0  0  0  0  0  0  0  0  0  0
  151.3108  141.7383  155.3644 H   0  0  0  0  0  0  0  0  0  0  0  0
  151.4233  140.6845  159.0784 H   0  0  0  0  0  0  0  0  0  0  0  0
  152.6443  141.1960  157.9329 H   0  0  0  0  0  0  0  0  0  0  0  0
  151.8888  142.6144  160.5435 H   0  0  0  0  0  0  0  0  0  0  0  0
  153.3137  140.6023  160.8824 H   0  0  0  0  0  0  0  0  0  0  0  0
  154.2019  142.0800  161.2402 H   0  0  0  0  0  0  0  0  0  0  0  0
  154.4865  141.2288  159.7243 H   0  0  0  0  0  0  0  0  0  0  0  0
  152.9187  145.1751  158.1079 H   0  0  0  0  0  0  0  0  0  0  0  0
  150.7778  145.8836  159.0445 H   0  0  0  0  0  0  0  0  0  0  0  0
  151.9308  145.6195  160.3465 H   0  0  0  0  0  0  0  0  0  0  0  0
  150.6598  144.4387  160.0324 H   0  0  0  0  0  0  0  0  0  0  0  0
  152.2634  143.4021  156.6558 H   0  0  0  0  0  0  0  0  0  0  0  0
  150.8016  144.3039  157.0193 H   0  0  0  0  0  0  0  0  0  0  0  0
  147.0128  140.4870  157.3791 H   0  0  0  0  0  0  0  0  0  0  0  0
  1  2  1  0  0  0  0
  1 24  1  0  0  0  0
  1 25  1  0  0  0  0
  1 26  1  0  0  0  0
  2  3  1  0  0  0  0
  2 27  1  0  0  0  0
  2 28  1  0  0  0  0
  3  4  1  0  0  0  0
  3 29  1  0  0  0  0
  4  5  2  0  0  0  0
  4  6  1  0  0  0  0
  6  7  1  0  0  0  0
  6 30  1  0  0  0  0
  6 31  1  0  0  0  0
  7  8  1  0  0  0  0
  7 32  1  0  0  0  0
  8  9  2  0  0  0  0
  8 10  1  0  0  0  0
 10 23  1  0  0  0  0
 10 11  2  0  0  0  0
 11 12  1  0  0  0  0
 11 33  1  0  0  0  0
 12 13  2  0  0  0  0
 12 34  1  0  0  0  0
 13 14  1  0  0  0  0
 13 22  1  0  0  0  0
 14 21  1  0  0  0  0
 14 15  1  0  0  0  0
 15 16  1  0  0  0  0
 15 35  1  0  0  0  0
 15 36  1  0  0  0  0
 16 17  1  0  0  0  0
 16 18  1  0  0  0  0
 16 37  1  0  0  0  0
 17 38  1  0  0  0  0
 17 39  1  0  0  0  0
 17 40  1  0  0  0  0
 18 19  1  0  0  0  0
 19 20  1  0  0  0  0
 19 21  1  0  0  0  0
 19 41  1  0  0  0  0
 20 42  1  0  0  0  0
 20 43  1  0  0  0  0
 20 44  1  0  0  0  0
 21 45  1  0  0  0  0
 21 46  1  0  0  0  0
 22 23  2  0  0  0  0
 23 47  1  0  0  0  0
M  END
> <s_m_source_file>
AV-unprocessed.smi

> <i_m_source_file_index>
1257

> <i_lp_mmshare_version>
43012

> <i_f3d_flags>
0

> <s_epik_input>
W0NIM11bQ0gyXVtOSF1DKD1PKVtDSDJdW05IXUMoPU8pYzFbY0hdW2NIXWMobltjSF0xKU4yW0NIMl1bQ0BASF0oW0NIM10pT1tDQEBIXShbQ0gzXSlbQ0gyXTI=

> <s_epik_cmdline>
J2VwaWtfcHl0aG9uJywgJy1waCcsICc3LjAnLCAnLXRuJywgJzgnLCAnLW1hJywgJzIwMCcsICctbWV0YWxfYmluZGluZycsICctaW1hZScsICc8aW5maWxlLm1hZT4nLCAnLW9tYWUnLCAnPG91dGZpbGUubWFlPic=

> <r_lp_tautomer_probability>
1

> <r_epik_Ionization_Penalty>
1.15681e-05

> <r_epik_Ionization_Penalty_Charging>
0

> <r_epik_Ionization_Penalty_Neutral>
1.15681e-05

> <r_epik_State_Penalty>
-0

> <r_epik_Charging_Adjusted_Penalty>
0

> <i_epik_Tot_Q>
0

> <i_epik_Tot_abs_Q>
0

> <r_epik_Metal_State_Penalty>
-0

> <b_epik_Metal_Only>
0

> <s_lp_Force_Field>
OPLS_2005

> <r_lp_Energy>
16.6587

> <b_lp_Chiralities_Consistent>
1

> <s_lp_Variant>
AV-unprocessed.smi:1257-3

> <Gold.Version>
5.8.1

> <Gold.Id.Protein>
6NUR|6NUR_protein|mol2

> <Gold.PLP.Fitness>
47.1081

> <Gold.PLP.PLP>
-43.5076

> <Gold.PLP.part.hbond>
-1.9309

> <Gold.PLP.part.metal>
0.0000

> <Gold.PLP.part.buried>
-5.8066

> <Gold.PLP.part.nonpolar>
-36.5795

> <Gold.PLP.part.repulsive>
1.6899

> <Gold.PLP.ligand.clash>
0.0000

> <Gold.PLP.ligand.torsion>
0.7859

> <Gold.PLP.Chemscore.Hbond>
1.6098

> <Gold.PLP.Chemscore.CHOScore>
0.0000

> <Gold.PLP.Chemscore.Metal>
0.0000

> <Gold.Chemscore.Hbonds>
donor molecule, donor type, donor heavy atom, donor atom, acceptor molecule, acceptor atom, score
      L1  H     3    29       P1  7948  1.00
      L1  H     7    32       P1  7957  0.12

> <Gold.PLP.Chemscore.Internal.Correction>
0.3428

> <Gold.Rescore>
     Score         DG    S(hbond)    S(metal)    S(lipo)     H(rot)  DE(clash)    DE(int)     intcor
     14.82     -18.84       1.62        0.00     105.16       1.71       0.20       3.82       ----

> <Gold.Chemscore.Fitness>
14.8195

> <Gold.Chemscore.DG>
-18.8388

> <Gold.Chemscore.ZeroCoef>
-5.4800

> <Gold.Chemscore.Hbond>
1.6240

> <Gold.Chemscore.Metal>
0.0000

> <Gold.Chemscore.Lipo>
105.1601

> <Gold.Chemscore.Internal_Hbond>
0.0000

> <Gold.Chemscore.DEClash>
0.1960

> <Gold.Chemscore.DEInternal>
3.8233

> <Gold.Chemscore.Rot>
1.7066

> <Gold.Chemscore.Internal.Correction>
   9.000000E+99

> <Gold.Chemscore.Hbonds>
donor molecule, donor type, donor heavy atom, donor atom, acceptor molecule, acceptor atom, score
      L1  H     3    29       P1  7948  0.99
      L1  H     7    32       P1  7957  0.13

> <Gold.Chemscore.Hbond.Weighted>
-5.4241

> <Gold.Chemscore.Metal.Weighted>
-0.0000

> <Gold.Chemscore.Lipo.Weighted>
-12.3037

> <Gold.Chemscore.Internal_Hbond.Weighted>
0.0000

> <Gold.Chemscore.DEClash.Weighted>
0.1960

> <Gold.Chemscore.DEInternal.Weighted>
3.8233

> <Gold.Chemscore.Rot.Weighted>
4.3690

> <Gold.Chemscore.Internal.Correction.Weighted>
   9.000000E+99

> <Gold.Protein.RotatedTorsions>
[ 6907 6896 6895 6894 ] final  -14.61 input  -60.11 | X-H torsion
[ 7974 7965 7964 7962 ] final -112.17 input  175.53 | X-H torsion
[ 8008 7997 7996 7995 ] final   -5.50 input   59.86 | X-H torsion
[ 10167 10162 10161 10158 ] final  -82.42 input  -65.29 | X-H torsion
[ 10718 10713 10712 10709 ] final -156.06 input   66.30 | X-H torsion
[ 10763 10752 10751 10750 ] final -159.68 input  -60.55 | X-H torsion
[ 11005 11000 10999 10996 ] final  172.20 input  -57.11 | X-H torsion

> <Gold.Protein.ActiveResidues>
 VAL166  LYS551  ARG553  GLY616  TRP617  ASP618  TYR619  PRO620  LYS621  CYS622 
 ASP623  PHE694  ASN695  SER759  ASP760  ASP761  ALA762  ILE779  LEU786  VAL792 
 PHE793  MET794  SER795  GLU796  ALA797  LYS798  CYS799  TRP800  GLU811  SER814 

> <Gold.Protein.RotatedAtoms>
  151.3368  135.0854  159.9357 H   0  0  0  0  0  0  0  0  0  0  0  0  # atno 6907 bound_to 6896
  152.5221  133.9487  159.7672 H   0  0  0  0  0  0  0  0  0  0  0  0  # atno 6908 bound_to 6896
  150.9837  133.6167  159.2748 H   0  0  0  0  0  0  0  0  0  0  0  0  # atno 6909 bound_to 6896
  145.1472  140.8810  143.3667 H   0  0  0  0  0  0  0  0  0  0  0  0  # atno 7974 bound_to 7965
  154.6033  140.2457  155.7764 H   0  0  0  0  0  0  0  0  0  0  0  0  # atno 8008 bound_to 7997
  156.2324  140.2962  156.0176 H   0  0  0  0  0  0  0  0  0  0  0  0  # atno 8009 bound_to 7997
  155.2175  140.0399  157.2933 H   0  0  0  0  0  0  0  0  0  0  0  0  # atno 8010 bound_to 7997
  140.4322  143.2544  151.8744 H   0  0  0  0  0  0  0  0  0  0  0  0  # atno 10167 bound_to 10162
  156.5213  130.8479  151.2683 H   0  0  0  0  0  0  0  0  0  0  0  0  # atno 10718 bound_to 10713
  154.7454  135.3079  154.8654 H   0  0  0  0  0  0  0  0  0  0  0  0  # atno 10763 bound_to 10752
  153.9456  135.6769  153.4748 H   0  0  0  0  0  0  0  0  0  0  0  0  # atno 10764 bound_to 10752
  153.1051  135.4893  154.8862 H   0  0  0  0  0  0  0  0  0  0  0  0  # atno 10765 bound_to 10752
  140.3272  134.7388  157.4108 H   0  0  0  0  0  0  0  0  0  0  0  0  # atno 11005 bound_to 11000
  145.0469  139.3214  143.5948 LP  0  0  0  0  0  0  0  0  0  0  0  0  # atno 17320 bound_to 7965
  146.3498  139.9863  142.8690 LP  0  0  0  0  0  0  0  0  0  0  0  0  # atno 17321 bound_to 7965
  139.4785  144.5322  151.8650 LP  0  0  0  0  0  0  0  0  0  0  0  0  # atno 17342 bound_to 10162
  140.4414  144.1980  150.5891 LP  0  0  0  0  0  0  0  0  0  0  0  0  # atno 17343 bound_to 10162
  157.7436  130.9916  150.2607 LP  0  0  0  0  0  0  0  0  0  0  0  0  # atno 17370 bound_to 10713
  156.3146  130.3777  149.7630 LP  0  0  0  0  0  0  0  0  0  0  0  0  # atno 17371 bound_to 10713
  140.0891  134.5625  155.8462 LP  0  0  0  0  0  0  0  0  0  0  0  0  # atno 17394 bound_to 11000
  141.2072  133.6662  156.6292 LP  0  0  0  0  0  0  0  0  0  0  0  0  # atno 17395 bound_to 11000

$$$$
