AV-unprocessed.smi:703|AV-procd|sdf|3429|dock9
  -GOLD-   22720 0413D 1   1.00000     0.00000
 Structure written by MMmdl.
 38 39  0  0  0  0  0  0  0  0  2 V2000
  145.1773  135.9507  151.7746 C   0  0  0  0  0  0  0  0  0  0  0  0
  145.5454  134.5098  152.1526 C   0  0  0  0  0  0  0  0  0  0  0  0
  146.9688  134.3791  152.5421 N   0  3  2  0  0  0  0  0  0  0  0  0
  147.5307  133.0200  152.4285 C   0  0  0  0  0  0  0  0  0  0  0  0
  148.8315  133.0660  153.2340 C   0  0  2  0  0  0  0  0  0  0  0  0
  149.2703  131.6992  153.7763 C   0  0  0  0  0  0  0  0  0  0  0  0
  148.5662  134.1171  154.3281 C   0  0  1  0  0  0  0  0  0  0  0  0
  149.6729  135.0761  154.3963 N   0  0  0  0  0  0  0  0  0  0  0  0
  150.0739  135.7551  155.9292 S   0  0  0  0  0  0  0  0  0  0  0  0
  149.1065  135.2317  156.9057 O   0  0  0  0  0  0  0  0  0  0  0  0
  151.5151  135.5501  156.1407 O   0  0  0  0  0  0  0  0  0  0  0  0
  149.7648  137.5526  155.6688 C   0  0  0  0  0  0  0  0  0  0  0  0
  151.0692  138.2577  155.4291 C   0  0  0  0  0  0  0  0  0  0  0  0
  151.9725  138.1009  154.3418 C   0  0  0  0  0  0  0  0  0  0  0  0
  152.9786  138.9760  154.6347 C   0  0  0  0  0  0  0  0  0  0  0  0
  152.7247  139.6177  155.8029 O   0  0  0  0  0  0  0  0  0  0  0  0
  151.5040  139.1512  156.3036 N   0  0  0  0  0  0  0  0  0  0  0  0
  147.2601  134.8189  153.9211 C   0  0  0  0  0  0  0  0  0  0  0  0
  144.1125  136.0306  151.5553 H   0  0  0  0  0  0  0  0  0  0  0  0
  145.7178  136.2861  150.8892 H   0  0  0  0  0  0  0  0  0  0  0  0
  145.3999  136.6421  152.5879 H   0  0  0  0  0  0  0  0  0  0  0  0
  144.9254  134.2012  152.9954 H   0  0  0  0  0  0  0  0  0  0  0  0
  145.3173  133.8306  151.3300 H   0  0  0  0  0  0  0  0  0  0  0  0
  146.8363  132.3014  152.8678 H   0  0  0  0  0  0  0  0  0  0  0  0
  147.7014  132.7345  151.3899 H   0  0  0  0  0  0  0  0  0  0  0  0
  149.6117  133.4341  152.5647 H   0  0  0  0  0  0  0  0  0  0  0  0
  148.5230  131.2785  154.4497 H   0  0  0  0  0  0  0  0  0  0  0  0
  150.2065  131.7835  154.3293 H   0  0  0  0  0  0  0  0  0  0  0  0
  149.4270  130.9882  152.9650 H   0  0  0  0  0  0  0  0  0  0  0  0
  148.4290  133.6444  155.3022 H   0  0  0  0  0  0  0  0  0  0  0  0
  149.5836  135.8013  153.6849 H   0  0  0  0  0  0  0  0  0  0  0  0
  149.0882  137.6657  154.8211 H   0  0  0  0  0  0  0  0  0  0  0  0
  149.2632  137.9499  156.5510 H   0  0  0  0  0  0  0  0  0  0  0  0
  151.8933  137.4522  153.4822 H   0  0  0  0  0  0  0  0  0  0  0  0
  153.8988  139.2433  154.1365 H   0  0  0  0  0  0  0  0  0  0  0  0
  147.3130  135.9069  153.9849 H   0  0  0  0  0  0  0  0  0  0  0  0
  146.4565  134.4918  154.5835 H   0  0  0  0  0  0  0  0  0  0  0  0
  147.5130  134.9723  151.9319 H   0  0  0  0  0  0  0  0  0  0  0  0
  1  2  1  0  0  0  0
  1 19  1  0  0  0  0
  1 20  1  0  0  0  0
  1 21  1  0  0  0  0
  2  3  1  0  0  0  0
  2 22  1  0  0  0  0
  2 23  1  0  0  0  0
  3 18  1  0  0  0  0
  3  4  1  0  0  0  0
  3 38  1  0  0  0  0
  4  5  1  0  0  0  0
  4 24  1  0  0  0  0
  4 25  1  0  0  0  0
  5  6  1  0  0  0  0
  5  7  1  0  0  0  0
  5 26  1  0  0  0  0
  6 27  1  0  0  0  0
  6 28  1  0  0  0  0
  6 29  1  0  0  0  0
  7  8  1  0  0  0  0
  7 18  1  0  0  0  0
  7 30  1  0  0  0  0
  8  9  1  0  0  0  0
  8 31  1  0  0  0  0
  9 10  2  0  0  0  0
  9 11  2  0  0  0  0
  9 12  1  0  0  0  0
 12 13  1  0  0  0  0
 12 32  1  0  0  0  0
 12 33  1  0  0  0  0
 13 17  2  0  0  0  0
 13 14  1  0  0  0  0
 14 15  2  0  0  0  0
 14 34  1  0  0  0  0
 15 16  1  0  0  0  0
 15 35  1  0  0  0  0
 16 17  1  0  0  0  0
 18 36  1  0  0  0  0
 18 37  1  0  0  0  0
M  CHG  1   3   1
M  END
> <s_m_source_file>
AV-unprocessed.smi

> <i_m_source_file_index>
703

> <i_lp_mmshare_version>
43012

> <i_f3d_flags>
0

> <s_epik_input>
W0NIM11bQ0gyXU4xW0NIMl1bQ0BASF0oW0NIM10pW0NASF0oW0NIMl0xKVtOSF1TKD1PKSg9TylbQ0gyXWMyW2NIXVtjSF1vbjI=

> <s_epik_cmdline>
J2VwaWtfcHl0aG9uJywgJy1waCcsICc3LjAnLCAnLXRuJywgJzgnLCAnLW1hJywgJzIwMCcsICctbWV0YWxfYmluZGluZycsICctaW1hZScsICc8aW5maWxlLm1hZT4nLCAnLW9tYWUnLCAnPG91dGZpbGUubWFlPic=

> <r_epik_Ionization_Penalty>
0.00324529

> <r_epik_Ionization_Penalty_Charging>
0.0019384

> <r_epik_Ionization_Penalty_Neutral>
0.00130689

> <r_epik_State_Penalty>
0.00218682

> <r_epik_Charging_Adjusted_Penalty>
0.00412522

> <i_epik_Tot_Q>
1

> <i_epik_Tot_abs_Q>
1

> <r_epik_Metal_State_Penalty>
0.310831

> <b_epik_Metal_Only>
0

> <s_lp_Force_Field>
OPLS_2005

> <r_lp_Energy>
19.0381

> <b_lp_Chiralities_Consistent>
1

> <s_lp_Variant>
AV-unprocessed.smi:703-4

> <Gold.Version>
5.8.1

> <Gold.Id.Protein>
6NUR|6NUR_protein|mol2

> <Gold.PLP.Fitness>
41.1819

> <Gold.PLP.PLP>
-28.7801

> <Gold.PLP.part.hbond>
-4.0000

> <Gold.PLP.part.metal>
0.0000

> <Gold.PLP.part.buried>
-2.8843

> <Gold.PLP.part.nonpolar>
-22.5484

> <Gold.PLP.part.repulsive>
0.0168

> <Gold.PLP.ligand.clash>
0.0000

> <Gold.PLP.ligand.torsion>
1.0986

> <Gold.PLP.Chemscore.Hbond>
4.8160

> <Gold.PLP.Chemscore.CHOScore>
0.0000

> <Gold.PLP.Chemscore.Metal>
0.0000

> <Gold.Chemscore.Hbonds>
donor molecule, donor type, donor heavy atom, donor atom, acceptor molecule, acceptor atom, score
      L1  H     3    38       P1  7948  1.82
      L1  H     8    31       P1  7948  0.91
      P1  H  7997  8009       L1    16  1.00
      P1  H 10752 10764       L1    11  1.00

> <Gold.PLP.Chemscore.Internal.Correction>
0.1510

> <Gold.Rescore>
     Score         DG    S(hbond)    S(metal)    S(lipo)     H(rot)  DE(clash)    DE(int)     intcor
     17.06     -18.24       3.24        0.00      58.99       1.94       0.10       1.08       ----

> <Gold.Chemscore.Fitness>
17.0599

> <Gold.Chemscore.DG>
-18.2357

> <Gold.Chemscore.ZeroCoef>
-5.4800

> <Gold.Chemscore.Hbond>
3.2397

> <Gold.Chemscore.Metal>
0.0000

> <Gold.Chemscore.Lipo>
58.9889

> <Gold.Chemscore.Internal_Hbond>
0.0000

> <Gold.Chemscore.DEClash>
0.0998

> <Gold.Chemscore.DEInternal>
1.0760

> <Gold.Chemscore.Rot>
1.9400

> <Gold.Chemscore.Internal.Correction>
   9.000000E+99

> <Gold.Chemscore.Hbonds>
donor molecule, donor type, donor heavy atom, donor atom, acceptor molecule, acceptor atom, score
      L1  H     3    38       P1  7948  0.76
      L1  H     8    31       P1  7948  0.26
      P1  H  7997  8009       L1    16  0.30
      P1  H 10752 10764       L1    11  0.99

> <Gold.Chemscore.Hbond.Weighted>
-10.8205

> <Gold.Chemscore.Metal.Weighted>
-0.0000

> <Gold.Chemscore.Lipo.Weighted>
-6.9017

> <Gold.Chemscore.Internal_Hbond.Weighted>
0.0000

> <Gold.Chemscore.DEClash.Weighted>
0.0998

> <Gold.Chemscore.DEInternal.Weighted>
1.0760

> <Gold.Chemscore.Rot.Weighted>
4.9665

> <Gold.Chemscore.Internal.Correction.Weighted>
   9.000000E+99

> <Gold.Protein.RotatedTorsions>
[ 6907 6896 6895 6894 ] final -104.48 input  -60.11 | X-H torsion
[ 7974 7965 7964 7962 ] final  -81.91 input  175.53 | X-H torsion
[ 8008 7997 7996 7995 ] final -157.98 input   59.86 | X-H torsion
[ 10167 10162 10161 10158 ] final  -40.39 input  -65.29 | X-H torsion
[ 10718 10713 10712 10709 ] final   49.26 input   66.30 | X-H torsion
[ 10763 10752 10751 10750 ] final  -31.06 input  -60.55 | X-H torsion
[ 11005 11000 10999 10996 ] final  -19.92 input  -57.11 | X-H torsion

> <Gold.Protein.ActiveResidues>
 VAL166  LYS551  ARG553  GLY616  TRP617  ASP618  TYR619  PRO620  LYS621  CYS622 
 ASP623  PHE694  ASN695  SER759  ASP760  ASP761  ALA762  ILE779  LEU786  VAL792 
 PHE793  MET794  SER795  GLU796  ALA797  LYS798  CYS799  TRP800  GLU811  SER814 

> <Gold.Protein.RotatedAtoms>
  150.7289  134.0272  159.3720 H   0  0  0  0  0  0  0  0  0  0  0  0  # atno 6907 bound_to 6896
  151.8239  135.0641  160.0438 H   0  0  0  0  0  0  0  0  0  0  0  0  # atno 6908 bound_to 6896
  152.2983  133.5593  159.5638 H   0  0  0  0  0  0  0  0  0  0  0  0  # atno 6909 bound_to 6896
  145.5404  140.9510  143.1554 H   0  0  0  0  0  0  0  0  0  0  0  0  # atno 7974 bound_to 7965
  155.7406  140.0814  157.2247 H   0  0  0  0  0  0  0  0  0  0  0  0  # atno 8008 bound_to 7997
  154.4022  140.1578  156.2667 H   0  0  0  0  0  0  0  0  0  0  0  0  # atno 8009 bound_to 7997
  155.9023  140.3409  155.6039 H   0  0  0  0  0  0  0  0  0  0  0  0  # atno 8010 bound_to 7997
  140.7036  143.3156  151.2917 H   0  0  0  0  0  0  0  0  0  0  0  0  # atno 10167 bound_to 10162
  157.4768  130.8290  149.8049 H   0  0  0  0  0  0  0  0  0  0  0  0  # atno 10718 bound_to 10713
  153.7911  135.6897  153.4871 H   0  0  0  0  0  0  0  0  0  0  0  0  # atno 10763 bound_to 10752
  153.1749  135.4528  154.9950 H   0  0  0  0  0  0  0  0  0  0  0  0  # atno 10764 bound_to 10752
  154.8044  135.3351  154.7407 H   0  0  0  0  0  0  0  0  0  0  0  0  # atno 10765 bound_to 10752
  140.8414  133.7923  155.9865 H   0  0  0  0  0  0  0  0  0  0  0  0  # atno 11005 bound_to 11000
  144.7580  139.7026  143.7246 LP  0  0  0  0  0  0  0  0  0  0  0  0  # atno 17320 bound_to 7965
  146.1985  139.5266  142.9759 LP  0  0  0  0  0  0  0  0  0  0  0  0  # atno 17321 bound_to 7965
  139.6594  144.0217  152.2682 LP  0  0  0  0  0  0  0  0  0  0  0  0  # atno 17342 bound_to 10162
  139.9779  144.6448  150.7928 LP  0  0  0  0  0  0  0  0  0  0  0  0  # atno 17343 bound_to 10162
  156.0101  130.3837  150.2294 LP  0  0  0  0  0  0  0  0  0  0  0  0  # atno 17370 bound_to 10713
  157.0479  131.0054  151.3263 LP  0  0  0  0  0  0  0  0  0  0  0  0  # atno 17371 bound_to 10713
  140.8891  134.2518  157.5104 LP  0  0  0  0  0  0  0  0  0  0  0  0  # atno 17394 bound_to 11000
  139.8703  134.9652  156.4522 LP  0  0  0  0  0  0  0  0  0  0  0  0  # atno 17395 bound_to 11000

$$$$
