AV-unprocessed.smi:218|AV-procd|sdf|1665|dock2
  -GOLD-   2262020 73D 1   1.00000     0.00000
 Structure written by MMmdl.
 54 57  0  0  0  0  0  0  0  0  1 V2000
  151.7098  142.4466  158.8764 C   0  0  0  0  0  0  0  0  0  0  0  0
  151.5848  141.7681  157.5068 C   0  0  0  0  0  0  0  0  0  0  0  0
  150.2278  142.0809  156.8527 C   0  0  0  0  0  0  0  0  0  0  0  0
  151.7186  140.3624  157.7259 O   0  0  0  0  0  0  0  0  0  0  0  0
  151.6020  139.4803  156.6687 C   0  0  0  0  0  0  0  0  0  0  0  0
  150.6090  138.4820  156.7383 C   0  0  0  0  0  0  0  0  0  0  0  0
  150.4845  137.5696  155.6715 C   0  0  0  0  0  0  0  0  0  0  0  0
  149.4264  136.4883  155.7029 C   0  0  0  0  0  0  0  0  0  0  0  0
  149.9960  135.1514  155.7874 N   0  0  0  0  0  0  0  0  0  0  0  0
  149.3994  134.1205  155.1521 C   0  0  0  0  0  0  0  0  0  0  0  0
  149.9739  132.8895  155.1228 N   0  0  0  0  0  0  0  0  0  0  0  0
  149.3645  131.8849  154.4866 C   0  0  0  0  0  0  0  0  0  0  0  0
  148.2040  131.8975  153.8282 N   0  0  0  0  0  0  0  0  0  0  0  0
  147.6201  133.1308  153.8542 C   0  0  0  0  0  0  0  0  0  0  0  0
  148.1536  134.2856  154.4929 C   0  0  0  0  0  0  0  0  0  0  0  0
  147.2945  135.3618  154.3166 N   0  0  0  0  0  0  0  0  0  0  0  0
  146.3110  134.8674  153.6144 C   0  0  0  0  0  0  0  0  0  0  0  0
  146.4243  133.5338  153.2902 N   0  0  0  0  0  0  0  0  0  0  0  0
  145.4478  132.7153  152.5018 C   0  0  1  0  0  0  0  0  0  0  0  0
  144.3524  133.4966  152.1255 O   0  0  0  0  0  0  0  0  0  0  0  0
  143.9332  133.1945  150.7899 C   0  0  1  0  0  0  0  0  0  0  0  0
  144.1525  134.4498  149.9203 C   0  0  0  0  0  0  0  0  0  0  0  0
  143.7647  134.1820  148.5901 O   0  0  0  0  0  0  0  0  0  0  0  0
  144.7841  131.9730  150.3958 C   0  0  1  0  0  0  0  0  0  0  0  0
  145.0287  131.8056  149.0114 O   0  0  0  0  0  0  0  0  0  0  0  0
  146.0491  132.1269  151.2221 C   0  0  1  0  0  0  0  0  0  0  0  0
  147.0139  132.9698  150.6141 O   0  0  0  0  0  0  0  0  0  0  0  0
  151.3534  137.6946  154.5693 C   0  0  0  0  0  0  0  0  0  0  0  0
  152.3141  138.7241  154.5892 C   0  0  0  0  0  0  0  0  0  0  0  0
  152.4429  139.5973  155.6107 N   0  0  0  0  0  0  0  0  0  0  0  0
  145.1080  131.9440  153.1945 H   0  0  0  0  0  0  0  0  0  0  0  0
  142.8773  132.9204  150.7796 H   0  0  0  0  0  0  0  0  0  0  0  0
  144.2645  131.0780  150.7423 H   0  0  0  0  0  0  0  0  0  0  0  0
  146.5164  131.1661  151.4402 H   0  0  0  0  0  0  0  0  0  0  0  0
  151.6328  143.5304  158.7864 H   0  0  0  0  0  0  0  0  0  0  0  0
  152.6719  142.2207  159.3370 H   0  0  0  0  0  0  0  0  0  0  0  0
  150.9275  142.1111  159.5579 H   0  0  0  0  0  0  0  0  0  0  0  0
  152.3960  142.1481  156.8842 H   0  0  0  0  0  0  0  0  0  0  0  0
  150.0988  143.1549  156.7176 H   0  0  0  0  0  0  0  0  0  0  0  0
  149.4031  141.7214  157.4683 H   0  0  0  0  0  0  0  0  0  0  0  0
  150.1341  141.6161  155.8716 H   0  0  0  0  0  0  0  0  0  0  0  0
  149.9555  138.4193  157.5964 H   0  0  0  0  0  0  0  0  0  0  0  0
  148.7672  136.6586  156.5552 H   0  0  0  0  0  0  0  0  0  0  0  0
  148.8155  136.5688  154.8026 H   0  0  0  0  0  0  0  0  0  0  0  0
  150.8278  135.0550  156.3519 H   0  0  0  0  0  0  0  0  0  0  0  0
  149.8799  130.9359  154.5059 H   0  0  0  0  0  0  0  0  0  0  0  0
  145.4654  135.4673  153.3112 H   0  0  0  0  0  0  0  0  0  0  0  0
  143.6135  135.3147  150.3039 H   0  0  0  0  0  0  0  0  0  0  0  0
  145.2078  134.7197  149.8898 H   0  0  0  0  0  0  0  0  0  0  0  0
  142.8200  134.1807  148.5518 H   0  0  0  0  0  0  0  0  0  0  0  0
  145.7819  131.2442  148.9052 H   0  0  0  0  0  0  0  0  0  0  0  0
  147.7361  132.4332  150.3249 H   0  0  0  0  0  0  0  0  0  0  0  0
  151.2868  137.0205  153.7280 H   0  0  0  0  0  0  0  0  0  0  0  0
  152.9975  138.8500  153.7626 H   0  0  0  0  0  0  0  0  0  0  0  0
  1  2  1  0  0  0  0
  1 35  1  0  0  0  0
  1 36  1  0  0  0  0
  1 37  1  0  0  0  0
  2  3  1  0  0  0  0
  2  4  1  0  0  0  0
  2 38  1  0  0  0  0
  3 39  1  0  0  0  0
  3 40  1  0  0  0  0
  3 41  1  0  0  0  0
  4  5  1  0  0  0  0
  5 30  1  0  0  0  0
  5  6  2  0  0  0  0
  6  7  1  0  0  0  0
  6 42  1  0  0  0  0
  7  8  1  0  0  0  0
  7 28  2  0  0  0  0
  8  9  1  0  0  0  0
  8 43  1  0  0  0  0
  8 44  1  0  0  0  0
  9 10  1  0  0  0  0
  9 45  1  0  0  0  0
 10 15  1  0  0  0  0
 10 11  2  0  0  0  0
 11 12  1  0  0  0  0
 12 13  2  0  0  0  0
 12 46  1  0  0  0  0
 13 14  1  0  0  0  0
 14 18  1  0  0  0  0
 14 15  2  0  0  0  0
 15 16  1  0  0  0  0
 16 17  2  0  0  0  0
 17 18  1  0  0  0  0
 17 47  1  0  0  0  0
 18 19  1  0  0  0  0
 19 31  1  0  0  0  0
 19 26  1  0  0  0  0
 19 20  1  0  0  0  0
 20 21  1  0  0  0  0
 21 32  1  0  0  0  0
 21 22  1  0  0  0  0
 21 24  1  0  0  0  0
 22 23  1  0  0  0  0
 22 48  1  0  0  0  0
 22 49  1  0  0  0  0
 23 50  1  0  0  0  0
 24 33  1  0  0  0  0
 24 25  1  0  0  0  0
 24 26  1  0  0  0  0
 25 51  1  0  0  0  0
 26 34  1  0  0  0  0
 26 27  1  0  0  0  0
 27 52  1  0  0  0  0
 28 29  1  0  0  0  0
 28 53  1  0  0  0  0
 29 30  2  0  0  0  0
 29 54  1  0  0  0  0
M  END
> <s_m_source_file>
AV-unprocessed.smi

> <i_m_source_file_index>
218

> <i_lp_mmshare_version>
43012

> <i_f3d_flags>
0

> <s_epik_input>
W0NIM11bQ0hdKFtDSDNdKU9jMVtjSF1jKFtjSF1bY0hdbjEpW0NIMl1bTkhdYyhuW2NIXW4yKWMoYzIzKW5bY0hdbjNbQ0BASF00T1tDQEhdKFtDSDJdW09IXSlbQ0BASF0oW09IXSlbQ0BIXTRbT0hd

> <s_epik_cmdline>
J2VwaWtfcHl0aG9uJywgJy1waCcsICc3LjAnLCAnLXRuJywgJzgnLCAnLW1hJywgJzIwMCcsICctbWV0YWxfYmluZGluZycsICctaW1hZScsICc8aW5maWxlLm1hZT4nLCAnLW9tYWUnLCAnPG91dGZpbGUubWFlPic=

> <r_lp_tautomer_probability>
1

> <r_epik_Ionization_Penalty>
0.00457014

> <r_epik_Ionization_Penalty_Charging>
0

> <r_epik_Ionization_Penalty_Neutral>
0.00457014

> <r_epik_State_Penalty>
-0

> <r_epik_Charging_Adjusted_Penalty>
0

> <i_epik_Tot_Q>
0

> <i_epik_Tot_abs_Q>
0

> <r_epik_Metal_State_Penalty>
-0

> <b_epik_Metal_Only>
0

> <s_epik_Chemistry_Notes>
This compound contains an acetal/aminal-like group ( X-CH(R)-Y where X, Y are N, S, or O) that may be acid/base labile, releasing an aldehyde.

> <s_lp_Force_Field>
OPLS_2005

> <r_lp_Energy>
50.2222

> <b_lp_Chiralities_Consistent>
1

> <s_lp_Variant>
AV-unprocessed.smi:218-4

> <Gold.Version>
5.8.1

> <Gold.Id.Protein>
6NUR|6NUR_protein|mol2

> <Gold.PLP.Fitness>
52.5779

> <Gold.PLP.PLP>
-43.8793

> <Gold.PLP.part.hbond>
-4.8245

> <Gold.PLP.part.metal>
0.0000

> <Gold.PLP.part.buried>
-7.3689

> <Gold.PLP.part.nonpolar>
-32.7703

> <Gold.PLP.part.repulsive>
0.7646

> <Gold.PLP.ligand.clash>
0.0000

> <Gold.PLP.ligand.torsion>
0.2336

> <Gold.PLP.Chemscore.Hbond>
3.0000

> <Gold.PLP.Chemscore.CHOScore>
0.0000

> <Gold.PLP.Chemscore.Metal>
0.0000

> <Gold.Chemscore.Hbonds>
donor molecule, donor type, donor heavy atom, donor atom, acceptor molecule, acceptor atom, score
      L1  H    23    50       P1 10186  0.89
      L1  H    27    52       P1 10747  1.00
      P1  H  7997  8008       L1    30  0.93

> <Gold.PLP.Chemscore.Internal.Correction>
0.1658

> <Gold.Rescore>
     Score         DG    S(hbond)    S(metal)    S(lipo)     H(rot)  DE(clash)    DE(int)     intcor
     10.52     -12.39       2.86        0.00      84.86       4.90       0.14       1.73       ----

> <Gold.Chemscore.Fitness>
10.5227

> <Gold.Chemscore.DG>
-12.3933

> <Gold.Chemscore.ZeroCoef>
-5.4800

> <Gold.Chemscore.Hbond>
2.8550

> <Gold.Chemscore.Metal>
0.0000

> <Gold.Chemscore.Lipo>
84.8632

> <Gold.Chemscore.Internal_Hbond>
0.0000

> <Gold.Chemscore.DEClash>
0.1398

> <Gold.Chemscore.DEInternal>
1.7308

> <Gold.Chemscore.Rot>
4.9029

> <Gold.Chemscore.Internal.Correction>
   9.000000E+99

> <Gold.Chemscore.Hbonds>
donor molecule, donor type, donor heavy atom, donor atom, acceptor molecule, acceptor atom, score
      L1  H    23    50       P1 10186  0.83
      L1  H    27    52       P1 10747  0.96
      P1  H  7997  8008       L1    30  0.74

> <Gold.Chemscore.Hbond.Weighted>
-9.5358

> <Gold.Chemscore.Metal.Weighted>
-0.0000

> <Gold.Chemscore.Lipo.Weighted>
-9.9290

> <Gold.Chemscore.Internal_Hbond.Weighted>
0.0000

> <Gold.Chemscore.DEClash.Weighted>
0.1398

> <Gold.Chemscore.DEInternal.Weighted>
1.7308

> <Gold.Chemscore.Rot.Weighted>
12.5515

> <Gold.Chemscore.Internal.Correction.Weighted>
   9.000000E+99

> <Gold.Protein.RotatedTorsions>
[ 6907 6896 6895 6894 ] final   18.77 input  -60.11 | X-H torsion
[ 7974 7965 7964 7962 ] final  -27.04 input  175.53 | X-H torsion
[ 8008 7997 7996 7995 ] final  -30.51 input   59.86 | X-H torsion
[ 10167 10162 10161 10158 ] final   69.11 input  -65.29 | X-H torsion
[ 10718 10713 10712 10709 ] final -178.11 input   66.30 | X-H torsion
[ 10763 10752 10751 10750 ] final  105.57 input  -60.55 | X-H torsion
[ 11005 11000 10999 10996 ] final   99.34 input  -57.11 | X-H torsion

> <Gold.Protein.ActiveResidues>
 VAL166  LYS551  ARG553  GLY616  TRP617  ASP618  TYR619  PRO620  LYS621  CYS622 
 ASP623  PHE694  ASN695  SER759  ASP760  ASP761  ALA762  ILE779  LEU786  VAL792 
 PHE793  MET794  SER795  GLU796  ALA797  LYS798  CYS799  TRP800  GLU811  SER814 

> <Gold.Protein.RotatedAtoms>
  151.8705  135.0491  160.0478 H   0  0  0  0  0  0  0  0  0  0  0  0  # atno 6907 bound_to 6896
  152.2592  133.5278  159.5380 H   0  0  0  0  0  0  0  0  0  0  0  0  # atno 6908 bound_to 6896
  150.7110  134.0770  159.3927 H   0  0  0  0  0  0  0  0  0  0  0  0  # atno 6909 bound_to 6896
  146.1385  140.5099  142.8662 H   0  0  0  0  0  0  0  0  0  0  0  0  # atno 7974 bound_to 7965
  154.4248  140.1789  156.1418 H   0  0  0  0  0  0  0  0  0  0  0  0  # atno 8008 bound_to 7997
  155.9986  140.3362  155.6798 H   0  0  0  0  0  0  0  0  0  0  0  0  # atno 8009 bound_to 7997
  155.6274  140.0666  157.2650 H   0  0  0  0  0  0  0  0  0  0  0  0  # atno 8010 bound_to 7997
  140.0713  144.5150  150.7225 H   0  0  0  0  0  0  0  0  0  0  0  0  # atno 10167 bound_to 10162
  156.8394  130.9681  151.3101 H   0  0  0  0  0  0  0  0  0  0  0  0  # atno 10718 bound_to 10713
  153.3812  135.3905  155.1858 H   0  0  0  0  0  0  0  0  0  0  0  0  # atno 10763 bound_to 10752
  154.8708  135.3726  154.4855 H   0  0  0  0  0  0  0  0  0  0  0  0  # atno 10764 bound_to 10752
  153.5332  135.7085  153.5734 H   0  0  0  0  0  0  0  0  0  0  0  0  # atno 10765 bound_to 10752
  139.8771  134.9091  156.4591 H   0  0  0  0  0  0  0  0  0  0  0  0  # atno 11005 bound_to 11000
  144.7766  140.5752  143.6634 LP  0  0  0  0  0  0  0  0  0  0  0  0  # atno 17320 bound_to 7965
  145.5102  139.1479  143.3609 LP  0  0  0  0  0  0  0  0  0  0  0  0  # atno 17321 bound_to 7965
  140.7124  143.2516  151.4540 LP  0  0  0  0  0  0  0  0  0  0  0  0  # atno 17342 bound_to 10162
  139.5834  144.1658  152.1998 LP  0  0  0  0  0  0  0  0  0  0  0  0  # atno 17343 bound_to 10162
  157.6364  130.8770  149.9366 LP  0  0  0  0  0  0  0  0  0  0  0  0  # atno 17370 bound_to 10713
  156.0889  130.3665  150.0433 LP  0  0  0  0  0  0  0  0  0  0  0  0  # atno 17371 bound_to 10713
  140.8877  133.7871  155.9537 LP  0  0  0  0  0  0  0  0  0  0  0  0  # atno 17394 bound_to 11000
  140.8787  134.2638  157.5155 LP  0  0  0  0  0  0  0  0  0  0  0  0  # atno 17395 bound_to 11000

$$$$
