AV-unprocessed.smi:2566|AV-procd|sdf|10073|dock8
  -GOLD-   2272014103D 1   1.00000     0.00000
 Structure written by MMmdl.
 21 22  0  0  0  0  0  0  0  0  2 V2000
  152.1284  140.1763  158.0905 C   0  0  0  0  0  0  0  0  0  0  0  0
  151.0290  140.4440  157.3927 N   0  0  0  0  0  0  0  0  0  0  0  0
  151.3804  139.9665  156.1649 C   0  0  0  0  0  0  0  0  0  0  0  0
  150.4613  139.9781  154.9830 C   0  0  1  0  0  0  0  0  0  0  0  0
  150.1667  138.5593  154.4597 C   0  0  0  0  0  0  0  0  0  0  0  0
  149.1818  138.6233  153.3622 N   0  3  0  0  0  0  0  0  0  0  0  0
  147.9552  139.3324  153.7779 C   0  0  0  0  0  0  0  0  0  0  0  0
  148.3080  140.7216  154.3394 C   0  0  0  0  0  0  0  0  0  0  0  0
  149.2435  140.5891  155.4050 O   0  0  0  0  0  0  0  0  0  0  0  0
  152.5835  139.4088  156.0846 N   0  0  0  0  0  0  0  0  0  0  0  0
  153.1002  139.5586  157.3799 O   0  0  0  0  0  0  0  0  0  0  0  0
  152.2597  140.4122  159.1363 H   0  0  0  0  0  0  0  0  0  0  0  0
  150.9120  140.5845  154.1944 H   0  0  0  0  0  0  0  0  0  0  0  0
  151.0787  138.0821  154.1000 H   0  0  0  0  0  0  0  0  0  0  0  0
  149.7679  137.9333  155.2595 H   0  0  0  0  0  0  0  0  0  0  0  0
  149.5948  139.1190  152.5848 H   0  0  0  0  0  0  0  0  0  0  0  0
  147.2818  139.4219  152.9252 H   0  0  0  0  0  0  0  0  0  0  0  0
  147.4390  138.7407  154.5351 H   0  0  0  0  0  0  0  0  0  0  0  0
  148.7189  141.3640  153.5590 H   0  0  0  0  0  0  0  0  0  0  0  0
  147.4110  141.2131  154.7165 H   0  0  0  0  0  0  0  0  0  0  0  0
  148.9457  137.6865  153.0666 H   0  0  0  0  0  0  0  0  0  0  0  0
  1 11  1  0  0  0  0
  1  2  2  0  0  0  0
  1 12  1  0  0  0  0
  2  3  1  0  0  0  0
  3  4  1  0  0  0  0
  3 10  2  0  0  0  0
  4  9  1  0  0  0  0
  4  5  1  0  0  0  0
  4 13  1  0  0  0  0
  5  6  1  0  0  0  0
  5 14  1  0  0  0  0
  5 15  1  0  0  0  0
  6  7  1  0  0  0  0
  6 16  1  0  0  0  0
  6 21  1  0  0  0  0
  7  8  1  0  0  0  0
  7 17  1  0  0  0  0
  7 18  1  0  0  0  0
  8  9  1  0  0  0  0
  8 19  1  0  0  0  0
  8 20  1  0  0  0  0
 10 11  1  0  0  0  0
M  CHG  1   6   1
M  END
> <s_m_source_file>
AV-unprocessed.smi

> <i_m_source_file_index>
2566

> <i_lp_mmshare_version>
43012

> <i_f3d_flags>
0

> <s_epik_input>
bjFvW2NIXW5jMVtDQEBIXTJbQ0gyXVtOSF1bQ0gyXVtDSDJdTzI=

> <s_epik_cmdline>
J2VwaWtfcHl0aG9uJywgJy1waCcsICc3LjAnLCAnLXRuJywgJzgnLCAnLW1hJywgJzIwMCcsICctbWV0YWxfYmluZGluZycsICctaW1hZScsICc8aW5maWxlLm1hZT4nLCAnLW9tYWUnLCAnPG91dGZpbGUubWFlPic=

> <r_lp_tautomer_probability>
1

> <r_epik_Ionization_Penalty>
0.157575

> <r_epik_Ionization_Penalty_Charging>
0.157575

> <r_epik_Ionization_Penalty_Neutral>
8.82756e-14

> <r_epik_State_Penalty>
0.146877

> <r_epik_Charging_Adjusted_Penalty>
0.304452

> <i_epik_Tot_Q>
1

> <i_epik_Tot_abs_Q>
1

> <r_epik_Metal_State_Penalty>
0.146877

> <b_epik_Metal_Only>
0

> <s_lp_Force_Field>
OPLS_2005

> <r_lp_Energy>
9.76896

> <b_lp_Chiralities_Consistent>
1

> <s_lp_Variant>
AV-unprocessed.smi:2566-2

> <Gold.Version>
5.8.1

> <Gold.Id.Protein>
6NUR|6NUR_protein|mol2

> <Gold.PLP.Fitness>
30.4250

> <Gold.PLP.PLP>
-18.4262

> <Gold.PLP.part.hbond>
-3.9018

> <Gold.PLP.part.metal>
0.0000

> <Gold.PLP.part.buried>
-0.9814

> <Gold.PLP.part.nonpolar>
-13.2321

> <Gold.PLP.part.repulsive>
0.1640

> <Gold.PLP.ligand.clash>
0.0000

> <Gold.PLP.ligand.torsion>
0.0081

> <Gold.PLP.Chemscore.Hbond>
4.0000

> <Gold.PLP.Chemscore.CHOScore>
0.0000

> <Gold.PLP.Chemscore.Metal>
0.0000

> <Gold.Chemscore.Hbonds>
donor molecule, donor type, donor heavy atom, donor atom, acceptor molecule, acceptor atom, score
      L1  H     6    16       P1  7957  1.00
      L1  H     6    21       P1  7948  2.00
      P1  H  7997  8008       L1    11  0.80

> <Gold.PLP.Chemscore.Internal.Correction>
0.0151

> <Gold.Rescore>
     Score         DG    S(hbond)    S(metal)    S(lipo)     H(rot)  DE(clash)    DE(int)     intcor
     15.35     -15.41       2.89        0.00      24.13       1.00       0.01       0.04       ----

> <Gold.Chemscore.Fitness>
15.3545

> <Gold.Chemscore.DG>
-15.4061

> <Gold.Chemscore.ZeroCoef>
-5.4800

> <Gold.Chemscore.Hbond>
2.8932

> <Gold.Chemscore.Metal>
0.0000

> <Gold.Chemscore.Lipo>
24.1282

> <Gold.Chemscore.Internal_Hbond>
0.0000

> <Gold.Chemscore.DEClash>
0.0067

> <Gold.Chemscore.DEInternal>
0.0449

> <Gold.Chemscore.Rot>
1.0000

> <Gold.Chemscore.Internal.Correction>
   9.000000E+99

> <Gold.Chemscore.Hbonds>
donor molecule, donor type, donor heavy atom, donor atom, acceptor molecule, acceptor atom, score
      L1  H     6    16       P1  7957  0.93
      L1  H     6    21       P1  7948  0.97
      P1  H  7997  8008       L1    11  0.11

> <Gold.Chemscore.Hbond.Weighted>
-9.6631

> <Gold.Chemscore.Metal.Weighted>
-0.0000

> <Gold.Chemscore.Lipo.Weighted>
-2.8230

> <Gold.Chemscore.Internal_Hbond.Weighted>
0.0000

> <Gold.Chemscore.DEClash.Weighted>
0.0067

> <Gold.Chemscore.DEInternal.Weighted>
0.0449

> <Gold.Chemscore.Rot.Weighted>
2.5600

> <Gold.Chemscore.Internal.Correction.Weighted>
   9.000000E+99

> <Gold.Protein.RotatedTorsions>
[ 6907 6896 6895 6894 ] final  -38.65 input  -60.11 | X-H torsion
[ 7974 7965 7964 7962 ] final  -93.62 input  175.53 | X-H torsion
[ 8008 7997 7996 7995 ] final  -80.31 input   59.86 | X-H torsion
[ 10167 10162 10161 10158 ] final  -69.69 input  -65.29 | X-H torsion
[ 10718 10713 10712 10709 ] final  -52.81 input   66.30 | X-H torsion
[ 10763 10752 10751 10750 ] final -116.08 input  -60.55 | X-H torsion
[ 11005 11000 10999 10996 ] final  -52.03 input  -57.11 | X-H torsion

> <Gold.Protein.ActiveResidues>
 VAL166  LYS551  ARG553  GLY616  TRP617  ASP618  TYR619  PRO620  LYS621  CYS622 
 ASP623  PHE694  ASN695  SER759  ASP760  ASP761  ALA762  ILE779  LEU786  VAL792 
 PHE793  MET794  SER795  GLU796  ALA797  LYS798  CYS799  TRP800  GLU811  SER814 

> <Gold.Protein.RotatedAtoms>
  150.9999  134.9313  159.7947 H   0  0  0  0  0  0  0  0  0  0  0  0  # atno 6907 bound_to 6896
  152.5275  134.3168  159.9144 H   0  0  0  0  0  0  0  0  0  0  0  0  # atno 6908 bound_to 6896
  151.3174  133.4013  159.2686 H   0  0  0  0  0  0  0  0  0  0  0  0  # atno 6909 bound_to 6896
  145.3841  140.9521  143.2377 H   0  0  0  0  0  0  0  0  0  0  0  0  # atno 7974 bound_to 7965
  154.5870  140.0665  156.9185 H   0  0  0  0  0  0  0  0  0  0  0  0  # atno 8008 bound_to 7997
  155.2361  140.3341  155.4279 H   0  0  0  0  0  0  0  0  0  0  0  0  # atno 8009 bound_to 7997
  156.2230  140.1807  156.7416 H   0  0  0  0  0  0  0  0  0  0  0  0  # atno 8010 bound_to 7997
  140.5411  143.2315  151.7087 H   0  0  0  0  0  0  0  0  0  0  0  0  # atno 10167 bound_to 10162
  156.1589  130.4150  149.9824 H   0  0  0  0  0  0  0  0  0  0  0  0  # atno 10718 bound_to 10713
  154.8506  135.4358  154.1764 H   0  0  0  0  0  0  0  0  0  0  0  0  # atno 10763 bound_to 10752
  153.2865  135.6958  153.7340 H   0  0  0  0  0  0  0  0  0  0  0  0  # atno 10764 bound_to 10752
  153.6523  135.3449  155.3078 H   0  0  0  0  0  0  0  0  0  0  0  0  # atno 10765 bound_to 10752
  141.0903  133.6634  156.3965 H   0  0  0  0  0  0  0  0  0  0  0  0  # atno 11005 bound_to 11000
  144.8486  139.5357  143.6867 LP  0  0  0  0  0  0  0  0  0  0  0  0  # atno 17320 bound_to 7965
  146.2828  139.6923  142.9217 LP  0  0  0  0  0  0  0  0  0  0  0  0  # atno 17321 bound_to 7965
  139.4989  144.3967  152.0224 LP  0  0  0  0  0  0  0  0  0  0  0  0  # atno 17342 bound_to 10162
  140.3076  144.3575  150.6043 LP  0  0  0  0  0  0  0  0  0  0  0  0  # atno 17343 bound_to 10162
  156.7660  130.9168  151.3643 LP  0  0  0  0  0  0  0  0  0  0  0  0  # atno 17370 bound_to 10713
  157.6717  130.9057  150.0055 LP  0  0  0  0  0  0  0  0  0  0  0  0  # atno 17371 bound_to 10713
  140.5268  134.6251  157.5336 LP  0  0  0  0  0  0  0  0  0  0  0  0  # atno 17394 bound_to 11000
  139.9728  134.7265  156.0009 LP  0  0  0  0  0  0  0  0  0  0  0  0  # atno 17395 bound_to 11000

$$$$
