AV-unprocessed.smi:3069|AV-procd|sdf|11710|dock9
  -GOLD-   2272017113D 1   1.00000     0.00000
 Structure written by MMmdl.
 39 40  0  0  0  0  0  0  0  0  1 V2000
  153.5098  137.1190  163.0573 N   0  0  0  0  0  0  0  0  0  0  0  0
  153.3380  137.2967  161.9268 C   0  0  0  0  0  0  0  0  0  0  0  0
  153.1190  137.5210  160.5035 C   0  0  0  0  0  0  0  0  0  0  0  0
  151.9699  137.0348  159.9803 N   0  0  0  0  0  0  0  0  0  0  0  0
  151.7452  137.2593  158.6680 C   0  0  0  0  0  0  0  0  0  0  0  0
  152.6640  137.9716  157.8727 C   0  0  0  0  0  0  0  0  0  0  0  0
  153.8128  138.4610  158.3857 N   0  0  0  0  0  0  0  0  0  0  0  0
  154.0503  138.2395  159.7022 C   0  0  0  0  0  0  0  0  0  0  0  0
  155.2408  138.7509  160.2469 N   0  0  0  0  0  0  0  0  0  0  0  0
  155.3576  140.1946  160.4221 C   0  0  0  0  0  0  0  0  0  0  0  0
  154.1862  140.7727  161.2306 C   0  0  0  0  0  0  0  0  0  0  0  0
  153.8478  142.0367  160.6773 O   0  0  0  0  0  0  0  0  0  0  0  0
  153.4242  142.0124  159.3199 C   0  0  0  0  0  0  0  0  0  0  0  0
  153.7412  143.4037  158.7390 C   0  0  0  0  0  0  0  0  0  0  0  0
  152.7657  144.5208  159.1464 C   0  0  0  0  0  0  0  0  0  0  0  0
  151.5673  144.6453  158.1913 C   0  0  0  0  0  0  0  0  0  0  0  0
  150.5486  143.5000  158.2855 C   0  0  0  0  0  0  0  0  0  0  0  0
  151.1339  142.0968  158.0471 C   0  0  0  0  0  0  0  0  0  0  0  0
  151.9406  141.5761  159.2481 C   0  0  0  0  0  0  0  0  0  0  0  0
  150.8279  136.8705  158.2513 H   0  0  0  0  0  0  0  0  0  0  0  0
  152.4776  138.1486  156.8239 H   0  0  0  0  0  0  0  0  0  0  0  0
  155.6420  138.2042  160.9957 H   0  0  0  0  0  0  0  0  0  0  0  0
  156.2946  140.3973  160.9410 H   0  0  0  0  0  0  0  0  0  0  0  0
  155.4310  140.6863  159.4516 H   0  0  0  0  0  0  0  0  0  0  0  0
  153.3235  140.1079  161.1759 H   0  0  0  0  0  0  0  0  0  0  0  0
  154.4628  140.8509  162.2819 H   0  0  0  0  0  0  0  0  0  0  0  0
  154.0365  141.2930  158.7733 H   0  0  0  0  0  0  0  0  0  0  0  0
  154.7478  143.6813  159.0542 H   0  0  0  0  0  0  0  0  0  0  0  0
  153.7932  143.3450  157.6511 H   0  0  0  0  0  0  0  0  0  0  0  0
  152.4352  144.3951  160.1780 H   0  0  0  0  0  0  0  0  0  0  0  0
  153.3072  145.4671  159.1209 H   0  0  0  0  0  0  0  0  0  0  0  0
  151.0489  145.5808  158.4040 H   0  0  0  0  0  0  0  0  0  0  0  0
  151.9244  144.7339  157.1646 H   0  0  0  0  0  0  0  0  0  0  0  0
  150.0482  143.5323  159.2542 H   0  0  0  0  0  0  0  0  0  0  0  0
  149.7679  143.6811  157.5462 H   0  0  0  0  0  0  0  0  0  0  0  0
  150.2963  141.4164  157.8893 H   0  0  0  0  0  0  0  0  0  0  0  0
  151.7215  142.0606  157.1292 H   0  0  0  0  0  0  0  0  0  0  0  0
  151.9062  140.4865  159.2377 H   0  0  0  0  0  0  0  0  0  0  0  0
  151.4281  141.8681  160.1649 H   0  0  0  0  0  0  0  0  0  0  0  0
  1  2  3  0  0  0  0
  2  3  1  0  0  0  0
  3  8  1  0  0  0  0
  3  4  2  0  0  0  0
  4  5  1  0  0  0  0
  5  6  2  0  0  0  0
  5 20  1  0  0  0  0
  6  7  1  0  0  0  0
  6 21  1  0  0  0  0
  7  8  2  0  0  0  0
  8  9  1  0  0  0  0
  9 10  1  0  0  0  0
  9 22  1  0  0  0  0
 10 11  1  0  0  0  0
 10 23  1  0  0  0  0
 10 24  1  0  0  0  0
 11 12  1  0  0  0  0
 11 25  1  0  0  0  0
 11 26  1  0  0  0  0
 12 13  1  0  0  0  0
 13 19  1  0  0  0  0
 13 14  1  0  0  0  0
 13 27  1  0  0  0  0
 14 15  1  0  0  0  0
 14 28  1  0  0  0  0
 14 29  1  0  0  0  0
 15 16  1  0  0  0  0
 15 30  1  0  0  0  0
 15 31  1  0  0  0  0
 16 17  1  0  0  0  0
 16 32  1  0  0  0  0
 16 33  1  0  0  0  0
 17 18  1  0  0  0  0
 17 34  1  0  0  0  0
 17 35  1  0  0  0  0
 18 19  1  0  0  0  0
 18 36  1  0  0  0  0
 18 37  1  0  0  0  0
 19 38  1  0  0  0  0
 19 39  1  0  0  0  0
M  END
> <s_m_source_file>
AV-unprocessed.smi

> <i_m_source_file_index>
3069

> <i_lp_mmshare_version>
43012

> <i_f3d_flags>
0

> <s_epik_input>
TiNDYzFuW2NIXVtjSF1uYzFbTkhdW0NIMl1bQ0gyXU9bQ0hdMltDSDJdW0NIMl1bQ0gyXVtDSDJdW0NIMl1bQ0gyXTI=

> <s_epik_cmdline>
J2VwaWtfcHl0aG9uJywgJy1waCcsICc3LjAnLCAnLXRuJywgJzgnLCAnLW1hJywgJzIwMCcsICctbWV0YWxfYmluZGluZycsICctaW1hZScsICc8aW5maWxlLm1hZT4nLCAnLW9tYWUnLCAnPG91dGZpbGUubWFlPic=

> <r_lp_tautomer_probability>
1

> <r_epik_Ionization_Penalty>
5.57718e-05

> <r_epik_Ionization_Penalty_Charging>
0

> <r_epik_Ionization_Penalty_Neutral>
5.57718e-05

> <r_epik_State_Penalty>
-0

> <r_epik_Charging_Adjusted_Penalty>
0

> <i_epik_Tot_Q>
0

> <i_epik_Tot_abs_Q>
0

> <r_epik_Metal_State_Penalty>
-0

> <b_epik_Metal_Only>
0

> <s_lp_Force_Field>
OPLS_2005

> <r_lp_Energy>
28.0763

> <b_lp_Chiralities_Consistent>
1

> <s_lp_Variant>
AV-unprocessed.smi:3069-1

> <Gold.Version>
5.8.1

> <Gold.Id.Protein>
6NUR|6NUR_protein|mol2

> <Gold.PLP.Fitness>
41.0814

> <Gold.PLP.PLP>
-36.3147

> <Gold.PLP.part.hbond>
-2.0000

> <Gold.PLP.part.metal>
0.0000

> <Gold.PLP.part.buried>
-5.4957

> <Gold.PLP.part.nonpolar>
-28.3733

> <Gold.PLP.part.repulsive>
0.0000

> <Gold.PLP.ligand.clash>
0.0000

> <Gold.PLP.ligand.torsion>
0.6291

> <Gold.PLP.Chemscore.Hbond>
2.0000

> <Gold.PLP.Chemscore.CHOScore>
0.0000

> <Gold.PLP.Chemscore.Metal>
0.0000

> <Gold.Chemscore.Hbonds>
donor molecule, donor type, donor heavy atom, donor atom, acceptor molecule, acceptor atom, score
      P1  H  6896  6908       L1     4  0.96
      P1  H  7997  8008       L1     7  0.62

> <Gold.PLP.Chemscore.Internal.Correction>
0.0249

> <Gold.Rescore>
     Score         DG    S(hbond)    S(metal)    S(lipo)     H(rot)  DE(clash)    DE(int)     intcor
     17.63     -18.25       1.78        0.00     102.99       2.04       0.07       0.55       ----

> <Gold.Chemscore.Fitness>
17.6291

> <Gold.Chemscore.DG>
-18.2481

> <Gold.Chemscore.ZeroCoef>
-5.4800

> <Gold.Chemscore.Hbond>
1.7753

> <Gold.Chemscore.Metal>
0.0000

> <Gold.Chemscore.Lipo>
102.9943

> <Gold.Chemscore.Internal_Hbond>
0.0000

> <Gold.Chemscore.DEClash>
0.0704

> <Gold.Chemscore.DEInternal>
0.5487

> <Gold.Chemscore.Rot>
2.0359

> <Gold.Chemscore.Internal.Correction>
   9.000000E+99

> <Gold.Chemscore.Hbonds>
donor molecule, donor type, donor heavy atom, donor atom, acceptor molecule, acceptor atom, score
      P1  H  6896  6908       L1     4  0.22
      P1  H  7997  8008       L1     7  0.56

> <Gold.Chemscore.Hbond.Weighted>
-5.9297

> <Gold.Chemscore.Metal.Weighted>
-0.0000

> <Gold.Chemscore.Lipo.Weighted>
-12.0503

> <Gold.Chemscore.Internal_Hbond.Weighted>
0.0000

> <Gold.Chemscore.DEClash.Weighted>
0.0704

> <Gold.Chemscore.DEInternal.Weighted>
0.5487

> <Gold.Chemscore.Rot.Weighted>
5.2119

> <Gold.Chemscore.Internal.Correction.Weighted>
   9.000000E+99

> <Gold.Protein.RotatedTorsions>
[ 6907 6896 6895 6894 ] final  -90.76 input  -60.11 | X-H torsion
[ 7974 7965 7964 7962 ] final -162.64 input  175.53 | X-H torsion
[ 8008 7997 7996 7995 ] final  -99.78 input   59.86 | X-H torsion
[ 10167 10162 10161 10158 ] final -132.13 input  -65.29 | X-H torsion
[ 10718 10713 10712 10709 ] final   78.92 input   66.30 | X-H torsion
[ 10763 10752 10751 10750 ] final  121.88 input  -60.55 | X-H torsion
[ 11005 11000 10999 10996 ] final  148.46 input  -57.11 | X-H torsion

> <Gold.Protein.ActiveResidues>
 VAL166  LYS551  ARG553  GLY616  TRP617  ASP618  TYR619  PRO620  LYS621  CYS622 
 ASP623  PHE694  ASN695  SER759  ASP760  ASP761  ALA762  ILE779  LEU786  VAL792 
 PHE793  MET794  SER795  GLU796  ALA797  LYS798  CYS799  TRP800  GLU811  SER814 

> <Gold.Protein.RotatedAtoms>
  150.6885  134.2382  159.4461 H   0  0  0  0  0  0  0  0  0  0  0  0  # atno 6907 bound_to 6896
  152.0328  134.9755  160.0582 H   0  0  0  0  0  0  0  0  0  0  0  0  # atno 6908 bound_to 6896
  152.1287  133.4360  159.4747 H   0  0  0  0  0  0  0  0  0  0  0  0  # atno 6909 bound_to 6896
  144.7351  140.3222  143.6168 H   0  0  0  0  0  0  0  0  0  0  0  0  # atno 7974 bound_to 7965
  154.8195  140.0445  157.1400 H   0  0  0  0  0  0  0  0  0  0  0  0  # atno 8008 bound_to 7997
  154.9276  140.3035  155.5164 H   0  0  0  0  0  0  0  0  0  0  0  0  # atno 8009 bound_to 7997
  156.2979  140.2329  156.4332 H   0  0  0  0  0  0  0  0  0  0  0  0  # atno 8010 bound_to 7997
  139.9117  143.6486  152.2574 H   0  0  0  0  0  0  0  0  0  0  0  0  # atno 10167 bound_to 10162
  157.6760  130.9890  150.1856 H   0  0  0  0  0  0  0  0  0  0  0  0  # atno 10718 bound_to 10713
  153.6210  135.3413  155.3011 H   0  0  0  0  0  0  0  0  0  0  0  0  # atno 10763 bound_to 10752
  154.8600  135.4273  154.2207 H   0  0  0  0  0  0  0  0  0  0  0  0  # atno 10764 bound_to 10752
  153.3080  135.7029  153.7214 H   0  0  0  0  0  0  0  0  0  0  0  0  # atno 10765 bound_to 10752
  140.0962  134.9011  157.1726 H   0  0  0  0  0  0  0  0  0  0  0  0  # atno 11005 bound_to 11000
  145.7556  139.1808  143.2296 LP  0  0  0  0  0  0  0  0  0  0  0  0  # atno 17320 bound_to 7965
  146.1026  140.7525  142.9541 LP  0  0  0  0  0  0  0  0  0  0  0  0  # atno 17321 bound_to 7965
  139.6937  144.7644  151.1394 LP  0  0  0  0  0  0  0  0  0  0  0  0  # atno 17342 bound_to 10162
  140.7684  143.5554  150.9158 LP  0  0  0  0  0  0  0  0  0  0  0  0  # atno 17343 bound_to 10162
  156.2579  130.3707  149.8162 LP  0  0  0  0  0  0  0  0  0  0  0  0  # atno 17370 bound_to 10713
  156.5916  130.8508  151.3409 LP  0  0  0  0  0  0  0  0  0  0  0  0  # atno 17371 bound_to 10713
  140.3284  134.2838  155.7232 LP  0  0  0  0  0  0  0  0  0  0  0  0  # atno 17394 bound_to 11000
  141.2092  133.7754  157.0009 LP  0  0  0  0  0  0  0  0  0  0  0  0  # atno 17395 bound_to 11000

$$$$
