AV-unprocessed.smi:661|AV-procd|sdf|3241|dock9
  -GOLD-   22720 0193D 1   1.00000     0.00000
 Structure written by MMmdl.
 30 31  0  0  0  0  0  0  0  0  1 V2000
  147.5302  141.9539  154.0568 C   0  0  0  0  0  0  0  0  0  0  0  0
  148.9611  142.1590  154.1910 N   0  0  0  0  0  0  0  0  0  0  0  0
  149.5966  140.9163  154.5970 C   0  0  0  0  0  0  0  0  0  0  0  0
  150.4221  141.0770  155.8359 C   0  0  0  0  0  0  0  0  0  0  0  0
  150.5358  142.2536  156.4529 N   0  0  0  0  0  0  0  0  0  0  0  0
  151.3684  141.9606  157.5153 C   0  0  0  0  0  0  0  0  0  0  0  0
  151.8705  142.7885  158.5447 C   0  0  0  0  0  0  0  0  0  0  0  0
  152.7215  142.2580  159.5364 C   0  0  0  0  0  0  0  0  0  0  0  0
  153.0824  140.8953  159.5129 C   0  0  0  0  0  0  0  0  0  0  0  0
  152.5928  140.0527  158.4963 C   0  0  0  0  0  0  0  0  0  0  0  0
  151.7429  140.5870  157.5096 C   0  0  0  0  0  0  0  0  0  0  0  0
  151.1044  140.0467  156.3981 N   0  0  0  0  0  0  0  0  0  0  0  0
  151.1835  138.6616  155.9586 C   0  0  0  0  0  0  0  0  0  0  0  0
  151.7516  138.5509  154.5371 C   0  0  0  0  0  0  0  0  0  0  0  0
  151.6157  137.2258  154.0726 O   0  0  0  0  0  0  0  0  0  0  0  0
  147.0484  142.8862  153.7620 H   0  0  0  0  0  0  0  0  0  0  0  0
  147.0924  141.6293  155.0016 H   0  0  0  0  0  0  0  0  0  0  0  0
  147.3140  141.2040  153.2950 H   0  0  0  0  0  0  0  0  0  0  0  0
  149.1252  142.8576  154.9019 H   0  0  0  0  0  0  0  0  0  0  0  0
  148.8278  140.1644  154.7809 H   0  0  0  0  0  0  0  0  0  0  0  0
  150.2251  140.5300  153.7942 H   0  0  0  0  0  0  0  0  0  0  0  0
  151.6003  143.8337  158.5715 H   0  0  0  0  0  0  0  0  0  0  0  0
  153.0995  142.9002  160.3183 H   0  0  0  0  0  0  0  0  0  0  0  0
  153.7355  140.4974  160.2758 H   0  0  0  0  0  0  0  0  0  0  0  0
  152.8677  139.0085  158.4740 H   0  0  0  0  0  0  0  0  0  0  0  0
  151.8171  138.1169  156.6599 H   0  0  0  0  0  0  0  0  0  0  0  0
  150.1988  138.1987  156.0153 H   0  0  0  0  0  0  0  0  0  0  0  0
  151.2281  139.2210  153.8551 H   0  0  0  0  0  0  0  0  0  0  0  0
  152.8067  138.8260  154.5197 H   0  0  0  0  0  0  0  0  0  0  0  0
  151.3994  137.2512  153.1529 H   0  0  0  0  0  0  0  0  0  0  0  0
  1  2  1  0  0  0  0
  1 16  1  0  0  0  0
  1 17  1  0  0  0  0
  1 18  1  0  0  0  0
  2  3  1  0  0  0  0
  2 19  1  0  0  0  0
  3  4  1  0  0  0  0
  3 20  1  0  0  0  0
  3 21  1  0  0  0  0
  4 12  1  0  0  0  0
  4  5  2  0  0  0  0
  5  6  1  0  0  0  0
  6 11  2  0  0  0  0
  6  7  1  0  0  0  0
  7  8  2  0  0  0  0
  7 22  1  0  0  0  0
  8  9  1  0  0  0  0
  8 23  1  0  0  0  0
  9 10  2  0  0  0  0
  9 24  1  0  0  0  0
 10 11  1  0  0  0  0
 10 25  1  0  0  0  0
 11 12  1  0  0  0  0
 12 13  1  0  0  0  0
 13 14  1  0  0  0  0
 13 26  1  0  0  0  0
 13 27  1  0  0  0  0
 14 15  1  0  0  0  0
 14 28  1  0  0  0  0
 14 29  1  0  0  0  0
 15 30  1  0  0  0  0
M  END
> <s_m_source_file>
AV-unprocessed.smi

> <i_m_source_file_index>
661

> <i_lp_mmshare_version>
43012

> <i_f3d_flags>
0

> <s_epik_input>
W0NIM11bTkhdW0NIMl1jKG4xKW4oW0NIMl1bQ0gyXVtPSF0pYyhjMTIpW2NIXVtjSF1bY0hdW2NIXTI=

> <s_epik_cmdline>
J2VwaWtfcHl0aG9uJywgJy1waCcsICc3LjAnLCAnLXRuJywgJzgnLCAnLW1hJywgJzIwMCcsICctbWV0YWxfYmluZGluZycsICctaW1hZScsICc8aW5maWxlLm1hZT4nLCAnLW9tYWUnLCAnPG91dGZpbGUubWFlPic=

> <r_epik_Ionization_Penalty>
1.98932

> <r_epik_Ionization_Penalty_Charging>
0

> <r_epik_Ionization_Penalty_Neutral>
1.98932

> <r_epik_State_Penalty>
1.95598

> <r_epik_Charging_Adjusted_Penalty>
1.95598

> <i_epik_Tot_Q>
0

> <i_epik_Tot_abs_Q>
0

> <r_epik_Metal_State_Penalty>
1.80219

> <b_epik_Metal_Only>
0

> <s_lp_Force_Field>
OPLS_2005

> <r_lp_Energy>
9.98392

> <b_lp_Chiralities_Consistent>
1

> <s_lp_Variant>
AV-unprocessed.smi:661-2

> <Gold.Version>
5.8.1

> <Gold.Id.Protein>
6NUR|6NUR_protein|mol2

> <Gold.PLP.Fitness>
42.3802

> <Gold.PLP.PLP>
-34.1553

> <Gold.PLP.part.hbond>
-4.0000

> <Gold.PLP.part.metal>
0.0000

> <Gold.PLP.part.buried>
-4.8136

> <Gold.PLP.part.nonpolar>
-26.7332

> <Gold.PLP.part.repulsive>
0.4546

> <Gold.PLP.ligand.clash>
0.0000

> <Gold.PLP.ligand.torsion>
0.3889

> <Gold.PLP.Chemscore.Hbond>
3.0001

> <Gold.PLP.Chemscore.CHOScore>
0.0000

> <Gold.PLP.Chemscore.Metal>
0.0000

> <Gold.Chemscore.Hbonds>
donor molecule, donor type, donor heavy atom, donor atom, acceptor molecule, acceptor atom, score
      L1  H     2    19       P1  8028  1.00
      L1  H    15    30       P1  7949  0.69
      P1  H  8011  8017       L1     2  0.30
      P1  H 10752 10764       L1    15  0.94

> <Gold.PLP.Chemscore.Internal.Correction>
0.0027

> <Gold.Rescore>
     Score         DG    S(hbond)    S(metal)    S(lipo)     H(rot)  DE(clash)    DE(int)     intcor
     14.67     -15.09       2.00        0.00      75.38       2.30       0.02       0.40       ----

> <Gold.Chemscore.Fitness>
14.6746

> <Gold.Chemscore.DG>
-15.0869

> <Gold.Chemscore.ZeroCoef>
-5.4800

> <Gold.Chemscore.Hbond>
2.0009

> <Gold.Chemscore.Metal>
0.0000

> <Gold.Chemscore.Lipo>
75.3835

> <Gold.Chemscore.Internal_Hbond>
0.0000

> <Gold.Chemscore.DEClash>
0.0166

> <Gold.Chemscore.DEInternal>
0.3957

> <Gold.Chemscore.Rot>
2.3031

> <Gold.Chemscore.Internal.Correction>
   9.000000E+99

> <Gold.Chemscore.Hbonds>
donor molecule, donor type, donor heavy atom, donor atom, acceptor molecule, acceptor atom, score
      L1  H     2    19       P1  8028  0.91
      L1  H    15    30       P1  7949  0.52
      P1  H  8011  8017       L1     2  0.06
      P1  H 10752 10764       L1    15  0.31

> <Gold.Chemscore.Hbond.Weighted>
-6.6831

> <Gold.Chemscore.Metal.Weighted>
-0.0000

> <Gold.Chemscore.Lipo.Weighted>
-8.8199

> <Gold.Chemscore.Internal_Hbond.Weighted>
0.0000

> <Gold.Chemscore.DEClash.Weighted>
0.0166

> <Gold.Chemscore.DEInternal.Weighted>
0.3957

> <Gold.Chemscore.Rot.Weighted>
5.8960

> <Gold.Chemscore.Internal.Correction.Weighted>
   9.000000E+99

> <Gold.Protein.RotatedTorsions>
[ 6907 6896 6895 6894 ] final -101.99 input  -60.11 | X-H torsion
[ 7974 7965 7964 7962 ] final  -91.16 input  175.53 | X-H torsion
[ 8008 7997 7996 7995 ] final   55.76 input   59.86 | X-H torsion
[ 10167 10162 10161 10158 ] final -138.09 input  -65.29 | X-H torsion
[ 10718 10713 10712 10709 ] final  148.55 input   66.30 | X-H torsion
[ 10763 10752 10751 10750 ] final  -86.80 input  -60.55 | X-H torsion
[ 11005 11000 10999 10996 ] final  138.62 input  -57.11 | X-H torsion

> <Gold.Protein.ActiveResidues>
 VAL166  LYS551  ARG553  GLY616  TRP617  ASP618  TYR619  PRO620  LYS621  CYS622 
 ASP623  PHE694  ASN695  SER759  ASP760  ASP761  ALA762  ILE779  LEU786  VAL792 
 PHE793  MET794  SER795  GLU796  ALA797  LYS798  CYS799  TRP800  GLU811  SER814 

> <Gold.Protein.RotatedAtoms>
  150.7177  134.0649  159.3843 H   0  0  0  0  0  0  0  0  0  0  0  0  # atno 6907 bound_to 6896
  151.8630  135.0515  160.0480 H   0  0  0  0  0  0  0  0  0  0  0  0  # atno 6908 bound_to 6896
  152.2702  133.5340  159.5471 H   0  0  0  0  0  0  0  0  0  0  0  0  # atno 6909 bound_to 6896
  145.4168  140.9548  143.2203 H   0  0  0  0  0  0  0  0  0  0  0  0  # atno 7974 bound_to 7965
  155.5064  140.3476  155.4380 H   0  0  0  0  0  0  0  0  0  0  0  0  # atno 8008 bound_to 7997
  156.0879  140.1403  156.9657 H   0  0  0  0  0  0  0  0  0  0  0  0  # atno 8009 bound_to 7997
  154.4617  140.0932  156.6889 H   0  0  0  0  0  0  0  0  0  0  0  0  # atno 8010 bound_to 7997
  139.8513  143.7195  152.2657 H   0  0  0  0  0  0  0  0  0  0  0  0  # atno 10167 bound_to 10162
  157.3071  131.0881  151.1345 H   0  0  0  0  0  0  0  0  0  0  0  0  # atno 10718 bound_to 10713
  154.6265  135.5436  153.7633 H   0  0  0  0  0  0  0  0  0  0  0  0  # atno 10763 bound_to 10752
  153.0263  135.6425  154.1364 H   0  0  0  0  0  0  0  0  0  0  0  0  # atno 10764 bound_to 10752
  154.1296  135.2915  155.3168 H   0  0  0  0  0  0  0  0  0  0  0  0  # atno 10765 bound_to 10752
  140.0196  134.9402  157.0447 H   0  0  0  0  0  0  0  0  0  0  0  0  # atno 11005 bound_to 11000
  144.8272  139.5690  143.6960 LP  0  0  0  0  0  0  0  0  0  0  0  0  # atno 17320 bound_to 7965
  146.2677  139.6559  142.9318 LP  0  0  0  0  0  0  0  0  0  0  0  0  # atno 17321 bound_to 7965
  139.7463  144.7546  151.0575 LP  0  0  0  0  0  0  0  0  0  0  0  0  # atno 17342 bound_to 10162
  140.7787  143.4913  150.9890 LP  0  0  0  0  0  0  0  0  0  0  0  0  # atno 17343 bound_to 10162
  157.2681  130.6691  149.6006 LP  0  0  0  0  0  0  0  0  0  0  0  0  # atno 17370 bound_to 10713
  155.9675  130.4487  150.5632 LP  0  0  0  0  0  0  0  0  0  0  0  0  # atno 17371 bound_to 10713
  140.4410  134.1681  155.7174 LP  0  0  0  0  0  0  0  0  0  0  0  0  # atno 17394 bound_to 11000
  141.1765  133.8503  157.1403 LP  0  0  0  0  0  0  0  0  0  0  0  0  # atno 17395 bound_to 11000

$$$$
