AV-unprocessed.smi:2489|AV-procd|sdf|9798|dock6
  -GOLD-   2272013433D 1   1.00000     0.00000
 Structure written by MMmdl.
 33 34  0  0  0  0  0  0  0  0  1 V2000
  152.3562  143.7085  161.7493 C   0  0  0  0  0  0  0  0  0  0  0  0
  151.7519  143.1396  160.5970 O   0  0  0  0  0  0  0  0  0  0  0  0
  152.3893  142.0766  159.9948 C   0  0  0  0  0  0  0  0  0  0  0  0
  153.5102  141.4029  160.5352 C   0  0  0  0  0  0  0  0  0  0  0  0
  154.0611  140.3305  159.8099 C   0  0  0  0  0  0  0  0  0  0  0  0
  153.5754  139.9105  158.6243 N   0  0  0  0  0  0  0  0  0  0  0  0
  152.5027  140.5443  158.0913 C   0  0  0  0  0  0  0  0  0  0  0  0
  151.9129  140.1877  156.8500 N   0  0  0  0  0  0  0  0  0  0  0  0
  152.0006  139.0200  156.1838 C   0  0  0  0  0  0  0  0  0  0  0  0
  152.6576  138.0513  156.5663 O   0  0  0  0  0  0  0  0  0  0  0  0
  151.2403  138.9333  154.8480 C   0  0  1  0  0  0  0  0  0  0  0  0
  150.0362  137.9700  154.8874 C   0  0  0  0  0  0  0  0  0  0  0  0
  148.8592  138.8293  154.4617 C   0  0  0  0  0  0  0  0  0  0  0  0
  149.3148  140.2311  154.8474 C   0  0  2  0  0  0  0  0  0  0  0  0
  148.5898  141.3569  154.1029 C   0  0  0  0  0  0  0  0  0  0  0  0
  150.6915  140.2079  154.5027 O   0  0  0  0  0  0  0  0  0  0  0  0
  151.8893  141.6303  158.7546 C   0  0  0  0  0  0  0  0  0  0  0  0
  151.7407  144.5329  162.1088 H   0  0  0  0  0  0  0  0  0  0  0  0
  153.3454  144.1093  161.5239 H   0  0  0  0  0  0  0  0  0  0  0  0
  152.4371  142.9804  162.5576 H   0  0  0  0  0  0  0  0  0  0  0  0
  153.9538  141.6821  161.4786 H   0  0  0  0  0  0  0  0  0  0  0  0
  154.9167  139.7945  160.1929 H   0  0  0  0  0  0  0  0  0  0  0  0
  151.3429  140.8997  156.4167 H   0  0  0  0  0  0  0  0  0  0  0  0
  151.9444  138.6396  154.0690 H   0  0  0  0  0  0  0  0  0  0  0  0
  150.1715  137.1168  154.2221 H   0  0  0  0  0  0  0  0  0  0  0  0
  149.8570  137.5774  155.8897 H   0  0  0  0  0  0  0  0  0  0  0  0
  148.7246  138.7591  153.3813 H   0  0  0  0  0  0  0  0  0  0  0  0
  147.9235  138.5385  154.9401 H   0  0  0  0  0  0  0  0  0  0  0  0
  149.2219  140.3716  155.9258 H   0  0  0  0  0  0  0  0  0  0  0  0
  147.5257  141.3595  154.3391 H   0  0  0  0  0  0  0  0  0  0  0  0
  148.6940  141.2492  153.0228 H   0  0  0  0  0  0  0  0  0  0  0  0
  148.9953  142.3298  154.3809 H   0  0  0  0  0  0  0  0  0  0  0  0
  151.0343  142.1246  158.3162 H   0  0  0  0  0  0  0  0  0  0  0  0
  1  2  1  0  0  0  0
  1 18  1  0  0  0  0
  1 19  1  0  0  0  0
  1 20  1  0  0  0  0
  2  3  1  0  0  0  0
  3 17  1  0  0  0  0
  3  4  2  0  0  0  0
  4  5  1  0  0  0  0
  4 21  1  0  0  0  0
  5  6  2  0  0  0  0
  5 22  1  0  0  0  0
  6  7  1  0  0  0  0
  7  8  1  0  0  0  0
  7 17  2  0  0  0  0
  8  9  1  0  0  0  0
  8 23  1  0  0  0  0
  9 10  2  0  0  0  0
  9 11  1  0  0  0  0
 11 16  1  0  0  0  0
 11 12  1  0  0  0  0
 11 24  1  0  0  0  0
 12 13  1  0  0  0  0
 12 25  1  0  0  0  0
 12 26  1  0  0  0  0
 13 14  1  0  0  0  0
 13 27  1  0  0  0  0
 13 28  1  0  0  0  0
 14 15  1  0  0  0  0
 14 16  1  0  0  0  0
 14 29  1  0  0  0  0
 15 30  1  0  0  0  0
 15 31  1  0  0  0  0
 15 32  1  0  0  0  0
 17 33  1  0  0  0  0
M  END
> <s_m_source_file>
AV-unprocessed.smi

> <i_m_source_file_index>
2489

> <i_lp_mmshare_version>
43012

> <i_f3d_flags>
0

> <s_epik_input>
W0NIM11PYzFbY0hdW2NIXW5jKFtjSF0xKVtOSF1DKD1PKVtDQEBIXTJbQ0gyXVtDSDJdW0NASF0oTzIpW0NIM10=

> <s_epik_cmdline>
J2VwaWtfcHl0aG9uJywgJy1waCcsICc3LjAnLCAnLXRuJywgJzgnLCAnLW1hJywgJzIwMCcsICctbWV0YWxfYmluZGluZycsICctaW1hZScsICc8aW5maWxlLm1hZT4nLCAnLW9tYWUnLCAnPG91dGZpbGUubWFlPic=

> <r_epik_Ionization_Penalty>
0.0871917

> <r_epik_Ionization_Penalty_Charging>
0

> <r_epik_Ionization_Penalty_Neutral>
0.0871917

> <r_epik_State_Penalty>
0.146479

> <r_epik_Charging_Adjusted_Penalty>
0.146479

> <i_epik_Tot_Q>
0

> <i_epik_Tot_abs_Q>
0

> <r_epik_Metal_State_Penalty>
0.067489

> <b_epik_Metal_Only>
0

> <s_lp_Force_Field>
OPLS_2005

> <r_lp_Energy>
22.8638

> <b_lp_Chiralities_Consistent>
1

> <s_lp_Variant>
AV-unprocessed.smi:2489-4

> <Gold.Version>
5.8.1

> <Gold.Id.Protein>
6NUR|6NUR_protein|mol2

> <Gold.PLP.Fitness>
40.0911

> <Gold.PLP.PLP>
-34.6593

> <Gold.PLP.part.hbond>
-2.2419

> <Gold.PLP.part.metal>
0.0000

> <Gold.PLP.part.buried>
-4.2635

> <Gold.PLP.part.nonpolar>
-28.1082

> <Gold.PLP.part.repulsive>
0.2921

> <Gold.PLP.ligand.clash>
0.0000

> <Gold.PLP.ligand.torsion>
0.2878

> <Gold.PLP.Chemscore.Hbond>
2.0000

> <Gold.PLP.Chemscore.CHOScore>
0.0000

> <Gold.PLP.Chemscore.Metal>
0.0000

> <Gold.Chemscore.Hbonds>
donor molecule, donor type, donor heavy atom, donor atom, acceptor molecule, acceptor atom, score
      P1  H  7989  7998       L1    16  0.99
      P1  H  7997  8010       L1     6  1.00

> <Gold.PLP.Chemscore.Internal.Correction>
0.0074

> <Gold.Rescore>
     Score         DG    S(hbond)    S(metal)    S(lipo)     H(rot)  DE(clash)    DE(int)     intcor
     15.04     -16.66       1.35        0.00      83.77       1.23       0.12       1.50       ----

> <Gold.Chemscore.Fitness>
15.0449

> <Gold.Chemscore.DG>
-16.6597

> <Gold.Chemscore.ZeroCoef>
-5.4800

> <Gold.Chemscore.Hbond>
1.3528

> <Gold.Chemscore.Metal>
0.0000

> <Gold.Chemscore.Lipo>
83.7677

> <Gold.Chemscore.Internal_Hbond>
0.0000

> <Gold.Chemscore.DEClash>
0.1152

> <Gold.Chemscore.DEInternal>
1.4996

> <Gold.Chemscore.Rot>
1.2264

> <Gold.Chemscore.Internal.Correction>
   9.000000E+99

> <Gold.Chemscore.Hbonds>
donor molecule, donor type, donor heavy atom, donor atom, acceptor molecule, acceptor atom, score
      P1  H  7989  7998       L1    16  0.60
      P1  H  7997  8010       L1     6  0.31

> <Gold.Chemscore.Hbond.Weighted>
-4.5184

> <Gold.Chemscore.Metal.Weighted>
-0.0000

> <Gold.Chemscore.Lipo.Weighted>
-9.8008

> <Gold.Chemscore.Internal_Hbond.Weighted>
0.0000

> <Gold.Chemscore.DEClash.Weighted>
0.1152

> <Gold.Chemscore.DEInternal.Weighted>
1.4996

> <Gold.Chemscore.Rot.Weighted>
3.1396

> <Gold.Chemscore.Internal.Correction.Weighted>
   9.000000E+99

> <Gold.Protein.RotatedTorsions>
[ 6907 6896 6895 6894 ] final   51.57 input  -60.11 | X-H torsion
[ 7974 7965 7964 7962 ] final -173.87 input  175.53 | X-H torsion
[ 8008 7997 7996 7995 ] final   14.59 input   59.86 | X-H torsion
[ 10167 10162 10161 10158 ] final   81.77 input  -65.29 | X-H torsion
[ 10718 10713 10712 10709 ] final -104.37 input   66.30 | X-H torsion
[ 10763 10752 10751 10750 ] final   68.15 input  -60.55 | X-H torsion
[ 11005 11000 10999 10996 ] final  156.78 input  -57.11 | X-H torsion

> <Gold.Protein.ActiveResidues>
 VAL166  LYS551  ARG553  GLY616  TRP617  ASP618  TYR619  PRO620  LYS621  CYS622 
 ASP623  PHE694  ASN695  SER759  ASP760  ASP761  ALA762  ILE779  LEU786  VAL792 
 PHE793  MET794  SER795  GLU796  ALA797  LYS798  CYS799  TRP800  GLU811  SER814 

> <Gold.Protein.RotatedAtoms>
  152.3141  134.7461  160.0329 H   0  0  0  0  0  0  0  0  0  0  0  0  # atno 6907 bound_to 6896
  151.7932  133.3356  159.3513 H   0  0  0  0  0  0  0  0  0  0  0  0  # atno 6908 bound_to 6896
  150.7335  134.5753  159.5955 H   0  0  0  0  0  0  0  0  0  0  0  0  # atno 6909 bound_to 6896
  144.7135  140.1557  143.6380 H   0  0  0  0  0  0  0  0  0  0  0  0  # atno 7974 bound_to 7965
  154.8507  140.2929  155.5600 H   0  0  0  0  0  0  0  0  0  0  0  0  # atno 8008 bound_to 7997
  156.3016  140.2496  156.3397 H   0  0  0  0  0  0  0  0  0  0  0  0  # atno 8009 bound_to 7997
  154.9025  140.0391  157.1890 H   0  0  0  0  0  0  0  0  0  0  0  0  # atno 8010 bound_to 7997
  139.9358  144.6122  150.8300 H   0  0  0  0  0  0  0  0  0  0  0  0  # atno 10167 bound_to 10162
  156.0302  130.5512  150.7387 H   0  0  0  0  0  0  0  0  0  0  0  0  # atno 10718 bound_to 10713
  153.0221  135.5258  154.7089 H   0  0  0  0  0  0  0  0  0  0  0  0  # atno 10763 bound_to 10752
  154.6177  135.2885  155.0363 H   0  0  0  0  0  0  0  0  0  0  0  0  # atno 10764 bound_to 10752
  154.1361  135.6585  153.4985 H   0  0  0  0  0  0  0  0  0  0  0  0  # atno 10765 bound_to 10752
  140.1707  134.8545  157.2687 H   0  0  0  0  0  0  0  0  0  0  0  0  # atno 11005 bound_to 11000
  145.9076  139.2467  143.1456 LP  0  0  0  0  0  0  0  0  0  0  0  0  # atno 17320 bound_to 7965
  145.9748  140.8731  143.0144 LP  0  0  0  0  0  0  0  0  0  0  0  0  # atno 17321 bound_to 7965
  140.7625  143.3199  151.2646 LP  0  0  0  0  0  0  0  0  0  0  0  0  # atno 17342 bound_to 10162
  139.6745  143.9962  152.2773 LP  0  0  0  0  0  0  0  0  0  0  0  0  # atno 17343 bound_to 10162
  157.4961  131.0915  151.0369 LP  0  0  0  0  0  0  0  0  0  0  0  0  # atno 17370 bound_to 10713
  157.0763  130.5884  149.5412 LP  0  0  0  0  0  0  0  0  0  0  0  0  # atno 17371 bound_to 10713
  140.2380  134.3829  155.7493 LP  0  0  0  0  0  0  0  0  0  0  0  0  # atno 17394 bound_to 11000
  141.2217  133.7250  156.8745 LP  0  0  0  0  0  0  0  0  0  0  0  0  # atno 17395 bound_to 11000

$$$$
