AV-unprocessed.smi:1988|AV-procd|sdf|8058|dock3
  -GOLD-   2272010263D 1   1.00000     0.00000
 Structure written by MMmdl.
 37 38  0  0  0  0  0  0  0  0  1 V2000
  149.4913  135.1936  154.9145 C   0  0  0  0  0  0  0  0  0  0  0  0
  149.4576  133.7227  154.6128 C   0  0  0  0  0  0  0  0  0  0  0  0
  149.0985  133.3163  153.4068 N   0  0  0  0  0  0  0  0  0  0  0  0
  149.1479  131.9197  153.4419 O   0  0  0  0  0  0  0  0  0  0  0  0
  149.5369  131.5353  154.6841 C   0  0  0  0  0  0  0  0  0  0  0  0
  149.6371  130.0685  154.9335 C   0  0  0  0  0  0  0  0  0  0  0  0
  149.7528  132.6285  155.4770 C   0  0  0  0  0  0  0  0  0  0  0  0
  150.1790  132.6669  156.9220 C   0  0  0  0  0  0  0  0  0  0  0  0
  149.0844  133.3441  157.7436 C   0  0  0  0  0  0  0  0  0  0  0  0
  149.2219  134.5121  158.1066 O   0  0  0  0  0  0  0  0  0  0  0  0
  148.0234  132.5857  158.0602 N   0  0  0  0  0  0  0  0  0  0  0  0
  146.9375  132.9780  158.9519 C   0  0  0  0  0  0  0  0  0  0  0  0
  147.4619  133.8083  160.1393 C   0  0  2  0  0  0  0  0  0  0  0  0
  147.1135  133.1741  161.4998 C   0  0  0  0  0  0  0  0  0  0  0  0
  147.4422  134.1801  162.6077 C   0  0  0  0  0  0  0  0  0  0  0  0
  147.0983  135.8312  161.8937 S   0  0  0  0  0  0  0  0  0  0  0  0
  145.7831  136.3016  162.3541 O   0  0  0  0  0  0  0  0  0  0  0  0
  148.2964  136.6723  162.0358 O   0  0  0  0  0  0  0  0  0  0  0  0
  146.9524  135.2607  160.1587 C   0  0  0  0  0  0  0  0  0  0  0  0
  150.2561  135.4281  155.6543 H   0  0  0  0  0  0  0  0  0  0  0  0
  148.5326  135.5302  155.3097 H   0  0  0  0  0  0  0  0  0  0  0  0
  149.7077  135.7804  154.0213 H   0  0  0  0  0  0  0  0  0  0  0  0
  148.8976  129.7534  155.6698 H   0  0  0  0  0  0  0  0  0  0  0  0
  150.6247  129.8085  155.3141 H   0  0  0  0  0  0  0  0  0  0  0  0
  149.4670  129.5001  154.0188 H   0  0  0  0  0  0  0  0  0  0  0  0
  150.3457  131.6635  157.3157 H   0  0  0  0  0  0  0  0  0  0  0  0
  151.1209  133.2019  157.0504 H   0  0  0  0  0  0  0  0  0  0  0  0
  148.0004  131.6396  157.7077 H   0  0  0  0  0  0  0  0  0  0  0  0
  146.1631  133.5268  158.4133 H   0  0  0  0  0  0  0  0  0  0  0  0
  146.4638  132.0684  159.3218 H   0  0  0  0  0  0  0  0  0  0  0  0
  148.5505  133.8482  160.0742 H   0  0  0  0  0  0  0  0  0  0  0  0
  146.0454  132.9542  161.5298 H   0  0  0  0  0  0  0  0  0  0  0  0
  147.6370  132.2298  161.6527 H   0  0  0  0  0  0  0  0  0  0  0  0
  146.8537  134.0287  163.5127 H   0  0  0  0  0  0  0  0  0  0  0  0
  148.5003  134.1387  162.8669 H   0  0  0  0  0  0  0  0  0  0  0  0
  147.5153  135.9214  159.4990 H   0  0  0  0  0  0  0  0  0  0  0  0
  145.8992  135.3107  159.8805 H   0  0  0  0  0  0  0  0  0  0  0  0
  1  2  1  0  0  0  0
  1 20  1  0  0  0  0
  1 21  1  0  0  0  0
  1 22  1  0  0  0  0
  2  7  1  0  0  0  0
  2  3  2  0  0  0  0
  3  4  1  0  0  0  0
  4  5  1  0  0  0  0
  5  6  1  0  0  0  0
  5  7  2  0  0  0  0
  6 23  1  0  0  0  0
  6 24  1  0  0  0  0
  6 25  1  0  0  0  0
  7  8  1  0  0  0  0
  8  9  1  0  0  0  0
  8 26  1  0  0  0  0
  8 27  1  0  0  0  0
  9 10  2  0  0  0  0
  9 11  1  0  0  0  0
 11 12  1  0  0  0  0
 11 28  1  0  0  0  0
 12 13  1  0  0  0  0
 12 29  1  0  0  0  0
 12 30  1  0  0  0  0
 13 19  1  0  0  0  0
 13 14  1  0  0  0  0
 13 31  1  0  0  0  0
 14 15  1  0  0  0  0
 14 32  1  0  0  0  0
 14 33  1  0  0  0  0
 15 16  1  0  0  0  0
 15 34  1  0  0  0  0
 15 35  1  0  0  0  0
 16 17  2  0  0  0  0
 16 18  2  0  0  0  0
 16 19  1  0  0  0  0
 19 36  1  0  0  0  0
 19 37  1  0  0  0  0
M  END
> <s_m_source_file>
AV-unprocessed.smi

> <i_m_source_file_index>
1988

> <i_lp_mmshare_version>
43012

> <i_f3d_flags>
0

> <s_epik_input>
W0NIM11jMW5vYyhbQ0gzXSljMVtDSDJdQyg9TylbTkhdW0NIMl1bQ0BASF0oW0NIMl0yKVtDSDJdW0NIMl1TMig9Tyk9Tw==

> <s_epik_cmdline>
J2VwaWtfcHl0aG9uJywgJy1waCcsICc3LjAnLCAnLXRuJywgJzgnLCAnLW1hJywgJzIwMCcsICctbWV0YWxfYmluZGluZycsICctaW1hZScsICc8aW5maWxlLm1hZT4nLCAnLW9tYWUnLCAnPG91dGZpbGUubWFlPic=

> <r_lp_tautomer_probability>
1

> <r_epik_Ionization_Penalty>
2.7503e-08

> <r_epik_Ionization_Penalty_Charging>
0

> <r_epik_Ionization_Penalty_Neutral>
2.7503e-08

> <r_epik_State_Penalty>
-0

> <r_epik_Charging_Adjusted_Penalty>
0

> <i_epik_Tot_Q>
0

> <i_epik_Tot_abs_Q>
0

> <r_epik_Metal_State_Penalty>
-0

> <b_epik_Metal_Only>
0

> <s_lp_Force_Field>
OPLS_2005

> <r_lp_Energy>
-3.10021

> <b_lp_Chiralities_Consistent>
1

> <s_lp_Variant>
AV-unprocessed.smi:1988-1

> <Gold.Version>
5.8.1

> <Gold.Id.Protein>
6NUR|6NUR_protein|mol2

> <Gold.PLP.Fitness>
30.4057

> <Gold.PLP.PLP>
-26.7049

> <Gold.PLP.part.hbond>
-2.0000

> <Gold.PLP.part.metal>
0.0000

> <Gold.PLP.part.buried>
-3.3939

> <Gold.PLP.part.nonpolar>
-21.7019

> <Gold.PLP.part.repulsive>
0.3360

> <Gold.PLP.ligand.clash>
0.0000

> <Gold.PLP.ligand.torsion>
1.1595

> <Gold.PLP.Chemscore.Hbond>
2.0000

> <Gold.PLP.Chemscore.CHOScore>
0.0000

> <Gold.PLP.Chemscore.Metal>
0.0000

> <Gold.Chemscore.Hbonds>
donor molecule, donor type, donor heavy atom, donor atom, acceptor molecule, acceptor atom, score
      P1  H  6896  6907       L1    10  0.95
      P1  H  6931  6943       L1    18  1.00

> <Gold.PLP.Chemscore.Internal.Correction>
0.0196

> <Gold.Rescore>
     Score         DG    S(hbond)    S(metal)    S(lipo)     H(rot)  DE(clash)    DE(int)     intcor
     11.42     -14.01       1.93        0.00      54.93       1.70       0.01       2.58       ----

> <Gold.Chemscore.Fitness>
11.4204

> <Gold.Chemscore.DG>
-14.0095

> <Gold.Chemscore.ZeroCoef>
-5.4800

> <Gold.Chemscore.Hbond>
1.9292

> <Gold.Chemscore.Metal>
0.0000

> <Gold.Chemscore.Lipo>
54.9323

> <Gold.Chemscore.Internal_Hbond>
0.0000

> <Gold.Chemscore.DEClash>
0.0126

> <Gold.Chemscore.DEInternal>
2.5765

> <Gold.Chemscore.Rot>
1.6958

> <Gold.Chemscore.Internal.Correction>
   9.000000E+99

> <Gold.Chemscore.Hbonds>
donor molecule, donor type, donor heavy atom, donor atom, acceptor molecule, acceptor atom, score
      P1  H  6896  6907       L1    10  0.21
      P1  H  6931  6943       L1    18  1.00

> <Gold.Chemscore.Hbond.Weighted>
-6.4437

> <Gold.Chemscore.Metal.Weighted>
-0.0000

> <Gold.Chemscore.Lipo.Weighted>
-6.4271

> <Gold.Chemscore.Internal_Hbond.Weighted>
0.0000

> <Gold.Chemscore.DEClash.Weighted>
0.0126

> <Gold.Chemscore.DEInternal.Weighted>
2.5765

> <Gold.Chemscore.Rot.Weighted>
4.3413

> <Gold.Chemscore.Internal.Correction.Weighted>
   9.000000E+99

> <Gold.Protein.RotatedTorsions>
[ 6907 6896 6895 6894 ] final  -90.45 input  -60.11 | X-H torsion
[ 7974 7965 7964 7962 ] final  -20.38 input  175.53 | X-H torsion
[ 8008 7997 7996 7995 ] final -148.85 input   59.86 | X-H torsion
[ 10167 10162 10161 10158 ] final  160.28 input  -65.29 | X-H torsion
[ 10718 10713 10712 10709 ] final  167.28 input   66.30 | X-H torsion
[ 10763 10752 10751 10750 ] final  -26.06 input  -60.55 | X-H torsion
[ 11005 11000 10999 10996 ] final   62.37 input  -57.11 | X-H torsion

> <Gold.Protein.ActiveResidues>
 VAL166  LYS551  ARG553  GLY616  TRP617  ASP618  TYR619  PRO620  LYS621  CYS622 
 ASP623  PHE694  ASN695  SER759  ASP760  ASP761  ALA762  ILE779  LEU786  VAL792 
 PHE793  MET794  SER795  GLU796  ALA797  LYS798  CYS799  TRP800  GLU811  SER814 

> <Gold.Protein.RotatedAtoms>
  150.6882  134.2431  159.4480 H   0  0  0  0  0  0  0  0  0  0  0  0  # atno 6907 bound_to 6896
  152.0373  134.9729  160.0582 H   0  0  0  0  0  0  0  0  0  0  0  0  # atno 6908 bound_to 6896
  152.1245  133.4337  159.4728 H   0  0  0  0  0  0  0  0  0  0  0  0  # atno 6909 bound_to 6896
  146.1791  140.4194  142.8501 H   0  0  0  0  0  0  0  0  0  0  0  0  # atno 7974 bound_to 7965
  155.5981  140.0659  157.2740 H   0  0  0  0  0  0  0  0  0  0  0  0  # atno 8008 bound_to 7997
  154.4286  140.1823  156.1192 H   0  0  0  0  0  0  0  0  0  0  0  0  # atno 8009 bound_to 7997
  156.0180  140.3320  155.7013 H   0  0  0  0  0  0  0  0  0  0  0  0  # atno 8010 bound_to 7997
  139.4839  144.4649  151.8655 H   0  0  0  0  0  0  0  0  0  0  0  0  # atno 10167 bound_to 10162
  157.0538  131.0321  151.2671 H   0  0  0  0  0  0  0  0  0  0  0  0  # atno 10718 bound_to 10713
  153.7098  135.6951  153.5040 H   0  0  0  0  0  0  0  0  0  0  0  0  # atno 10763 bound_to 10752
  153.2280  135.4347  155.0563 H   0  0  0  0  0  0  0  0  0  0  0  0  # atno 10764 bound_to 10752
  154.8318  135.3477  154.6636 H   0  0  0  0  0  0  0  0  0  0  0  0  # atno 10765 bound_to 10752
  140.0096  134.6316  155.9800 H   0  0  0  0  0  0  0  0  0  0  0  0  # atno 11005 bound_to 11000
  144.8285  140.6668  143.6306 LP  0  0  0  0  0  0  0  0  0  0  0  0  # atno 17320 bound_to 7965
  145.4127  139.1577  143.4117 LP  0  0  0  0  0  0  0  0  0  0  0  0  # atno 17321 bound_to 7965
  140.4114  144.2364  150.5889 LP  0  0  0  0  0  0  0  0  0  0  0  0  # atno 17342 bound_to 10162
  140.4963  143.2331  151.8745 LP  0  0  0  0  0  0  0  0  0  0  0  0  # atno 17343 bound_to 10162
  157.5009  130.7879  149.7603 LP  0  0  0  0  0  0  0  0  0  0  0  0  # atno 17370 bound_to 10713
  155.9999  130.3886  150.2646 LP  0  0  0  0  0  0  0  0  0  0  0  0  # atno 17371 bound_to 10713
  141.1702  133.6537  156.4623 LP  0  0  0  0  0  0  0  0  0  0  0  0  # atno 17394 bound_to 11000
  140.4578  134.6870  157.5071 LP  0  0  0  0  0  0  0  0  0  0  0  0  # atno 17395 bound_to 11000

$$$$
