AV-unprocessed.smi:1225|AV-procd|sdf|5142|dock7
  -GOLD-   22720 4213D 1   1.00000     0.00000
 Structure written by MMmdl.
 49 51  0  0  0  0  0  0  0  0  2 V2000
  144.1699  145.7893  153.7157 C   0  0  0  0  0  0  0  0  0  0  0  0
  144.4310  144.4658  154.3495 C   0  0  0  0  0  0  0  0  0  0  0  0
  143.7048  143.9711  155.3542 N   0  0  0  0  0  0  0  0  0  0  0  0
  144.1547  142.7170  155.7715 C   0  0  0  0  0  0  0  0  0  0  0  0
  145.2340  142.2503  155.0623 C   0  0  0  0  0  0  0  0  0  0  0  0
  145.9513  140.9532  155.2526 C   0  0  0  0  0  0  0  0  0  0  0  0
  147.3643  141.1500  155.6667 N   0  3  1  0  0  0  0  0  0  0  0  0
  147.4975  141.4364  157.1144 C   0  0  0  0  0  0  0  0  0  0  0  0
  148.2594  140.0476  155.2325 C   0  0  0  0  0  0  0  0  0  0  0  0
  149.5515  140.5718  154.5656 C   0  0  1  0  0  0  0  0  0  0  0  0
  149.2344  141.0673  153.2806 O   0  0  0  0  0  0  0  0  0  0  0  0
  150.2368  141.7071  155.3507 C   0  0  0  0  0  0  0  0  0  0  0  0
  151.1050  141.2113  156.4028 N   0  0  0  0  0  0  0  0  0  0  0  0
  151.7551  140.0319  156.4267 C   0  0  0  0  0  0  0  0  0  0  0  0
  152.4981  139.7684  157.4974 N   0  0  0  0  0  0  0  0  0  0  0  0
  152.3160  140.9138  158.2532 C   0  0  0  0  0  0  0  0  0  0  0  0
  152.8368  141.2716  159.5158 C   0  0  0  0  0  0  0  0  0  0  0  0
  152.5108  142.5119  160.1093 C   0  0  0  0  0  0  0  0  0  0  0  0
  153.0950  142.8564  161.4681 C   0  0  0  0  0  0  0  0  0  0  0  0
  151.6503  143.4168  159.4374 C   0  0  0  0  0  0  0  0  0  0  0  0
  151.2892  144.7564  160.0545 C   0  0  0  0  0  0  0  0  0  0  0  0
  151.1191  143.0742  158.1765 C   0  0  0  0  0  0  0  0  0  0  0  0
  151.4518  141.8374  157.5956 C   0  0  0  0  0  0  0  0  0  0  0  0
  145.7353  143.3976  153.8462 S   0  0  0  0  0  0  0  0  0  0  0  0
  143.2288  146.2088  154.0732 H   0  0  0  0  0  0  0  0  0  0  0  0
  144.1132  145.6799  152.6327 H   0  0  0  0  0  0  0  0  0  0  0  0
  144.9760  146.4823  153.9564 H   0  0  0  0  0  0  0  0  0  0  0  0
  143.6423  142.2215  156.5829 H   0  0  0  0  0  0  0  0  0  0  0  0
  145.4361  140.3343  155.9887 H   0  0  0  0  0  0  0  0  0  0  0  0
  145.9040  140.3996  154.3156 H   0  0  0  0  0  0  0  0  0  0  0  0
  147.1706  140.5846  157.7120 H   0  0  0  0  0  0  0  0  0  0  0  0
  146.9043  142.3041  157.4025 H   0  0  0  0  0  0  0  0  0  0  0  0
  148.5341  141.6565  157.3713 H   0  0  0  0  0  0  0  0  0  0  0  0
  148.5406  139.4327  156.0891 H   0  0  0  0  0  0  0  0  0  0  0  0
  147.7022  139.3927  154.5612 H   0  0  0  0  0  0  0  0  0  0  0  0
  150.2690  139.7617  154.4392 H   0  0  0  0  0  0  0  0  0  0  0  0
  149.2983  140.3594  152.6572 H   0  0  0  0  0  0  0  0  0  0  0  0
  150.8352  142.3244  154.6790 H   0  0  0  0  0  0  0  0  0  0  0  0
  149.4916  142.3667  155.7970 H   0  0  0  0  0  0  0  0  0  0  0  0
  151.6742  139.3246  155.6139 H   0  0  0  0  0  0  0  0  0  0  0  0
  153.4933  140.5827  160.0270 H   0  0  0  0  0  0  0  0  0  0  0  0
  153.7116  143.7532  161.4027 H   0  0  0  0  0  0  0  0  0  0  0  0
  153.7197  142.0484  161.8499 H   0  0  0  0  0  0  0  0  0  0  0  0
  152.3000  143.0341  162.1927 H   0  0  0  0  0  0  0  0  0  0  0  0
  150.6369  145.3343  159.3993 H   0  0  0  0  0  0  0  0  0  0  0  0
  152.1866  145.3476  160.2374 H   0  0  0  0  0  0  0  0  0  0  0  0
  150.7701  144.6128  161.0022 H   0  0  0  0  0  0  0  0  0  0  0  0
  150.4624  143.7553  157.6560 H   0  0  0  0  0  0  0  0  0  0  0  0
  147.6959  141.9740  155.1851 H   0  0  0  0  0  0  0  0  0  0  0  0
  1  2  1  0  0  0  0
  1 25  1  0  0  0  0
  1 26  1  0  0  0  0
  1 27  1  0  0  0  0
  2 24  1  0  0  0  0
  2  3  2  0  0  0  0
  3  4  1  0  0  0  0
  4  5  2  0  0  0  0
  4 28  1  0  0  0  0
  5  6  1  0  0  0  0
  5 24  1  0  0  0  0
  6  7  1  0  0  0  0
  6 29  1  0  0  0  0
  6 30  1  0  0  0  0
  7  8  1  0  0  0  0
  7  9  1  0  0  0  0
  7 49  1  0  0  0  0
  8 31  1  0  0  0  0
  8 32  1  0  0  0  0
  8 33  1  0  0  0  0
  9 10  1  0  0  0  0
  9 34  1  0  0  0  0
  9 35  1  0  0  0  0
 10 11  1  0  0  0  0
 10 12  1  0  0  0  0
 10 36  1  0  0  0  0
 11 37  1  0  0  0  0
 12 13  1  0  0  0  0
 12 38  1  0  0  0  0
 12 39  1  0  0  0  0
 13 23  1  0  0  0  0
 13 14  1  0  0  0  0
 14 15  2  0  0  0  0
 14 40  1  0  0  0  0
 15 16  1  0  0  0  0
 16 23  2  0  0  0  0
 16 17  1  0  0  0  0
 17 18  2  0  0  0  0
 17 41  1  0  0  0  0
 18 19  1  0  0  0  0
 18 20  1  0  0  0  0
 19 42  1  0  0  0  0
 19 43  1  0  0  0  0
 19 44  1  0  0  0  0
 20 21  1  0  0  0  0
 20 22  2  0  0  0  0
 21 45  1  0  0  0  0
 21 46  1  0  0  0  0
 21 47  1  0  0  0  0
 22 23  1  0  0  0  0
 22 48  1  0  0  0  0
M  CHG  1   7   1
M  END
> <s_m_source_file>
AV-unprocessed.smi

> <i_m_source_file_index>
1225

> <i_lp_mmshare_version>
43012

> <i_f3d_flags>
0

> <s_epik_input>
W0NIM11jMW5bY0hdYyhzMSlbQ0gyXU4oW0NIM10pW0NIMl1bQ0BIXShbT0hdKVtDSDJdbihbY0hdbjIpYyhjMjMpW2NIXWMoW0NIM10pYyhbY0hdMylbQ0gzXQ==

> <s_epik_cmdline>
J2VwaWtfcHl0aG9uJywgJy1waCcsICc3LjAnLCAnLXRuJywgJzgnLCAnLW1hJywgJzIwMCcsICctbWV0YWxfYmluZGluZycsICctaW1hZScsICc8aW5maWxlLm1hZT4nLCAnLW9tYWUnLCAnPG91dGZpbGUubWFlPic=

> <r_epik_Ionization_Penalty>
1.62543

> <r_epik_Ionization_Penalty_Charging>
1.53932

> <r_epik_Ionization_Penalty_Neutral>
0.0861152

> <r_epik_State_Penalty>
1.73127

> <r_epik_Charging_Adjusted_Penalty>
3.27059

> <i_epik_Tot_Q>
1

> <i_epik_Tot_abs_Q>
1

> <r_epik_Metal_State_Penalty>
1.71387

> <b_epik_Metal_Only>
0

> <s_lp_Force_Field>
OPLS_2005

> <r_lp_Energy>
12.5973

> <b_lp_Chiralities_Consistent>
1

> <s_lp_Variant>
AV-unprocessed.smi:1225-7

> <Gold.Version>
5.8.1

> <Gold.Id.Protein>
6NUR|6NUR_protein|mol2

> <Gold.PLP.Fitness>
55.1406

> <Gold.PLP.PLP>
-49.4192

> <Gold.PLP.part.hbond>
-3.4888

> <Gold.PLP.part.metal>
0.0000

> <Gold.PLP.part.buried>
-5.4567

> <Gold.PLP.part.nonpolar>
-39.6970

> <Gold.PLP.part.repulsive>
0.0958

> <Gold.PLP.ligand.clash>
0.0000

> <Gold.PLP.ligand.torsion>
1.6215

> <Gold.PLP.Chemscore.Hbond>
2.8873

> <Gold.PLP.Chemscore.CHOScore>
0.0000

> <Gold.PLP.Chemscore.Metal>
0.0000

> <Gold.Chemscore.Hbonds>
donor molecule, donor type, donor heavy atom, donor atom, acceptor molecule, acceptor atom, score
      L1  H    11    37       P1  7957  0.85
      P1  H  7997  8010       L1    15  0.88
      P1  H  8011  8017       L1    11  1.00

> <Gold.PLP.Chemscore.Internal.Correction>
0.3027

> <Gold.Rescore>
     Score         DG    S(hbond)    S(metal)    S(lipo)     H(rot)  DE(clash)    DE(int)     intcor
     18.79     -20.90       1.86        0.00     130.67       2.37       0.59       1.52       ----

> <Gold.Chemscore.Fitness>
18.7869

> <Gold.Chemscore.DG>
-20.9027

> <Gold.Chemscore.ZeroCoef>
-5.4800

> <Gold.Chemscore.Hbond>
1.8607

> <Gold.Chemscore.Metal>
0.0000

> <Gold.Chemscore.Lipo>
130.6662

> <Gold.Chemscore.Internal_Hbond>
0.0000

> <Gold.Chemscore.DEClash>
0.5918

> <Gold.Chemscore.DEInternal>
1.5241

> <Gold.Chemscore.Rot>
2.3750

> <Gold.Chemscore.Internal.Correction>
   9.000000E+99

> <Gold.Chemscore.Hbonds>
donor molecule, donor type, donor heavy atom, donor atom, acceptor molecule, acceptor atom, score
      L1  H    11    37       P1  7957  0.80
      P1  H  7997  8010       L1    15  0.08
      P1  H  8011  8017       L1    11  0.30

> <Gold.Chemscore.Hbond.Weighted>
-6.2148

> <Gold.Chemscore.Metal.Weighted>
-0.0000

> <Gold.Chemscore.Lipo.Weighted>
-15.2880

> <Gold.Chemscore.Internal_Hbond.Weighted>
0.0000

> <Gold.Chemscore.DEClash.Weighted>
0.5918

> <Gold.Chemscore.DEInternal.Weighted>
1.5241

> <Gold.Chemscore.Rot.Weighted>
6.0800

> <Gold.Chemscore.Internal.Correction.Weighted>
   9.000000E+99

> <Gold.Protein.RotatedTorsions>
[ 6907 6896 6895 6894 ] final   94.82 input  -60.11 | X-H torsion
[ 7974 7965 7964 7962 ] final  131.15 input  175.53 | X-H torsion
[ 8008 7997 7996 7995 ] final   55.34 input   59.86 | X-H torsion
[ 10167 10162 10161 10158 ] final   57.78 input  -65.29 | X-H torsion
[ 10718 10713 10712 10709 ] final  132.84 input   66.30 | X-H torsion
[ 10763 10752 10751 10750 ] final  103.00 input  -60.55 | X-H torsion
[ 11005 11000 10999 10996 ] final  121.70 input  -57.11 | X-H torsion

> <Gold.Protein.ActiveResidues>
 VAL166  LYS551  ARG553  GLY616  TRP617  ASP618  TYR619  PRO620  LYS621  CYS622 
 ASP623  PHE694  ASN695  SER759  ASP760  ASP761  ALA762  ILE779  LEU786  VAL792 
 PHE793  MET794  SER795  GLU796  ALA797  LYS798  CYS799  TRP800  GLU811  SER814 

> <Gold.Protein.RotatedAtoms>
  152.5447  134.1135  159.8368 H   0  0  0  0  0  0  0  0  0  0  0  0  # atno 6907 bound_to 6896
  151.1199  133.5104  159.2610 H   0  0  0  0  0  0  0  0  0  0  0  0  # atno 6908 bound_to 6896
  151.1791  135.0362  159.8839 H   0  0  0  0  0  0  0  0  0  0  0  0  # atno 6909 bound_to 6896
  145.0103  139.4226  143.5248 H   0  0  0  0  0  0  0  0  0  0  0  0  # atno 7974 bound_to 7965
  155.4996  140.3474  155.4369 H   0  0  0  0  0  0  0  0  0  0  0  0  # atno 8008 bound_to 7997
  156.0923  140.1414  156.9604 H   0  0  0  0  0  0  0  0  0  0  0  0  # atno 8009 bound_to 7997
  154.4642  140.0923  156.6953 H   0  0  0  0  0  0  0  0  0  0  0  0  # atno 8010 bound_to 7997
  140.1943  144.4054  150.6557 H   0  0  0  0  0  0  0  0  0  0  0  0  # atno 10167 bound_to 10162
  157.4832  131.1087  150.9654 H   0  0  0  0  0  0  0  0  0  0  0  0  # atno 10718 bound_to 10713
  153.3470  135.3991  155.1616 H   0  0  0  0  0  0  0  0  0  0  0  0  # atno 10763 bound_to 10752
  154.8655  135.3647  154.5272 H   0  0  0  0  0  0  0  0  0  0  0  0  # atno 10764 bound_to 10752
  153.5720  135.7078  153.5560 H   0  0  0  0  0  0  0  0  0  0  0  0  # atno 10765 bound_to 10752
  139.9237  134.9639  156.7998 H   0  0  0  0  0  0  0  0  0  0  0  0  # atno 11005 bound_to 11000
  146.3469  139.9544  142.8725 LP  0  0  0  0  0  0  0  0  0  0  0  0  # atno 17320 bound_to 7965
  145.2032  140.9863  143.4144 LP  0  0  0  0  0  0  0  0  0  0  0  0  # atno 17321 bound_to 7965
  140.6434  143.2208  151.6239 LP  0  0  0  0  0  0  0  0  0  0  0  0  # atno 17342 bound_to 10162
  139.5243  144.3108  152.0995 LP  0  0  0  0  0  0  0  0  0  0  0  0  # atno 17343 bound_to 10162
  157.0381  130.5738  149.5352 LP  0  0  0  0  0  0  0  0  0  0  0  0  # atno 17370 bound_to 10713
  156.0133  130.5225  150.8056 LP  0  0  0  0  0  0  0  0  0  0  0  0  # atno 17371 bound_to 10713
  140.6399  133.9828  155.7702 LP  0  0  0  0  0  0  0  0  0  0  0  0  # atno 17394 bound_to 11000
  141.0778  134.0108  157.3431 LP  0  0  0  0  0  0  0  0  0  0  0  0  # atno 17395 bound_to 11000

$$$$
