AV-unprocessed.smi:22|AV-procd|sdf|171|dock10
  -GOLD-   2262015423D 1   1.00000     0.00000
 Structure written by MMmdl.
 56 59  0  0  0  0  0  0  0  0  2 V2000
  147.7374  132.9497  152.7585 C   0  0  0  0  0  0  0  0  0  0  0  0
  147.3649  133.2765  154.1607 N   0  3  2  0  0  0  0  0  0  0  0  0
  145.8950  133.4988  154.3137 C   0  0  0  0  0  0  0  0  0  0  0  0
  145.2773  132.8080  155.5447 C   0  0  0  0  0  0  0  0  0  0  0  0
  143.8703  132.9276  155.5203 O   0  0  0  0  0  0  0  0  0  0  0  0
  148.2450  134.3540  154.7226 C   0  0  0  0  0  0  0  0  0  0  0  0
  147.7135  135.7492  154.3150 C   0  0  0  0  0  0  0  0  0  0  0  0
  148.5734  136.8825  154.8958 C   0  0  0  0  0  0  0  0  0  0  0  0
  149.9749  136.7216  154.5135 N   0  0  0  0  0  0  0  0  0  0  0  0
  150.8014  137.7830  154.6951 C   0  0  0  0  0  0  0  0  0  0  0  0
  152.1211  137.6776  154.3839 N   0  0  0  0  0  0  0  0  0  0  0  0
  152.9383  138.7223  154.5455 C   0  0  0  0  0  0  0  0  0  0  0  0
  152.6511  139.9435  154.9994 N   0  0  0  0  0  0  0  0  0  0  0  0
  151.3313  140.0534  155.3244 C   0  0  0  0  0  0  0  0  0  0  0  0
  150.3461  139.0329  155.2020 C   0  0  0  0  0  0  0  0  0  0  0  0
  149.1144  139.5104  155.6339 N   0  0  0  0  0  0  0  0  0  0  0  0
  149.3560  140.7444  155.9833 C   0  0  0  0  0  0  0  0  0  0  0  0
  150.6633  141.1515  155.8383 N   0  0  0  0  0  0  0  0  0  0  0  0
  151.2061  142.4658  156.1490 C   0  0  0  0  0  0  0  0  0  0  0  0
  150.8226  142.9784  157.5572 C   0  0  2  0  0  0  0  0  0  0  0  0
  149.4502  143.3337  157.5593 O   0  0  0  0  0  0  0  0  0  0  0  0
  151.6321  144.1959  157.9860 C   0  0  0  0  0  0  0  0  0  0  0  0
  151.6476  144.0710  159.5035 C   0  0  0  0  0  0  0  0  0  0  0  0
  151.8047  142.6767  159.7055 O   0  0  0  0  0  0  0  0  0  0  0  0
  151.0702  141.9770  158.7048 C   0  0  0  0  0  0  0  0  0  0  0  0
  150.5590  135.4334  154.8765 C   0  0  0  0  0  0  0  0  0  0  0  0
  149.7345  134.2716  154.2984 C   0  0  0  0  0  0  0  0  0  0  0  0
  147.3820  133.7197  152.0726 H   0  0  0  0  0  0  0  0  0  0  0  0
  147.3207  131.9926  152.4482 H   0  0  0  0  0  0  0  0  0  0  0  0
  148.8142  132.8636  152.6245 H   0  0  0  0  0  0  0  0  0  0  0  0
  145.6783  134.5606  154.4227 H   0  0  0  0  0  0  0  0  0  0  0  0
  145.3869  133.1619  153.4089 H   0  0  0  0  0  0  0  0  0  0  0  0
  145.5251  131.7463  155.5299 H   0  0  0  0  0  0  0  0  0  0  0  0
  145.6709  133.1954  156.4835 H   0  0  0  0  0  0  0  0  0  0  0  0
  143.5309  132.3783  154.8296 H   0  0  0  0  0  0  0  0  0  0  0  0
  148.2196  134.2701  155.8107 H   0  0  0  0  0  0  0  0  0  0  0  0
  147.6992  135.8302  153.2270 H   0  0  0  0  0  0  0  0  0  0  0  0
  146.6863  135.8991  154.6431 H   0  0  0  0  0  0  0  0  0  0  0  0
  148.1972  137.8417  154.5365 H   0  0  0  0  0  0  0  0  0  0  0  0
  148.4923  136.8905  155.9838 H   0  0  0  0  0  0  0  0  0  0  0  0
  153.9695  138.5565  154.2703 H   0  0  0  0  0  0  0  0  0  0  0  0
  148.5829  141.3955  156.3651 H   0  0  0  0  0  0  0  0  0  0  0  0
  152.2912  142.4184  156.0500 H   0  0  0  0  0  0  0  0  0  0  0  0
  150.8617  143.1656  155.3863 H   0  0  0  0  0  0  0  0  0  0  0  0
  149.2504  143.7583  156.7391 H   0  0  0  0  0  0  0  0  0  0  0  0
  152.6550  144.1213  157.6142 H   0  0  0  0  0  0  0  0  0  0  0  0
  151.2203  145.1437  157.6365 H   0  0  0  0  0  0  0  0  0  0  0  0
  152.4542  144.6384  159.9678 H   0  0  0  0  0  0  0  0  0  0  0  0
  150.7004  144.3996  159.9339 H   0  0  0  0  0  0  0  0  0  0  0  0
  150.1408  141.5872  159.1225 H   0  0  0  0  0  0  0  0  0  0  0  0
  151.6678  141.1231  158.3885 H   0  0  0  0  0  0  0  0  0  0  0  0
  151.5879  135.3518  154.5271 H   0  0  0  0  0  0  0  0  0  0  0  0
  150.5934  135.3586  155.9642 H   0  0  0  0  0  0  0  0  0  0  0  0
  150.1885  133.3429  154.6443 H   0  0  0  0  0  0  0  0  0  0  0  0
  149.8163  134.2835  153.2103 H   0  0  0  0  0  0  0  0  0  0  0  0
  147.5649  132.4520  154.7091 H   0  0  0  0  0  0  0  0  0  0  0  0
  1  2  1  0  0  0  0
  1 28  1  0  0  0  0
  1 29  1  0  0  0  0
  1 30  1  0  0  0  0
  2  3  1  0  0  0  0
  2  6  1  0  0  0  0
  2 56  1  0  0  0  0
  3  4  1  0  0  0  0
  3 31  1  0  0  0  0
  3 32  1  0  0  0  0
  4  5  1  0  0  0  0
  4 33  1  0  0  0  0
  4 34  1  0  0  0  0
  5 35  1  0  0  0  0
  6 27  1  0  0  0  0
  6  7  1  0  0  0  0
  6 36  1  0  0  0  0
  7  8  1  0  0  0  0
  7 37  1  0  0  0  0
  7 38  1  0  0  0  0
  8  9  1  0  0  0  0
  8 39  1  0  0  0  0
  8 40  1  0  0  0  0
  9 10  1  0  0  0  0
  9 26  1  0  0  0  0
 10 15  1  0  0  0  0
 10 11  2  0  0  0  0
 11 12  1  0  0  0  0
 12 13  2  0  0  0  0
 12 41  1  0  0  0  0
 13 14  1  0  0  0  0
 14 18  1  0  0  0  0
 14 15  2  0  0  0  0
 15 16  1  0  0  0  0
 16 17  2  0  0  0  0
 17 18  1  0  0  0  0
 17 42  1  0  0  0  0
 18 19  1  0  0  0  0
 19 20  1  0  0  0  0
 19 43  1  0  0  0  0
 19 44  1  0  0  0  0
 20 25  1  0  0  0  0
 20 21  1  0  0  0  0
 20 22  1  0  0  0  0
 21 45  1  0  0  0  0
 22 23  1  0  0  0  0
 22 46  1  0  0  0  0
 22 47  1  0  0  0  0
 23 24  1  0  0  0  0
 23 48  1  0  0  0  0
 23 49  1  0  0  0  0
 24 25  1  0  0  0  0
 25 50  1  0  0  0  0
 25 51  1  0  0  0  0
 26 27  1  0  0  0  0
 26 52  1  0  0  0  0
 26 53  1  0  0  0  0
 27 54  1  0  0  0  0
 27 55  1  0  0  0  0
M  CHG  1   2   1
M  END
> <s_m_source_file>
AV-unprocessed.smi

> <i_m_source_file_index>
22

> <i_lp_mmshare_version>
43012

> <i_f3d_flags>
0

> <s_epik_input>
W09IXVtDSDJdW0NIMl1OKFtDSDNdKVtDSF0xW0NIMl1bQ0gyXU4oW0NIMl1bQ0gyXTEpYyhuW2NIXW4yKWMoYzIzKW5bY0hdbjNbQ0gyXVtDQEBdNChbT0hdKVtDSDJdW0NIMl1PW0NIMl00

> <s_epik_cmdline>
J2VwaWtfcHl0aG9uJywgJy1waCcsICc3LjAnLCAnLXRuJywgJzgnLCAnLW1hJywgJzIwMCcsICctbWV0YWxfYmluZGluZycsICctaW1hZScsICc8aW5maWxlLm1hZT4nLCAnLW9tYWUnLCAnPG91dGZpbGUubWFlPic=

> <r_lp_tautomer_probability>
1

> <r_epik_Ionization_Penalty>
0.00317524

> <r_epik_Ionization_Penalty_Charging>
0.00191487

> <r_epik_Ionization_Penalty_Neutral>
0.00126037

> <r_epik_State_Penalty>
-0

> <r_epik_Charging_Adjusted_Penalty>
0.00191487

> <i_epik_Tot_Q>
1

> <i_epik_Tot_abs_Q>
1

> <r_epik_Metal_State_Penalty>
-0

> <b_epik_Metal_Only>
0

> <s_lp_Force_Field>
OPLS_2005

> <r_lp_Energy>
48.0385

> <b_lp_Chiralities_Consistent>
1

> <s_lp_Variant>
AV-unprocessed.smi:22-3

> <Gold.Version>
5.8.1

> <Gold.Id.Protein>
6NUR|6NUR_protein|mol2

> <Gold.PLP.Fitness>
49.7500

> <Gold.PLP.PLP>
-41.1217

> <Gold.PLP.part.hbond>
-5.0000

> <Gold.PLP.part.metal>
0.0000

> <Gold.PLP.part.buried>
-6.3172

> <Gold.PLP.part.nonpolar>
-29.9620

> <Gold.PLP.part.repulsive>
0.2949

> <Gold.PLP.ligand.clash>
0.0000

> <Gold.PLP.ligand.torsion>
1.4061

> <Gold.PLP.Chemscore.Hbond>
3.6632

> <Gold.PLP.Chemscore.CHOScore>
0.0000

> <Gold.PLP.Chemscore.Metal>
0.0000

> <Gold.Chemscore.Hbonds>
donor molecule, donor type, donor heavy atom, donor atom, acceptor molecule, acceptor atom, score
      L1  H    21    45       P1  8028  0.88
      P1  H  7997  8010       L1    13  0.43
      P1  H 10752 10764       L1    11  0.49

> <Gold.PLP.Chemscore.Internal.Correction>
0.4510

> <Gold.Rescore>
     Score         DG    S(hbond)    S(metal)    S(lipo)     H(rot)  DE(clash)    DE(int)     intcor
     10.23     -16.84       3.36        0.00      83.31       3.76       1.68       4.93       ----

> <Gold.Chemscore.Fitness>
10.2268

> <Gold.Chemscore.DG>
-16.8352

> <Gold.Chemscore.ZeroCoef>
-5.4800

> <Gold.Chemscore.Hbond>
3.3619

> <Gold.Chemscore.Metal>
0.0000

> <Gold.Chemscore.Lipo>
83.3132

> <Gold.Chemscore.Internal_Hbond>
0.0000

> <Gold.Chemscore.DEClash>
1.6784

> <Gold.Chemscore.DEInternal>
4.9301

> <Gold.Chemscore.Rot>
3.7583

> <Gold.Chemscore.Internal.Correction>
   9.000000E+99

> <Gold.Chemscore.Hbonds>
donor molecule, donor type, donor heavy atom, donor atom, acceptor molecule, acceptor atom, score
      L1  H     5    35       P1 10957  0.01
      L1  H    21    45       P1  8028  0.75
      P1  H  7997  8010       L1    13  0.03
      P1  H 10752 10764       L1    11  0.47

> <Gold.Chemscore.Hbond.Weighted>
-11.2288

> <Gold.Chemscore.Metal.Weighted>
-0.0000

> <Gold.Chemscore.Lipo.Weighted>
-9.7476

> <Gold.Chemscore.Internal_Hbond.Weighted>
0.0000

> <Gold.Chemscore.DEClash.Weighted>
1.6784

> <Gold.Chemscore.DEInternal.Weighted>
4.9301

> <Gold.Chemscore.Rot.Weighted>
9.6213

> <Gold.Chemscore.Internal.Correction.Weighted>
   9.000000E+99

> <Gold.Protein.RotatedTorsions>
[ 6907 6896 6895 6894 ] final  -68.06 input  -60.11 | X-H torsion
[ 7974 7965 7964 7962 ] final  120.40 input  175.53 | X-H torsion
[ 8008 7997 7996 7995 ] final  124.69 input   59.86 | X-H torsion
[ 10167 10162 10161 10158 ] final -119.86 input  -65.29 | X-H torsion
[ 10718 10713 10712 10709 ] final   74.35 input   66.30 | X-H torsion
[ 10763 10752 10751 10750 ] final  -88.27 input  -60.55 | X-H torsion
[ 11005 11000 10999 10996 ] final  -50.37 input  -57.11 | X-H torsion

> <Gold.Protein.ActiveResidues>
 VAL166  LYS551  ARG553  GLY616  TRP617  ASP618  TYR619  PRO620  LYS621  CYS622 
 ASP623  PHE694  ASN695  SER759  ASP760  ASP761  ALA762  ILE779  LEU786  VAL792 
 PHE793  MET794  SER795  GLU796  ALA797  LYS798  CYS799  TRP800  GLU811  SER814 

> <Gold.Protein.RotatedAtoms>
  150.7376  134.5792  159.5929 H   0  0  0  0  0  0  0  0  0  0  0  0  # atno 6907 bound_to 6896
  152.3210  134.7377  160.0322 H   0  0  0  0  0  0  0  0  0  0  0  0  # atno 6908 bound_to 6896
  151.7892  133.3322  159.3531 H   0  0  0  0  0  0  0  0  0  0  0  0  # atno 6909 bound_to 6896
  145.1316  139.3324  143.4662 H   0  0  0  0  0  0  0  0  0  0  0  0  # atno 7974 bound_to 7965
  156.2810  140.2734  156.1829 H   0  0  0  0  0  0  0  0  0  0  0  0  # atno 8008 bound_to 7997
  155.0538  140.0386  157.2571 H   0  0  0  0  0  0  0  0  0  0  0  0  # atno 8009 bound_to 7997
  154.7173  140.2681  155.6579 H   0  0  0  0  0  0  0  0  0  0  0  0  # atno 8010 bound_to 7997
  140.0421  143.5143  152.2125 H   0  0  0  0  0  0  0  0  0  0  0  0  # atno 10167 bound_to 10162
  157.6588  130.9673  150.1199 H   0  0  0  0  0  0  0  0  0  0  0  0  # atno 10718 bound_to 10713
  154.6427  135.5383  153.7809 H   0  0  0  0  0  0  0  0  0  0  0  0  # atno 10763 bound_to 10752
  153.0343  135.6463  154.1135 H   0  0  0  0  0  0  0  0  0  0  0  0  # atno 10764 bound_to 10752
  154.1058  135.2930  155.3221 H   0  0  0  0  0  0  0  0  0  0  0  0  # atno 10765 bound_to 10752
  141.0812  133.6653  156.3721 H   0  0  0  0  0  0  0  0  0  0  0  0  # atno 11005 bound_to 11000
  146.3513  140.1317  142.8597 LP  0  0  0  0  0  0  0  0  0  0  0  0  # atno 17320 bound_to 7965
  145.0629  140.9101  143.4928 LP  0  0  0  0  0  0  0  0  0  0  0  0  # atno 17321 bound_to 7965
  139.6007  144.7581  151.3179 LP  0  0  0  0  0  0  0  0  0  0  0  0  # atno 17342 bound_to 10162
  140.7255  143.7015  150.7841 LP  0  0  0  0  0  0  0  0  0  0  0  0  # atno 17343 bound_to 10162
  156.2073  130.3664  149.8714 LP  0  0  0  0  0  0  0  0  0  0  0  0  # atno 17370 bound_to 10713
  156.6602  130.8779  151.3546 LP  0  0  0  0  0  0  0  0  0  0  0  0  # atno 17371 bound_to 10713
  140.5464  134.6070  157.5395 LP  0  0  0  0  0  0  0  0  0  0  0  0  # atno 17394 bound_to 11000
  139.9626  134.7427  156.0205 LP  0  0  0  0  0  0  0  0  0  0  0  0  # atno 17395 bound_to 11000

$$$$
