AV-unprocessed.smi:4|AV-procd|sdf|35|dock1
  -GOLD-   2262015143D 1   1.00000     0.00000
 Structure written by MMmdl.
 43 44  0  0  0  0  0  0  0  0  3 V2000
  149.0144  133.2526  153.2127 C   0  0  0  0  0  0  0  0  0  0  0  0
  149.2750  133.1206  154.7373 C   0  0  0  0  0  0  0  0  0  0  0  0
  147.8973  132.8031  155.3702 C   0  0  0  0  0  0  0  0  0  0  0  0
  150.2315  131.9094  154.8840 C   0  0  0  0  0  0  0  0  0  0  0  0
  149.8750  134.3524  155.3707 N   0  0  0  0  0  0  0  0  0  0  0  0
  150.0973  135.5151  154.5875 C   0  0  0  0  0  0  0  0  0  0  0  0
  150.6373  136.6519  155.0724 C   0  0  0  0  0  0  0  0  0  0  0  0
  150.8751  137.8784  154.2047 C   0  0  0  0  0  0  0  0  0  0  0  0
  149.6235  138.3070  153.5486 N   0  3  0  0  0  0  0  0  0  0  0  0
  148.6530  138.9439  154.4611 C   0  0  0  0  0  0  0  0  0  0  0  0
  148.3870  140.4006  154.0735 C   0  0  0  0  0  0  0  0  0  0  0  0
  149.5861  140.8701  153.4879 O   0  0  0  0  0  0  0  0  0  0  0  0
  147.1097  140.7082  153.2707 C   0  0  0  0  0  0  0  0  0  0  0  0
  146.8611  141.9263  154.1610 C   0  0  0  0  0  0  0  0  0  0  0  0
  147.8344  141.3231  155.1745 C   0  0  0  0  0  0  0  0  0  0  0  0
  151.0167  136.6684  156.4826 C   0  0  0  0  0  0  0  0  0  0  0  0
  151.5230  137.6801  156.9668 O   0  0  0  0  0  0  0  0  0  0  0  0
  150.7809  135.5466  157.2129 N   0  5  0  0  0  0  0  0  0  0  0  0
  150.2231  134.4070  156.7035 C   0  0  0  0  0  0  0  0  0  0  0  0
  150.0319  133.4342  157.4305 O   0  0  0  0  0  0  0  0  0  0  0  0
  148.5934  132.3334  152.8029 H   0  0  0  0  0  0  0  0  0  0  0  0
  149.9332  133.4436  152.6562 H   0  0  0  0  0  0  0  0  0  0  0  0
  148.2971  134.0424  152.9854 H   0  0  0  0  0  0  0  0  0  0  0  0
  147.2299  133.6634  155.3098 H   0  0  0  0  0  0  0  0  0  0  0  0
  147.9607  132.5109  156.4170 H   0  0  0  0  0  0  0  0  0  0  0  0
  147.4076  131.9764  154.8546 H   0  0  0  0  0  0  0  0  0  0  0  0
  149.8651  131.0464  154.3271 H   0  0  0  0  0  0  0  0  0  0  0  0
  150.3492  131.5717  155.9121 H   0  0  0  0  0  0  0  0  0  0  0  0
  151.2246  132.1445  154.4996 H   0  0  0  0  0  0  0  0  0  0  0  0
  149.8153  135.4740  153.5515 H   0  0  0  0  0  0  0  0  0  0  0  0
  151.2684  138.6867  154.8229 H   0  0  0  0  0  0  0  0  0  0  0  0
  151.6259  137.6597  153.4442 H   0  0  0  0  0  0  0  0  0  0  0  0
  149.8451  138.9575  152.8084 H   0  0  0  0  0  0  0  0  0  0  0  0
  147.7244  138.3723  154.4281 H   0  0  0  0  0  0  0  0  0  0  0  0
  149.0226  138.8754  155.4855 H   0  0  0  0  0  0  0  0  0  0  0  0
  149.8974  140.1894  152.9101 H   0  0  0  0  0  0  0  0  0  0  0  0
  147.2760  140.9498  152.2202 H   0  0  0  0  0  0  0  0  0  0  0  0
  146.3412  139.9417  153.3839 H   0  0  0  0  0  0  0  0  0  0  0  0
  147.2308  142.8534  153.7210 H   0  0  0  0  0  0  0  0  0  0  0  0
  145.8359  142.0267  154.5190 H   0  0  0  0  0  0  0  0  0  0  0  0
  147.3246  140.7793  155.9713 H   0  0  0  0  0  0  0  0  0  0  0  0
  148.5536  142.0357  155.5803 H   0  0  0  0  0  0  0  0  0  0  0  0
  149.1905  137.4901  153.1398 H   0  0  0  0  0  0  0  0  0  0  0  0
  1  2  1  0  0  0  0
  1 21  1  0  0  0  0
  1 22  1  0  0  0  0
  1 23  1  0  0  0  0
  2  3  1  0  0  0  0
  2  4  1  0  0  0  0
  2  5  1  0  0  0  0
  3 24  1  0  0  0  0
  3 25  1  0  0  0  0
  3 26  1  0  0  0  0
  4 27  1  0  0  0  0
  4 28  1  0  0  0  0
  4 29  1  0  0  0  0
  5 19  1  0  0  0  0
  5  6  1  0  0  0  0
  6  7  2  0  0  0  0
  6 30  1  0  0  0  0
  7  8  1  0  0  0  0
  7 16  1  0  0  0  0
  8  9  1  0  0  0  0
  8 31  1  0  0  0  0
  8 32  1  0  0  0  0
  9 10  1  0  0  0  0
  9 33  1  0  0  0  0
  9 43  1  0  0  0  0
 10 11  1  0  0  0  0
 10 34  1  0  0  0  0
 10 35  1  0  0  0  0
 11 15  1  0  0  0  0
 11 12  1  0  0  0  0
 11 13  1  0  0  0  0
 12 36  1  0  0  0  0
 13 14  1  0  0  0  0
 13 37  1  0  0  0  0
 13 38  1  0  0  0  0
 14 15  1  0  0  0  0
 14 39  1  0  0  0  0
 14 40  1  0  0  0  0
 15 41  1  0  0  0  0
 15 42  1  0  0  0  0
 16 17  2  0  0  0  0
 16 18  1  0  0  0  0
 18 19  1  0  0  0  0
 19 20  2  0  0  0  0
M  CHG  1   9   1
M  CHG  1  18  -1
M  END
> <s_m_source_file>
AV-unprocessed.smi

> <i_m_source_file_index>
4

> <i_lp_mmshare_version>
43012

> <i_f3d_flags>
0

> <s_epik_input>
W0NIM11DKFtDSDNdKShbQ0gzXSluMVtjSF1jKGMoPU8pW25IXWMxPU8pW0NIMl1bTkhdW0NIMl1DMihbT0hdKVtDSDJdW0NIMl1bQ0gyXTI=

> <s_epik_cmdline>
J2VwaWtfcHl0aG9uJywgJy1waCcsICc3LjAnLCAnLXRuJywgJzgnLCAnLW1hJywgJzIwMCcsICctbWV0YWxfYmluZGluZycsICctaW1hZScsICc8aW5maWxlLm1hZT4nLCAnLW9tYWUnLCAnPG91dGZpbGUubWFlPic=

> <r_lp_tautomer_probability>
0.999537

> <r_epik_Ionization_Penalty>
3.42736

> <r_epik_Ionization_Penalty_Charging>
0.0116785

> <r_epik_Ionization_Penalty_Neutral>
3.41568

> <r_epik_State_Penalty>
3.42726

> <r_epik_Charging_Adjusted_Penalty>
3.43893

> <i_epik_Tot_Q>
0

> <i_epik_Tot_abs_Q>
2

> <r_epik_Metal_State_Penalty>
0.176979

> <b_epik_Metal_Only>
1

> <s_lp_Force_Field>
OPLS_2005

> <r_lp_Energy>
29.0009

> <b_lp_Chiralities_Consistent>
1

> <s_lp_Variant>
AV-unprocessed.smi:4-3

> <Gold.Version>
5.8.1

> <Gold.Id.Protein>
6NUR|6NUR_protein|mol2

> <Gold.PLP.Fitness>
52.2403

> <Gold.PLP.PLP>
-35.3812

> <Gold.PLP.part.hbond>
-6.5796

> <Gold.PLP.part.metal>
0.0000

> <Gold.PLP.part.buried>
-2.7206

> <Gold.PLP.part.nonpolar>
-26.7074

> <Gold.PLP.part.repulsive>
0.0674

> <Gold.PLP.ligand.clash>
0.0000

> <Gold.PLP.ligand.torsion>
1.0287

> <Gold.PLP.Chemscore.Hbond>
5.5600

> <Gold.PLP.Chemscore.CHOScore>
0.6853

> <Gold.PLP.Chemscore.Metal>
0.0000

> <Gold.Chemscore.Hbonds>
donor molecule, donor type, donor heavy atom, donor atom, acceptor molecule, acceptor atom, score
      L1  H     9    33       P1  7957  1.00
      L1  H     9    43       P1  7948  2.00
      L1  H    12    36       P1  7957  0.56
      P1  H  6896  6907       L1    20  1.00
      P1  H  8011  8017       L1    12  1.00
      L1  C     6    30       P1  7948  0.45

> <Gold.PLP.Chemscore.Internal.Correction>
0.1806

> <Gold.Rescore>
     Score         DG    S(hbond)    S(metal)    S(lipo)     H(rot)  DE(clash)    DE(int)     intcor
     18.46     -20.87       4.00        0.00      71.31       2.47       0.00       2.40       ----

> <Gold.Chemscore.Fitness>
18.4604

> <Gold.Chemscore.DG>
-20.8674

> <Gold.Chemscore.ZeroCoef>
-5.4800

> <Gold.Chemscore.Hbond>
4.0019

> <Gold.Chemscore.Metal>
0.0000

> <Gold.Chemscore.Lipo>
71.3058

> <Gold.Chemscore.Internal_Hbond>
0.0000

> <Gold.Chemscore.DEClash>
0.0043

> <Gold.Chemscore.DEInternal>
2.4028

> <Gold.Chemscore.Rot>
2.4694

> <Gold.Chemscore.Internal.Correction>
   9.000000E+99

> <Gold.Chemscore.Hbonds>
donor molecule, donor type, donor heavy atom, donor atom, acceptor molecule, acceptor atom, score
      L1  H     9    33       P1  7957  0.83
      L1  H     9    43       P1  7948  0.96
      L1  H    12    36       P1  7957  0.56
      P1  H  6896  6907       L1    20  0.75
      P1  H  8011  8017       L1    12  0.25

> <Gold.Chemscore.Hbond.Weighted>
-13.3663

> <Gold.Chemscore.Metal.Weighted>
-0.0000

> <Gold.Chemscore.Lipo.Weighted>
-8.3428

> <Gold.Chemscore.Internal_Hbond.Weighted>
0.0000

> <Gold.Chemscore.DEClash.Weighted>
0.0043

> <Gold.Chemscore.DEInternal.Weighted>
2.4028

> <Gold.Chemscore.Rot.Weighted>
6.3216

> <Gold.Chemscore.Internal.Correction.Weighted>
   9.000000E+99

> <Gold.Protein.RotatedTorsions>
[ 6907 6896 6895 6894 ] final -125.92 input  -60.11 | X-H torsion
[ 7974 7965 7964 7962 ] final  110.36 input  175.53 | X-H torsion
[ 8008 7997 7996 7995 ] final -118.94 input   59.86 | X-H torsion
[ 10167 10162 10161 10158 ] final -163.91 input  -65.29 | X-H torsion
[ 10718 10713 10712 10709 ] final -129.63 input   66.30 | X-H torsion
[ 10763 10752 10751 10750 ] final  174.21 input  -60.55 | X-H torsion
[ 11005 11000 10999 10996 ] final   37.93 input  -57.11 | X-H torsion

> <Gold.Protein.ActiveResidues>
 VAL166  LYS551  ARG553  GLY616  TRP617  ASP618  TYR619  PRO620  LYS621  CYS622 
 ASP623  PHE694  ASN695  SER759  ASP760  ASP761  ALA762  ILE779  LEU786  VAL792 
 PHE793  MET794  SER795  GLU796  ALA797  LYS798  CYS799  TRP800  GLU811  SER814 

> <Gold.Protein.RotatedAtoms>
  150.8916  133.7236  159.2902 H   0  0  0  0  0  0  0  0  0  0  0  0  # atno 6907 bound_to 6896
  151.4784  135.1049  159.9780 H   0  0  0  0  0  0  0  0  0  0  0  0  # atno 6908 bound_to 6896
  152.4823  133.8239  159.7123 H   0  0  0  0  0  0  0  0  0  0  0  0  # atno 6909 bound_to 6896
  145.2559  139.2721  143.4042 H   0  0  0  0  0  0  0  0  0  0  0  0  # atno 7974 bound_to 7965
  155.1077  140.0397  157.2715 H   0  0  0  0  0  0  0  0  0  0  0  0  # atno 8008 bound_to 7997
  154.6709  140.2612  155.6983 H   0  0  0  0  0  0  0  0  0  0  0  0  # atno 8009 bound_to 7997
  156.2658  140.2798  156.1217 H   0  0  0  0  0  0  0  0  0  0  0  0  # atno 8010 bound_to 7997
  139.6287  144.0481  152.1997 H   0  0  0  0  0  0  0  0  0  0  0  0  # atno 10167 bound_to 10162
  156.2066  130.6891  151.0601 H   0  0  0  0  0  0  0  0  0  0  0  0  # atno 10718 bound_to 10713
  154.4508  135.2764  155.1782 H   0  0  0  0  0  0  0  0  0  0  0  0  # atno 10763 bound_to 10752
  154.3610  135.6129  153.5694 H   0  0  0  0  0  0  0  0  0  0  0  0  # atno 10764 bound_to 10752
  152.9847  135.5834  154.4852 H   0  0  0  0  0  0  0  0  0  0  0  0  # atno 10765 bound_to 10752
  140.2177  134.3679  155.8019 H   0  0  0  0  0  0  0  0  0  0  0  0  # atno 11005 bound_to 11000
  146.3289  140.2963  142.8618 LP  0  0  0  0  0  0  0  0  0  0  0  0  # atno 17320 bound_to 7965
  144.9461  140.8130  143.5600 LP  0  0  0  0  0  0  0  0  0  0  0  0  # atno 17321 bound_to 7965
  140.0141  144.6202  150.7622 LP  0  0  0  0  0  0  0  0  0  0  0  0  # atno 17342 bound_to 10162
  140.7426  143.2835  151.3531 LP  0  0  0  0  0  0  0  0  0  0  0  0  # atno 17343 bound_to 10162
  157.7015  131.0774  150.6804 LP  0  0  0  0  0  0  0  0  0  0  0  0  # atno 17370 bound_to 10713
  156.6862  130.4581  149.5613 LP  0  0  0  0  0  0  0  0  0  0  0  0  # atno 17371 bound_to 10713
  141.2224  133.7176  156.8523 LP  0  0  0  0  0  0  0  0  0  0  0  0  # atno 17394 bound_to 11000
  140.1883  134.8984  157.3030 LP  0  0  0  0  0  0  0  0  0  0  0  0  # atno 17395 bound_to 11000

$$$$
