AV-unprocessed.smi:243|AV-procd|sdf|1848|dock8
  -GOLD-   2262020473D 1   1.00000     0.00000
 Structure written by MMmdl.
 58 61  0  0  0  0  0  0  0  0  2 V2000
  144.4638  132.5221  150.6977 C   0  0  0  0  0  0  0  0  0  0  0  0
  145.9664  132.2967  150.4745 C   0  0  0  0  0  0  0  0  0  0  0  0
  146.6719  131.8970  151.7181 N   0  3  2  0  0  0  0  0  0  0  0  0
  146.0923  130.6715  152.3245 C   0  0  0  0  0  0  0  0  0  0  0  0
  146.9313  130.1914  153.5191 C   0  0  0  0  0  0  0  0  0  0  0  0
  147.0797  131.3118  154.5712 C   0  0  1  0  0  0  0  0  0  0  0  0
  147.7252  130.9349  155.8423 N   0  0  0  0  0  0  0  0  0  0  0  0
  147.4992  129.5779  156.3282 C   0  0  0  0  0  0  0  0  0  0  0  0
  148.0618  131.8595  156.7827 C   0  0  0  0  0  0  0  0  0  0  0  0
  148.8181  132.9191  156.3974 N   0  0  0  0  0  0  0  0  0  0  0  0
  149.2006  133.8424  157.2833 C   0  0  0  0  0  0  0  0  0  0  0  0
  148.9501  133.8953  158.5917 N   0  0  0  0  0  0  0  0  0  0  0  0
  148.2045  132.8277  158.9947 C   0  0  0  0  0  0  0  0  0  0  0  0
  147.7271  131.7700  158.1681 C   0  0  0  0  0  0  0  0  0  0  0  0
  147.0049  130.8666  158.9414 N   0  0  0  0  0  0  0  0  0  0  0  0
  147.0563  131.3583  160.1488 C   0  0  0  0  0  0  0  0  0  0  0  0
  147.7479  132.5414  160.2692 N   0  0  0  0  0  0  0  0  0  0  0  0
  147.9624  133.3075  161.4868 C   0  0  0  0  0  0  0  0  0  0  0  0
  146.7830  134.2431  161.8540 C   0  0  1  0  0  0  0  0  0  0  0  0
  145.6241  133.4687  162.0982 O   0  0  0  0  0  0  0  0  0  0  0  0
  147.0876  135.1000  163.0720 C   0  0  0  0  0  0  0  0  0  0  0  0
  147.8211  136.2980  162.4716 C   0  0  0  0  0  0  0  0  0  0  0  0
  147.3555  136.4158  161.1302 O   0  0  0  0  0  0  0  0  0  0  0  0
  146.4871  135.3326  160.8149 C   0  0  0  0  0  0  0  0  0  0  0  0
  147.6597  132.5940  153.9160 C   0  0  1  0  0  0  0  0  0  0  0  0
  149.1414  132.5022  153.4994 C   0  0  0  0  0  0  0  0  0  0  0  0
  146.7807  132.9979  152.7134 C   0  0  0  0  0  0  0  0  0  0  0  0
  143.9953  132.9012  149.7891 H   0  0  0  0  0  0  0  0  0  0  0  0
  144.2876  133.2526  151.4879 H   0  0  0  0  0  0  0  0  0  0  0  0
  143.9448  131.6027  150.9666 H   0  0  0  0  0  0  0  0  0  0  0  0
  146.1347  131.5550  149.6921 H   0  0  0  0  0  0  0  0  0  0  0  0
  146.3885  133.2332  150.1075 H   0  0  0  0  0  0  0  0  0  0  0  0
  145.0665  130.8705  152.6389 H   0  0  0  0  0  0  0  0  0  0  0  0
  146.0469  129.8754  151.5803 H   0  0  0  0  0  0  0  0  0  0  0  0
  146.4503  129.3202  153.9655 H   0  0  0  0  0  0  0  0  0  0  0  0
  147.9047  129.8626  153.1556 H   0  0  0  0  0  0  0  0  0  0  0  0
  146.0584  131.5607  154.8639 H   0  0  0  0  0  0  0  0  0  0  0  0
  148.1952  129.3253  157.1293 H   0  0  0  0  0  0  0  0  0  0  0  0
  147.6489  128.8567  155.5245 H   0  0  0  0  0  0  0  0  0  0  0  0
  146.4823  129.4589  156.7020 H   0  0  0  0  0  0  0  0  0  0  0  0
  149.7942  134.6534  156.8877 H   0  0  0  0  0  0  0  0  0  0  0  0
  146.5838  130.8707  160.9893 H   0  0  0  0  0  0  0  0  0  0  0  0
  148.1511  132.6053  162.3001 H   0  0  0  0  0  0  0  0  0  0  0  0
  148.8812  133.8825  161.3670 H   0  0  0  0  0  0  0  0  0  0  0  0
  145.7742  132.9398  162.8665 H   0  0  0  0  0  0  0  0  0  0  0  0
  146.1618  135.4467  163.5347 H   0  0  0  0  0  0  0  0  0  0  0  0
  147.6678  134.5836  163.8376 H   0  0  0  0  0  0  0  0  0  0  0  0
  147.6420  137.2141  163.0347 H   0  0  0  0  0  0  0  0  0  0  0  0
  148.8967  136.1205  162.4517 H   0  0  0  0  0  0  0  0  0  0  0  0
  146.6006  135.0090  159.7812 H   0  0  0  0  0  0  0  0  0  0  0  0
  145.4643  135.6962  160.9267 H   0  0  0  0  0  0  0  0  0  0  0  0
  147.5881  133.4057  154.6405 H   0  0  0  0  0  0  0  0  0  0  0  0
  149.3278  131.6729  152.8177 H   0  0  0  0  0  0  0  0  0  0  0  0
  149.7940  132.3793  154.3599 H   0  0  0  0  0  0  0  0  0  0  0  0
  149.4602  133.4155  152.9966 H   0  0  0  0  0  0  0  0  0  0  0  0
  147.1946  133.8937  152.2517 H   0  0  0  0  0  0  0  0  0  0  0  0
  145.7808  133.2665  153.0583 H   0  0  0  0  0  0  0  0  0  0  0  0
  147.6137  131.6551  151.4445 H   0  0  0  0  0  0  0  0  0  0  0  0
  1  2  1  0  0  0  0
  1 28  1  0  0  0  0
  1 29  1  0  0  0  0
  1 30  1  0  0  0  0
  2  3  1  0  0  0  0
  2 31  1  0  0  0  0
  2 32  1  0  0  0  0
  3 27  1  0  0  0  0
  3  4  1  0  0  0  0
  3 58  1  0  0  0  0
  4  5  1  0  0  0  0
  4 33  1  0  0  0  0
  4 34  1  0  0  0  0
  5  6  1  0  0  0  0
  5 35  1  0  0  0  0
  5 36  1  0  0  0  0
  6  7  1  0  0  0  0
  6 25  1  0  0  0  0
  6 37  1  0  0  0  0
  7  8  1  0  0  0  0
  7  9  1  0  0  0  0
  8 38  1  0  0  0  0
  8 39  1  0  0  0  0
  8 40  1  0  0  0  0
  9 14  1  0  0  0  0
  9 10  2  0  0  0  0
 10 11  1  0  0  0  0
 11 12  2  0  0  0  0
 11 41  1  0  0  0  0
 12 13  1  0  0  0  0
 13 17  1  0  0  0  0
 13 14  2  0  0  0  0
 14 15  1  0  0  0  0
 15 16  2  0  0  0  0
 16 17  1  0  0  0  0
 16 42  1  0  0  0  0
 17 18  1  0  0  0  0
 18 19  1  0  0  0  0
 18 43  1  0  0  0  0
 18 44  1  0  0  0  0
 19 24  1  0  0  0  0
 19 20  1  0  0  0  0
 19 21  1  0  0  0  0
 20 45  1  0  0  0  0
 21 22  1  0  0  0  0
 21 46  1  0  0  0  0
 21 47  1  0  0  0  0
 22 23  1  0  0  0  0
 22 48  1  0  0  0  0
 22 49  1  0  0  0  0
 23 24  1  0  0  0  0
 24 50  1  0  0  0  0
 24 51  1  0  0  0  0
 25 26  1  0  0  0  0
 25 27  1  0  0  0  0
 25 52  1  0  0  0  0
 26 53  1  0  0  0  0
 26 54  1  0  0  0  0
 26 55  1  0  0  0  0
 27 56  1  0  0  0  0
 27 57  1  0  0  0  0
M  CHG  1   3   1
M  END
> <s_m_source_file>
AV-unprocessed.smi

> <i_m_source_file_index>
243

> <i_lp_mmshare_version>
43012

> <i_f3d_flags>
0

> <s_epik_input>
W0NIM11bQ0gyXU4xW0NIMl1bQ0gyXVtDQEhdKFtDQEBIXShbQ0gzXSlbQ0gyXTEpTihbQ0gzXSljKG5bY0hdbjIpYyhjMjMpbltjSF1uM1tDSDJdW0NAQF00KFtPSF0pW0NIMl1bQ0gyXU9bQ0gyXTQ=

> <s_epik_cmdline>
J2VwaWtfcHl0aG9uJywgJy1waCcsICc3LjAnLCAnLXRuJywgJzgnLCAnLW1hJywgJzIwMCcsICctbWV0YWxfYmluZGluZycsICctaW1hZScsICc8aW5maWxlLm1hZT4nLCAnLW9tYWUnLCAnPG91dGZpbGUubWFlPic=

> <r_lp_tautomer_probability>
1

> <r_epik_Ionization_Penalty>
0.00253099

> <r_epik_Ionization_Penalty_Charging>
0.00137877

> <r_epik_Ionization_Penalty_Neutral>
0.00115221

> <r_epik_State_Penalty>
-0

> <r_epik_Charging_Adjusted_Penalty>
0.00137877

> <i_epik_Tot_Q>
1

> <i_epik_Tot_abs_Q>
1

> <r_epik_Metal_State_Penalty>
-0

> <b_epik_Metal_Only>
0

> <s_lp_Force_Field>
OPLS_2005

> <r_lp_Energy>
50.8982

> <b_lp_Chiralities_Consistent>
1

> <s_lp_Variant>
AV-unprocessed.smi:243-1

> <Gold.Version>
5.8.1

> <Gold.Id.Protein>
6NUR|6NUR_protein|mol2

> <Gold.PLP.Fitness>
41.2389

> <Gold.PLP.PLP>
-37.2903

> <Gold.PLP.part.hbond>
-2.0000

> <Gold.PLP.part.metal>
0.0000

> <Gold.PLP.part.buried>
-6.5307

> <Gold.PLP.part.nonpolar>
-28.7657

> <Gold.PLP.part.repulsive>
0.0040

> <Gold.PLP.ligand.clash>
0.0000

> <Gold.PLP.ligand.torsion>
1.4153

> <Gold.PLP.Chemscore.Hbond>
2.0000

> <Gold.PLP.Chemscore.CHOScore>
0.0000

> <Gold.PLP.Chemscore.Metal>
0.0000

> <Gold.Chemscore.Hbonds>
donor molecule, donor type, donor heavy atom, donor atom, acceptor molecule, acceptor atom, score
      L1  H     3    58       P1 10747  1.00
      P1  H  6896  6907       L1    12  1.00

> <Gold.PLP.Chemscore.Internal.Correction>
0.7791

> <Gold.Rescore>
     Score         DG    S(hbond)    S(metal)    S(lipo)     H(rot)  DE(clash)    DE(int)     intcor
     11.99     -16.28       1.70        0.00      92.90       2.24       0.52       3.77       ----

> <Gold.Chemscore.Fitness>
11.9858

> <Gold.Chemscore.DG>
-16.2820

> <Gold.Chemscore.ZeroCoef>
-5.4800

> <Gold.Chemscore.Hbond>
1.6951

> <Gold.Chemscore.Metal>
0.0000

> <Gold.Chemscore.Lipo>
92.9018

> <Gold.Chemscore.Internal_Hbond>
0.0000

> <Gold.Chemscore.DEClash>
0.5243

> <Gold.Chemscore.DEInternal>
3.7719

> <Gold.Chemscore.Rot>
2.2379

> <Gold.Chemscore.Internal.Correction>
   9.000000E+99

> <Gold.Chemscore.Hbonds>
donor molecule, donor type, donor heavy atom, donor atom, acceptor molecule, acceptor atom, score
      L1  H     3    58       P1 10747  0.96
      P1  H  6896  6907       L1    12  0.20

> <Gold.Chemscore.Hbond.Weighted>
-5.6616

> <Gold.Chemscore.Metal.Weighted>
-0.0000

> <Gold.Chemscore.Lipo.Weighted>
-10.8695

> <Gold.Chemscore.Internal_Hbond.Weighted>
0.0000

> <Gold.Chemscore.DEClash.Weighted>
0.5243

> <Gold.Chemscore.DEInternal.Weighted>
3.7719

> <Gold.Chemscore.Rot.Weighted>
5.7291

> <Gold.Chemscore.Internal.Correction.Weighted>
   9.000000E+99

> <Gold.Protein.RotatedTorsions>
[ 6907 6896 6895 6894 ] final -120.41 input  -60.11 | X-H torsion
[ 7974 7965 7964 7962 ] final  111.33 input  175.53 | X-H torsion
[ 8008 7997 7996 7995 ] final -155.68 input   59.86 | X-H torsion
[ 10167 10162 10161 10158 ] final  139.66 input  -65.29 | X-H torsion
[ 10718 10713 10712 10709 ] final   31.53 input   66.30 | X-H torsion
[ 10763 10752 10751 10750 ] final   97.69 input  -60.55 | X-H torsion
[ 11005 11000 10999 10996 ] final  117.07 input  -57.11 | X-H torsion

> <Gold.Protein.ActiveResidues>
 VAL166  LYS551  ARG553  GLY616  TRP617  ASP618  TYR619  PRO620  LYS621  CYS622 
 ASP623  PHE694  ASN695  SER759  ASP760  ASP761  ALA762  ILE779  LEU786  VAL792 
 PHE793  MET794  SER795  GLU796  ALA797  LYS798  CYS799  TRP800  GLU811  SER814 

> <Gold.Protein.RotatedAtoms>
  150.8391  133.7965  159.3067 H   0  0  0  0  0  0  0  0  0  0  0  0  # atno 6907 bound_to 6896
  151.5672  135.1062  159.9996 H   0  0  0  0  0  0  0  0  0  0  0  0  # atno 6908 bound_to 6896
  152.4458  133.7491  159.6740 H   0  0  0  0  0  0  0  0  0  0  0  0  # atno 6909 bound_to 6896
  145.2436  139.2769  143.4105 H   0  0  0  0  0  0  0  0  0  0  0  0  # atno 7974 bound_to 7965
  155.7056  140.0772  157.2392 H   0  0  0  0  0  0  0  0  0  0  0  0  # atno 8008 bound_to 7997
  154.4066  140.1639  156.2292 H   0  0  0  0  0  0  0  0  0  0  0  0  # atno 8009 bound_to 7997
  155.9329  140.3390  155.6267 H   0  0  0  0  0  0  0  0  0  0  0  0  # atno 8010 bound_to 7997
  139.5072  144.6281  151.5886 H   0  0  0  0  0  0  0  0  0  0  0  0  # atno 10167 bound_to 10162
  157.2737  130.7220  149.6518 H   0  0  0  0  0  0  0  0  0  0  0  0  # atno 10718 bound_to 10713
  153.2799  135.4174  155.1069 H   0  0  0  0  0  0  0  0  0  0  0  0  # atno 10763 bound_to 10752
  154.8486  135.3493  154.6126 H   0  0  0  0  0  0  0  0  0  0  0  0  # atno 10764 bound_to 10752
  153.6547  135.7051  153.5255 H   0  0  0  0  0  0  0  0  0  0  0  0  # atno 10765 bound_to 10752
  139.9062  134.9606  156.7294 H   0  0  0  0  0  0  0  0  0  0  0  0  # atno 11005 bound_to 11000
  146.3322  140.2806  142.8610 LP  0  0  0  0  0  0  0  0  0  0  0  0  # atno 17320 bound_to 7965
  144.9567  140.8233  143.5539 LP  0  0  0  0  0  0  0  0  0  0  0  0  # atno 17321 bound_to 7965
  140.6005  143.9619  150.6383 LP  0  0  0  0  0  0  0  0  0  0  0  0  # atno 17342 bound_to 10162
  140.2829  143.3377  152.1135 LP  0  0  0  0  0  0  0  0  0  0  0  0  # atno 17343 bound_to 10162
  155.9663  130.4359  150.5113 LP  0  0  0  0  0  0  0  0  0  0  0  0  # atno 17370 bound_to 10713
  157.3043  131.0651  151.2046 LP  0  0  0  0  0  0  0  0  0  0  0  0  # atno 17371 bound_to 10713
  140.6937  133.9367  155.7982 LP  0  0  0  0  0  0  0  0  0  0  0  0  # atno 17394 bound_to 11000
  141.0423  134.0604  157.3887 LP  0  0  0  0  0  0  0  0  0  0  0  0  # atno 17395 bound_to 11000

$$$$
