AV-unprocessed.smi:2355|AV-procd|sdf|9387|dock2
  -GOLD-   2272013 23D 1   1.00000     0.00000
 Structure written by MMmdl.
 48 49  0  0  0  0  0  0  0  0  1 V2000
  153.2894  140.9839  160.6263 C   0  0  0  0  0  0  0  0  0  0  0  0
  152.6032  142.2126  160.0674 C   0  0  0  0  0  0  0  0  0  0  0  0
  152.7599  143.4701  160.6810 C   0  0  0  0  0  0  0  0  0  0  0  0
  152.0952  144.5745  160.1134 C   0  0  0  0  0  0  0  0  0  0  0  0
  152.2161  145.9542  160.7254 C   0  0  0  0  0  0  0  0  0  0  0  0
  151.3178  144.4808  159.0134 N   0  0  0  0  0  0  0  0  0  0  0  0
  151.1602  143.2749  158.4135 C   0  0  0  0  0  0  0  0  0  0  0  0
  150.3658  143.0702  157.2544 N   0  0  0  0  0  0  0  0  0  0  0  0
  149.7980  141.9286  156.8277 C   0  0  0  0  0  0  0  0  0  0  0  0
  149.8726  140.8385  157.3959 O   0  0  0  0  0  0  0  0  0  0  0  0
  149.1223  142.1220  155.6852 N   0  0  0  0  0  0  0  0  0  0  0  0
  148.3829  141.0938  154.9541 C   0  0  2  0  0  0  0  0  0  0  0  0
  149.3821  140.0666  154.3932 C   0  0  0  0  0  0  0  0  0  0  0  0
  147.4480  141.7114  153.8628 C   0  0  1  0  0  0  0  0  0  0  0  0
  146.7254  140.5815  153.0831 C   0  0  0  0  0  0  0  0  0  0  0  0
  146.5187  142.7439  154.3802 N   0  0  0  0  0  0  0  0  0  0  0  0
  145.4605  142.1782  155.2250 C   0  0  0  0  0  0  0  0  0  0  0  0
  144.4818  143.2437  155.7478 C   0  0  0  0  0  0  0  0  0  0  0  0
  143.9072  143.9434  154.6528 O   0  0  0  0  0  0  0  0  0  0  0  0
  144.8927  144.5724  153.8454 C   0  0  0  0  0  0  0  0  0  0  0  0
  145.8779  143.5186  153.3113 C   0  0  0  0  0  0  0  0  0  0  0  0
  151.7932  142.1166  158.9179 C   0  0  0  0  0  0  0  0  0  0  0  0
  153.8100  141.2101  161.5574 H   0  0  0  0  0  0  0  0  0  0  0  0
  154.0180  140.6005  159.9118 H   0  0  0  0  0  0  0  0  0  0  0  0
  152.5583  140.2006  160.8275 H   0  0  0  0  0  0  0  0  0  0  0  0
  153.3719  143.5852  161.5638 H   0  0  0  0  0  0  0  0  0  0  0  0
  153.0563  146.0043  161.4187 H   0  0  0  0  0  0  0  0  0  0  0  0
  151.3062  146.2046  161.2712 H   0  0  0  0  0  0  0  0  0  0  0  0
  152.3710  146.7063  159.9509 H   0  0  0  0  0  0  0  0  0  0  0  0
  150.2152  143.8877  156.6824 H   0  0  0  0  0  0  0  0  0  0  0  0
  149.1148  143.0506  155.2894 H   0  0  0  0  0  0  0  0  0  0  0  0
  147.7861  140.5814  155.7077 H   0  0  0  0  0  0  0  0  0  0  0  0
  148.8685  139.2527  153.8812 H   0  0  0  0  0  0  0  0  0  0  0  0
  149.9744  139.6227  155.1941 H   0  0  0  0  0  0  0  0  0  0  0  0
  150.0768  140.5196  153.6859 H   0  0  0  0  0  0  0  0  0  0  0  0
  148.1021  142.2035  153.1411 H   0  0  0  0  0  0  0  0  0  0  0  0
  147.3995  139.7781  152.7885 H   0  0  0  0  0  0  0  0  0  0  0  0
  146.2899  140.9453  152.1534 H   0  0  0  0  0  0  0  0  0  0  0  0
  145.9245  140.1376  153.6747 H   0  0  0  0  0  0  0  0  0  0  0  0
  144.9069  141.4211  154.6676 H   0  0  0  0  0  0  0  0  0  0  0  0
  145.8880  141.6815  156.0944 H   0  0  0  0  0  0  0  0  0  0  0  0
  143.6860  142.7751  156.3269 H   0  0  0  0  0  0  0  0  0  0  0  0
  144.9913  143.9442  156.4115 H   0  0  0  0  0  0  0  0  0  0  0  0
  144.4013  145.0838  153.0178 H   0  0  0  0  0  0  0  0  0  0  0  0
  145.4182  145.3333  154.4246 H   0  0  0  0  0  0  0  0  0  0  0  0
  146.6202  144.0536  152.7230 H   0  0  0  0  0  0  0  0  0  0  0  0
  145.3551  142.8460  152.6296 H   0  0  0  0  0  0  0  0  0  0  0  0
  151.6593  141.1617  158.4300 H   0  0  0  0  0  0  0  0  0  0  0  0
  1  2  1  0  0  0  0
  1 23  1  0  0  0  0
  1 24  1  0  0  0  0
  1 25  1  0  0  0  0
  2 22  1  0  0  0  0
  2  3  2  0  0  0  0
  3  4  1  0  0  0  0
  3 26  1  0  0  0  0
  4  5  1  0  0  0  0
  4  6  2  0  0  0  0
  5 27  1  0  0  0  0
  5 28  1  0  0  0  0
  5 29  1  0  0  0  0
  6  7  1  0  0  0  0
  7  8  1  0  0  0  0
  7 22  2  0  0  0  0
  8  9  1  0  0  0  0
  8 30  1  0  0  0  0
  9 10  2  0  0  0  0
  9 11  1  0  0  0  0
 11 12  1  0  0  0  0
 11 31  1  0  0  0  0
 12 13  1  0  0  0  0
 12 14  1  0  0  0  0
 12 32  1  0  0  0  0
 13 33  1  0  0  0  0
 13 34  1  0  0  0  0
 13 35  1  0  0  0  0
 14 15  1  0  0  0  0
 14 16  1  0  0  0  0
 14 36  1  0  0  0  0
 15 37  1  0  0  0  0
 15 38  1  0  0  0  0
 15 39  1  0  0  0  0
 16 21  1  0  0  0  0
 16 17  1  0  0  0  0
 17 18  1  0  0  0  0
 17 40  1  0  0  0  0
 17 41  1  0  0  0  0
 18 19  1  0  0  0  0
 18 42  1  0  0  0  0
 18 43  1  0  0  0  0
 19 20  1  0  0  0  0
 20 21  1  0  0  0  0
 20 44  1  0  0  0  0
 20 45  1  0  0  0  0
 21 46  1  0  0  0  0
 21 47  1  0  0  0  0
 22 48  1  0  0  0  0
M  END
> <s_m_source_file>
AV-unprocessed.smi

> <i_m_source_file_index>
2355

> <i_lp_mmshare_version>
43012

> <i_f3d_flags>
0

> <s_epik_input>
W0NIM11jMVtjSF1jKFtDSDNdKW5jKFtjSF0xKVtOSF1DKD1PKVtOSF1bQ0BIXShbQ0gzXSlbQ0BIXShbQ0gzXSlOMltDSDJdW0NIMl1PW0NIMl1bQ0gyXTI=

> <s_epik_cmdline>
J2VwaWtfcHl0aG9uJywgJy1waCcsICc3LjAnLCAnLXRuJywgJzgnLCAnLW1hJywgJzIwMCcsICctbWV0YWxfYmluZGluZycsICctaW1hZScsICc8aW5maWxlLm1hZT4nLCAnLW9tYWUnLCAnPG91dGZpbGUubWFlPic=

> <r_epik_Ionization_Penalty>
0.266238

> <r_epik_Ionization_Penalty_Charging>
0

> <r_epik_Ionization_Penalty_Neutral>
0.266238

> <r_epik_State_Penalty>
0.257924

> <r_epik_Charging_Adjusted_Penalty>
0.257924

> <i_epik_Tot_Q>
0

> <i_epik_Tot_abs_Q>
0

> <r_epik_Metal_State_Penalty>
0.257904

> <b_epik_Metal_Only>
0

> <s_lp_Force_Field>
OPLS_2005

> <r_lp_Energy>
33.2304

> <b_lp_Chiralities_Consistent>
1

> <s_lp_Variant>
AV-unprocessed.smi:2355-3

> <Gold.Version>
5.8.1

> <Gold.Id.Protein>
6NUR|6NUR_protein|mol2

> <Gold.PLP.Fitness>
46.2140

> <Gold.PLP.PLP>
-41.0605

> <Gold.PLP.part.hbond>
-2.0000

> <Gold.PLP.part.metal>
0.0000

> <Gold.PLP.part.buried>
-3.8905

> <Gold.PLP.part.nonpolar>
-36.1059

> <Gold.PLP.part.repulsive>
0.6095

> <Gold.PLP.ligand.clash>
0.0000

> <Gold.PLP.ligand.torsion>
0.3238

> <Gold.PLP.Chemscore.Hbond>
1.9040

> <Gold.PLP.Chemscore.CHOScore>
0.0000

> <Gold.PLP.Chemscore.Metal>
0.0000

> <Gold.Chemscore.Hbonds>
donor molecule, donor type, donor heavy atom, donor atom, acceptor molecule, acceptor atom, score
      L1  H     8    30       P1  8028  0.83
      L1  H    11    31       P1  8028  0.90

> <Gold.PLP.Chemscore.Internal.Correction>
0.0891

> <Gold.Rescore>
     Score         DG    S(hbond)    S(metal)    S(lipo)     H(rot)  DE(clash)    DE(int)     intcor
     18.39     -21.82       1.80        0.00     119.00       1.40       1.70       1.73       ----

> <Gold.Chemscore.Fitness>
18.3898

> <Gold.Chemscore.DG>
-21.8177

> <Gold.Chemscore.ZeroCoef>
-5.4800

> <Gold.Chemscore.Hbond>
1.7971

> <Gold.Chemscore.Metal>
0.0000

> <Gold.Chemscore.Lipo>
119.0004

> <Gold.Chemscore.Internal_Hbond>
0.0000

> <Gold.Chemscore.DEClash>
1.6996

> <Gold.Chemscore.DEInternal>
1.7283

> <Gold.Chemscore.Rot>
1.4015

> <Gold.Chemscore.Internal.Correction>
   9.000000E+99

> <Gold.Chemscore.Hbonds>
donor molecule, donor type, donor heavy atom, donor atom, acceptor molecule, acceptor atom, score
      L1  H     8    30       P1  8028  0.83
      L1  H    11    31       P1  8028  0.88

> <Gold.Chemscore.Hbond.Weighted>
-6.0025

> <Gold.Chemscore.Metal.Weighted>
-0.0000

> <Gold.Chemscore.Lipo.Weighted>
-13.9230

> <Gold.Chemscore.Internal_Hbond.Weighted>
0.0000

> <Gold.Chemscore.DEClash.Weighted>
1.6996

> <Gold.Chemscore.DEInternal.Weighted>
1.7283

> <Gold.Chemscore.Rot.Weighted>
3.5878

> <Gold.Chemscore.Internal.Correction.Weighted>
   9.000000E+99

> <Gold.Protein.RotatedTorsions>
[ 6907 6896 6895 6894 ] final  -93.70 input  -60.11 | X-H torsion
[ 7974 7965 7964 7962 ] final -126.68 input  175.53 | X-H torsion
[ 8008 7997 7996 7995 ] final  -81.83 input   59.86 | X-H torsion
[ 10167 10162 10161 10158 ] final -133.54 input  -65.29 | X-H torsion
[ 10718 10713 10712 10709 ] final   62.88 input   66.30 | X-H torsion
[ 10763 10752 10751 10750 ] final  144.13 input  -60.55 | X-H torsion
[ 11005 11000 10999 10996 ] final   19.88 input  -57.11 | X-H torsion

> <Gold.Protein.ActiveResidues>
 VAL166  LYS551  ARG553  GLY616  TRP617  ASP618  TYR619  PRO620  LYS621  CYS622 
 ASP623  PHE694  ASN695  SER759  ASP760  ASP761  ALA762  ILE779  LEU786  VAL792 
 PHE793  MET794  SER795  GLU796  ALA797  LYS798  CYS799  TRP800  GLU811  SER814 

> <Gold.Protein.RotatedAtoms>
  150.6927  134.1926  159.4290 H   0  0  0  0  0  0  0  0  0  0  0  0  # atno 6907 bound_to 6896
  151.9896  134.9984  160.0570 H   0  0  0  0  0  0  0  0  0  0  0  0  # atno 6908 bound_to 6896
  152.1680  133.4590  159.4931 H   0  0  0  0  0  0  0  0  0  0  0  0  # atno 6909 bound_to 6896
  144.9848  140.7675  143.4590 H   0  0  0  0  0  0  0  0  0  0  0  0  # atno 7974 bound_to 7965
  154.6023  140.0642  156.9385 H   0  0  0  0  0  0  0  0  0  0  0  0  # atno 8008 bound_to 7997
  155.2111  140.3322  155.4310 H   0  0  0  0  0  0  0  0  0  0  0  0  # atno 8009 bound_to 7997
  156.2326  140.1848  156.7187 H   0  0  0  0  0  0  0  0  0  0  0  0  # atno 8010 bound_to 7997
  139.8972  143.6650  152.2601 H   0  0  0  0  0  0  0  0  0  0  0  0  # atno 10167 bound_to 10162
  157.5932  130.9074  149.9644 H   0  0  0  0  0  0  0  0  0  0  0  0  # atno 10718 bound_to 10713
  153.9837  135.2939  155.3418 H   0  0  0  0  0  0  0  0  0  0  0  0  # atno 10763 bound_to 10752
  154.7254  135.5091  153.8881 H   0  0  0  0  0  0  0  0  0  0  0  0  # atno 10764 bound_to 10752
  153.0842  135.6688  154.0098 H   0  0  0  0  0  0  0  0  0  0  0  0  # atno 10765 bound_to 10752
  140.4088  134.1640  155.7666 H   0  0  0  0  0  0  0  0  0  0  0  0  # atno 11005 bound_to 11000
  145.2369  139.2089  143.5013 LP  0  0  0  0  0  0  0  0  0  0  0  0  # atno 17320 bound_to 7965
  146.3417  140.2257  142.8592 LP  0  0  0  0  0  0  0  0  0  0  0  0  # atno 17321 bound_to 7965
  139.7057  144.7628  151.1198 LP  0  0  0  0  0  0  0  0  0  0  0  0  # atno 17342 bound_to 10162
  140.7714  143.5398  150.9326 LP  0  0  0  0  0  0  0  0  0  0  0  0  # atno 17343 bound_to 10162
  156.0990  130.3657  150.0253 LP  0  0  0  0  0  0  0  0  0  0  0  0  # atno 17370 bound_to 10713
  156.8372  130.9413  151.3634 LP  0  0  0  0  0  0  0  0  0  0  0  0  # atno 17371 bound_to 10713
  141.1829  133.8376  157.1194 LP  0  0  0  0  0  0  0  0  0  0  0  0  # atno 17394 bound_to 11000
  140.0282  134.9914  157.0728 LP  0  0  0  0  0  0  0  0  0  0  0  0  # atno 17395 bound_to 11000

$$$$
