AV-unprocessed.smi:1603|AV-procd|sdf|6446|dock9
  -GOLD-   22720 7 93D 1   1.00000     0.00000
 Structure written by MMmdl.
 44 46  0  0  0  0  0  0  0  0  1 V2000
  152.2765  138.3803  158.2152 O   0  0  0  0  0  0  0  0  0  0  0  0
  152.3559  139.5737  158.5089 C   0  0  0  0  0  0  0  0  0  0  0  0
  153.3532  140.1155  159.4445 C   0  0  0  0  0  0  0  0  0  0  0  0
  154.3491  139.1435  160.0713 C   0  0  0  0  0  0  0  0  0  0  0  0
  155.0708  139.7257  161.0304 F   0  0  0  0  0  0  0  0  0  0  0  0
  153.7114  138.1053  160.6135 F   0  0  0  0  0  0  0  0  0  0  0  0
  155.1945  138.6789  159.1504 F   0  0  0  0  0  0  0  0  0  0  0  0
  153.3715  141.4415  159.7248 C   0  0  0  0  0  0  0  0  0  0  0  0
  152.4118  142.3336  159.1061 C   0  0  0  0  0  0  0  0  0  0  0  0
  152.3703  143.8096  159.3802 C   0  0  0  0  0  0  0  0  0  0  0  0
  151.2078  144.6739  158.9477 C   0  0  0  0  0  0  0  0  0  0  0  0
  152.5544  144.8279  158.2793 C   0  0  0  0  0  0  0  0  0  0  0  0
  151.5432  141.8573  158.2792 N   0  0  0  0  0  0  0  0  0  0  0  0
  151.5082  140.5086  157.9857 N   0  0  0  0  0  0  0  0  0  0  0  0
  150.4441  140.1337  157.0457 C   0  0  0  0  0  0  0  0  0  0  0  0
  150.6019  140.8365  155.6778 C   0  0  1  0  0  0  0  0  0  0  0  0
  151.6909  140.2268  155.0104 O   0  0  0  0  0  0  0  0  0  0  0  0
  149.3469  140.6658  154.7926 C   0  0  0  0  0  0  0  0  0  0  0  0
  148.2734  141.6300  155.0378 N   0  0  0  0  0  0  0  0  0  0  0  0
  147.3134  141.6997  153.9381 C   0  0  0  0  0  0  0  0  0  0  0  0
  146.1776  142.6969  154.2275 C   0  0  0  0  0  0  0  0  0  0  0  0
  145.5316  142.3489  155.4479 O   0  0  0  0  0  0  0  0  0  0  0  0
  146.4283  142.3198  156.5533 C   0  0  0  0  0  0  0  0  0  0  0  0
  147.5592  141.3160  156.2709 C   0  0  0  0  0  0  0  0  0  0  0  0
  154.0965  141.8585  160.4077 H   0  0  0  0  0  0  0  0  0  0  0  0
  152.8201  144.0353  160.3452 H   0  0  0  0  0  0  0  0  0  0  0  0
  150.4128  144.2157  158.3620 H   0  0  0  0  0  0  0  0  0  0  0  0
  150.8900  145.4630  159.6259 H   0  0  0  0  0  0  0  0  0  0  0  0
  153.1327  145.7196  158.5126 H   0  0  0  0  0  0  0  0  0  0  0  0
  152.6503  144.4640  157.2578 H   0  0  0  0  0  0  0  0  0  0  0  0
  150.4010  139.0501  156.9163 H   0  0  0  0  0  0  0  0  0  0  0  0
  149.4841  140.3975  157.4930 H   0  0  0  0  0  0  0  0  0  0  0  0
  150.8064  141.8985  155.8220 H   0  0  0  0  0  0  0  0  0  0  0  0
  152.4721  140.3606  155.5251 H   0  0  0  0  0  0  0  0  0  0  0  0
  149.6196  140.6556  153.7358 H   0  0  0  0  0  0  0  0  0  0  0  0
  148.9382  139.6742  154.9906 H   0  0  0  0  0  0  0  0  0  0  0  0
  147.8144  142.0022  153.0188 H   0  0  0  0  0  0  0  0  0  0  0  0
  146.8890  140.7114  153.7541 H   0  0  0  0  0  0  0  0  0  0  0  0
  146.5650  143.7150  154.2908 H   0  0  0  0  0  0  0  0  0  0  0  0
  145.4455  142.6823  153.4199 H   0  0  0  0  0  0  0  0  0  0  0  0
  146.8320  143.3180  156.7304 H   0  0  0  0  0  0  0  0  0  0  0  0
  145.8796  142.0315  157.4502 H   0  0  0  0  0  0  0  0  0  0  0  0
  147.1406  140.3101  156.2100 H   0  0  0  0  0  0  0  0  0  0  0  0
  148.2541  141.3139  157.1118 H   0  0  0  0  0  0  0  0  0  0  0  0
  1  2  2  0  0  0  0
  2 14  1  0  0  0  0
  2  3  1  0  0  0  0
  3  4  1  0  0  0  0
  3  8  2  0  0  0  0
  4  5  1  0  0  0  0
  4  6  1  0  0  0  0
  4  7  1  0  0  0  0
  8  9  1  0  0  0  0
  8 25  1  0  0  0  0
  9 10  1  0  0  0  0
  9 13  2  0  0  0  0
 10 12  1  0  0  0  0
 10 11  1  0  0  0  0
 10 26  1  0  0  0  0
 11 12  1  0  0  0  0
 11 27  1  0  0  0  0
 11 28  1  0  0  0  0
 12 29  1  0  0  0  0
 12 30  1  0  0  0  0
 13 14  1  0  0  0  0
 14 15  1  0  0  0  0
 15 16  1  0  0  0  0
 15 31  1  0  0  0  0
 15 32  1  0  0  0  0
 16 17  1  0  0  0  0
 16 18  1  0  0  0  0
 16 33  1  0  0  0  0
 17 34  1  0  0  0  0
 18 19  1  0  0  0  0
 18 35  1  0  0  0  0
 18 36  1  0  0  0  0
 19 24  1  0  0  0  0
 19 20  1  0  0  0  0
 20 21  1  0  0  0  0
 20 37  1  0  0  0  0
 20 38  1  0  0  0  0
 21 22  1  0  0  0  0
 21 39  1  0  0  0  0
 21 40  1  0  0  0  0
 22 23  1  0  0  0  0
 23 24  1  0  0  0  0
 23 41  1  0  0  0  0
 23 42  1  0  0  0  0
 24 43  1  0  0  0  0
 24 44  1  0  0  0  0
M  END
> <s_m_source_file>
AV-unprocessed.smi

> <i_m_source_file_index>
1603

> <i_lp_mmshare_version>
43012

> <i_f3d_flags>
0

> <s_epik_input>
Tz1jMWMoQyhGKShGKUYpW2NIXWMoW0NIXTJbQ0gyXVtDSDJdMilubjFbQ0gyXVtDQEhdKFtPSF0pW0NIMl1OM1tDSDJdW0NIMl1PW0NIMl1bQ0gyXTM=

> <s_epik_cmdline>
J2VwaWtfcHl0aG9uJywgJy1waCcsICc3LjAnLCAnLXRuJywgJzgnLCAnLW1hJywgJzIwMCcsICctbWV0YWxfYmluZGluZycsICctaW1hZScsICc8aW5maWxlLm1hZT4nLCAnLW9tYWUnLCAnPG91dGZpbGUubWFlPic=

> <r_lp_tautomer_probability>
1

> <r_epik_Ionization_Penalty>
0.450313

> <r_epik_Ionization_Penalty_Charging>
7.22079e-10

> <r_epik_Ionization_Penalty_Neutral>
0.450313

> <r_epik_State_Penalty>
0.45306

> <r_epik_Charging_Adjusted_Penalty>
0.45306

> <i_epik_Tot_Q>
0

> <i_epik_Tot_abs_Q>
0

> <r_epik_Metal_State_Penalty>
0.45306

> <b_epik_Metal_Only>
0

> <s_lp_Force_Field>
OPLS_2005

> <r_lp_Energy>
51.835

> <b_lp_Chiralities_Consistent>
1

> <s_lp_Variant>
AV-unprocessed.smi:1603-4

> <Gold.Version>
5.8.1

> <Gold.Id.Protein>
6NUR|6NUR_protein|mol2

> <Gold.PLP.Fitness>
50.2911

> <Gold.PLP.PLP>
-48.5759

> <Gold.PLP.part.hbond>
-1.0000

> <Gold.PLP.part.metal>
0.0000

> <Gold.PLP.part.buried>
-6.7229

> <Gold.PLP.part.nonpolar>
-40.6599

> <Gold.PLP.part.repulsive>
0.3259

> <Gold.PLP.ligand.clash>
0.1753

> <Gold.PLP.ligand.torsion>
0.8001

> <Gold.PLP.Chemscore.Hbond>
0.9600

> <Gold.PLP.Chemscore.CHOScore>
0.0000

> <Gold.PLP.Chemscore.Metal>
0.0000

> <Gold.Chemscore.Hbonds>
donor molecule, donor type, donor heavy atom, donor atom, acceptor molecule, acceptor atom, score
      P1  H  7989  7998       L1    17  0.93

> <Gold.PLP.Chemscore.Internal.Correction>
0.6106

> <Gold.Rescore>
     Score         DG    S(hbond)    S(metal)    S(lipo)     H(rot)  DE(clash)    DE(int)     intcor
     12.11     -14.47       0.76        0.00     108.20       2.43       0.02       2.34       ----

> <Gold.Chemscore.Fitness>
12.1097

> <Gold.Chemscore.DG>
-14.4721

> <Gold.Chemscore.ZeroCoef>
-5.4800

> <Gold.Chemscore.Hbond>
0.7622

> <Gold.Chemscore.Metal>
0.0000

> <Gold.Chemscore.Lipo>
108.2025

> <Gold.Chemscore.Internal_Hbond>
0.0000

> <Gold.Chemscore.DEClash>
0.0204

> <Gold.Chemscore.DEInternal>
2.3419

> <Gold.Chemscore.Rot>
2.4272

> <Gold.Chemscore.Internal.Correction>
   9.000000E+99

> <Gold.Chemscore.Hbonds>
donor molecule, donor type, donor heavy atom, donor atom, acceptor molecule, acceptor atom, score
      P1  H  7989  7998       L1    17  0.38

> <Gold.Chemscore.Hbond.Weighted>
-2.5459

> <Gold.Chemscore.Metal.Weighted>
-0.0000

> <Gold.Chemscore.Lipo.Weighted>
-12.6597

> <Gold.Chemscore.Internal_Hbond.Weighted>
0.0000

> <Gold.Chemscore.DEClash.Weighted>
0.0204

> <Gold.Chemscore.DEInternal.Weighted>
2.3419

> <Gold.Chemscore.Rot.Weighted>
6.2135

> <Gold.Chemscore.Internal.Correction.Weighted>
   9.000000E+99

> <Gold.Protein.RotatedTorsions>
[ 6907 6896 6895 6894 ] final  -89.56 input  -60.11 | X-H torsion
[ 7974 7965 7964 7962 ] final  165.08 input  175.53 | X-H torsion
[ 8008 7997 7996 7995 ] final   95.49 input   59.86 | X-H torsion
[ 10167 10162 10161 10158 ] final  179.10 input  -65.29 | X-H torsion
[ 10718 10713 10712 10709 ] final -136.50 input   66.30 | X-H torsion
[ 10763 10752 10751 10750 ] final -127.09 input  -60.55 | X-H torsion
[ 11005 11000 10999 10996 ] final   28.09 input  -57.11 | X-H torsion

> <Gold.Protein.ActiveResidues>
 VAL166  LYS551  ARG553  GLY616  TRP617  ASP618  TYR619  PRO620  LYS621  CYS622 
 ASP623  PHE694  ASN695  SER759  ASP760  ASP761  ALA762  ILE779  LEU786  VAL792 
 PHE793  MET794  SER795  GLU796  ALA797  LYS798  CYS799  TRP800  GLU811  SER814 

> <Gold.Protein.RotatedAtoms>
  150.6875  134.2568  159.4532 H   0  0  0  0  0  0  0  0  0  0  0  0  # atno 6907 bound_to 6896
  152.0501  134.9656  160.0584 H   0  0  0  0  0  0  0  0  0  0  0  0  # atno 6908 bound_to 6896
  152.1124  133.4273  159.4674 H   0  0  0  0  0  0  0  0  0  0  0  0  # atno 6909 bound_to 6896
  144.7517  139.8419  143.6364 H   0  0  0  0  0  0  0  0  0  0  0  0  # atno 7974 bound_to 7965
  156.0694  140.3286  155.7557 H   0  0  0  0  0  0  0  0  0  0  0  0  # atno 8008 bound_to 7997
  155.5329  140.0595  157.2903 H   0  0  0  0  0  0  0  0  0  0  0  0  # atno 8009 bound_to 7997
  154.4522  140.1924  156.0502 H   0  0  0  0  0  0  0  0  0  0  0  0  # atno 8010 bound_to 7997
  139.5322  144.2601  152.0714 H   0  0  0  0  0  0  0  0  0  0  0  0  # atno 10167 bound_to 10162
  156.2778  130.7303  151.1290 H   0  0  0  0  0  0  0  0  0  0  0  0  # atno 10718 bound_to 10713
  154.8750  135.3974  154.3536 H   0  0  0  0  0  0  0  0  0  0  0  0  # atno 10763 bound_to 10752
  153.4318  135.7025  153.6231 H   0  0  0  0  0  0  0  0  0  0  0  0  # atno 10764 bound_to 10752
  153.4849  135.3761  155.2431 H   0  0  0  0  0  0  0  0  0  0  0  0  # atno 10765 bound_to 10752
  140.3193  134.2562  155.7720 H   0  0  0  0  0  0  0  0  0  0  0  0  # atno 11005 bound_to 11000
  146.1477  139.4550  143.0069 LP  0  0  0  0  0  0  0  0  0  0  0  0  # atno 17320 bound_to 7965
  145.6919  141.0161  143.1550 LP  0  0  0  0  0  0  0  0  0  0  0  0  # atno 17321 bound_to 7965
  140.2066  144.4604  150.6405 LP  0  0  0  0  0  0  0  0  0  0  0  0  # atno 17342 bound_to 10162
  140.6507  143.2224  151.6084 LP  0  0  0  0  0  0  0  0  0  0  0  0  # atno 17343 bound_to 10162
  157.7305  131.0616  150.5725 LP  0  0  0  0  0  0  0  0  0  0  0  0  # atno 17370 bound_to 10713
  156.5828  130.4309  149.5970 LP  0  0  0  0  0  0  0  0  0  0  0  0  # atno 17371 bound_to 10713
  141.2090  133.7760  157.0022 LP  0  0  0  0  0  0  0  0  0  0  0  0  # atno 17394 bound_to 11000
  140.0956  134.9566  157.1844 LP  0  0  0  0  0  0  0  0  0  0  0  0  # atno 17395 bound_to 11000

$$$$
