AV-unprocessed.smi:2698|AV-procd|sdf|10421|dock6
  -GOLD-   2272014463D 1   1.00000     0.00000
 Structure written by MMmdl.
 33 33  0  0  0  0  0  0  0  0  2 V2000
  153.4528  142.0965  160.9359 C   0  0  0  0  0  0  0  0  0  0  0  0
  152.9024  142.2799  159.5086 C   0  0  0  0  0  0  0  0  0  0  0  0
  152.1277  143.6039  159.4116 C   0  0  0  0  0  0  0  0  0  0  0  0
  152.0195  141.0977  159.0387 C   0  0  0  0  0  0  0  0  0  0  0  0
  152.7819  139.9459  158.3674 C   0  0  0  0  0  0  0  0  0  0  0  0
  153.9139  139.6349  158.7374 O   0  0  0  0  0  0  0  0  0  0  0  0
  152.1370  139.3148  157.3738 N   0  0  0  0  0  0  0  0  0  0  0  0
  152.6443  138.1819  156.6039 C   0  0  2  0  0  0  0  0  0  0  0  0
  152.5204  138.4482  155.0880 C   0  0  0  0  0  0  0  0  0  0  0  0
  151.1717  138.9634  154.6482 C   0  0  0  0  0  0  0  0  0  0  0  0
  150.1255  138.2651  154.0798 C   0  0  0  0  0  0  0  0  0  0  0  0
  149.1226  139.1891  153.8482 N   0  0  0  0  0  0  0  0  0  0  0  0
  149.5764  140.3707  154.2683 C   0  0  0  0  0  0  0  0  0  0  0  0
  150.8047  140.3092  154.7652 N   0  0  0  0  0  0  0  0  0  0  0  0
  151.9704  136.8899  157.0821 C   0  0  0  0  0  0  0  0  0  0  0  0
  152.2939  135.8288  156.5033 O   0  0  0  0  0  0  0  0  0  0  0  0
  151.1472  136.9817  158.0188 O   0  5  0  0  0  0  0  0  0  0  0  0
  148.2209  139.0054  153.4323 H   0  0  0  0  0  0  0  0  0  0  0  0
  152.6446  141.9797  161.6584 H   0  0  0  0  0  0  0  0  0  0  0  0
  154.0434  142.9613  161.2394 H   0  0  0  0  0  0  0  0  0  0  0  0
  154.1014  141.2259  161.0213 H   0  0  0  0  0  0  0  0  0  0  0  0
  153.7546  142.3605  158.8319 H   0  0  0  0  0  0  0  0  0  0  0  0
  151.2516  143.5976  160.0611 H   0  0  0  0  0  0  0  0  0  0  0  0
  151.7857  143.7882  158.3928 H   0  0  0  0  0  0  0  0  0  0  0  0
  152.7526  144.4485  159.7031 H   0  0  0  0  0  0  0  0  0  0  0  0
  151.4469  140.6980  159.8762 H   0  0  0  0  0  0  0  0  0  0  0  0
  151.2825  141.4678  158.3240 H   0  0  0  0  0  0  0  0  0  0  0  0
  151.2068  139.6287  157.1371 H   0  0  0  0  0  0  0  0  0  0  0  0
  153.7076  138.0754  156.8295 H   0  0  0  0  0  0  0  0  0  0  0  0
  153.2756  139.1739  154.7829 H   0  0  0  0  0  0  0  0  0  0  0  0
  152.7310  137.5379  154.5258 H   0  0  0  0  0  0  0  0  0  0  0  0
  150.0238  137.2210  153.8223 H   0  0  0  0  0  0  0  0  0  0  0  0
  149.0037  141.2845  154.2092 H   0  0  0  0  0  0  0  0  0  0  0  0
  1  2  1  0  0  0  0
  1 19  1  0  0  0  0
  1 20  1  0  0  0  0
  1 21  1  0  0  0  0
  2  3  1  0  0  0  0
  2  4  1  0  0  0  0
  2 22  1  0  0  0  0
  3 23  1  0  0  0  0
  3 24  1  0  0  0  0
  3 25  1  0  0  0  0
  4  5  1  0  0  0  0
  4 26  1  0  0  0  0
  4 27  1  0  0  0  0
  5  6  2  0  0  0  0
  5  7  1  0  0  0  0
  7  8  1  0  0  0  0
  7 28  1  0  0  0  0
  8  9  1  0  0  0  0
  8 15  1  0  0  0  0
  8 29  1  0  0  0  0
  9 10  1  0  0  0  0
  9 30  1  0  0  0  0
  9 31  1  0  0  0  0
 10 14  1  0  0  0  0
 10 11  2  0  0  0  0
 11 12  1  0  0  0  0
 11 32  1  0  0  0  0
 12 18  1  0  0  0  0
 12 13  1  0  0  0  0
 13 14  2  0  0  0  0
 13 33  1  0  0  0  0
 15 16  2  0  0  0  0
 15 17  1  0  0  0  0
M  CHG  1  17  -1
M  END
> <s_m_source_file>
AV-unprocessed.smi

> <i_m_source_file_index>
2698

> <i_lp_mmshare_version>
43012

> <i_f3d_flags>
0

> <s_epik_input>
W0NIM11bQ0hdKFtDSDNdKVtDSDJdQyg9TylbTkhdW0NAQEhdKEMoPU8pW09IXSlbQ0gyXWMxW2NIXVtuSF1bY0hdbjE=

> <s_epik_cmdline>
J2VwaWtfcHl0aG9uJywgJy1waCcsICc3LjAnLCAnLXRuJywgJzgnLCAnLW1hJywgJzIwMCcsICctbWV0YWxfYmluZGluZycsICctaW1hZScsICc8aW5maWxlLm1hZT4nLCAnLW9tYWUnLCAnPG91dGZpbGUubWFlPic=

> <r_lp_tautomer_probability>
0.5

> <r_epik_Ionization_Penalty>
0.818672

> <r_epik_Ionization_Penalty_Charging>
0.818672

> <r_epik_Ionization_Penalty_Neutral>
7.99661e-08

> <r_epik_State_Penalty>
0.927032

> <r_epik_Charging_Adjusted_Penalty>
1.7457

> <i_epik_Tot_Q>
-1

> <i_epik_Tot_abs_Q>
1

> <r_epik_Metal_State_Penalty>
0.525537

> <b_epik_Metal_Only>
0

> <s_lp_Force_Field>
OPLS_2005

> <r_lp_Energy>
1.77679

> <b_lp_Chiralities_Consistent>
1

> <s_lp_Variant>
AV-unprocessed.smi:2698-5

> <Gold.Version>
5.8.1

> <Gold.Id.Protein>
6NUR|6NUR_protein|mol2

> <Gold.PLP.Fitness>
45.2813

> <Gold.PLP.PLP>
-33.5325

> <Gold.PLP.part.hbond>
-4.0000

> <Gold.PLP.part.metal>
0.0000

> <Gold.PLP.part.buried>
-2.6778

> <Gold.PLP.part.nonpolar>
-26.6121

> <Gold.PLP.part.repulsive>
0.2205

> <Gold.PLP.ligand.clash>
0.0000

> <Gold.PLP.ligand.torsion>
1.3105

> <Gold.PLP.Chemscore.Hbond>
3.7500

> <Gold.PLP.Chemscore.CHOScore>
1.0000

> <Gold.PLP.Chemscore.Metal>
0.0000

> <Gold.Chemscore.Hbonds>
donor molecule, donor type, donor heavy atom, donor atom, acceptor molecule, acceptor atom, score
      P1  H  7989  7998       L1    14  0.86
      P1  H  7997  8008       L1     6  0.99
      P1  H 10752 10765       L1    16  2.00
      L1  C    11    32       P1  7948  0.97
      L1  C    11    32       P1  7949  0.02

> <Gold.PLP.Chemscore.Internal.Correction>
0.1199

> <Gold.Rescore>
     Score         DG    S(hbond)    S(metal)    S(lipo)     H(rot)  DE(clash)    DE(int)     intcor
     13.65     -14.92       2.80        0.00      66.71       3.01       0.10       1.17       ----

> <Gold.Chemscore.Fitness>
13.6511

> <Gold.Chemscore.DG>
-14.9182

> <Gold.Chemscore.ZeroCoef>
-5.4800

> <Gold.Chemscore.Hbond>
2.7994

> <Gold.Chemscore.Metal>
0.0000

> <Gold.Chemscore.Lipo>
66.7109

> <Gold.Chemscore.Internal_Hbond>
0.0000

> <Gold.Chemscore.DEClash>
0.1002

> <Gold.Chemscore.DEInternal>
1.1669

> <Gold.Chemscore.Rot>
3.0145

> <Gold.Chemscore.Internal.Correction>
   9.000000E+99

> <Gold.Chemscore.Hbonds>
donor molecule, donor type, donor heavy atom, donor atom, acceptor molecule, acceptor atom, score
      P1  H  7989  7998       L1    14  0.04
      P1  H  7997  8008       L1     6  0.57
      P1  H 10752 10765       L1    16  1.00

> <Gold.Chemscore.Hbond.Weighted>
-9.3501

> <Gold.Chemscore.Metal.Weighted>
-0.0000

> <Gold.Chemscore.Lipo.Weighted>
-7.8052

> <Gold.Chemscore.Internal_Hbond.Weighted>
0.0000

> <Gold.Chemscore.DEClash.Weighted>
0.1002

> <Gold.Chemscore.DEInternal.Weighted>
1.1669

> <Gold.Chemscore.Rot.Weighted>
7.7171

> <Gold.Chemscore.Internal.Correction.Weighted>
   9.000000E+99

> <Gold.Protein.RotatedTorsions>
[ 6907 6896 6895 6894 ] final   -8.17 input  -60.11 | X-H torsion
[ 7974 7965 7964 7962 ] final   69.31 input  175.53 | X-H torsion
[ 8008 7997 7996 7995 ] final -120.69 input   59.86 | X-H torsion
[ 10167 10162 10161 10158 ] final  -87.77 input  -65.29 | X-H torsion
[ 10718 10713 10712 10709 ] final  174.62 input   66.30 | X-H torsion
[ 10763 10752 10751 10750 ] final -152.00 input  -60.55 | X-H torsion
[ 11005 11000 10999 10996 ] final  172.37 input  -57.11 | X-H torsion

> <Gold.Protein.ActiveResidues>
 VAL166  LYS551  ARG553  GLY616  TRP617  ASP618  TYR619  PRO620  LYS621  CYS622 
 ASP623  PHE694  ASN695  SER759  ASP760  ASP761  ALA762  ILE779  LEU786  VAL792 
 PHE793  MET794  SER795  GLU796  ALA797  LYS798  CYS799  TRP800  GLU811  SER814 

> <Gold.Protein.RotatedAtoms>
  151.4380  135.1017  159.9661 H   0  0  0  0  0  0  0  0  0  0  0  0  # atno 6907 bound_to 6896
  152.4933  133.8555  159.7234 H   0  0  0  0  0  0  0  0  0  0  0  0  # atno 6908 bound_to 6896
  150.9108  133.6941  159.2883 H   0  0  0  0  0  0  0  0  0  0  0  0  # atno 6909 bound_to 6896
  145.7920  139.2938  143.1205 H   0  0  0  0  0  0  0  0  0  0  0  0  # atno 7974 bound_to 7965
  155.1358  140.0401  157.2786 H   0  0  0  0  0  0  0  0  0  0  0  0  # atno 8008 bound_to 7997
  154.6509  140.2569  155.7189 H   0  0  0  0  0  0  0  0  0  0  0  0  # atno 8009 bound_to 7997
  156.2576  140.2836  156.0942 H   0  0  0  0  0  0  0  0  0  0  0  0  # atno 8010 bound_to 7997
  140.3812  143.2748  151.9381 H   0  0  0  0  0  0  0  0  0  0  0  0  # atno 10167 bound_to 10162
  156.9469  131.0019  151.2957 H   0  0  0  0  0  0  0  0  0  0  0  0  # atno 10718 bound_to 10713
  154.8022  135.3246  154.7521 H   0  0  0  0  0  0  0  0  0  0  0  0  # atno 10763 bound_to 10752
  153.8187  135.6889  153.4834 H   0  0  0  0  0  0  0  0  0  0  0  0  # atno 10764 bound_to 10752
  153.1745  135.4610  154.9891 H   0  0  0  0  0  0  0  0  0  0  0  0  # atno 10765 bound_to 10752
  140.3290  134.7373  157.4120 H   0  0  0  0  0  0  0  0  0  0  0  0  # atno 11005 bound_to 11000
  145.9967  140.8556  143.0039 LP  0  0  0  0  0  0  0  0  0  0  0  0  # atno 17320 bound_to 7965
  144.6780  140.2293  143.7357 LP  0  0  0  0  0  0  0  0  0  0  0  0  # atno 17321 bound_to 7965
  139.4795  144.5816  151.7922 LP  0  0  0  0  0  0  0  0  0  0  0  0  # atno 17342 bound_to 10162
  140.4935  144.1275  150.5955 LP  0  0  0  0  0  0  0  0  0  0  0  0  # atno 17343 bound_to 10162
  157.5748  130.8335  149.8441 LP  0  0  0  0  0  0  0  0  0  0  0  0  # atno 17370 bound_to 10713
  156.0380  130.3746  150.1510 LP  0  0  0  0  0  0  0  0  0  0  0  0  # atno 17371 bound_to 10713
  140.0876  134.5645  155.8476 LP  0  0  0  0  0  0  0  0  0  0  0  0  # atno 17394 bound_to 11000
  141.2068  133.6658  156.6265 LP  0  0  0  0  0  0  0  0  0  0  0  0  # atno 17395 bound_to 11000

$$$$
