#       Name:                AV-unprocessed.smi:142
#       Creating user name   scv26
#       Creation time:       Thu Mar 26 18:34:52 2020


#       File generated by GOLD software.
#

@<TRIPOS>MOLECULE
AV-unprocessed.smi:142
    60    63     1
SMALL
NO_CHARGES


@<TRIPOS>ATOM
      1 ****        -3.0893   3.5982   0.1934 C.3            1 S1                 0.0000
      2 ****        -2.5343   2.1675   0.2053 C.3            1 S1                 0.0000
      3 ****        -1.0750   2.2181   0.2713 N.am           1 S1                 0.0000
      4 ****        -0.2823   1.2060   0.6549 C.2            1 S1                 0.0000
      5 ****        -0.7157   0.1225   1.0496 O.2            1 S1                 0.0000
      6 ****         1.2282   1.4697   0.5721 C.3            1 S1                 0.0000
      7 ****         2.0279   0.2295   0.4730 N.am           1 S1                 0.0000
      8 ****         2.2105  -0.3530  -0.8062 C.2            1 S1                 0.0000
      9 ****         1.7369   0.1671  -1.8178 O.2            1 S1                 0.0000
     10 ****         2.9737  -1.5955  -0.8288 C.2            1 S1                 0.0000
     11 ****         3.1844  -2.2267  -1.9964 F              1 S1                 0.0000
     12 ****         3.4690  -2.1264   0.3081 C.2            1 S1                 0.0000
     13 ****         3.3017  -1.5381   1.5463 N.am           1 S1                 0.0000
     14 ****         3.8448  -2.2334   2.7734 C.3            1 S1                 0.0000
     15 ****         4.8138  -1.3649   3.5982 C.3            1 S1                 0.0000
     16 ****         4.1472  -1.3145   4.9636 C.3            1 S1                 0.0000
     17 ****         3.2360  -2.5366   4.9410 C.3            1 S1                 0.0000
     18 ****         2.7753  -2.5771   3.5994 O.3            1 S1                 0.0000
     19 ****         2.5421  -0.3505   1.6576 C.2            1 S1                 0.0000
     20 ****         2.3247   0.1631   2.7560 O.2            1 S1                 0.0000
     21 ****        -3.0572   1.3708  -0.9879 C.ar           1 S1                 0.0000
     22 ****        -4.3003   0.7104  -0.8862 C.ar           1 S1                 0.0000
     23 ****        -4.8107  -0.0252  -1.9732 C.ar           1 S1                 0.0000
     24 ****        -4.0815  -0.1061  -3.1766 C.ar           1 S1                 0.0000
     25 ****        -4.5863  -0.8412  -4.2692 C.2            1 S1                 0.0000
     26 ****        -3.8514  -0.9165  -5.4685 C.2            1 S1                 0.0000
     27 ****        -2.6110  -0.2587  -5.5792 C.2            1 S1                 0.0000
     28 ****        -2.1020   0.4765  -4.4911 C.2            1 S1                 0.0000
     29 ****        -2.8344   0.5565  -3.2887 C.ar           1 S1                 0.0000
     30 ****        -2.3303   1.2939  -2.1986 C.ar           1 S1                 0.0000
     31 ****        -4.1793   3.5959   0.2170 H              1 S1                 0.0000
     32 ****        -2.7777   4.1368  -0.7024 H              1 S1                 0.0000
     33 ****        -2.7439   4.1627   1.0601 H              1 S1                 0.0000
     34 ****        -2.8929   1.6817   1.1150 H              1 S1                 0.0000
     35 ****        -0.6354   3.0749  -0.0319 H              1 S1                 0.0000
     36 ****         1.4314   2.1196  -0.2810 H              1 S1                 0.0000
     37 ****         1.5179   2.0697   1.4358 H              1 S1                 0.0000
     38 ****         4.0213  -3.0523   0.2376 H              1 S1                 0.0000
     39 ****         4.3270  -3.1441   2.4150 H              1 S1                 0.0000
     40 ****         5.7766  -1.8742   3.6507 H              1 S1                 0.0000
     41 ****         4.9695  -0.3780   3.1616 H              1 S1                 0.0000
     42 ****         4.8613  -1.3340   5.7870 H              1 S1                 0.0000
     43 ****         3.5499  -0.4073   5.0585 H              1 S1                 0.0000
     44 ****         3.7982  -3.4454   5.1615 H              1 S1                 0.0000
     45 ****         2.4096  -2.4608   5.6482 H              1 S1                 0.0000
     46 ****        -4.8686   0.7661   0.0308 H              1 S1                 0.0000
     47 ****        -5.7633  -0.5259  -1.8782 H              1 S1                 0.0000
     48 ****        -5.5365  -1.3498  -4.1931 H              1 S1                 0.0000
     49 ****        -4.2390  -1.4800  -6.3042 H              1 S1                 0.0000
     50 ****        -2.0488  -0.3184  -6.4995 H              1 S1                 0.0000
     51 ****        -1.1485   0.9763  -4.5839 H              1 S1                 0.0000
     52 ****        -1.3812   1.8006  -2.2971 H              1 S1                 0.0000
     53 ****        -1.7022  -0.0347   1.0953 LP             1 S1                 0.0000
     54 ****        -0.0810  -0.5998   1.3242 LP             1 S1                 0.0000
     55 ****         1.2127   1.0156  -1.7452 LP             1 S1                 0.0000
     56 ****         1.8767  -0.2593  -2.7115 LP             1 S1                 0.0000
     57 ****         2.4553  -3.4980   3.3768 LP             1 S1                 0.0000
     58 ****         2.0268  -1.9254   3.4764 LP             1 S1                 0.0000
     59 ****         1.7795   0.9992   2.8179 LP             1 S1                 0.0000
     60 ****         2.6933  -0.2560   3.5857 LP             1 S1                 0.0000
@<TRIPOS>BOND
    1    1    2 1     
    2    1   31 1     
    3    1   32 1     
    4    1   33 1     
    5    2    3 1     
    6    2   21 1     
    7    2   34 1     
    8    3    4 am    
    9    3   35 1     
   10    4    5 2     
   11    4    6 1     
   12    6    7 1     
   13    6   36 1     
   14    6   37 1     
   15    7   19 am    
   16    7    8 am    
   17    8    9 2     
   18    8   10 1     
   19   10   11 1     
   20   10   12 2     
   21   12   13 1     
   22   12   38 1     
   23   13   14 1     
   24   13   19 am    
   25   14   18 1     
   26   14   15 1     
   27   14   39 1     
   28   15   16 1     
   29   15   40 1     
   30   15   41 1     
   31   16   17 1     
   32   16   42 1     
   33   16   43 1     
   34   17   18 1     
   35   17   44 1     
   36   17   45 1     
   37   19   20 2     
   38   21   30 ar    
   39   21   22 ar    
   40   22   23 ar    
   41   22   46 1     
   42   23   24 ar    
   43   23   47 1     
   44   24   29 ar    
   45   24   25 1     
   46   25   26 2     
   47   25   48 1     
   48   26   27 1     
   49   26   49 1     
   50   27   28 2     
   51   27   50 1     
   52   28   29 1     
   53   28   51 1     
   54   29   30 ar    
   55   30   52 1     
   56    5   53 1     
   57    5   54 1     
   58    9   55 1     
   59    9   56 1     
   60   18   57 1     
   61   18   58 1     
   62   20   59 1     
   63   20   60 1     
@<TRIPOS>SUBSTRUCTURE
      1 S1             1
@<TRIPOS>SET
LONE_PAIRS      STATIC     ATOMS    <user>   **** ""
8 53 54 55 56 57 58 59 60
DONOR_HYDROGENS      STATIC     ATOMS    <user>   **** ""
1 35
ATOM$BLUE        STATIC     ATOMS    COLORGROUP SYSTEM
8 53 54 55 56 57 58 59 60
ATOM$RED        STATIC     ATOMS    COLORGROUP SYSTEM
1 35
