#       Name:                AV-unprocessed.smi:70
#       Creating user name   scv26
#       Creation time:       Thu Mar 26 16:56:15 2020


#       File generated by GOLD software.
#

@<TRIPOS>MOLECULE
AV-unprocessed.smi:70
    29    30     1
SMALL
NO_CHARGES


@<TRIPOS>ATOM
      1 ****        -0.7754   1.4920  -0.7905 O.3            1 S1                 0.0000
      2 ****        -0.2682   0.1712  -0.7017 C.3            1 S1                 0.0000
      3 ****         1.2765   0.2282  -0.6457 C.3            1 S1                 0.0000
      4 ****         1.7891   0.8204   0.5795 N.pl3          1 S1                 0.0000
      5 ****         2.2256   0.1843   1.7238 C.2            1 S1                 0.0000
      6 ****         2.5873   1.2154   2.5430 C.2            1 S1                 0.0000
      7 ****         2.3618   2.4167   1.8738 N.2            1 S1                 0.0000
      8 ****         1.8890   2.1666   0.6936 N.2            1 S1                 0.0000
      9 ****        -0.8051  -0.6361  -1.8863 C.3            1 S1                 0.0000
     10 ****        -2.2194  -1.0273  -1.4532 C.3            1 S1                 0.0000
     11 ****        -2.1917  -1.1076   0.0202 N.4            1 S1                 1.0000
     12 ****        -0.9254  -0.5208   0.5042 C.3            1 S1                 0.0000
     13 ****        -0.4468   1.9934  -0.0591 H              1 S1                 0.0000
     14 ****         1.6878  -0.7793  -0.7206 H              1 S1                 0.0000
     15 ****         1.6718   0.7818  -1.4991 H              1 S1                 0.0000
     16 ****         2.2405  -0.8884   1.8493 H              1 S1                 0.0000
     17 ****         2.9869   1.1940   3.5464 H              1 S1                 0.0000
     18 ****        -0.7848  -0.0893  -2.8301 H              1 S1                 0.0000
     19 ****        -0.2107  -1.5413  -2.0199 H              1 S1                 0.0000
     20 ****        -2.9289  -0.2506  -1.7409 H              1 S1                 0.0000
     21 ****        -2.5485  -1.9659  -1.8997 H              1 S1                 0.0000
     22 ****        -2.9748  -0.5907   0.3941 H              1 S1                 0.0000
     23 ****        -0.2996  -1.3438   0.8516 H              1 S1                 0.0000
     24 ****        -1.0874   0.1479   1.3509 H              1 S1                 0.0000
     25 ****        -2.2487  -2.0714   0.3166 H              1 S1                 0.0000
     26 ****        -1.7748   1.4712  -0.7621 LP             1 S1                 0.0000
     27 ****        -0.4750   1.9108  -1.6475 LP             1 S1                 0.0000
     28 ****         2.5372   3.3282   2.2458 LP             1 S1                 0.0000
     29 ****         1.6437   2.8411  -0.0027 LP             1 S1                 0.0000
@<TRIPOS>BOND
    1    1    2 1     
    2    1   13 1     
    3    2   12 1     
    4    2    3 1     
    5    2    9 1     
    6    3    4 1     
    7    3   14 1     
    8    3   15 1     
    9    4    8 1     
   10    4    5 1     
   11    5    6 2     
   12    5   16 1     
   13    6    7 1     
   14    6   17 1     
   15    7    8 2     
   16    9   10 1     
   17    9   18 1     
   18    9   19 1     
   19   10   11 1     
   20   10   20 1     
   21   10   21 1     
   22   11   12 1     
   23   11   22 1     
   24   11   25 1     
   25   12   23 1     
   26   12   24 1     
   27    1   26 1     
   28    1   27 1     
   29    7   28 1     
   30    8   29 1     
@<TRIPOS>SUBSTRUCTURE
      1 S1             1
@<TRIPOS>SET
LONE_PAIRS      STATIC     ATOMS    <user>   **** ""
4 26 27 28 29
DONOR_HYDROGENS      STATIC     ATOMS    <user>   **** ""
3 13 22 25
ATOM$BLUE        STATIC     ATOMS    COLORGROUP SYSTEM
4 26 27 28 29
ATOM$RED        STATIC     ATOMS    COLORGROUP SYSTEM
3 13 22 25
