AV-unprocessed.smi:3019|AV-procd|sdf|11488|dock2
  -GOLD-   2272016423D 1   1.00000     0.00000
 Structure written by MMmdl.
 31 32  0  0  0  0  0  0  0  0  2 V2000
  152.2456  143.6888  158.4225 C   0  0  0  0  0  0  0  0  0  0  0  0
  152.0535  142.2174  158.8187 C   0  0  0  0  0  0  0  0  0  0  0  0
  153.2255  141.6588  159.6390 C   0  0  0  0  0  0  0  0  0  0  0  0
  151.7497  141.3582  157.6294 C   0  0  0  0  0  0  0  0  0  0  0  0
  152.4872  140.2850  157.3467 N   0  0  0  0  0  0  0  0  0  0  0  0
  151.8893  139.8174  156.2314 N   0  0  0  0  0  0  0  0  0  0  0  0
  150.8561  140.6043  155.9186 C   0  0  0  0  0  0  0  0  0  0  0  0
  149.9942  140.3797  154.7153 C   0  0  1  0  0  0  0  0  0  0  0  0
  149.8929  138.8899  154.3361 C   0  0  0  0  0  0  0  0  0  0  0  0
  148.9711  138.7217  153.1959 N   0  3  0  0  0  0  0  0  0  0  0  0
  147.6505  139.3200  153.4751 C   0  0  0  0  0  0  0  0  0  0  0  0
  147.8130  140.7924  153.8925 C   0  0  0  0  0  0  0  0  0  0  0  0
  148.6916  140.8818  155.0100 O   0  0  0  0  0  0  0  0  0  0  0  0
  150.7168  141.6154  156.7691 N   0  0  0  0  0  0  0  0  0  0  0  0
  152.2034  138.9915  155.7419 H   0  0  0  0  0  0  0  0  0  0  0  0
  151.3646  144.0746  157.9084 H   0  0  0  0  0  0  0  0  0  0  0  0
  153.1009  143.8132  157.7577 H   0  0  0  0  0  0  0  0  0  0  0  0
  152.4150  144.3125  159.3006 H   0  0  0  0  0  0  0  0  0  0  0  0
  151.1800  142.1873  159.4723 H   0  0  0  0  0  0  0  0  0  0  0  0
  153.0233  140.6383  159.9664 H   0  0  0  0  0  0  0  0  0  0  0  0
  153.4031  142.2617  160.5300 H   0  0  0  0  0  0  0  0  0  0  0  0
  154.1478  141.6465  159.0575 H   0  0  0  0  0  0  0  0  0  0  0  0
  150.4189  140.9495  153.8861 H   0  0  0  0  0  0  0  0  0  0  0  0
  150.8723  138.4914  154.0698 H   0  0  0  0  0  0  0  0  0  0  0  0
  149.5255  138.3052  155.1809 H   0  0  0  0  0  0  0  0  0  0  0  0
  149.3698  139.1794  152.3885 H   0  0  0  0  0  0  0  0  0  0  0  0
  147.0210  139.2397  152.5886 H   0  0  0  0  0  0  0  0  0  0  0  0
  147.1616  138.7549  154.2698 H   0  0  0  0  0  0  0  0  0  0  0  0
  148.1973  141.3913  153.0651 H   0  0  0  0  0  0  0  0  0  0  0  0
  146.8461  141.2142  154.1681 H   0  0  0  0  0  0  0  0  0  0  0  0
  148.8595  137.7380  152.9947 H   0  0  0  0  0  0  0  0  0  0  0  0
  1  2  1  0  0  0  0
  1 16  1  0  0  0  0
  1 17  1  0  0  0  0
  1 18  1  0  0  0  0
  2  3  1  0  0  0  0
  2  4  1  0  0  0  0
  2 19  1  0  0  0  0
  3 20  1  0  0  0  0
  3 21  1  0  0  0  0
  3 22  1  0  0  0  0
  4 14  1  0  0  0  0
  4  5  2  0  0  0  0
  5  6  1  0  0  0  0
  6 15  1  0  0  0  0
  6  7  1  0  0  0  0
  7  8  1  0  0  0  0
  7 14  2  0  0  0  0
  8 13  1  0  0  0  0
  8  9  1  0  0  0  0
  8 23  1  0  0  0  0
  9 10  1  0  0  0  0
  9 24  1  0  0  0  0
  9 25  1  0  0  0  0
 10 11  1  0  0  0  0
 10 26  1  0  0  0  0
 10 31  1  0  0  0  0
 11 12  1  0  0  0  0
 11 27  1  0  0  0  0
 11 28  1  0  0  0  0
 12 13  1  0  0  0  0
 12 29  1  0  0  0  0
 12 30  1  0  0  0  0
M  CHG  1  10   1
M  END
> <s_m_source_file>
AV-unprocessed.smi

> <i_m_source_file_index>
3019

> <i_lp_mmshare_version>
43012

> <i_f3d_flags>
0

> <s_epik_input>
W0NIM11bQ0hdKFtDSDNdKWMxbltuSF1jKG4xKVtDQEBIXTJbQ0gyXVtOSF1bQ0gyXVtDSDJdTzI=

> <s_epik_cmdline>
J2VwaWtfcHl0aG9uJywgJy1waCcsICc3LjAnLCAnLXRuJywgJzgnLCAnLW1hJywgJzIwMCcsICctbWV0YWxfYmluZGluZycsICctaW1hZScsICc8aW5maWxlLm1hZT4nLCAnLW9tYWUnLCAnPG91dGZpbGUubWFlPic=

> <r_epik_Ionization_Penalty>
0.162344

> <r_epik_Ionization_Penalty_Charging>
0.125708

> <r_epik_Ionization_Penalty_Neutral>
0.0366363

> <r_epik_State_Penalty>
1.18286

> <r_epik_Charging_Adjusted_Penalty>
1.30856

> <i_epik_Tot_Q>
1

> <i_epik_Tot_abs_Q>
1

> <r_epik_Metal_State_Penalty>
1.49333

> <b_epik_Metal_Only>
0

> <s_lp_Force_Field>
OPLS_2005

> <r_lp_Energy>
8.53266

> <b_lp_Chiralities_Consistent>
1

> <s_lp_Variant>
AV-unprocessed.smi:3019-4

> <Gold.Version>
5.8.1

> <Gold.Id.Protein>
6NUR|6NUR_protein|mol2

> <Gold.PLP.Fitness>
37.7044

> <Gold.PLP.PLP>
-27.3921

> <Gold.PLP.part.hbond>
-2.9988

> <Gold.PLP.part.metal>
0.0000

> <Gold.PLP.part.buried>
-1.6215

> <Gold.PLP.part.nonpolar>
-22.6963

> <Gold.PLP.part.repulsive>
0.4007

> <Gold.PLP.ligand.clash>
0.0000

> <Gold.PLP.ligand.torsion>
0.7801

> <Gold.PLP.Chemscore.Hbond>
3.9357

> <Gold.PLP.Chemscore.CHOScore>
0.0000

> <Gold.PLP.Chemscore.Metal>
0.0000

> <Gold.Chemscore.Hbonds>
donor molecule, donor type, donor heavy atom, donor atom, acceptor molecule, acceptor atom, score
      L1  H    10    26       P1  7957  0.94
      L1  H    10    31       P1  7948  2.00
      P1  H  7997  8008       L1     5  0.90

> <Gold.PLP.Chemscore.Internal.Correction>
0.0652

> <Gold.Rescore>
     Score         DG    S(hbond)    S(metal)    S(lipo)     H(rot)  DE(clash)    DE(int)     intcor
     17.40     -18.25       2.71        0.00      59.87       1.28       0.08       0.77       ----

> <Gold.Chemscore.Fitness>
17.4019

> <Gold.Chemscore.DG>
-18.2456

> <Gold.Chemscore.ZeroCoef>
-5.4800

> <Gold.Chemscore.Hbond>
2.7054

> <Gold.Chemscore.Metal>
0.0000

> <Gold.Chemscore.Lipo>
59.8704

> <Gold.Chemscore.Internal_Hbond>
0.0000

> <Gold.Chemscore.DEClash>
0.0770

> <Gold.Chemscore.DEInternal>
0.7667

> <Gold.Chemscore.Rot>
1.2795

> <Gold.Chemscore.Internal.Correction>
   9.000000E+99

> <Gold.Chemscore.Hbonds>
donor molecule, donor type, donor heavy atom, donor atom, acceptor molecule, acceptor atom, score
      L1  H    10    26       P1  7957  0.88
      L1  H    10    31       P1  7948  0.96
      P1  H  7997  8008       L1     5  0.25

> <Gold.Chemscore.Hbond.Weighted>
-9.0362

> <Gold.Chemscore.Metal.Weighted>
-0.0000

> <Gold.Chemscore.Lipo.Weighted>
-7.0048

> <Gold.Chemscore.Internal_Hbond.Weighted>
0.0000

> <Gold.Chemscore.DEClash.Weighted>
0.0770

> <Gold.Chemscore.DEInternal.Weighted>
0.7667

> <Gold.Chemscore.Rot.Weighted>
3.2754

> <Gold.Chemscore.Internal.Correction.Weighted>
   9.000000E+99

> <Gold.Protein.RotatedTorsions>
[ 6907 6896 6895 6894 ] final  113.29 input  -60.11 | X-H torsion
[ 7974 7965 7964 7962 ] final -123.94 input  175.53 | X-H torsion
[ 8008 7997 7996 7995 ] final  -72.53 input   59.86 | X-H torsion
[ 10167 10162 10161 10158 ] final  -80.07 input  -65.29 | X-H torsion
[ 10718 10713 10712 10709 ] final   25.64 input   66.30 | X-H torsion
[ 10763 10752 10751 10750 ] final   65.16 input  -60.55 | X-H torsion
[ 11005 11000 10999 10996 ] final  162.00 input  -57.11 | X-H torsion

> <Gold.Protein.ActiveResidues>
 VAL166  LYS551  ARG553  GLY616  TRP617  ASP618  TYR619  PRO620  LYS621  CYS622 
 ASP623  PHE694  ASN695  SER759  ASP760  ASP761  ALA762  ILE779  LEU786  VAL792 
 PHE793  MET794  SER795  GLU796  ALA797  LYS798  CYS799  TRP800  GLU811  SER814 

> <Gold.Protein.RotatedAtoms>
  152.4869  133.8396  159.7145 H   0  0  0  0  0  0  0  0  0  0  0  0  # atno 6907 bound_to 6896
  150.8963  133.7168  159.2897 H   0  0  0  0  0  0  0  0  0  0  0  0  # atno 6908 bound_to 6896
  151.4624  135.1043  159.9781 H   0  0  0  0  0  0  0  0  0  0  0  0  # atno 6909 bound_to 6896
  145.0134  140.7925  143.4425 H   0  0  0  0  0  0  0  0  0  0  0  0  # atno 7974 bound_to 7965
  154.5174  140.0795  156.8106 H   0  0  0  0  0  0  0  0  0  0  0  0  # atno 8008 bound_to 7997
  155.3651  140.3420  155.4223 H   0  0  0  0  0  0  0  0  0  0  0  0  # atno 8009 bound_to 7997
  156.1643  140.1598  156.8546 H   0  0  0  0  0  0  0  0  0  0  0  0  # atno 8010 bound_to 7997
  140.4537  143.2475  151.8452 H   0  0  0  0  0  0  0  0  0  0  0  0  # atno 10167 bound_to 10162
  157.1960  130.6868  149.6169 H   0  0  0  0  0  0  0  0  0  0  0  0  # atno 10718 bound_to 10713
  153.0085  135.5367  154.6624 H   0  0  0  0  0  0  0  0  0  0  0  0  # atno 10763 bound_to 10752
  154.5829  135.2851  155.0716 H   0  0  0  0  0  0  0  0  0  0  0  0  # atno 10764 bound_to 10752
  154.1838  135.6511  153.5094 H   0  0  0  0  0  0  0  0  0  0  0  0  # atno 10765 bound_to 10752
  140.2214  134.8193  157.3224 H   0  0  0  0  0  0  0  0  0  0  0  0  # atno 11005 bound_to 11000
  145.1992  139.2260  143.5201 LP  0  0  0  0  0  0  0  0  0  0  0  0  # atno 17320 bound_to 7965
  146.3474  140.1806  142.8589 LP  0  0  0  0  0  0  0  0  0  0  0  0  # atno 17321 bound_to 7965
  139.4799  144.5090  151.8958 LP  0  0  0  0  0  0  0  0  0  0  0  0  # atno 17342 bound_to 10162
  140.4177  144.2285  150.5887 LP  0  0  0  0  0  0  0  0  0  0  0  0  # atno 17343 bound_to 10162
  155.9706  130.4598  150.6051 LP  0  0  0  0  0  0  0  0  0  0  0  0  # atno 17370 bound_to 10713
  157.3814  131.0781  151.1474 LP  0  0  0  0  0  0  0  0  0  0  0  0  # atno 17371 bound_to 10713
  140.1846  134.4447  155.7751 LP  0  0  0  0  0  0  0  0  0  0  0  0  # atno 17394 bound_to 11000
  141.2223  133.6999  156.7925 LP  0  0  0  0  0  0  0  0  0  0  0  0  # atno 17395 bound_to 11000

$$$$
