AV-unprocessed.smi:3274|AV-procd|sdf|12527|dock8
  -GOLD-   2272018443D 1   1.00000     0.00000
 Structure written by MMmdl.
 43 44  0  0  0  0  0  0  0  0  2 V2000
  151.5669  145.5160  159.9948 C   0  0  0  0  0  0  0  0  0  0  0  0
  152.0157  144.1120  160.3646 C   0  0  0  0  0  0  0  0  0  0  0  0
  152.4604  143.8570  161.6100 C   0  0  0  0  0  0  0  0  0  0  0  0
  152.9953  142.5189  162.0666 C   0  0  0  0  0  0  0  0  0  0  0  0
  153.4362  141.6666  160.8740 C   0  0  0  0  0  0  0  0  0  0  0  0
  152.3471  141.6111  159.7903 C   0  0  2  0  0  0  0  0  0  0  0  0
  152.7986  140.6689  158.6566 C   0  0  0  0  0  0  0  0  0  0  0  0
  151.9580  143.0290  159.2683 C   0  0  1  0  0  0  0  0  0  0  0  0
  150.5827  142.9737  158.5537 C   0  0  0  0  0  0  0  0  0  0  0  0
  150.7034  142.8144  157.0870 N   0  3  0  0  0  0  0  0  0  0  0  0
  149.9774  141.6610  156.5056 C   0  0  1  0  0  0  0  0  0  0  0  0
  148.6397  141.4937  157.2387 C   0  0  0  0  0  0  0  0  0  0  0  0
  149.7407  141.8388  154.9884 C   0  0  0  0  0  0  0  0  0  0  0  0
  148.9538  140.7741  154.3936 N   0  0  0  0  0  0  0  0  0  0  0  0
  147.7937  140.8160  153.7361 C   0  0  0  0  0  0  0  0  0  0  0  0
  147.3665  139.6292  153.3295 N   0  0  0  0  0  0  0  0  0  0  0  0
  148.3718  138.8436  153.8185 C   0  0  0  0  0  0  0  0  0  0  0  0
  149.3462  139.4805  154.4681 N   0  0  0  0  0  0  0  0  0  0  0  0
  152.0659  145.8492  159.0846 H   0  0  0  0  0  0  0  0  0  0  0  0
  151.8076  146.2300  160.7834 H   0  0  0  0  0  0  0  0  0  0  0  0
  150.4884  145.5526  159.8428 H   0  0  0  0  0  0  0  0  0  0  0  0
  152.4615  144.6409  162.3537 H   0  0  0  0  0  0  0  0  0  0  0  0
  153.8402  142.6805  162.7365 H   0  0  0  0  0  0  0  0  0  0  0  0
  152.2215  142.0106  162.6425 H   0  0  0  0  0  0  0  0  0  0  0  0
  154.3525  142.0806  160.4500 H   0  0  0  0  0  0  0  0  0  0  0  0
  153.6833  140.6622  161.2204 H   0  0  0  0  0  0  0  0  0  0  0  0
  151.4644  141.1686  160.2552 H   0  0  0  0  0  0  0  0  0  0  0  0
  153.6693  141.0672  158.1346 H   0  0  0  0  0  0  0  0  0  0  0  0
  152.0182  140.5008  157.9162 H   0  0  0  0  0  0  0  0  0  0  0  0
  153.0737  139.6900  159.0508 H   0  0  0  0  0  0  0  0  0  0  0  0
  152.7125  143.3187  158.5352 H   0  0  0  0  0  0  0  0  0  0  0  0
  149.9902  142.1462  158.9322 H   0  0  0  0  0  0  0  0  0  0  0  0
  150.0154  143.8777  158.7790 H   0  0  0  0  0  0  0  0  0  0  0  0
  150.3184  143.6518  156.6737 H   0  0  0  0  0  0  0  0  0  0  0  0
  150.5522  140.7503  156.6819 H   0  0  0  0  0  0  0  0  0  0  0  0
  148.0917  140.6282  156.8646 H   0  0  0  0  0  0  0  0  0  0  0  0
  148.0030  142.3702  157.1115 H   0  0  0  0  0  0  0  0  0  0  0  0
  148.7931  141.3454  158.3081 H   0  0  0  0  0  0  0  0  0  0  0  0
  149.2167  142.7770  154.8004 H   0  0  0  0  0  0  0  0  0  0  0  0
  150.6926  141.9062  154.4597 H   0  0  0  0  0  0  0  0  0  0  0  0
  147.2548  141.7320  153.5427 H   0  0  0  0  0  0  0  0  0  0  0  0
  148.3864  137.7712  153.6906 H   0  0  0  0  0  0  0  0  0  0  0  0
  151.6786  142.7547  156.8310 H   0  0  0  0  0  0  0  0  0  0  0  0
  1  2  1  0  0  0  0
  1 19  1  0  0  0  0
  1 20  1  0  0  0  0
  1 21  1  0  0  0  0
  2  8  1  0  0  0  0
  2  3  2  0  0  0  0
  3  4  1  0  0  0  0
  3 22  1  0  0  0  0
  4  5  1  0  0  0  0
  4 23  1  0  0  0  0
  4 24  1  0  0  0  0
  5  6  1  0  0  0  0
  5 25  1  0  0  0  0
  5 26  1  0  0  0  0
  6  7  1  0  0  0  0
  6  8  1  0  0  0  0
  6 27  1  0  0  0  0
  7 28  1  0  0  0  0
  7 29  1  0  0  0  0
  7 30  1  0  0  0  0
  8  9  1  0  0  0  0
  8 31  1  0  0  0  0
  9 10  1  0  0  0  0
  9 32  1  0  0  0  0
  9 33  1  0  0  0  0
 10 11  1  0  0  0  0
 10 34  1  0  0  0  0
 10 43  1  0  0  0  0
 11 12  1  0  0  0  0
 11 13  1  0  0  0  0
 11 35  1  0  0  0  0
 12 36  1  0  0  0  0
 12 37  1  0  0  0  0
 12 38  1  0  0  0  0
 13 14  1  0  0  0  0
 13 39  1  0  0  0  0
 13 40  1  0  0  0  0
 14 18  1  0  0  0  0
 14 15  1  0  0  0  0
 15 16  2  0  0  0  0
 15 41  1  0  0  0  0
 16 17  1  0  0  0  0
 17 18  2  0  0  0  0
 17 42  1  0  0  0  0
M  CHG  1  10   1
M  END
> <s_m_source_file>
AV-unprocessed.smi

> <i_m_source_file_index>
3274

> <i_lp_mmshare_version>
43012

> <i_f3d_flags>
0

> <s_epik_input>
W0NIM11DMT1bQ0hdW0NIMl1bQ0gyXVtDQEBIXShbQ0gzXSlbQ0BIXTFbQ0gyXVtOSF1bQ0BIXShbQ0gzXSlbQ0gyXW4yW2NIXW5bY0hdbjI=

> <s_epik_cmdline>
J2VwaWtfcHl0aG9uJywgJy1waCcsICc3LjAnLCAnLXRuJywgJzgnLCAnLW1hJywgJzIwMCcsICctbWV0YWxfYmluZGluZycsICctaW1hZScsICc8aW5maWxlLm1hZT4nLCAnLW9tYWUnLCAnPG91dGZpbGUubWFlPic=

> <r_lp_tautomer_probability>
1

> <r_epik_Ionization_Penalty>
0.0017527

> <r_epik_Ionization_Penalty_Charging>
0.00175191

> <r_epik_Ionization_Penalty_Neutral>
7.94565e-07

> <r_epik_State_Penalty>
0.00118605

> <r_epik_Charging_Adjusted_Penalty>
0.00293796

> <i_epik_Tot_Q>
1

> <i_epik_Tot_abs_Q>
1

> <r_epik_Metal_State_Penalty>
-0

> <b_epik_Metal_Only>
0

> <s_lp_Force_Field>
OPLS_2005

> <r_lp_Energy>
18.4066

> <b_lp_Chiralities_Consistent>
1

> <s_lp_Variant>
AV-unprocessed.smi:3274-6

> <Gold.Version>
5.8.1

> <Gold.Id.Protein>
6NUR|6NUR_protein|mol2

> <Gold.PLP.Fitness>
49.8093

> <Gold.PLP.PLP>
-43.0101

> <Gold.PLP.part.hbond>
-1.0000

> <Gold.PLP.part.metal>
0.0000

> <Gold.PLP.part.buried>
-3.2727

> <Gold.PLP.part.nonpolar>
-37.9835

> <Gold.PLP.part.repulsive>
0.3502

> <Gold.PLP.ligand.clash>
0.0000

> <Gold.PLP.ligand.torsion>
1.1279

> <Gold.PLP.Chemscore.Hbond>
2.0000

> <Gold.PLP.Chemscore.CHOScore>
1.0000

> <Gold.PLP.Chemscore.Metal>
0.0000

> <Gold.Chemscore.Hbonds>
donor molecule, donor type, donor heavy atom, donor atom, acceptor molecule, acceptor atom, score
      L1  H    10    34       P1  8028  1.95
      L1  C    17    42       P1  7948  1.00

> <Gold.PLP.Chemscore.Internal.Correction>
0.0550

> <Gold.Rescore>
     Score         DG    S(hbond)    S(metal)    S(lipo)     H(rot)  DE(clash)    DE(int)     intcor
     14.79     -15.87       1.00        0.00     112.08       2.36       0.00       1.08       ----

> <Gold.Chemscore.Fitness>
14.7918

> <Gold.Chemscore.DG>
-15.8746

> <Gold.Chemscore.ZeroCoef>
-5.4800

> <Gold.Chemscore.Hbond>
0.9961

> <Gold.Chemscore.Metal>
0.0000

> <Gold.Chemscore.Lipo>
112.0771

> <Gold.Chemscore.Internal_Hbond>
0.0000

> <Gold.Chemscore.DEClash>
0.0030

> <Gold.Chemscore.DEInternal>
1.0798

> <Gold.Chemscore.Rot>
2.3615

> <Gold.Chemscore.Internal.Correction>
   9.000000E+99

> <Gold.Chemscore.Hbonds>
donor molecule, donor type, donor heavy atom, donor atom, acceptor molecule, acceptor atom, score
      L1  H    10    34       P1  8028  0.89

> <Gold.Chemscore.Hbond.Weighted>
-3.3270

> <Gold.Chemscore.Metal.Weighted>
-0.0000

> <Gold.Chemscore.Lipo.Weighted>
-13.1130

> <Gold.Chemscore.Internal_Hbond.Weighted>
0.0000

> <Gold.Chemscore.DEClash.Weighted>
0.0030

> <Gold.Chemscore.DEInternal.Weighted>
1.0798

> <Gold.Chemscore.Rot.Weighted>
6.0454

> <Gold.Chemscore.Internal.Correction.Weighted>
   9.000000E+99

> <Gold.Protein.RotatedTorsions>
[ 6907 6896 6895 6894 ] final   16.23 input  -60.11 | X-H torsion
[ 7974 7965 7964 7962 ] final  -63.61 input  175.53 | X-H torsion
[ 8008 7997 7996 7995 ] final  -84.81 input   59.86 | X-H torsion
[ 10167 10162 10161 10158 ] final -119.49 input  -65.29 | X-H torsion
[ 10718 10713 10712 10709 ] final   95.36 input   66.30 | X-H torsion
[ 10763 10752 10751 10750 ] final  142.71 input  -60.55 | X-H torsion
[ 11005 11000 10999 10996 ] final -172.64 input  -57.11 | X-H torsion

> <Gold.Protein.ActiveResidues>
 VAL166  LYS551  ARG553  GLY616  TRP617  ASP618  TYR619  PRO620  LYS621  CYS622 
 ASP623  PHE694  ASN695  SER759  ASP760  ASP761  ALA762  ILE779  LEU786  VAL792 
 PHE793  MET794  SER795  GLU796  ALA797  LYS798  CYS799  TRP800  GLU811  SER814 

> <Gold.Protein.RotatedAtoms>
  151.8306  135.0623  160.0436 H   0  0  0  0  0  0  0  0  0  0  0  0  # atno 6907 bound_to 6896
  152.2883  133.5532  159.5550 H   0  0  0  0  0  0  0  0  0  0  0  0  # atno 6908 bound_to 6896
  150.7219  134.0381  159.3798 H   0  0  0  0  0  0  0  0  0  0  0  0  # atno 6909 bound_to 6896
  145.7769  140.8783  143.0350 H   0  0  0  0  0  0  0  0  0  0  0  0  # atno 7974 bound_to 7965
  154.6338  140.0600  156.9764 H   0  0  0  0  0  0  0  0  0  0  0  0  # atno 8008 bound_to 7997
  155.1623  140.3283  155.4390 H   0  0  0  0  0  0  0  0  0  0  0  0  # atno 8009 bound_to 7997
  156.2497  140.1928  156.6730 H   0  0  0  0  0  0  0  0  0  0  0  0  # atno 8010 bound_to 7997
  140.0461  143.5106  152.2106 H   0  0  0  0  0  0  0  0  0  0  0  0  # atno 10167 bound_to 10162
  157.6939  131.0543  150.4327 H   0  0  0  0  0  0  0  0  0  0  0  0  # atno 10718 bound_to 10713
  153.9603  135.2961  155.3434 H   0  0  0  0  0  0  0  0  0  0  0  0  # atno 10763 bound_to 10752
  154.7378  135.5038  153.9075 H   0  0  0  0  0  0  0  0  0  0  0  0  # atno 10764 bound_to 10752
  153.0950  135.6718  153.9891 H   0  0  0  0  0  0  0  0  0  0  0  0  # atno 10765 bound_to 10752
  140.4947  134.5951  157.4967 H   0  0  0  0  0  0  0  0  0  0  0  0  # atno 11005 bound_to 11000
  144.6803  139.9934  143.7484 LP  0  0  0  0  0  0  0  0  0  0  0  0  # atno 17320 bound_to 7965
  146.0113  139.3172  143.0868 LP  0  0  0  0  0  0  0  0  0  0  0  0  # atno 17321 bound_to 7965
  139.5983  144.7574  151.3234 LP  0  0  0  0  0  0  0  0  0  0  0  0  # atno 17342 bound_to 10162
  140.7238  143.7061  150.7806 LP  0  0  0  0  0  0  0  0  0  0  0  0  # atno 17343 bound_to 10162
  156.4692  130.4049  149.6528 LP  0  0  0  0  0  0  0  0  0  0  0  0  # atno 17370 bound_to 10713
  156.3615  130.7484  151.2456 LP  0  0  0  0  0  0  0  0  0  0  0  0  # atno 17371 bound_to 10713
  139.9749  134.7232  155.9970 LP  0  0  0  0  0  0  0  0  0  0  0  0  # atno 17394 bound_to 11000
  141.1466  133.6555  156.3887 LP  0  0  0  0  0  0  0  0  0  0  0  0  # atno 17395 bound_to 11000

$$$$
