AV-unprocessed.smi:1781|AV-procd|sdf|7187|dock1
  -GOLD-   22720 8423D 1   1.00000     0.00000
 Structure written by MMmdl.
 38 39  0  0  0  0  0  0  0  0  1 V2000
  156.3593  141.1864  170.8866 C   0  0  0  0  0  0  0  0  0  0  0  0
  155.2887  140.5244  170.0164 C   0  0  0  0  0  0  0  0  0  0  0  0
  155.8693  140.1457  168.7798 O   0  0  0  0  0  0  0  0  0  0  0  0
  156.3526  141.2559  168.0385 C   0  0  0  0  0  0  0  0  0  0  0  0
  155.2732  141.7392  167.0676 C   0  0  0  0  0  0  0  0  0  0  0  0
  154.1882  142.1352  167.4953 O   0  0  0  0  0  0  0  0  0  0  0  0
  155.6098  141.6879  165.7649 N   0  0  0  0  0  0  0  0  0  0  0  0
  154.8276  142.0518  164.6364 C   0  0  0  0  0  0  0  0  0  0  0  0
  155.0864  141.3075  163.4639 C   0  0  0  0  0  0  0  0  0  0  0  0
  154.3606  141.5878  162.2901 C   0  0  0  0  0  0  0  0  0  0  0  0
  153.3922  142.6096  162.3119 C   0  0  0  0  0  0  0  0  0  0  0  0
  152.6560  142.8975  161.1536 N   0  0  0  0  0  0  0  0  0  0  0  0
  151.9137  144.1482  161.2467 C   0  0  0  0  0  0  0  0  0  0  0  0
  151.0333  144.3333  159.9979 C   0  0  0  0  0  0  0  0  0  0  0  0
  151.8413  144.2649  158.8259 O   0  0  0  0  0  0  0  0  0  0  0  0
  152.5056  143.0097  158.7066 C   0  0  0  0  0  0  0  0  0  0  0  0
  153.4272  142.7978  159.9205 C   0  0  0  0  0  0  0  0  0  0  0  0
  153.1980  143.3020  163.5277 C   0  0  0  0  0  0  0  0  0  0  0  0
  153.8921  143.0331  164.6533 N   0  0  0  0  0  0  0  0  0  0  0  0
  155.9461  141.4926  171.8478 H   0  0  0  0  0  0  0  0  0  0  0  0
  156.7667  142.0726  170.3995 H   0  0  0  0  0  0  0  0  0  0  0  0
  157.1843  140.5006  171.0804 H   0  0  0  0  0  0  0  0  0  0  0  0
  154.8855  139.6482  170.5261 H   0  0  0  0  0  0  0  0  0  0  0  0
  154.4641  141.2187  169.8486 H   0  0  0  0  0  0  0  0  0  0  0  0
  156.6252  142.0692  168.7131 H   0  0  0  0  0  0  0  0  0  0  0  0
  157.2415  140.9753  167.4714 H   0  0  0  0  0  0  0  0  0  0  0  0
  156.5359  141.3437  165.5583 H   0  0  0  0  0  0  0  0  0  0  0  0
  155.8331  140.5267  163.4585 H   0  0  0  0  0  0  0  0  0  0  0  0
  154.5478  141.0249  161.3870 H   0  0  0  0  0  0  0  0  0  0  0  0
  151.2936  144.1462  162.1440 H   0  0  0  0  0  0  0  0  0  0  0  0
  152.6097  144.9836  161.3355 H   0  0  0  0  0  0  0  0  0  0  0  0
  150.2514  143.5731  159.9576 H   0  0  0  0  0  0  0  0  0  0  0  0
  150.5347  145.3022  160.0299 H   0  0  0  0  0  0  0  0  0  0  0  0
  151.7733  142.2044  158.6286 H   0  0  0  0  0  0  0  0  0  0  0  0
  153.0887  143.0015  157.7857 H   0  0  0  0  0  0  0  0  0  0  0  0
  154.2192  143.5475  159.9129 H   0  0  0  0  0  0  0  0  0  0  0  0
  153.9053  141.8193  159.8616 H   0  0  0  0  0  0  0  0  0  0  0  0
  152.4620  144.0884  163.6069 H   0  0  0  0  0  0  0  0  0  0  0  0
  1  2  1  0  0  0  0
  1 20  1  0  0  0  0
  1 21  1  0  0  0  0
  1 22  1  0  0  0  0
  2  3  1  0  0  0  0
  2 23  1  0  0  0  0
  2 24  1  0  0  0  0
  3  4  1  0  0  0  0
  4  5  1  0  0  0  0
  4 25  1  0  0  0  0
  4 26  1  0  0  0  0
  5  6  2  0  0  0  0
  5  7  1  0  0  0  0
  7  8  1  0  0  0  0
  7 27  1  0  0  0  0
  8 19  1  0  0  0  0
  8  9  2  0  0  0  0
  9 10  1  0  0  0  0
  9 28  1  0  0  0  0
 10 11  2  0  0  0  0
 10 29  1  0  0  0  0
 11 12  1  0  0  0  0
 11 18  1  0  0  0  0
 12 17  1  0  0  0  0
 12 13  1  0  0  0  0
 13 14  1  0  0  0  0
 13 30  1  0  0  0  0
 13 31  1  0  0  0  0
 14 15  1  0  0  0  0
 14 32  1  0  0  0  0
 14 33  1  0  0  0  0
 15 16  1  0  0  0  0
 16 17  1  0  0  0  0
 16 34  1  0  0  0  0
 16 35  1  0  0  0  0
 17 36  1  0  0  0  0
 17 37  1  0  0  0  0
 18 19  2  0  0  0  0
 18 38  1  0  0  0  0
M  END
> <s_m_source_file>
AV-unprocessed.smi

> <i_m_source_file_index>
1781

> <i_lp_mmshare_version>
43012

> <i_f3d_flags>
0

> <s_epik_input>
W0NIM11bQ0gyXU9bQ0gyXUMoPU8pW05IXWMxW2NIXVtjSF1jKFtjSF1uMSlOMltDSDJdW0NIMl1PW0NIMl1bQ0gyXTI=

> <s_epik_cmdline>
J2VwaWtfcHl0aG9uJywgJy1waCcsICc3LjAnLCAnLXRuJywgJzgnLCAnLW1hJywgJzIwMCcsICctbWV0YWxfYmluZGluZycsICctaW1hZScsICc8aW5maWxlLm1hZT4nLCAnLW9tYWUnLCAnPG91dGZpbGUubWFlPic=

> <r_lp_tautomer_probability>
1

> <r_epik_Ionization_Penalty>
0.00358585

> <r_epik_Ionization_Penalty_Charging>
0

> <r_epik_Ionization_Penalty_Neutral>
0.00358585

> <r_epik_State_Penalty>
0.00535288

> <r_epik_Charging_Adjusted_Penalty>
0.00535288

> <i_epik_Tot_Q>
0

> <i_epik_Tot_abs_Q>
0

> <r_epik_Metal_State_Penalty>
-0

> <b_epik_Metal_Only>
0

> <s_lp_Force_Field>
OPLS_2005

> <r_lp_Energy>
27.8059

> <b_lp_Chiralities_Consistent>
1

> <s_lp_Variant>
AV-unprocessed.smi:1781-1

> <Gold.Version>
5.8.1

> <Gold.Id.Protein>
6NUR|6NUR_protein|mol2

> <Gold.PLP.Fitness>
38.0508

> <Gold.PLP.PLP>
-39.6229

> <Gold.PLP.part.hbond>
-1.8411

> <Gold.PLP.part.metal>
0.0000

> <Gold.PLP.part.buried>
-6.4855

> <Gold.PLP.part.nonpolar>
-29.7021

> <Gold.PLP.part.repulsive>
0.4684

> <Gold.PLP.ligand.clash>
0.0000

> <Gold.PLP.ligand.torsion>
0.8885

> <Gold.PLP.Chemscore.Hbond>
0.0000

> <Gold.PLP.Chemscore.CHOScore>
0.0000

> <Gold.PLP.Chemscore.Metal>
0.0000

> <Gold.PLP.Chemscore.Internal.Correction>
0.2050

> <Gold.Rescore>
     Score         DG    S(hbond)    S(metal)    S(lipo)     H(rot)  DE(clash)    DE(int)     intcor
     10.20     -13.22       0.00        0.00     100.37       1.56       1.41       1.61       ----

> <Gold.Chemscore.Fitness>
10.2044

> <Gold.Chemscore.DG>
-13.2201

> <Gold.Chemscore.ZeroCoef>
-5.4800

> <Gold.Chemscore.Hbond>
0.0000

> <Gold.Chemscore.Metal>
0.0000

> <Gold.Chemscore.Lipo>
100.3729

> <Gold.Chemscore.Internal_Hbond>
0.0000

> <Gold.Chemscore.DEClash>
1.4063

> <Gold.Chemscore.DEInternal>
1.6094

> <Gold.Chemscore.Rot>
1.5639

> <Gold.Chemscore.Internal.Correction>
   9.000000E+99

> <Gold.Chemscore.Hbond.Weighted>
-0.0000

> <Gold.Chemscore.Metal.Weighted>
-0.0000

> <Gold.Chemscore.Lipo.Weighted>
-11.7436

> <Gold.Chemscore.Internal_Hbond.Weighted>
0.0000

> <Gold.Chemscore.DEClash.Weighted>
1.4063

> <Gold.Chemscore.DEInternal.Weighted>
1.6094

> <Gold.Chemscore.Rot.Weighted>
4.0036

> <Gold.Chemscore.Internal.Correction.Weighted>
   9.000000E+99

> <Gold.Protein.RotatedTorsions>
[ 6907 6896 6895 6894 ] final   67.84 input  -60.11 | X-H torsion
[ 7974 7965 7964 7962 ] final   78.23 input  175.53 | X-H torsion
[ 8008 7997 7996 7995 ] final   67.72 input   59.86 | X-H torsion
[ 10167 10162 10161 10158 ] final  133.75 input  -65.29 | X-H torsion
[ 10718 10713 10712 10709 ] final   -9.54 input   66.30 | X-H torsion
[ 10763 10752 10751 10750 ] final   36.40 input  -60.55 | X-H torsion
[ 11005 11000 10999 10996 ] final  100.49 input  -57.11 | X-H torsion

> <Gold.Protein.ActiveResidues>
 VAL166  LYS551  ARG553  GLY616  TRP617  ASP618  TYR619  PRO620  LYS621  CYS622 
 ASP623  PHE694  ASN695  SER759  ASP760  ASP761  ALA762  ILE779  LEU786  VAL792 
 PHE793  MET794  SER795  GLU796  ALA797  LYS798  CYS799  TRP800  GLU811  SER814 

> <Gold.Protein.RotatedAtoms>
  152.4580  134.5249  159.9793 H   0  0  0  0  0  0  0  0  0  0  0  0  # atno 6907 bound_to 6896
  151.5305  133.3444  159.2925 H   0  0  0  0  0  0  0  0  0  0  0  0  # atno 6908 bound_to 6896
  150.8531  134.7892  159.7087 H   0  0  0  0  0  0  0  0  0  0  0  0  # atno 6909 bound_to 6896
  145.6799  139.2520  143.1820 H   0  0  0  0  0  0  0  0  0  0  0  0  # atno 7974 bound_to 7965
  155.6972  140.3495  155.4918 H   0  0  0  0  0  0  0  0  0  0  0  0  # atno 8008 bound_to 7997
  155.9473  140.1112  157.1029 H   0  0  0  0  0  0  0  0  0  0  0  0  # atno 8009 bound_to 7997
  154.4114  140.1201  156.4992 H   0  0  0  0  0  0  0  0  0  0  0  0  # atno 8010 bound_to 7997
  139.5284  144.6601  151.5041 H   0  0  0  0  0  0  0  0  0  0  0  0  # atno 10167 bound_to 10162
  156.6865  130.5052  149.5956 H   0  0  0  0  0  0  0  0  0  0  0  0  # atno 10718 bound_to 10713
  153.0078  135.6307  154.1980 H   0  0  0  0  0  0  0  0  0  0  0  0  # atno 10763 bound_to 10752
  154.1723  135.2817  155.3079 H   0  0  0  0  0  0  0  0  0  0  0  0  # atno 10764 bound_to 10752
  154.5899  135.5621  153.7328 H   0  0  0  0  0  0  0  0  0  0  0  0  # atno 10765 bound_to 10752
  139.8771  134.9142  156.4765 H   0  0  0  0  0  0  0  0  0  0  0  0  # atno 11005 bound_to 11000
  146.0973  140.7585  142.9566 LP  0  0  0  0  0  0  0  0  0  0  0  0  # atno 17320 bound_to 7965
  144.7029  140.3732  143.7141 LP  0  0  0  0  0  0  0  0  0  0  0  0  # atno 17321 bound_to 7965
  140.6444  143.8823  150.6723 LP  0  0  0  0  0  0  0  0  0  0  0  0  # atno 17342 bound_to 10162
  140.2168  143.3840  152.1674 LP  0  0  0  0  0  0  0  0  0  0  0  0  # atno 17343 bound_to 10162
  156.1829  130.6510  151.0972 LP  0  0  0  0  0  0  0  0  0  0  0  0  # atno 17370 bound_to 10713
  157.7024  131.0770  150.6776 LP  0  0  0  0  0  0  0  0  0  0  0  0  # atno 17371 bound_to 10713
  140.8758  133.7954  155.9413 LP  0  0  0  0  0  0  0  0  0  0  0  0  # atno 17394 bound_to 11000
  140.8905  134.2501  157.5097 LP  0  0  0  0  0  0  0  0  0  0  0  0  # atno 17395 bound_to 11000

$$$$
