AV-unprocessed.smi:3272|AV-procd|sdf|12518|dock1
  -GOLD-   2272018433D 1   1.00000     0.00000
 Structure written by MMmdl.
 35 36  0  0  0  0  0  0  0  0  1 V2000
  146.8899  139.3199  151.3524 C   0  0  0  0  0  0  0  0  0  0  0  0
  146.9419  139.0079  152.8527 C   0  0  0  0  0  0  0  0  0  0  0  0
  147.4563  140.1278  153.6161 N   0  0  0  0  0  0  0  0  0  0  0  0
  148.4868  140.1331  154.5351 C   0  0  0  0  0  0  0  0  0  0  0  0
  148.5902  141.4255  154.9659 C   0  0  0  0  0  0  0  0  0  0  0  0
  149.4906  141.9927  155.9027 N   0  0  0  0  0  0  0  0  0  0  0  0
  150.4898  141.3732  156.5520 C   0  0  0  0  0  0  0  0  0  0  0  0
  150.7667  140.1781  156.4489 O   0  0  0  0  0  0  0  0  0  0  0  0
  151.1540  142.2253  157.3458 N   0  0  0  0  0  0  0  0  0  0  0  0
  152.2825  141.8808  158.2047 C   0  0  0  0  0  0  0  0  0  0  0  0
  152.0663  142.3667  159.6496 C   0  0  2  0  0  0  0  0  0  0  0  0
  151.9586  143.8720  159.7804 C   0  0  0  0  0  0  0  0  0  0  0  0
  152.2184  144.0815  161.2694 C   0  0  0  0  0  0  0  0  0  0  0  0
  153.0861  143.0240  161.6684 O   0  0  0  0  0  0  0  0  0  0  0  0
  153.2174  142.0753  160.6141 C   0  0  0  0  0  0  0  0  0  0  0  0
  147.5904  142.1486  154.2651 C   0  0  0  0  0  0  0  0  0  0  0  0
  146.9073  141.3570  153.4525 N   0  0  0  0  0  0  0  0  0  0  0  0
  146.5139  138.4644  150.7912 H   0  0  0  0  0  0  0  0  0  0  0  0
  147.8807  139.5624  150.9669 H   0  0  0  0  0  0  0  0  0  0  0  0
  146.2334  140.1661  151.1473 H   0  0  0  0  0  0  0  0  0  0  0  0
  145.9476  138.7557  153.2237 H   0  0  0  0  0  0  0  0  0  0  0  0
  147.5776  138.1406  153.0348 H   0  0  0  0  0  0  0  0  0  0  0  0
  149.0380  139.2384  154.7847 H   0  0  0  0  0  0  0  0  0  0  0  0
  149.3606  142.9745  156.0980 H   0  0  0  0  0  0  0  0  0  0  0  0
  150.8519  143.1883  157.3628 H   0  0  0  0  0  0  0  0  0  0  0  0
  152.4787  140.8072  158.1842 H   0  0  0  0  0  0  0  0  0  0  0  0
  153.1703  142.3586  157.7897 H   0  0  0  0  0  0  0  0  0  0  0  0
  151.1535  141.9212  160.0493 H   0  0  0  0  0  0  0  0  0  0  0  0
  152.7369  144.3621  159.1934 H   0  0  0  0  0  0  0  0  0  0  0  0
  150.9926  144.2629  159.4598 H   0  0  0  0  0  0  0  0  0  0  0  0
  152.6561  145.0575  161.4811 H   0  0  0  0  0  0  0  0  0  0  0  0
  151.2889  143.9978  161.8339 H   0  0  0  0  0  0  0  0  0  0  0  0
  153.1972  141.0539  160.9950 H   0  0  0  0  0  0  0  0  0  0  0  0
  154.1801  142.2350  160.1266 H   0  0  0  0  0  0  0  0  0  0  0  0
  147.3425  143.1986  154.3169 H   0  0  0  0  0  0  0  0  0  0  0  0
  1  2  1  0  0  0  0
  1 18  1  0  0  0  0
  1 19  1  0  0  0  0
  1 20  1  0  0  0  0
  2  3  1  0  0  0  0
  2 21  1  0  0  0  0
  2 22  1  0  0  0  0
  3 17  1  0  0  0  0
  3  4  1  0  0  0  0
  4  5  2  0  0  0  0
  4 23  1  0  0  0  0
  5  6  1  0  0  0  0
  5 16  1  0  0  0  0
  6  7  1  0  0  0  0
  6 24  1  0  0  0  0
  7  8  2  0  0  0  0
  7  9  1  0  0  0  0
  9 10  1  0  0  0  0
  9 25  1  0  0  0  0
 10 11  1  0  0  0  0
 10 26  1  0  0  0  0
 10 27  1  0  0  0  0
 11 15  1  0  0  0  0
 11 12  1  0  0  0  0
 11 28  1  0  0  0  0
 12 13  1  0  0  0  0
 12 29  1  0  0  0  0
 12 30  1  0  0  0  0
 13 14  1  0  0  0  0
 13 31  1  0  0  0  0
 13 32  1  0  0  0  0
 14 15  1  0  0  0  0
 15 33  1  0  0  0  0
 15 34  1  0  0  0  0
 16 17  2  0  0  0  0
 16 35  1  0  0  0  0
M  END
> <s_m_source_file>
AV-unprocessed.smi

> <i_m_source_file_index>
3272

> <i_lp_mmshare_version>
43012

> <i_f3d_flags>
0

> <s_epik_input>
W0NIM11bQ0gyXW4xW2NIXWMoW2NIXW4xKVtOSF1DKD1PKVtOSF1bQ0gyXVtDQEBIXTJbQ0gyXVtDSDJdT1tDSDJdMg==

> <s_epik_cmdline>
J2VwaWtfcHl0aG9uJywgJy1waCcsICc3LjAnLCAnLXRuJywgJzgnLCAnLW1hJywgJzIwMCcsICctbWV0YWxfYmluZGluZycsICctaW1hZScsICc8aW5maWxlLm1hZT4nLCAnLW9tYWUnLCAnPG91dGZpbGUubWFlPic=

> <r_lp_tautomer_probability>
1

> <r_epik_Ionization_Penalty>
0.000182896

> <r_epik_Ionization_Penalty_Charging>
0

> <r_epik_Ionization_Penalty_Neutral>
0.000182896

> <r_epik_State_Penalty>
-0

> <r_epik_Charging_Adjusted_Penalty>
0

> <i_epik_Tot_Q>
0

> <i_epik_Tot_abs_Q>
0

> <r_epik_Metal_State_Penalty>
-0

> <b_epik_Metal_Only>
0

> <s_lp_Force_Field>
OPLS_2005

> <r_lp_Energy>
22.7112

> <b_lp_Chiralities_Consistent>
1

> <s_lp_Variant>
AV-unprocessed.smi:3272-1

> <Gold.Version>
5.8.1

> <Gold.Id.Protein>
6NUR|6NUR_protein|mol2

> <Gold.PLP.Fitness>
40.2898

> <Gold.PLP.PLP>
-35.0303

> <Gold.PLP.part.hbond>
-1.0000

> <Gold.PLP.part.metal>
0.0000

> <Gold.PLP.part.buried>
-2.1463

> <Gold.PLP.part.nonpolar>
-31.4120

> <Gold.PLP.part.repulsive>
0.4127

> <Gold.PLP.ligand.clash>
0.0000

> <Gold.PLP.ligand.torsion>
0.1003

> <Gold.PLP.Chemscore.Hbond>
1.0000

> <Gold.PLP.Chemscore.CHOScore>
0.8079

> <Gold.PLP.Chemscore.Metal>
0.0000

> <Gold.Chemscore.Hbonds>
donor molecule, donor type, donor heavy atom, donor atom, acceptor molecule, acceptor atom, score
      L1  H     6    24       P1  8028  1.00
      L1  C    16    35       P1  8028  0.79

> <Gold.PLP.Chemscore.Internal.Correction>
0.0362

> <Gold.Rescore>
     Score         DG    S(hbond)    S(metal)    S(lipo)     H(rot)  DE(clash)    DE(int)     intcor
     14.16     -15.89       0.98        0.00      91.77       1.41       0.51       1.22       ----

> <Gold.Chemscore.Fitness>
14.1645

> <Gold.Chemscore.DG>
-15.8880

> <Gold.Chemscore.ZeroCoef>
-5.4800

> <Gold.Chemscore.Hbond>
0.9796

> <Gold.Chemscore.Metal>
0.0000

> <Gold.Chemscore.Lipo>
91.7654

> <Gold.Chemscore.Internal_Hbond>
0.0000

> <Gold.Chemscore.DEClash>
0.5059

> <Gold.Chemscore.DEInternal>
1.2175

> <Gold.Chemscore.Rot>
1.4064

> <Gold.Chemscore.Internal.Correction>
   9.000000E+99

> <Gold.Chemscore.Hbonds>
donor molecule, donor type, donor heavy atom, donor atom, acceptor molecule, acceptor atom, score
      L1  H     6    24       P1  8028  0.98

> <Gold.Chemscore.Hbond.Weighted>
-3.2719

> <Gold.Chemscore.Metal.Weighted>
-0.0000

> <Gold.Chemscore.Lipo.Weighted>
-10.7366

> <Gold.Chemscore.Internal_Hbond.Weighted>
0.0000

> <Gold.Chemscore.DEClash.Weighted>
0.5059

> <Gold.Chemscore.DEInternal.Weighted>
1.2175

> <Gold.Chemscore.Rot.Weighted>
3.6004

> <Gold.Chemscore.Internal.Correction.Weighted>
   9.000000E+99

> <Gold.Protein.RotatedTorsions>
[ 6907 6896 6895 6894 ] final  109.96 input  -60.11 | X-H torsion
[ 7974 7965 7964 7962 ] final  110.83 input  175.53 | X-H torsion
[ 8008 7997 7996 7995 ] final   61.63 input   59.86 | X-H torsion
[ 10167 10162 10161 10158 ] final  -64.65 input  -65.29 | X-H torsion
[ 10718 10713 10712 10709 ] final   68.08 input   66.30 | X-H torsion
[ 10763 10752 10751 10750 ] final   27.30 input  -60.55 | X-H torsion
[ 11005 11000 10999 10996 ] final -152.40 input  -57.11 | X-H torsion

> <Gold.Protein.ActiveResidues>
 VAL166  LYS551  ARG553  GLY616  TRP617  ASP618  TYR619  PRO620  LYS621  CYS622 
 ASP623  PHE694  ASN695  SER759  ASP760  ASP761  ALA762  ILE779  LEU786  VAL792 
 PHE793  MET794  SER795  GLU796  ALA797  LYS798  CYS799  TRP800  GLU811  SER814 

> <Gold.Protein.RotatedAtoms>
  152.5043  133.8869  159.7374 H   0  0  0  0  0  0  0  0  0  0  0  0  # atno 6907 bound_to 6896
  150.9318  133.6750  159.2816 H   0  0  0  0  0  0  0  0  0  0  0  0  # atno 6908 bound_to 6896
  151.4091  135.0987  159.9632 H   0  0  0  0  0  0  0  0  0  0  0  0  # atno 6909 bound_to 6896
  145.2500  139.2743  143.4072 H   0  0  0  0  0  0  0  0  0  0  0  0  # atno 7974 bound_to 7965
  155.6014  140.3494  155.4595 H   0  0  0  0  0  0  0  0  0  0  0  0  # atno 8008 bound_to 7997
  156.0225  140.1257  157.0367 H   0  0  0  0  0  0  0  0  0  0  0  0  # atno 8009 bound_to 7997
  154.4320  140.1059  156.5970 H   0  0  0  0  0  0  0  0  0  0  0  0  # atno 8010 bound_to 7997
  140.5786  143.2324  151.6390 H   0  0  0  0  0  0  0  0  0  0  0  0  # atno 10167 bound_to 10162
  157.6268  130.9355  150.0329 H   0  0  0  0  0  0  0  0  0  0  0  0  # atno 10718 bound_to 10713
  153.0565  135.6540  154.0565 H   0  0  0  0  0  0  0  0  0  0  0  0  # atno 10763 bound_to 10752
  154.0242  135.2917  155.3378 H   0  0  0  0  0  0  0  0  0  0  0  0  # atno 10764 bound_to 10752
  154.6882  135.5293  153.8423 H   0  0  0  0  0  0  0  0  0  0  0  0  # atno 10765 bound_to 10752
  140.7193  134.3745  157.5186 H   0  0  0  0  0  0  0  0  0  0  0  0  # atno 11005 bound_to 11000
  146.3305  140.2888  142.8614 LP  0  0  0  0  0  0  0  0  0  0  0  0  # atno 17320 bound_to 7965
  144.9511  140.8179  143.5571 LP  0  0  0  0  0  0  0  0  0  0  0  0  # atno 17321 bound_to 7965
  139.5157  144.3371  152.0774 LP  0  0  0  0  0  0  0  0  0  0  0  0  # atno 17342 bound_to 10162
  140.2518  144.4161  150.6219 LP  0  0  0  0  0  0  0  0  0  0  0  0  # atno 17343 bound_to 10162
  156.1445  130.3642  149.9531 LP  0  0  0  0  0  0  0  0  0  0  0  0  # atno 17370 bound_to 10713
  156.7564  130.9134  151.3639 LP  0  0  0  0  0  0  0  0  0  0  0  0  # atno 17371 bound_to 10713
  139.8852  134.8944  156.2657 LP  0  0  0  0  0  0  0  0  0  0  0  0  # atno 17394 bound_to 11000
  141.0017  133.7147  156.0971 LP  0  0  0  0  0  0  0  0  0  0  0  0  # atno 17395 bound_to 11000

$$$$
