AV-unprocessed.smi:1|AV-procd|sdf|24|dock3
  -GOLD-   2262015133D 1   1.00000     0.00000
 Structure written by MMmdl.
 56 61  0  0  0  0  0  0  0  0  2 V2000
  150.3488  129.5530  154.7469 O   0  0  0  0  0  0  0  0  0  0  0  0
  149.3184  130.0828  154.3253 C   0  0  0  0  0  0  0  0  0  0  0  0
  148.8180  131.3036  154.6435 N   0  5  0  0  0  0  0  0  0  0  0  0
  149.5550  132.1622  155.3642 C   0  0  0  0  0  0  0  0  0  0  0  0
  150.4795  131.7025  156.2455 N   0  0  0  0  0  0  0  0  0  0  0  0
  151.2062  132.5601  156.9712 C   0  0  0  0  0  0  0  0  0  0  0  0
  151.1673  133.8958  156.9805 N   0  0  0  0  0  0  0  0  0  0  0  0
  150.2374  134.3718  156.1013 C   0  0  0  0  0  0  0  0  0  0  0  0
  149.3997  133.5723  155.2698 C   0  0  0  0  0  0  0  0  0  0  0  0
  148.5648  134.3686  154.4998 N   0  0  0  0  0  0  0  0  0  0  0  0
  148.9285  135.5895  154.8846 C   0  0  0  0  0  0  0  0  0  0  0  0
  149.8999  135.6856  155.8135 N   0  0  0  0  0  0  0  0  0  0  0  0
  150.4794  136.9400  156.3842 C   0  0  1  0  0  0  0  0  0  0  0  0
  150.0483  138.0225  155.6207 O   0  0  0  0  0  0  0  0  0  0  0  0
  149.9313  139.1774  156.4427 C   0  0  2  0  0  0  0  0  0  0  0  0
  151.2960  139.8788  156.5320 C   0  0  0  0  0  0  0  0  0  0  0  0
  151.2855  140.7753  157.6304 O   0  0  0  0  0  0  0  0  0  0  0  0
  152.3741  140.8961  158.4146 C   0  0  0  0  0  0  0  0  0  0  0  0
  153.3077  140.0910  158.4148 O   0  0  0  0  0  0  0  0  0  0  0  0
  152.3309  142.1075  159.2837 C   0  0  0  0  0  0  0  0  0  0  0  0
  151.8618  143.3291  158.7469 C   0  0  0  0  0  0  0  0  0  0  0  0
  151.8111  144.4901  159.5429 C   0  0  0  0  0  0  0  0  0  0  0  0
  152.2293  144.4436  160.8854 C   0  0  0  0  0  0  0  0  0  0  0  0
  152.6969  143.2341  161.4317 C   0  0  0  0  0  0  0  0  0  0  0  0
  152.7478  142.0720  160.6374 C   0  0  0  0  0  0  0  0  0  0  0  0
  149.4665  138.6161  157.7874 C   0  0  1  0  0  0  0  0  0  0  0  0
  148.0520  138.5526  157.8223 O   0  0  0  0  0  0  0  0  0  0  0  0
  147.6104  137.1025  158.5192 S   0  0  0  0  0  0  0  0  0  0  0  0
  147.4515  137.3231  159.9649 O   0  0  0  0  0  0  0  0  0  0  0  0
  146.5605  136.4841  157.6963 O   0  0  0  0  0  0  0  0  0  0  0  0
  149.0400  136.2738  158.2787 O   0  0  0  0  0  0  0  0  0  0  0  0
  150.0351  137.1875  157.8370 C   0  0  1  0  0  0  0  0  0  0  0  0
  148.4326  129.3041  153.3899 C   0  0  0  0  0  0  0  0  0  0  0  0
  148.8447  128.0319  152.9312 C   0  0  0  0  0  0  0  0  0  0  0  0
  148.0419  127.2984  152.0359 C   0  0  0  0  0  0  0  0  0  0  0  0
  146.8217  127.8334  151.5821 C   0  0  0  0  0  0  0  0  0  0  0  0
  146.4075  129.1050  152.0205 C   0  0  0  0  0  0  0  0  0  0  0  0
  147.2096  129.8391  152.9160 C   0  0  0  0  0  0  0  0  0  0  0  0
  151.9220  132.1107  157.6429 H   0  0  0  0  0  0  0  0  0  0  0  0
  148.4648  136.4685  154.4614 H   0  0  0  0  0  0  0  0  0  0  0  0
  151.5595  136.8195  156.2868 H   0  0  0  0  0  0  0  0  0  0  0  0
  149.1924  139.8664  156.0312 H   0  0  0  0  0  0  0  0  0  0  0  0
  152.0847  139.1427  156.6924 H   0  0  0  0  0  0  0  0  0  0  0  0
  151.5232  140.4038  155.6030 H   0  0  0  0  0  0  0  0  0  0  0  0
  151.5358  143.3894  157.7184 H   0  0  0  0  0  0  0  0  0  0  0  0
  151.4505  145.4171  159.1221 H   0  0  0  0  0  0  0  0  0  0  0  0
  152.1914  145.3342  161.4953 H   0  0  0  0  0  0  0  0  0  0  0  0
  153.0179  143.1970  162.4624 H   0  0  0  0  0  0  0  0  0  0  0  0
  153.1116  141.1601  161.0884 H   0  0  0  0  0  0  0  0  0  0  0  0
  149.8015  139.2217  158.6302 H   0  0  0  0  0  0  0  0  0  0  0  0
  150.9109  137.1297  158.4838 H   0  0  0  0  0  0  0  0  0  0  0  0
  149.7793  127.6075  153.2689 H   0  0  0  0  0  0  0  0  0  0  0  0
  148.3639  126.3249  151.6970 H   0  0  0  0  0  0  0  0  0  0  0  0
  146.2063  127.2713  150.8956 H   0  0  0  0  0  0  0  0  0  0  0  0
  145.4747  129.5202  151.6681 H   0  0  0  0  0  0  0  0  0  0  0  0
  146.8780  130.8177  153.2323 H   0  0  0  0  0  0  0  0  0  0  0  0
  1  2  2  0  0  0  0
  2  3  1  0  0  0  0
  2 33  1  0  0  0  0
  3  4  1  0  0  0  0
  4  9  1  0  0  0  0
  4  5  2  0  0  0  0
  5  6  1  0  0  0  0
  6  7  2  0  0  0  0
  6 39  1  0  0  0  0
  7  8  1  0  0  0  0
  8 12  1  0  0  0  0
  8  9  2  0  0  0  0
  9 10  1  0  0  0  0
 10 11  2  0  0  0  0
 11 12  1  0  0  0  0
 11 40  1  0  0  0  0
 12 13  1  0  0  0  0
 13 32  1  0  0  0  0
 13 14  1  0  0  0  0
 13 41  1  0  0  0  0
 14 15  1  0  0  0  0
 15 16  1  0  0  0  0
 15 26  1  0  0  0  0
 15 42  1  0  0  0  0
 16 17  1  0  0  0  0
 16 43  1  0  0  0  0
 16 44  1  0  0  0  0
 17 18  1  0  0  0  0
 18 19  2  0  0  0  0
 18 20  1  0  0  0  0
 20 25  1  0  0  0  0
 20 21  2  0  0  0  0
 21 22  1  0  0  0  0
 21 45  1  0  0  0  0
 22 23  2  0  0  0  0
 22 46  1  0  0  0  0
 23 24  1  0  0  0  0
 23 47  1  0  0  0  0
 24 25  2  0  0  0  0
 24 48  1  0  0  0  0
 25 49  1  0  0  0  0
 26 32  1  0  0  0  0
 26 27  1  0  0  0  0
 26 50  1  0  0  0  0
 27 28  1  0  0  0  0
 28 29  2  0  0  0  0
 28 30  2  0  0  0  0
 28 31  1  0  0  0  0
 31 32  1  0  0  0  0
 32 51  1  0  0  0  0
 33 38  1  0  0  0  0
 33 34  2  0  0  0  0
 34 35  1  0  0  0  0
 34 52  1  0  0  0  0
 35 36  2  0  0  0  0
 35 53  1  0  0  0  0
 36 37  1  0  0  0  0
 36 54  1  0  0  0  0
 37 38  2  0  0  0  0
 37 55  1  0  0  0  0
 38 56  1  0  0  0  0
M  CHG  1   3  -1
M  END
> <s_m_source_file>
AV-unprocessed.smi

> <i_m_source_file_index>
1

> <i_lp_mmshare_version>
43012

> <i_f3d_flags>
0

> <s_epik_input>
W2NIXTFbY0hdW2NIXVtjSF1bY0hdYzFDKD1PKVtOSF1jKG5bY0hdbjIpYyhjMjMpbltjSF1uM1tDQEBIXShbQ0BIXShbQ0BIXTQ1KU9TKE81KSg9Tyk9TylPW0NASF00W0NIMl1PQyg9TyljNltjSF1bY0hdW2NIXVtjSF1bY0hdNg==

> <s_epik_cmdline>
J2VwaWtfcHl0aG9uJywgJy1waCcsICc3LjAnLCAnLXRuJywgJzgnLCAnLW1hJywgJzIwMCcsICctbWV0YWxfYmluZGluZycsICctaW1hZScsICc8aW5maWxlLm1hZT4nLCAnLW9tYWUnLCAnPG91dGZpbGUubWFlPic=

> <r_lp_tautomer_probability>
1

> <r_epik_Ionization_Penalty>
4.39121

> <r_epik_Ionization_Penalty_Charging>
3.39398

> <r_epik_Ionization_Penalty_Neutral>
0.997232

> <r_epik_State_Penalty>
3.39839

> <r_epik_Charging_Adjusted_Penalty>
6.79237

> <i_epik_Tot_Q>
-1

> <i_epik_Tot_abs_Q>
1

> <r_epik_Metal_State_Penalty>
0.497663

> <b_epik_Metal_Only>
1

> <s_epik_Chemistry_Notes>
This compound has an ester and may undergo hydrolysis at high or low pH. This compound contains an acetal/aminal-like group ( X-CH(R)-Y where X, Y are N, S, or O) that may be acid/base labile, releasing an aldehyde.

> <s_lp_Force_Field>
OPLS_2005

> <r_lp_Energy>
44.7553

> <b_lp_Chiralities_Consistent>
1

> <s_lp_Variant>
AV-unprocessed.smi:1-24

> <Gold.Version>
5.8.1

> <Gold.Id.Protein>
6NUR|6NUR_protein|mol2

> <Gold.PLP.Fitness>
62.4266

> <Gold.PLP.PLP>
-58.2929

> <Gold.PLP.part.hbond>
-3.0000

> <Gold.PLP.part.metal>
0.0000

> <Gold.PLP.part.buried>
-6.4279

> <Gold.PLP.part.nonpolar>
-49.1806

> <Gold.PLP.part.repulsive>
0.4746

> <Gold.PLP.ligand.clash>
0.0000

> <Gold.PLP.ligand.torsion>
1.6772

> <Gold.PLP.Chemscore.Hbond>
1.9608

> <Gold.PLP.Chemscore.CHOScore>
0.3659

> <Gold.PLP.Chemscore.Metal>
0.0000

> <Gold.Chemscore.Hbonds>
donor molecule, donor type, donor heavy atom, donor atom, acceptor molecule, acceptor atom, score
      P1  H  6896  6907       L1     7  0.05
      P1  H  6934  6947       L1    29  0.93
      P1  H  7997  8010       L1    19  1.00
      L1  C    11    40       P1  7948  0.32

> <Gold.PLP.Chemscore.Internal.Correction>
0.5082

> <Gold.Rescore>
     Score         DG    S(hbond)    S(metal)    S(lipo)     H(rot)  DE(clash)    DE(int)     intcor
     18.55     -21.91       1.85        0.00     133.74       2.11       0.04       3.32       ----

> <Gold.Chemscore.Fitness>
18.5457

> <Gold.Chemscore.DG>
-21.9056

> <Gold.Chemscore.ZeroCoef>
-5.4800

> <Gold.Chemscore.Hbond>
1.8530

> <Gold.Chemscore.Metal>
0.0000

> <Gold.Chemscore.Lipo>
133.7388

> <Gold.Chemscore.Internal_Hbond>
0.0000

> <Gold.Chemscore.DEClash>
0.0383

> <Gold.Chemscore.DEInternal>
3.3216

> <Gold.Chemscore.Rot>
2.1136

> <Gold.Chemscore.Internal.Correction>
   9.000000E+99

> <Gold.Chemscore.Hbonds>
donor molecule, donor type, donor heavy atom, donor atom, acceptor molecule, acceptor atom, score
      P1  H  6934  6947       L1    29  0.89
      P1  H  7997  8010       L1    19  0.93

> <Gold.Chemscore.Hbond.Weighted>
-6.1889

> <Gold.Chemscore.Metal.Weighted>
-0.0000

> <Gold.Chemscore.Lipo.Weighted>
-15.6474

> <Gold.Chemscore.Internal_Hbond.Weighted>
0.0000

> <Gold.Chemscore.DEClash.Weighted>
0.0383

> <Gold.Chemscore.DEInternal.Weighted>
3.3216

> <Gold.Chemscore.Rot.Weighted>
5.4107

> <Gold.Chemscore.Internal.Correction.Weighted>
   9.000000E+99

> <Gold.Protein.RotatedTorsions>
[ 6907 6896 6895 6894 ] final -130.02 input  -60.11 | X-H torsion
[ 7974 7965 7964 7962 ] final   83.41 input  175.53 | X-H torsion
[ 8008 7997 7996 7995 ] final   34.67 input   59.86 | X-H torsion
[ 10167 10162 10161 10158 ] final -140.87 input  -65.29 | X-H torsion
[ 10718 10713 10712 10709 ] final -106.39 input   66.30 | X-H torsion
[ 10763 10752 10751 10750 ] final    4.08 input  -60.55 | X-H torsion
[ 11005 11000 10999 10996 ] final  -53.64 input  -57.11 | X-H torsion

> <Gold.Protein.ActiveResidues>
 VAL166  LYS551  ARG553  GLY616  TRP617  ASP618  TYR619  PRO620  LYS621  CYS622 
 ASP623  PHE694  ASN695  SER759  ASP760  ASP761  ALA762  ILE779  LEU786  VAL792 
 PHE793  MET794  SER795  GLU796  ALA797  LYS798  CYS799  TRP800  GLU811  SER814 

> <Gold.Protein.RotatedAtoms>
  150.9351  133.6721  159.2802 H   0  0  0  0  0  0  0  0  0  0  0  0  # atno 6907 bound_to 6896
  151.4130  135.0986  159.9600 H   0  0  0  0  0  0  0  0  0  0  0  0  # atno 6908 bound_to 6896
  152.5044  133.8820  159.7406 H   0  0  0  0  0  0  0  0  0  0  0  0  # atno 6909 bound_to 6896
  145.6122  139.2370  143.2185 H   0  0  0  0  0  0  0  0  0  0  0  0  # atno 7974 bound_to 7965
  155.1587  140.3281  155.4416 H   0  0  0  0  0  0  0  0  0  0  0  0  # atno 8008 bound_to 7997
  156.2550  140.1964  156.6646 H   0  0  0  0  0  0  0  0  0  0  0  0  # atno 8009 bound_to 7997
  154.6421  140.0569  156.9844 H   0  0  0  0  0  0  0  0  0  0  0  0  # atno 8010 bound_to 7997
  139.8240  143.7536  152.2666 H   0  0  0  0  0  0  0  0  0  0  0  0  # atno 10167 bound_to 10162
  156.0388  130.5611  150.7675 H   0  0  0  0  0  0  0  0  0  0  0  0  # atno 10718 bound_to 10713
  153.2756  135.6936  153.7437 H   0  0  0  0  0  0  0  0  0  0  0  0  # atno 10763 bound_to 10752
  153.6444  135.3388  155.3082 H   0  0  0  0  0  0  0  0  0  0  0  0  # atno 10764 bound_to 10752
  154.8478  135.4439  154.1792 H   0  0  0  0  0  0  0  0  0  0  0  0  # atno 10765 bound_to 10752
  141.0986  133.6621  156.4202 H   0  0  0  0  0  0  0  0  0  0  0  0  # atno 11005 bound_to 11000
  146.1495  140.6945  142.9329 LP  0  0  0  0  0  0  0  0  0  0  0  0  # atno 17320 bound_to 7965
  144.7265  140.4540  143.6969 LP  0  0  0  0  0  0  0  0  0  0  0  0  # atno 17321 bound_to 7965
  139.7723  144.7472  151.0207 LP  0  0  0  0  0  0  0  0  0  0  0  0  # atno 17342 bound_to 10162
  140.7811  143.4631  151.0249 LP  0  0  0  0  0  0  0  0  0  0  0  0  # atno 17343 bound_to 10162
  157.5178  131.0929  151.0118 LP  0  0  0  0  0  0  0  0  0  0  0  0  # atno 17370 bound_to 10713
  157.0456  130.5766  149.5362 LP  0  0  0  0  0  0  0  0  0  0  0  0  # atno 17371 bound_to 10713
  140.5078  134.6424  157.5273 LP  0  0  0  0  0  0  0  0  0  0  0  0  # atno 17394 bound_to 11000
  139.9830  134.7106  155.9824 LP  0  0  0  0  0  0  0  0  0  0  0  0  # atno 17395 bound_to 11000

$$$$
