AV-unprocessed.smi:1579|AV-procd|sdf|6354|dock4
  -GOLD-   22720 6573D 1   1.00000     0.00000
 Structure written by MMmdl.
 47 48  0  0  0  0  0  0  0  0  2 V2000
  151.0037  137.4878  154.2249 C   0  0  0  0  0  0  0  0  0  0  0  0
  150.3165  138.8005  154.4891 C   0  0  0  0  0  0  0  0  0  0  0  0
  149.1699  138.9803  153.9199 N   0  0  0  0  0  0  0  0  0  0  0  0
  148.4551  140.1494  154.0925 N   0  0  0  0  0  0  0  0  0  0  0  0
  147.1817  140.1780  153.3600 C   0  0  0  0  0  0  0  0  0  0  0  0
  146.9482  138.8981  152.5277 C   0  0  2  0  0  0  0  0  0  0  0  0
  146.1517  139.2584  151.4163 O   0  0  0  0  0  0  0  0  0  0  0  0
  146.2353  137.7772  153.3172 C   0  0  0  0  0  0  0  0  0  0  0  0
  146.3999  136.4341  152.7042 N   0  3  2  0  0  0  0  0  0  0  0  0
  145.5228  136.2535  151.5186 C   0  0  0  0  0  0  0  0  0  0  0  0
  145.8009  134.9133  150.8180 C   0  0  0  0  0  0  0  0  0  0  0  0
  145.6342  133.7316  151.7877 C   0  0  1  0  0  0  0  0  0  0  0  0
  145.9337  132.3894  151.1056 C   0  0  0  0  0  0  0  0  0  0  0  0
  146.5278  133.9599  153.0180 C   0  0  0  0  0  0  0  0  0  0  0  0
  146.2363  135.3193  153.6758 C   0  0  0  0  0  0  0  0  0  0  0  0
  148.8597  141.1984  154.8649 C   0  0  0  0  0  0  0  0  0  0  0  0
  148.1788  142.2139  155.0147 O   0  0  0  0  0  0  0  0  0  0  0  0
  150.1612  140.9905  155.5031 C   0  0  0  0  0  0  0  0  0  0  0  0
  150.6249  142.0697  156.3142 C   0  0  0  0  0  0  0  0  0  0  0  0
  151.0138  142.9492  156.9582 N   0  0  0  0  0  0  0  0  0  0  0  0
  150.8745  139.8487  155.3370 C   0  0  0  0  0  0  0  0  0  0  0  0
  152.2291  139.5839  155.9796 C   0  0  0  0  0  0  0  0  0  0  0  0
  151.9902  137.6473  153.7891 H   0  0  0  0  0  0  0  0  0  0  0  0
  150.4365  136.8626  153.5335 H   0  0  0  0  0  0  0  0  0  0  0  0
  151.1290  136.9243  155.1496 H   0  0  0  0  0  0  0  0  0  0  0  0
  146.3351  140.3544  154.0259 H   0  0  0  0  0  0  0  0  0  0  0  0
  147.1960  141.0431  152.6939 H   0  0  0  0  0  0  0  0  0  0  0  0
  147.9091  138.5547  152.1465 H   0  0  0  0  0  0  0  0  0  0  0  0
  145.3213  139.5862  151.7252 H   0  0  0  0  0  0  0  0  0  0  0  0
  146.5992  137.7290  154.3434 H   0  0  0  0  0  0  0  0  0  0  0  0
  145.1753  138.0271  153.3842 H   0  0  0  0  0  0  0  0  0  0  0  0
  144.4770  136.3095  151.8253 H   0  0  0  0  0  0  0  0  0  0  0  0
  145.6897  137.0656  150.8099 H   0  0  0  0  0  0  0  0  0  0  0  0
  145.1271  134.7976  149.9682 H   0  0  0  0  0  0  0  0  0  0  0  0
  146.8130  134.9192  150.4103 H   0  0  0  0  0  0  0  0  0  0  0  0
  144.5958  133.7088  152.1218 H   0  0  0  0  0  0  0  0  0  0  0  0
  146.9631  132.3453  150.7482 H   0  0  0  0  0  0  0  0  0  0  0  0
  145.2771  132.2296  150.2498 H   0  0  0  0  0  0  0  0  0  0  0  0
  145.7842  131.5572  151.7942 H   0  0  0  0  0  0  0  0  0  0  0  0
  146.3738  133.1612  153.7446 H   0  0  0  0  0  0  0  0  0  0  0  0
  147.5786  133.9138  152.7278 H   0  0  0  0  0  0  0  0  0  0  0  0
  146.9088  135.4489  154.5227 H   0  0  0  0  0  0  0  0  0  0  0  0
  145.2214  135.3302  154.0769 H   0  0  0  0  0  0  0  0  0  0  0  0
  152.5310  140.3862  156.6522 H   0  0  0  0  0  0  0  0  0  0  0  0
  153.0008  139.4884  155.2151 H   0  0  0  0  0  0  0  0  0  0  0  0
  152.2065  138.6632  156.5632 H   0  0  0  0  0  0  0  0  0  0  0  0
  147.3477  136.3921  152.3586 H   0  0  0  0  0  0  0  0  0  0  0  0
  1  2  1  0  0  0  0
  1 23  1  0  0  0  0
  1 24  1  0  0  0  0
  1 25  1  0  0  0  0
  2 21  1  0  0  0  0
  2  3  2  0  0  0  0
  3  4  1  0  0  0  0
  4  5  1  0  0  0  0
  4 16  1  0  0  0  0
  5  6  1  0  0  0  0
  5 26  1  0  0  0  0
  5 27  1  0  0  0  0
  6  7  1  0  0  0  0
  6  8  1  0  0  0  0
  6 28  1  0  0  0  0
  7 29  1  0  0  0  0
  8  9  1  0  0  0  0
  8 30  1  0  0  0  0
  8 31  1  0  0  0  0
  9 15  1  0  0  0  0
  9 10  1  0  0  0  0
  9 47  1  0  0  0  0
 10 11  1  0  0  0  0
 10 32  1  0  0  0  0
 10 33  1  0  0  0  0
 11 12  1  0  0  0  0
 11 34  1  0  0  0  0
 11 35  1  0  0  0  0
 12 13  1  0  0  0  0
 12 14  1  0  0  0  0
 12 36  1  0  0  0  0
 13 37  1  0  0  0  0
 13 38  1  0  0  0  0
 13 39  1  0  0  0  0
 14 15  1  0  0  0  0
 14 40  1  0  0  0  0
 14 41  1  0  0  0  0
 15 42  1  0  0  0  0
 15 43  1  0  0  0  0
 16 17  2  0  0  0  0
 16 18  1  0  0  0  0
 18 19  1  0  0  0  0
 18 21  2  0  0  0  0
 19 20  3  0  0  0  0
 21 22  1  0  0  0  0
 22 44  1  0  0  0  0
 22 45  1  0  0  0  0
 22 46  1  0  0  0  0
M  CHG  1   9   1
M  END
> <s_m_source_file>
AV-unprocessed.smi

> <i_m_source_file_index>
1579

> <i_lp_mmshare_version>
43012

> <i_f3d_flags>
0

> <s_epik_input>
TiNDYyhjMVtDSDNdKWMoPU8pbihuYzFbQ0gzXSlbQ0gyXVtDQEhdKFtPSF0pW0NIMl1OMltDSDJdW0NIMl1bQ0hdKFtDSDNdKVtDSDJdW0NIMl0y

> <s_epik_cmdline>
J2VwaWtfcHl0aG9uJywgJy1waCcsICc3LjAnLCAnLXRuJywgJzgnLCAnLW1hJywgJzIwMCcsICctbWV0YWxfYmluZGluZycsICctaW1hZScsICc8aW5maWxlLm1hZT4nLCAnLW9tYWUnLCAnPG91dGZpbGUubWFlPic=

> <r_epik_Ionization_Penalty>
0.00136816

> <r_epik_Ionization_Penalty_Charging>
0.00136813

> <r_epik_Ionization_Penalty_Neutral>
3.19884e-08

> <r_epik_State_Penalty>
0.000910892

> <r_epik_Charging_Adjusted_Penalty>
0.00227902

> <i_epik_Tot_Q>
1

> <i_epik_Tot_abs_Q>
1

> <r_epik_Metal_State_Penalty>
-0

> <b_epik_Metal_Only>
0

> <s_lp_Force_Field>
OPLS_2005

> <r_lp_Energy>
36.6054

> <b_lp_Chiralities_Consistent>
1

> <s_lp_Variant>
AV-unprocessed.smi:1579-1

> <Gold.Version>
5.8.1

> <Gold.Id.Protein>
6NUR|6NUR_protein|mol2

> <Gold.PLP.Fitness>
47.0248

> <Gold.PLP.PLP>
-39.4183

> <Gold.PLP.part.hbond>
-3.0000

> <Gold.PLP.part.metal>
0.0000

> <Gold.PLP.part.buried>
-4.4633

> <Gold.PLP.part.nonpolar>
-36.4376

> <Gold.PLP.part.repulsive>
4.0136

> <Gold.PLP.ligand.clash>
0.0000

> <Gold.PLP.ligand.torsion>
0.7227

> <Gold.PLP.Chemscore.Hbond>
3.0000

> <Gold.PLP.Chemscore.CHOScore>
0.0000

> <Gold.PLP.Chemscore.Metal>
0.0000

> <Gold.Chemscore.Hbonds>
donor molecule, donor type, donor heavy atom, donor atom, acceptor molecule, acceptor atom, score
      L1  H     7    29       P1 10175  1.00
      L1  H     9    47       P1  7948  2.00

> <Gold.PLP.Chemscore.Internal.Correction>
0.0519

> <Gold.Rescore>
     Score         DG    S(hbond)    S(metal)    S(lipo)     H(rot)  DE(clash)    DE(int)     intcor
     13.61     -15.67       1.82        0.00      82.72       2.17       1.32       0.74       ----

> <Gold.Chemscore.Fitness>
13.6084

> <Gold.Chemscore.DG>
-15.6687

> <Gold.Chemscore.ZeroCoef>
-5.4800

> <Gold.Chemscore.Hbond>
1.8173

> <Gold.Chemscore.Metal>
0.0000

> <Gold.Chemscore.Lipo>
82.7187

> <Gold.Chemscore.Internal_Hbond>
0.0000

> <Gold.Chemscore.DEClash>
1.3227

> <Gold.Chemscore.DEInternal>
0.7376

> <Gold.Chemscore.Rot>
2.1715

> <Gold.Chemscore.Internal.Correction>
   9.000000E+99

> <Gold.Chemscore.Hbonds>
donor molecule, donor type, donor heavy atom, donor atom, acceptor molecule, acceptor atom, score
      L1  H     7    29       P1 10175  0.72
      L1  H     9    47       P1  7948  1.00

> <Gold.Chemscore.Hbond.Weighted>
-6.0697

> <Gold.Chemscore.Metal.Weighted>
-0.0000

> <Gold.Chemscore.Lipo.Weighted>
-9.6781

> <Gold.Chemscore.Internal_Hbond.Weighted>
0.0000

> <Gold.Chemscore.DEClash.Weighted>
1.3227

> <Gold.Chemscore.DEInternal.Weighted>
0.7376

> <Gold.Chemscore.Rot.Weighted>
5.5591

> <Gold.Chemscore.Internal.Correction.Weighted>
   9.000000E+99

> <Gold.Protein.RotatedTorsions>
[ 6907 6896 6895 6894 ] final   71.23 input  -60.11 | X-H torsion
[ 7974 7965 7964 7962 ] final  144.39 input  175.53 | X-H torsion
[ 8008 7997 7996 7995 ] final -165.80 input   59.86 | X-H torsion
[ 10167 10162 10161 10158 ] final  -18.33 input  -65.29 | X-H torsion
[ 10718 10713 10712 10709 ] final   -3.63 input   66.30 | X-H torsion
[ 10763 10752 10751 10750 ] final  108.17 input  -60.55 | X-H torsion
[ 11005 11000 10999 10996 ] final   -3.75 input  -57.11 | X-H torsion

> <Gold.Protein.ActiveResidues>
 VAL166  LYS551  ARG553  GLY616  TRP617  ASP618  TYR619  PRO620  LYS621  CYS622 
 ASP623  PHE694  ASN695  SER759  ASP760  ASP761  ALA762  ILE779  LEU786  VAL792 
 PHE793  MET794  SER795  GLU796  ALA797  LYS798  CYS799  TRP800  GLU811  SER814 

> <Gold.Protein.RotatedAtoms>
  152.4798  134.4750  159.9647 H   0  0  0  0  0  0  0  0  0  0  0  0  # atno 6907 bound_to 6896
  151.4759  133.3552  159.2838 H   0  0  0  0  0  0  0  0  0  0  0  0  # atno 6908 bound_to 6896
  150.8862  134.8285  159.7321 H   0  0  0  0  0  0  0  0  0  0  0  0  # atno 6909 bound_to 6896
  144.8839  139.5657  143.5830 H   0  0  0  0  0  0  0  0  0  0  0  0  # atno 7974 bound_to 7965
  155.8549  140.0969  157.1651 H   0  0  0  0  0  0  0  0  0  0  0  0  # atno 8008 bound_to 7997
  154.3987  140.1376  156.3952 H   0  0  0  0  0  0  0  0  0  0  0  0  # atno 8009 bound_to 7997
  155.7920  140.3455  155.5357 H   0  0  0  0  0  0  0  0  0  0  0  0  # atno 8010 bound_to 7997
  140.7257  143.4927  150.9970 H   0  0  0  0  0  0  0  0  0  0  0  0  # atno 10167 bound_to 10162
  156.7732  130.5307  149.5763 H   0  0  0  0  0  0  0  0  0  0  0  0  # atno 10718 bound_to 10713
  153.4170  135.3820  155.2087 H   0  0  0  0  0  0  0  0  0  0  0  0  # atno 10763 bound_to 10752
  154.8742  135.3808  154.4431 H   0  0  0  0  0  0  0  0  0  0  0  0  # atno 10764 bound_to 10752
  153.4946  135.7088  153.5927 H   0  0  0  0  0  0  0  0  0  0  0  0  # atno 10765 bound_to 10752
  140.6728  133.9222  155.8505 H   0  0  0  0  0  0  0  0  0  0  0  0  # atno 11005 bound_to 11000
  146.3012  139.7433  142.9090 LP  0  0  0  0  0  0  0  0  0  0  0  0  # atno 17320 bound_to 7965
  145.3904  141.0371  143.3127 LP  0  0  0  0  0  0  0  0  0  0  0  0  # atno 17321 bound_to 7965
  139.8633  143.7287  152.3172 LP  0  0  0  0  0  0  0  0  0  0  0  0  # atno 17342 bound_to 10162
  139.7510  144.7534  151.0507 LP  0  0  0  0  0  0  0  0  0  0  0  0  # atno 17343 bound_to 10162
  156.1265  130.6147  151.0270 LP  0  0  0  0  0  0  0  0  0  0  0  0  # atno 17370 bound_to 10713
  157.6681  131.0867  150.7679 LP  0  0  0  0  0  0  0  0  0  0  0  0  # atno 17371 bound_to 10713
  141.0379  134.0663  157.3937 LP  0  0  0  0  0  0  0  0  0  0  0  0  # atno 17394 bound_to 11000
  139.8976  135.0151  156.7109 LP  0  0  0  0  0  0  0  0  0  0  0  0  # atno 17395 bound_to 11000

$$$$
