AV-unprocessed.smi:771|AV-procd|sdf|3681|dock5
  -GOLD-   22720 1 93D 1   1.00000     0.00000
 Structure written by MMmdl.
 41 42  0  0  0  0  0  0  0  0  3 V2000
  146.4370  138.6168  155.1670 O   0  0  0  0  0  0  0  0  0  0  0  0
  146.4655  138.6143  153.9354 C   0  0  0  0  0  0  0  0  0  0  0  0
  147.5439  139.3963  153.1719 C   0  0  0  0  0  0  0  0  0  0  0  0
  148.6893  139.7821  154.0133 N   0  0  0  0  0  0  0  0  0  0  0  0
  149.9101  139.1197  153.7754 C   0  0  0  0  0  0  0  0  0  0  0  0
  151.0249  139.3987  154.4788 C   0  0  0  0  0  0  0  0  0  0  0  0
  152.2717  138.7137  154.2166 N   0  3  0  0  0  0  0  0  0  0  0  0
  153.3077  139.1800  154.6797 O   0  0  0  0  0  0  0  0  0  0  0  0
  152.2576  137.6886  153.5416 O   0  5  0  0  0  0  0  0  0  0  0  0
  150.9351  140.4155  155.5090 C   0  0  0  0  0  0  0  0  0  0  0  0
  149.7716  141.0557  155.7380 C   0  0  0  0  0  0  0  0  0  0  0  0
  148.5613  140.7550  154.9667 C   0  0  0  0  0  0  0  0  0  0  0  0
  147.4975  141.3417  155.1656 O   0  0  0  0  0  0  0  0  0  0  0  0
  145.5652  137.9675  153.1790 N   0  0  0  0  0  0  0  0  0  0  0  0
  144.4483  137.1708  153.6814 C   0  0  0  0  0  0  0  0  0  0  0  0
  143.9129  136.1682  152.6307 C   0  0  2  0  0  0  0  0  0  0  0  0
  143.3310  134.8963  153.2933 C   0  0  0  0  0  0  0  0  0  0  0  0
  142.8364  133.8727  152.2601 C   0  0  0  0  0  0  0  0  0  0  0  0
  143.9525  133.4924  151.2794 C   0  0  0  0  0  0  0  0  0  0  0  0
  144.5138  134.7408  150.5868 C   0  0  0  0  0  0  0  0  0  0  0  0
  145.0128  135.7774  151.6108 C   0  0  1  0  0  0  0  0  0  0  0  0
  145.4470  136.9148  150.8922 O   0  0  0  0  0  0  0  0  0  0  0  0
  147.8830  138.8056  152.3186 H   0  0  0  0  0  0  0  0  0  0  0  0
  147.0761  140.2809  152.7372 H   0  0  0  0  0  0  0  0  0  0  0  0
  149.8746  138.3856  152.9834 H   0  0  0  0  0  0  0  0  0  0  0  0
  151.7996  140.6714  156.1040 H   0  0  0  0  0  0  0  0  0  0  0  0
  149.7274  141.8101  156.5099 H   0  0  0  0  0  0  0  0  0  0  0  0
  145.6638  138.0261  152.1759 H   0  0  0  0  0  0  0  0  0  0  0  0
  144.8163  136.6353  154.5567 H   0  0  0  0  0  0  0  0  0  0  0  0
  143.6392  137.8087  154.0410 H   0  0  0  0  0  0  0  0  0  0  0  0
  143.1039  136.6548  152.0830 H   0  0  0  0  0  0  0  0  0  0  0  0
  144.0894  134.4340  153.9265 H   0  0  0  0  0  0  0  0  0  0  0  0
  142.4998  135.1535  153.9496 H   0  0  0  0  0  0  0  0  0  0  0  0
  142.4695  132.9805  152.7684 H   0  0  0  0  0  0  0  0  0  0  0  0
  141.9897  134.2861  151.7106 H   0  0  0  0  0  0  0  0  0  0  0  0
  144.7517  132.9761  151.8129 H   0  0  0  0  0  0  0  0  0  0  0  0
  143.5721  132.7923  150.5351 H   0  0  0  0  0  0  0  0  0  0  0  0
  145.3266  134.4541  149.9181 H   0  0  0  0  0  0  0  0  0  0  0  0
  143.7382  135.1822  149.9591 H   0  0  0  0  0  0  0  0  0  0  0  0
  145.8721  135.3677  152.1438 H   0  0  0  0  0  0  0  0  0  0  0  0
  144.7319  137.5304  150.8426 H   0  0  0  0  0  0  0  0  0  0  0  0
  1  2  2  0  0  0  0
  2  3  1  0  0  0  0
  2 14  1  0  0  0  0
  3  4  1  0  0  0  0
  3 23  1  0  0  0  0
  3 24  1  0  0  0  0
  4 12  1  0  0  0  0
  4  5  1  0  0  0  0
  5  6  2  0  0  0  0
  5 25  1  0  0  0  0
  6  7  1  0  0  0  0
  6 10  1  0  0  0  0
  7  8  2  0  0  0  0
  7  9  1  0  0  0  0
 10 11  2  0  0  0  0
 10 26  1  0  0  0  0
 11 12  1  0  0  0  0
 11 27  1  0  0  0  0
 12 13  2  0  0  0  0
 14 15  1  0  0  0  0
 14 28  1  0  0  0  0
 15 16  1  0  0  0  0
 15 29  1  0  0  0  0
 15 30  1  0  0  0  0
 16 21  1  0  0  0  0
 16 17  1  0  0  0  0
 16 31  1  0  0  0  0
 17 18  1  0  0  0  0
 17 32  1  0  0  0  0
 17 33  1  0  0  0  0
 18 19  1  0  0  0  0
 18 34  1  0  0  0  0
 18 35  1  0  0  0  0
 19 20  1  0  0  0  0
 19 36  1  0  0  0  0
 19 37  1  0  0  0  0
 20 21  1  0  0  0  0
 20 38  1  0  0  0  0
 20 39  1  0  0  0  0
 21 22  1  0  0  0  0
 21 40  1  0  0  0  0
 22 41  1  0  0  0  0
M  CHG  1   7   1
M  CHG  1   9  -1
M  END
> <s_m_source_file>
AV-unprocessed.smi

> <i_m_source_file_index>
771

> <i_lp_mmshare_version>
43012

> <i_f3d_flags>
0

> <s_epik_input>
Tz1jMVtjSF1bY0hdYyhbTitdKD1PKVtPLV0pW2NIXW4xW0NIMl1DKD1PKVtOSF1bQ0gyXVtDQEBIXTJbQ0gyXVtDSDJdW0NIMl1bQ0gyXVtDQEhdMltPSF0=

> <s_epik_cmdline>
J2VwaWtfcHl0aG9uJywgJy1waCcsICc3LjAnLCAnLXRuJywgJzgnLCAnLW1hJywgJzIwMCcsICctbWV0YWxfYmluZGluZycsICctaW1hZScsICc8aW5maWxlLm1hZT4nLCAnLW9tYWUnLCAnPG91dGZpbGUubWFlPic=

> <r_lp_tautomer_probability>
1

> <r_epik_Ionization_Penalty>
3.77175e-07

> <r_epik_Ionization_Penalty_Charging>
7.70067e-11

> <r_epik_Ionization_Penalty_Neutral>
3.77098e-07

> <r_epik_State_Penalty>
-0

> <r_epik_Charging_Adjusted_Penalty>
7.70067e-11

> <i_epik_Tot_Q>
0

> <i_epik_Tot_abs_Q>
2

> <r_epik_Metal_State_Penalty>
-0

> <b_epik_Metal_Only>
0

> <s_lp_Force_Field>
OPLS_2005

> <r_lp_Energy>
23.4116

> <b_lp_Chiralities_Consistent>
1

> <s_lp_Variant>
AV-unprocessed.smi:771-1

> <Gold.Version>
5.8.1

> <Gold.Id.Protein>
6NUR|6NUR_protein|mol2

> <Gold.PLP.Fitness>
48.2608

> <Gold.PLP.PLP>
-38.2490

> <Gold.PLP.part.hbond>
-3.8953

> <Gold.PLP.part.metal>
0.0000

> <Gold.PLP.part.buried>
-0.2792

> <Gold.PLP.part.nonpolar>
-34.4905

> <Gold.PLP.part.repulsive>
0.3445

> <Gold.PLP.ligand.clash>
0.0088

> <Gold.PLP.ligand.torsion>
0.9701

> <Gold.PLP.Chemscore.Hbond>
2.8960

> <Gold.PLP.Chemscore.CHOScore>
1.0855

> <Gold.PLP.Chemscore.Metal>
0.0000

> <Gold.Chemscore.Hbonds>
donor molecule, donor type, donor heavy atom, donor atom, acceptor molecule, acceptor atom, score
      L1  H    22    41       P1 10171  0.88
      P1  H  7997  8008       L1     8  1.00
      P1  H 10752 10765       L1     9  0.46
      L1  C     5    25       P1  7948  0.95
      L1  C     5    25       P1  7957  0.32

> <Gold.PLP.Chemscore.Internal.Correction>
0.0163

> <Gold.Rescore>
     Score         DG    S(hbond)    S(metal)    S(lipo)     H(rot)  DE(clash)    DE(int)     intcor
     11.15     -16.56       2.89        0.00      66.45       2.48       0.01       5.40       ----

> <Gold.Chemscore.Fitness>
11.1522

> <Gold.Chemscore.DG>
-16.5636

> <Gold.Chemscore.ZeroCoef>
-5.4800

> <Gold.Chemscore.Hbond>
2.8879

> <Gold.Chemscore.Metal>
0.0000

> <Gold.Chemscore.Lipo>
66.4537

> <Gold.Chemscore.Internal_Hbond>
0.0000

> <Gold.Chemscore.DEClash>
0.0081

> <Gold.Chemscore.DEInternal>
5.4034

> <Gold.Chemscore.Rot>
2.4753

> <Gold.Chemscore.Internal.Correction>
   9.000000E+99

> <Gold.Chemscore.Hbonds>
donor molecule, donor type, donor heavy atom, donor atom, acceptor molecule, acceptor atom, score
      L1  H    22    41       P1 10171  0.86
      P1  H  7997  8008       L1     8  0.99
      P1  H 10752 10765       L1     9  0.45

> <Gold.Chemscore.Hbond.Weighted>
-9.6455

> <Gold.Chemscore.Metal.Weighted>
-0.0000

> <Gold.Chemscore.Lipo.Weighted>
-7.7751

> <Gold.Chemscore.Internal_Hbond.Weighted>
0.0000

> <Gold.Chemscore.DEClash.Weighted>
0.0081

> <Gold.Chemscore.DEInternal.Weighted>
5.4034

> <Gold.Chemscore.Rot.Weighted>
6.3369

> <Gold.Chemscore.Internal.Correction.Weighted>
   9.000000E+99

> <Gold.Protein.RotatedTorsions>
[ 6907 6896 6895 6894 ] final -116.76 input  -60.11 | X-H torsion
[ 7974 7965 7964 7962 ] final   49.38 input  175.53 | X-H torsion
[ 8008 7997 7996 7995 ] final   -7.39 input   59.86 | X-H torsion
[ 10167 10162 10161 10158 ] final -100.64 input  -65.29 | X-H torsion
[ 10718 10713 10712 10709 ] final  164.70 input   66.30 | X-H torsion
[ 10763 10752 10751 10750 ] final  155.03 input  -60.55 | X-H torsion
[ 11005 11000 10999 10996 ] final   23.17 input  -57.11 | X-H torsion

> <Gold.Protein.ActiveResidues>
 VAL166  LYS551  ARG553  GLY616  TRP617  ASP618  TYR619  PRO620  LYS621  CYS622 
 ASP623  PHE694  ASN695  SER759  ASP760  ASP761  ALA762  ILE779  LEU786  VAL792 
 PHE793  MET794  SER795  GLU796  ALA797  LYS798  CYS799  TRP800  GLU811  SER814 

> <Gold.Protein.RotatedAtoms>
  150.8082  133.8471  159.3195 H   0  0  0  0  0  0  0  0  0  0  0  0  # atno 6907 bound_to 6896
  151.6264  135.1025  160.0122 H   0  0  0  0  0  0  0  0  0  0  0  0  # atno 6908 bound_to 6896
  152.4173  133.7019  159.6485 H   0  0  0  0  0  0  0  0  0  0  0  0  # atno 6909 bound_to 6896
  146.0114  139.4547  142.9954 H   0  0  0  0  0  0  0  0  0  0  0  0  # atno 7974 bound_to 7965
  154.5843  140.2408  155.8010 H   0  0  0  0  0  0  0  0  0  0  0  0  # atno 8008 bound_to 7997
  156.2202  140.3000  155.9889 H   0  0  0  0  0  0  0  0  0  0  0  0  # atno 8009 bound_to 7997
  155.2486  140.0410  157.2974 H   0  0  0  0  0  0  0  0  0  0  0  0  # atno 8010 bound_to 7997
  140.2497  143.3481  152.0726 H   0  0  0  0  0  0  0  0  0  0  0  0  # atno 10167 bound_to 10162
  157.0906  131.0416  151.2539 H   0  0  0  0  0  0  0  0  0  0  0  0  # atno 10718 bound_to 10713
  154.1618  135.2809  155.3106 H   0  0  0  0  0  0  0  0  0  0  0  0  # atno 10763 bound_to 10752
  154.6141  135.5489  153.7508 H   0  0  0  0  0  0  0  0  0  0  0  0  # atno 10764 bound_to 10752
  153.0190  135.6423  154.1759 H   0  0  0  0  0  0  0  0  0  0  0  0  # atno 10765 bound_to 10752
  140.3725  134.2007  155.7666 H   0  0  0  0  0  0  0  0  0  0  0  0  # atno 11005 bound_to 11000
  145.7336  141.0033  143.1338 LP  0  0  0  0  0  0  0  0  0  0  0  0  # atno 17320 bound_to 7965
  144.6954  139.9014  143.7459 LP  0  0  0  0  0  0  0  0  0  0  0  0  # atno 17321 bound_to 7965
  139.5050  144.6786  151.6065 LP  0  0  0  0  0  0  0  0  0  0  0  0  # atno 17342 bound_to 10162
  140.6050  143.9541  150.6412 LP  0  0  0  0  0  0  0  0  0  0  0  0  # atno 17343 bound_to 10162
  157.4724  130.7717  149.7336 LP  0  0  0  0  0  0  0  0  0  0  0  0  # atno 17370 bound_to 10713
  155.9899  130.3948  150.3052 LP  0  0  0  0  0  0  0  0  0  0  0  0  # atno 17371 bound_to 10713
  141.1950  133.8116  157.0734 LP  0  0  0  0  0  0  0  0  0  0  0  0  # atno 17394 bound_to 11000
  140.0541  134.9790  157.1188 LP  0  0  0  0  0  0  0  0  0  0  0  0  # atno 17395 bound_to 11000

$$$$
