AV-unprocessed.smi:60|AV-procd|sdf|593|dock4
  -GOLD-   2262016483D 1   1.00000     0.00000
 Structure written by MMmdl.
 36 37  0  0  0  0  0  0  0  0  1 V2000
  153.5391  139.3805  158.0675 O   0  0  0  0  0  0  0  0  0  0  0  0
  152.5435  139.8354  157.5066 C   0  0  0  0  0  0  0  0  0  0  0  0
  152.2429  139.4312  156.2023 N   0  0  0  0  0  0  0  0  0  0  0  0
  151.1482  139.8583  155.4520 C   0  0  0  0  0  0  0  0  0  0  0  0
  150.9830  139.4423  154.3051 O   0  0  0  0  0  0  0  0  0  0  0  0
  150.2694  140.7674  156.0767 N   0  0  0  0  0  0  0  0  0  0  0  0
  149.1455  141.2524  155.2956 C   0  0  0  0  0  0  0  0  0  0  0  0
  148.3516  140.1726  154.9234 O   0  0  0  0  0  0  0  0  0  0  0  0
  147.1308  140.5621  154.3137 C   0  0  0  0  0  0  0  0  0  0  0  0
  147.1125  140.0637  152.8638 C   0  0  0  0  0  0  0  0  0  0  0  0
  147.9386  138.9269  152.7306 O   0  0  0  0  0  0  0  0  0  0  0  0
  150.5366  141.2124  157.3605 C   0  0  0  0  0  0  0  0  0  0  0  0
  151.6019  140.7966  158.0920 C   0  0  0  0  0  0  0  0  0  0  0  0
  151.8574  141.3047  159.5033 C   0  0  0  0  0  0  0  0  0  0  0  0
  151.9445  142.8181  159.5894 C   0  0  0  0  0  0  0  0  0  0  0  0
  151.9246  143.4590  160.8465 C   0  0  0  0  0  0  0  0  0  0  0  0
  152.0115  144.8624  160.9278 C   0  0  0  0  0  0  0  0  0  0  0  0
  152.1162  145.6311  159.7527 C   0  0  0  0  0  0  0  0  0  0  0  0
  152.1340  144.9954  158.4960 C   0  0  0  0  0  0  0  0  0  0  0  0
  152.0489  143.5917  158.4141 C   0  0  0  0  0  0  0  0  0  0  0  0
  152.8739  138.7749  155.7658 H   0  0  0  0  0  0  0  0  0  0  0  0
  148.5853  141.9791  155.8892 H   0  0  0  0  0  0  0  0  0  0  0  0
  149.5238  141.7598  154.4062 H   0  0  0  0  0  0  0  0  0  0  0  0
  146.3070  140.0994  154.8597 H   0  0  0  0  0  0  0  0  0  0  0  0
  146.9834  141.6426  154.3600 H   0  0  0  0  0  0  0  0  0  0  0  0
  146.0978  139.8416  152.5319 H   0  0  0  0  0  0  0  0  0  0  0  0
  147.5071  140.8363  152.2036 H   0  0  0  0  0  0  0  0  0  0  0  0
  148.7635  139.1970  152.3567 H   0  0  0  0  0  0  0  0  0  0  0  0
  149.8568  141.9247  157.8061 H   0  0  0  0  0  0  0  0  0  0  0  0
  151.0884  140.9287  160.1798 H   0  0  0  0  0  0  0  0  0  0  0  0
  152.7978  140.8909  159.8694 H   0  0  0  0  0  0  0  0  0  0  0  0
  151.8453  142.8759  161.7523 H   0  0  0  0  0  0  0  0  0  0  0  0
  151.9986  145.3492  161.8918 H   0  0  0  0  0  0  0  0  0  0  0  0
  152.1829  146.7072  159.8150 H   0  0  0  0  0  0  0  0  0  0  0  0
  152.2149  145.5846  157.5943 H   0  0  0  0  0  0  0  0  0  0  0  0
  152.0674  143.1119  157.4464 H   0  0  0  0  0  0  0  0  0  0  0  0
  1  2  2  0  0  0  0
  2 13  1  0  0  0  0
  2  3  1  0  0  0  0
  3 21  1  0  0  0  0
  3  4  1  0  0  0  0
  4  5  2  0  0  0  0
  4  6  1  0  0  0  0
  6  7  1  0  0  0  0
  6 12  1  0  0  0  0
  7  8  1  0  0  0  0
  7 22  1  0  0  0  0
  7 23  1  0  0  0  0
  8  9  1  0  0  0  0
  9 10  1  0  0  0  0
  9 24  1  0  0  0  0
  9 25  1  0  0  0  0
 10 11  1  0  0  0  0
 10 26  1  0  0  0  0
 10 27  1  0  0  0  0
 11 28  1  0  0  0  0
 12 13  2  0  0  0  0
 12 29  1  0  0  0  0
 13 14  1  0  0  0  0
 14 15  1  0  0  0  0
 14 30  1  0  0  0  0
 14 31  1  0  0  0  0
 15 20  1  0  0  0  0
 15 16  2  0  0  0  0
 16 17  1  0  0  0  0
 16 32  1  0  0  0  0
 17 18  2  0  0  0  0
 17 33  1  0  0  0  0
 18 19  1  0  0  0  0
 18 34  1  0  0  0  0
 19 20  2  0  0  0  0
 19 35  1  0  0  0  0
 20 36  1  0  0  0  0
M  END
> <s_m_source_file>
AV-unprocessed.smi

> <i_m_source_file_index>
60

> <i_lp_mmshare_version>
43012

> <i_f3d_flags>
0

> <s_epik_input>
W09IXVtDSDJdW0NIMl1PW0NIMl1uKGMoPU8pW25IXWMxPU8pW2NIXWMxW0NIMl1jMltjSF1bY0hdW2NIXVtjSF1bY0hdMg==

> <s_epik_cmdline>
J2VwaWtfcHl0aG9uJywgJy1waCcsICc3LjAnLCAnLXRuJywgJzgnLCAnLW1hJywgJzIwMCcsICctbWV0YWxfYmluZGluZycsICctaW1hZScsICc8aW5maWxlLm1hZT4nLCAnLW9tYWUnLCAnPG91dGZpbGUubWFlPic=

> <r_lp_tautomer_probability>
0.999537

> <r_epik_Ionization_Penalty>
0.00298861

> <r_epik_Ionization_Penalty_Charging>
0.00298856

> <r_epik_Ionization_Penalty_Neutral>
5.3532e-08

> <r_epik_State_Penalty>
0.00209779

> <r_epik_Charging_Adjusted_Penalty>
0.00508635

> <i_epik_Tot_Q>
0

> <i_epik_Tot_abs_Q>
0

> <r_epik_Metal_State_Penalty>
1.06718

> <b_epik_Metal_Only>
0

> <s_epik_Chemistry_Notes>
This compound contains an acetal/aminal-like group ( X-CH(R)-Y where X, Y are N, S, or O) that may be acid/base labile, releasing an aldehyde.

> <s_lp_Force_Field>
OPLS_2005

> <r_lp_Energy>
6.34754

> <b_lp_Chiralities_Consistent>
1

> <s_lp_Variant>
AV-unprocessed.smi:60-1

> <Gold.Version>
5.8.1

> <Gold.Id.Protein>
6NUR|6NUR_protein|mol2

> <Gold.PLP.Fitness>
49.1859

> <Gold.PLP.PLP>
-42.1300

> <Gold.PLP.part.hbond>
-4.0000

> <Gold.PLP.part.metal>
0.0000

> <Gold.PLP.part.buried>
-1.8486

> <Gold.PLP.part.nonpolar>
-36.0941

> <Gold.PLP.part.repulsive>
0.3727

> <Gold.PLP.ligand.clash>
0.0000

> <Gold.PLP.ligand.torsion>
0.7660

> <Gold.PLP.Chemscore.Hbond>
2.8420

> <Gold.PLP.Chemscore.CHOScore>
0.0000

> <Gold.PLP.Chemscore.Metal>
0.0000

> <Gold.Chemscore.Hbonds>
donor molecule, donor type, donor heavy atom, donor atom, acceptor molecule, acceptor atom, score
      L1  H    11    28       P1  7957  0.98
      P1  H  7989  7998       L1     5  0.85
      P1  H  7997  8008       L1     1  1.00

> <Gold.PLP.Chemscore.Internal.Correction>
0.0620

> <Gold.Rescore>
     Score         DG    S(hbond)    S(metal)    S(lipo)     H(rot)  DE(clash)    DE(int)     intcor
     11.87     -15.23       1.82        0.00     103.13       3.28       0.18       3.18       ----

> <Gold.Chemscore.Fitness>
11.8722

> <Gold.Chemscore.DG>
-15.2279

> <Gold.Chemscore.ZeroCoef>
-5.4800

> <Gold.Chemscore.Hbond>
1.8224

> <Gold.Chemscore.Metal>
0.0000

> <Gold.Chemscore.Lipo>
103.1298

> <Gold.Chemscore.Internal_Hbond>
0.0000

> <Gold.Chemscore.DEClash>
0.1771

> <Gold.Chemscore.DEInternal>
3.1786

> <Gold.Chemscore.Rot>
3.2832

> <Gold.Chemscore.Internal.Correction>
   9.000000E+99

> <Gold.Chemscore.Hbonds>
donor molecule, donor type, donor heavy atom, donor atom, acceptor molecule, acceptor atom, score
      L1  H    11    28       P1  7957  0.93
      P1  H  7989  7998       L1     5  0.15
      P1  H  7997  8008       L1     1  0.39

> <Gold.Chemscore.Hbond.Weighted>
-6.0867

> <Gold.Chemscore.Metal.Weighted>
-0.0000

> <Gold.Chemscore.Lipo.Weighted>
-12.0662

> <Gold.Chemscore.Internal_Hbond.Weighted>
0.0000

> <Gold.Chemscore.DEClash.Weighted>
0.1771

> <Gold.Chemscore.DEInternal.Weighted>
3.1786

> <Gold.Chemscore.Rot.Weighted>
8.4050

> <Gold.Chemscore.Internal.Correction.Weighted>
   9.000000E+99

> <Gold.Protein.RotatedTorsions>
[ 6907 6896 6895 6894 ] final   33.44 input  -60.11 | X-H torsion
[ 7974 7965 7964 7962 ] final -142.44 input  175.53 | X-H torsion
[ 8008 7997 7996 7995 ] final -100.07 input   59.86 | X-H torsion
[ 10167 10162 10161 10158 ] final  134.87 input  -65.29 | X-H torsion
[ 10718 10713 10712 10709 ] final   62.00 input   66.30 | X-H torsion
[ 10763 10752 10751 10750 ] final  -39.62 input  -60.55 | X-H torsion
[ 11005 11000 10999 10996 ] final  -70.63 input  -57.11 | X-H torsion

> <Gold.Protein.ActiveResidues>
 VAL166  LYS551  ARG553  GLY616  TRP617  ASP618  TYR619  PRO620  LYS621  CYS622 
 ASP623  PHE694  ASN695  SER759  ASP760  ASP761  ALA762  ILE779  LEU786  VAL792 
 PHE793  MET794  SER795  GLU796  ALA797  LYS798  CYS799  TRP800  GLU811  SER814 

> <Gold.Protein.RotatedAtoms>
  152.0885  134.9423  160.0572 H   0  0  0  0  0  0  0  0  0  0  0  0  # atno 6907 bound_to 6896
  152.0683  133.4090  159.4456 H   0  0  0  0  0  0  0  0  0  0  0  0  # atno 6908 bound_to 6896
  150.6836  134.3040  159.4762 H   0  0  0  0  0  0  0  0  0  0  0  0  # atno 6909 bound_to 6896
  144.8443  140.5957  143.5432 H   0  0  0  0  0  0  0  0  0  0  0  0  # atno 7974 bound_to 7965
  154.8235  140.0443  157.1427 H   0  0  0  0  0  0  0  0  0  0  0  0  # atno 8008 bound_to 7997
  154.9233  140.3030  155.5185 H   0  0  0  0  0  0  0  0  0  0  0  0  # atno 8009 bound_to 7997
  156.2982  140.2336  156.4285 H   0  0  0  0  0  0  0  0  0  0  0  0  # atno 8010 bound_to 7997
  139.5239  144.6546  151.5201 H   0  0  0  0  0  0  0  0  0  0  0  0  # atno 10167 bound_to 10162
  157.5869  130.9026  149.9532 H   0  0  0  0  0  0  0  0  0  0  0  0  # atno 10718 bound_to 10713
  153.9324  135.6770  153.4745 H   0  0  0  0  0  0  0  0  0  0  0  0  # atno 10763 bound_to 10752
  153.0972  135.4845  154.8798 H   0  0  0  0  0  0  0  0  0  0  0  0  # atno 10764 bound_to 10752
  154.7421  135.3163  154.8668 H   0  0  0  0  0  0  0  0  0  0  0  0  # atno 10765 bound_to 10752
  141.1577  133.6795  156.6782 H   0  0  0  0  0  0  0  0  0  0  0  0  # atno 11005 bound_to 11000
  145.4629  139.1511  143.3856 LP  0  0  0  0  0  0  0  0  0  0  0  0  # atno 17320 bound_to 7965
  146.2730  140.4760  142.8807 LP  0  0  0  0  0  0  0  0  0  0  0  0  # atno 17321 bound_to 7965
  140.6366  143.8973  150.6652 LP  0  0  0  0  0  0  0  0  0  0  0  0  # atno 17342 bound_to 10162
  140.2294  143.3747  152.1578 LP  0  0  0  0  0  0  0  0  0  0  0  0  # atno 17343 bound_to 10162
  156.0919  130.3662  150.0378 LP  0  0  0  0  0  0  0  0  0  0  0  0  # atno 17370 bound_to 10713
  156.8508  130.9458  151.3625 LP  0  0  0  0  0  0  0  0  0  0  0  0  # atno 17371 bound_to 10713
  140.3123  134.8076  157.4186 LP  0  0  0  0  0  0  0  0  0  0  0  0  # atno 17394 bound_to 11000
  140.1168  134.5272  155.8218 LP  0  0  0  0  0  0  0  0  0  0  0  0  # atno 17395 bound_to 11000

$$$$
