AV-unprocessed.smi:258|AV-procd|sdf|1965|dock6
  -GOLD-   2262021113D 1   1.00000     0.00000
 Structure written by MMmdl.
 57 60  0  0  0  0  0  0  0  0  1 V2000
  148.2627  128.8656  152.3367 O   0  0  0  0  0  0  0  0  0  0  0  0
  146.9942  128.2487  152.2772 C   0  0  0  0  0  0  0  0  0  0  0  0
  145.9497  129.2370  151.7444 C   0  0  0  0  0  0  0  0  0  0  0  0
  146.4004  130.5624  151.9850 O   0  0  0  0  0  0  0  0  0  0  0  0
  145.3606  131.5124  152.1787 C   0  0  2  0  0  0  0  0  0  0  0  0
  144.3756  131.5112  150.9911 C   0  0  0  0  0  0  0  0  0  0  0  0
  143.3559  132.6515  151.1414 C   0  0  0  0  0  0  0  0  0  0  0  0
  144.0667  134.0032  151.3153 C   0  0  0  0  0  0  0  0  0  0  0  0
  145.0130  133.9462  152.4256 N   0  0  0  0  0  0  0  0  0  0  0  0
  145.5245  135.1486  152.7604 C   0  0  0  0  0  0  0  0  0  0  0  0
  144.9336  136.2440  152.2236 N   0  0  0  0  0  0  0  0  0  0  0  0
  145.3946  137.4633  152.5198 C   0  0  0  0  0  0  0  0  0  0  0  0
  146.4136  137.8015  153.3135 N   0  0  0  0  0  0  0  0  0  0  0  0
  147.0089  136.6989  153.8525 C   0  0  0  0  0  0  0  0  0  0  0  0
  146.6327  135.3446  153.6319 C   0  0  0  0  0  0  0  0  0  0  0  0
  147.4692  134.4968  154.3483 N   0  0  0  0  0  0  0  0  0  0  0  0
  148.2937  135.3044  154.9581 C   0  0  0  0  0  0  0  0  0  0  0  0
  148.0902  136.6439  154.7128 N   0  0  0  0  0  0  0  0  0  0  0  0
  148.8505  137.7559  155.2557 C   0  0  0  0  0  0  0  0  0  0  0  0
  150.1560  138.0457  154.4739 C   0  0  2  0  0  0  0  0  0  0  0  0
  151.2405  136.9642  154.6989 C   0  0  0  0  0  0  0  0  0  0  0  0
  152.2557  137.0380  153.7189 O   0  0  0  0  0  0  0  0  0  0  0  0
  150.6824  139.4757  154.7556 C   0  0  2  0  0  0  0  0  0  0  0  0
  151.0951  139.7292  156.1951 C   0  0  0  0  0  0  0  0  0  0  0  0
  151.1013  141.2524  156.2676 C   0  0  0  0  0  0  0  0  0  0  0  0
  150.0974  141.6871  155.3569 O   0  0  0  0  0  0  0  0  0  0  0  0
  149.6484  140.5904  154.5670 C   0  0  0  0  0  0  0  0  0  0  0  0
  146.0214  132.8953  152.3174 C   0  0  0  0  0  0  0  0  0  0  0  0
  148.3104  129.5210  151.6575 H   0  0  0  0  0  0  0  0  0  0  0  0
  147.0737  127.3966  151.6016 H   0  0  0  0  0  0  0  0  0  0  0  0
  146.7115  127.8598  153.2559 H   0  0  0  0  0  0  0  0  0  0  0  0
  145.7460  129.0545  150.6889 H   0  0  0  0  0  0  0  0  0  0  0  0
  145.0139  129.0867  152.2844 H   0  0  0  0  0  0  0  0  0  0  0  0
  144.8239  131.2958  153.1044 H   0  0  0  0  0  0  0  0  0  0  0  0
  144.9260  131.6346  150.0575 H   0  0  0  0  0  0  0  0  0  0  0  0
  143.8487  130.5604  150.9198 H   0  0  0  0  0  0  0  0  0  0  0  0
  142.6973  132.6842  150.2733 H   0  0  0  0  0  0  0  0  0  0  0  0
  142.7206  132.4601  152.0072 H   0  0  0  0  0  0  0  0  0  0  0  0
  144.5943  134.2611  150.3962 H   0  0  0  0  0  0  0  0  0  0  0  0
  143.3316  134.7891  151.4949 H   0  0  0  0  0  0  0  0  0  0  0  0
  144.8731  138.2859  152.0532 H   0  0  0  0  0  0  0  0  0  0  0  0
  149.0819  134.9431  155.6027 H   0  0  0  0  0  0  0  0  0  0  0  0
  148.1995  138.6303  155.2536 H   0  0  0  0  0  0  0  0  0  0  0  0
  149.0754  137.5423  156.3013 H   0  0  0  0  0  0  0  0  0  0  0  0
  149.9029  138.0036  153.4135 H   0  0  0  0  0  0  0  0  0  0  0  0
  151.6972  137.0675  155.6832 H   0  0  0  0  0  0  0  0  0  0  0  0
  150.8049  135.9654  154.6767 H   0  0  0  0  0  0  0  0  0  0  0  0
  151.8594  136.9319  152.8676 H   0  0  0  0  0  0  0  0  0  0  0  0
  151.5390  139.6844  154.1127 H   0  0  0  0  0  0  0  0  0  0  0  0
  150.3499  139.3264  156.8828 H   0  0  0  0  0  0  0  0  0  0  0  0
  152.0633  139.2975  156.4498 H   0  0  0  0  0  0  0  0  0  0  0  0
  150.9139  141.6218  157.2760 H   0  0  0  0  0  0  0  0  0  0  0  0
  152.0635  141.6451  155.9362 H   0  0  0  0  0  0  0  0  0  0  0  0
  149.5341  140.8825  153.5227 H   0  0  0  0  0  0  0  0  0  0  0  0
  148.6712  140.2794  154.9390 H   0  0  0  0  0  0  0  0  0  0  0  0
  146.6665  132.9106  153.1971 H   0  0  0  0  0  0  0  0  0  0  0  0
  146.6568  133.0880  151.4520 H   0  0  0  0  0  0  0  0  0  0  0  0
  1  2  1  0  0  0  0
  1 29  1  0  0  0  0
  2  3  1  0  0  0  0
  2 30  1  0  0  0  0
  2 31  1  0  0  0  0
  3  4  1  0  0  0  0
  3 32  1  0  0  0  0
  3 33  1  0  0  0  0
  4  5  1  0  0  0  0
  5 28  1  0  0  0  0
  5  6  1  0  0  0  0
  5 34  1  0  0  0  0
  6  7  1  0  0  0  0
  6 35  1  0  0  0  0
  6 36  1  0  0  0  0
  7  8  1  0  0  0  0
  7 37  1  0  0  0  0
  7 38  1  0  0  0  0
  8  9  1  0  0  0  0
  8 39  1  0  0  0  0
  8 40  1  0  0  0  0
  9 10  1  0  0  0  0
  9 28  1  0  0  0  0
 10 15  1  0  0  0  0
 10 11  2  0  0  0  0
 11 12  1  0  0  0  0
 12 13  2  0  0  0  0
 12 41  1  0  0  0  0
 13 14  1  0  0  0  0
 14 18  1  0  0  0  0
 14 15  2  0  0  0  0
 15 16  1  0  0  0  0
 16 17  2  0  0  0  0
 17 18  1  0  0  0  0
 17 42  1  0  0  0  0
 18 19  1  0  0  0  0
 19 20  1  0  0  0  0
 19 43  1  0  0  0  0
 19 44  1  0  0  0  0
 20 21  1  0  0  0  0
 20 23  1  0  0  0  0
 20 45  1  0  0  0  0
 21 22  1  0  0  0  0
 21 46  1  0  0  0  0
 21 47  1  0  0  0  0
 22 48  1  0  0  0  0
 23 27  1  0  0  0  0
 23 24  1  0  0  0  0
 23 49  1  0  0  0  0
 24 25  1  0  0  0  0
 24 50  1  0  0  0  0
 24 51  1  0  0  0  0
 25 26  1  0  0  0  0
 25 52  1  0  0  0  0
 25 53  1  0  0  0  0
 26 27  1  0  0  0  0
 27 54  1  0  0  0  0
 27 55  1  0  0  0  0
 28 56  1  0  0  0  0
 28 57  1  0  0  0  0
M  END
> <s_m_source_file>
AV-unprocessed.smi

> <i_m_source_file_index>
258

> <i_lp_mmshare_version>
43012

> <i_f3d_flags>
0

> <s_epik_input>
W09IXVtDSDJdW0NIMl1PW0NAQEhdMVtDSDJdW0NIMl1bQ0gyXU4oW0NIMl0xKWMobltjSF1uMiljKGMyMyluW2NIXW4zW0NIMl1bQ0BIXShbQ0gyXVtPSF0pW0NAQEhdNFtDSDJdW0NIMl1PW0NIMl00

> <s_epik_cmdline>
J2VwaWtfcHl0aG9uJywgJy1waCcsICc3LjAnLCAnLXRuJywgJzgnLCAnLW1hJywgJzIwMCcsICctbWV0YWxfYmluZGluZycsICctaW1hZScsICc8aW5maWxlLm1hZT4nLCAnLW9tYWUnLCAnPG91dGZpbGUubWFlPic=

> <r_lp_tautomer_probability>
1

> <r_epik_Ionization_Penalty>
0.00349036

> <r_epik_Ionization_Penalty_Charging>
0

> <r_epik_Ionization_Penalty_Neutral>
0.00349036

> <r_epik_State_Penalty>
0.00229798

> <r_epik_Charging_Adjusted_Penalty>
0.00229798

> <i_epik_Tot_Q>
0

> <i_epik_Tot_abs_Q>
0

> <r_epik_Metal_State_Penalty>
-0

> <b_epik_Metal_Only>
0

> <s_lp_Force_Field>
OPLS_2005

> <r_lp_Energy>
47.3811

> <b_lp_Chiralities_Consistent>
1

> <s_lp_Variant>
AV-unprocessed.smi:258-1

> <Gold.Version>
5.8.1

> <Gold.Id.Protein>
6NUR|6NUR_protein|mol2

> <Gold.PLP.Fitness>
50.9918

> <Gold.PLP.PLP>
-38.5510

> <Gold.PLP.part.hbond>
-3.0000

> <Gold.PLP.part.metal>
0.0000

> <Gold.PLP.part.buried>
-3.0498

> <Gold.PLP.part.nonpolar>
-33.7738

> <Gold.PLP.part.repulsive>
1.4514

> <Gold.PLP.ligand.clash>
0.0000

> <Gold.PLP.ligand.torsion>
1.4824

> <Gold.PLP.Chemscore.Hbond>
3.0000

> <Gold.PLP.Chemscore.CHOScore>
2.0000

> <Gold.PLP.Chemscore.Metal>
0.0000

> <Gold.Chemscore.Hbonds>
donor molecule, donor type, donor heavy atom, donor atom, acceptor molecule, acceptor atom, score
      L1  H     1    29       P1 10747  1.00
      L1  H    22    48       P1  7949  1.00
      P1  H 10752 10764       L1    22  0.95
      L1  C    12    41       P1 10171  1.00
      L1  C    12    41       P1 10175  1.00

> <Gold.PLP.Chemscore.Internal.Correction>
0.4055

> <Gold.Rescore>
     Score         DG    S(hbond)    S(metal)    S(lipo)     H(rot)  DE(clash)    DE(int)     intcor
      9.66     -13.28       2.15        0.00      97.80       4.22       1.11       2.51       ----

> <Gold.Chemscore.Fitness>
9.6600

> <Gold.Chemscore.DG>
-13.2802

> <Gold.Chemscore.ZeroCoef>
-5.4800

> <Gold.Chemscore.Hbond>
2.1475

> <Gold.Chemscore.Metal>
0.0000

> <Gold.Chemscore.Lipo>
97.7989

> <Gold.Chemscore.Internal_Hbond>
0.0000

> <Gold.Chemscore.DEClash>
1.1132

> <Gold.Chemscore.DEInternal>
2.5070

> <Gold.Chemscore.Rot>
4.2246

> <Gold.Chemscore.Internal.Correction>
   9.000000E+99

> <Gold.Chemscore.Hbonds>
donor molecule, donor type, donor heavy atom, donor atom, acceptor molecule, acceptor atom, score
      L1  H     1    29       P1 10747  0.38
      L1  H    22    48       P1  7949  0.98
      P1  H 10752 10764       L1    22  0.13

> <Gold.Chemscore.Hbond.Weighted>
-7.1725

> <Gold.Chemscore.Metal.Weighted>
-0.0000

> <Gold.Chemscore.Lipo.Weighted>
-11.4425

> <Gold.Chemscore.Internal_Hbond.Weighted>
0.0000

> <Gold.Chemscore.DEClash.Weighted>
1.1132

> <Gold.Chemscore.DEInternal.Weighted>
2.5070

> <Gold.Chemscore.Rot.Weighted>
10.8149

> <Gold.Chemscore.Internal.Correction.Weighted>
   9.000000E+99

> <Gold.Protein.RotatedTorsions>
[ 6907 6896 6895 6894 ] final  -18.41 input  -60.11 | X-H torsion
[ 7974 7965 7964 7962 ] final   83.66 input  175.53 | X-H torsion
[ 8008 7997 7996 7995 ] final    2.46 input   59.86 | X-H torsion
[ 10167 10162 10161 10158 ] final   14.71 input  -65.29 | X-H torsion
[ 10718 10713 10712 10709 ] final  135.30 input   66.30 | X-H torsion
[ 10763 10752 10751 10750 ] final  -91.19 input  -60.55 | X-H torsion
[ 11005 11000 10999 10996 ] final -108.18 input  -57.11 | X-H torsion

> <Gold.Protein.ActiveResidues>
 VAL166  LYS551  ARG553  GLY616  TRP617  ASP618  TYR619  PRO620  LYS621  CYS622 
 ASP623  PHE694  ASN695  SER759  ASP760  ASP761  ALA762  ILE779  LEU786  VAL792 
 PHE793  MET794  SER795  GLU796  ALA797  LYS798  CYS799  TRP800  GLU811  SER814 

> <Gold.Protein.RotatedAtoms>
  151.2785  135.0706  159.9160 H   0  0  0  0  0  0  0  0  0  0  0  0  # atno 6907 bound_to 6896
  152.5338  134.0055  159.7925 H   0  0  0  0  0  0  0  0  0  0  0  0  # atno 6908 bound_to 6896
  151.0305  133.5744  159.2692 H   0  0  0  0  0  0  0  0  0  0  0  0  # atno 6909 bound_to 6896
  145.6090  139.2365  143.2203 H   0  0  0  0  0  0  0  0  0  0  0  0  # atno 7974 bound_to 7965
  154.6919  140.2655  155.6804 H   0  0  0  0  0  0  0  0  0  0  0  0  # atno 8008 bound_to 7997
  156.2735  140.2789  156.1423 H   0  0  0  0  0  0  0  0  0  0  0  0  # atno 8009 bound_to 7997
  155.0885  140.0373  157.2651 H   0  0  0  0  0  0  0  0  0  0  0  0  # atno 8010 bound_to 7997
  140.5917  143.8783  150.6879 H   0  0  0  0  0  0  0  0  0  0  0  0  # atno 10167 bound_to 10162
  157.4585  131.1071  150.9948 H   0  0  0  0  0  0  0  0  0  0  0  0  # atno 10718 bound_to 10713
  154.6735  135.5277  153.8169 H   0  0  0  0  0  0  0  0  0  0  0  0  # atno 10763 bound_to 10752
  153.0517  135.6535  154.0688 H   0  0  0  0  0  0  0  0  0  0  0  0  # atno 10764 bound_to 10752
  154.0584  135.2963  155.3309 H   0  0  0  0  0  0  0  0  0  0  0  0  # atno 10765 bound_to 10752
  141.0915  133.9046  157.2063 H   0  0  0  0  0  0  0  0  0  0  0  0  # atno 11005 bound_to 11000
  146.1519  140.6913  142.9318 LP  0  0  0  0  0  0  0  0  0  0  0  0  # atno 17320 bound_to 7965
  144.7278  140.4578  143.6960 LP  0  0  0  0  0  0  0  0  0  0  0  0  # atno 17321 bound_to 7965
  140.2307  143.3738  152.1568 LP  0  0  0  0  0  0  0  0  0  0  0  0  # atno 17342 bound_to 10162
  139.5231  144.7068  151.5330 LP  0  0  0  0  0  0  0  0  0  0  0  0  # atno 17343 bound_to 10162
  157.0754  130.5881  149.5410 LP  0  0  0  0  0  0  0  0  0  0  0  0  # atno 17370 bound_to 10713
  156.0018  130.5098  150.7690 LP  0  0  0  0  0  0  0  0  0  0  0  0  # atno 17371 bound_to 10713
  139.9742  135.0119  156.9590 LP  0  0  0  0  0  0  0  0  0  0  0  0  # atno 17394 bound_to 11000
  140.5240  134.0879  155.7299 LP  0  0  0  0  0  0  0  0  0  0  0  0  # atno 17395 bound_to 11000

$$$$
