AV-unprocessed.smi:2578|AV-procd|sdf|10122|dock6
  -GOLD-   2272014143D 1   1.00000     0.00000
 Structure written by MMmdl.
 41 42  0  0  0  0  0  0  0  0  1 V2000
  145.5789  135.7734  151.1866 C   0  0  0  0  0  0  0  0  0  0  0  0
  145.5246  134.2581  151.2901 C   0  0  0  0  0  0  0  0  0  0  0  0
  144.5616  133.5752  150.6319 C   0  0  0  0  0  0  0  0  0  0  0  0
  144.4480  132.1169  150.6843 C   0  0  0  0  0  0  0  0  0  0  0  0
  143.5661  131.5040  150.0823 O   0  0  0  0  0  0  0  0  0  0  0  0
  145.3830  131.4828  151.4433 N   0  0  0  0  0  0  0  0  0  0  0  0
  145.3569  130.0221  151.5607 C   0  0  0  0  0  0  0  0  0  0  0  0
  146.3870  132.1805  152.1359 C   0  0  0  0  0  0  0  0  0  0  0  0
  146.4985  133.5272  152.0922 C   0  0  0  0  0  0  0  0  0  0  0  0
  147.4844  134.2703  152.7658 N   0  0  0  0  0  0  0  0  0  0  0  0
  147.9538  134.1466  154.0221 C   0  0  0  0  0  0  0  0  0  0  0  0
  147.5853  133.3210  154.8569 O   0  0  0  0  0  0  0  0  0  0  0  0
  148.9088  135.0558  154.2654 N   0  0  0  0  0  0  0  0  0  0  0  0
  149.6415  135.1839  155.5199 C   0  0  0  0  0  0  0  0  0  0  0  0
  151.0505  135.7569  155.2915 C   0  0  0  0  0  0  0  0  0  0  0  0
  151.0582  137.2694  155.1917 C   0  0  0  0  0  0  0  0  0  0  0  0
  150.0621  138.0414  154.7598 C   0  0  0  0  0  0  0  0  0  0  0  0
  150.4160  139.5033  154.7668 C   0  0  0  0  0  0  0  0  0  0  0  0
  151.8718  139.5334  155.2841 C   0  0  0  0  0  0  0  0  0  0  0  0
  152.2792  138.0698  155.5664 C   0  0  0  0  0  0  0  0  0  0  0  0
  144.7876  136.1643  150.5462 H   0  0  0  0  0  0  0  0  0  0  0  0
  146.5348  136.0906  150.7691 H   0  0  0  0  0  0  0  0  0  0  0  0
  145.4657  136.2246  152.1725 H   0  0  0  0  0  0  0  0  0  0  0  0
  143.8394  134.1173  150.0387 H   0  0  0  0  0  0  0  0  0  0  0  0
  146.1843  129.6285  152.1518 H   0  0  0  0  0  0  0  0  0  0  0  0
  145.4142  129.5554  150.5763 H   0  0  0  0  0  0  0  0  0  0  0  0
  144.4317  129.6961  152.0378 H   0  0  0  0  0  0  0  0  0  0  0  0
  147.0418  131.5332  152.6951 H   0  0  0  0  0  0  0  0  0  0  0  0
  147.9031  135.0022  152.2109 H   0  0  0  0  0  0  0  0  0  0  0  0
  149.1527  135.7009  153.5283 H   0  0  0  0  0  0  0  0  0  0  0  0
  149.0748  135.8440  156.1770 H   0  0  0  0  0  0  0  0  0  0  0  0
  149.6906  134.2153  156.0195 H   0  0  0  0  0  0  0  0  0  0  0  0
  151.7177  135.4649  156.1033 H   0  0  0  0  0  0  0  0  0  0  0  0
  151.4722  135.3410  154.3754 H   0  0  0  0  0  0  0  0  0  0  0  0
  149.0968  137.6871  154.4290 H   0  0  0  0  0  0  0  0  0  0  0  0
  150.3359  139.9158  153.7607 H   0  0  0  0  0  0  0  0  0  0  0  0
  149.7406  140.0511  155.4245 H   0  0  0  0  0  0  0  0  0  0  0  0
  152.5341  139.9798  154.5415 H   0  0  0  0  0  0  0  0  0  0  0  0
  151.9477  140.1370  156.1894 H   0  0  0  0  0  0  0  0  0  0  0  0
  152.5296  137.9220  156.6171 H   0  0  0  0  0  0  0  0  0  0  0  0
  153.1323  137.7647  154.9592 H   0  0  0  0  0  0  0  0  0  0  0  0
  1  2  1  0  0  0  0
  1 21  1  0  0  0  0
  1 22  1  0  0  0  0
  1 23  1  0  0  0  0
  2  9  1  0  0  0  0
  2  3  2  0  0  0  0
  3  4  1  0  0  0  0
  3 24  1  0  0  0  0
  4  5  2  0  0  0  0
  4  6  1  0  0  0  0
  6  7  1  0  0  0  0
  6  8  1  0  0  0  0
  7 25  1  0  0  0  0
  7 26  1  0  0  0  0
  7 27  1  0  0  0  0
  8  9  2  0  0  0  0
  8 28  1  0  0  0  0
  9 10  1  0  0  0  0
 10 11  1  0  0  0  0
 10 29  1  0  0  0  0
 11 12  2  0  0  0  0
 11 13  1  0  0  0  0
 13 14  1  0  0  0  0
 13 30  1  0  0  0  0
 14 15  1  0  0  0  0
 14 31  1  0  0  0  0
 14 32  1  0  0  0  0
 15 16  1  0  0  0  0
 15 33  1  0  0  0  0
 15 34  1  0  0  0  0
 16 20  1  0  0  0  0
 16 17  2  0  0  0  0
 17 18  1  0  0  0  0
 17 35  1  0  0  0  0
 18 19  1  0  0  0  0
 18 36  1  0  0  0  0
 18 37  1  0  0  0  0
 19 20  1  0  0  0  0
 19 38  1  0  0  0  0
 19 39  1  0  0  0  0
 20 40  1  0  0  0  0
 20 41  1  0  0  0  0
M  END
> <s_m_source_file>
AV-unprocessed.smi

> <i_m_source_file_index>
2578

> <i_lp_mmshare_version>
43012

> <i_f3d_flags>
0

> <s_epik_input>
W0NIM11jMVtjSF1jKD1PKW4oW0NIM10pW2NIXWMxW05IXUMoPU8pW05IXVtDSDJdW0NIMl1DMj1bQ0hdW0NIMl1bQ0gyXVtDSDJdMg==

> <s_epik_cmdline>
J2VwaWtfcHl0aG9uJywgJy1waCcsICc3LjAnLCAnLXRuJywgJzgnLCAnLW1hJywgJzIwMCcsICctbWV0YWxfYmluZGluZycsICctaW1hZScsICc8aW5maWxlLm1hZT4nLCAnLW9tYWUnLCAnPG91dGZpbGUubWFlPic=

> <r_lp_tautomer_probability>
1

> <r_epik_Ionization_Penalty>
2.83926e-05

> <r_epik_Ionization_Penalty_Charging>
8.15285e-06

> <r_epik_Ionization_Penalty_Neutral>
2.02397e-05

> <r_epik_State_Penalty>
-0

> <r_epik_Charging_Adjusted_Penalty>
8.15285e-06

> <i_epik_Tot_Q>
0

> <i_epik_Tot_abs_Q>
0

> <r_epik_Metal_State_Penalty>
-0

> <b_epik_Metal_Only>
0

> <s_lp_Force_Field>
OPLS_2005

> <r_lp_Energy>
31.0137

> <b_lp_Chiralities_Consistent>
1

> <s_lp_Variant>
AV-unprocessed.smi:2578-1

> <Gold.Version>
5.8.1

> <Gold.Id.Protein>
6NUR|6NUR_protein|mol2

> <Gold.PLP.Fitness>
43.1900

> <Gold.PLP.PLP>
-36.5210

> <Gold.PLP.part.hbond>
-3.0000

> <Gold.PLP.part.metal>
0.0000

> <Gold.PLP.part.buried>
-3.0788

> <Gold.PLP.part.nonpolar>
-31.3116

> <Gold.PLP.part.repulsive>
0.8405

> <Gold.PLP.ligand.clash>
0.0000

> <Gold.PLP.ligand.torsion>
1.0277

> <Gold.PLP.Chemscore.Hbond>
2.9040

> <Gold.PLP.Chemscore.CHOScore>
0.0000

> <Gold.PLP.Chemscore.Metal>
0.0000

> <Gold.Chemscore.Hbonds>
donor molecule, donor type, donor heavy atom, donor atom, acceptor molecule, acceptor atom, score
      L1  H    10    29       P1  7948  1.00
      L1  H    13    30       P1  7948  0.98
      P1  H 10785 10796       L1     5  0.91

> <Gold.PLP.Chemscore.Internal.Correction>
0.0124

> <Gold.Rescore>
     Score         DG    S(hbond)    S(metal)    S(lipo)     H(rot)  DE(clash)    DE(int)     intcor
     18.77     -20.32       2.64        0.00      80.94       1.35       0.66       0.89       ----

> <Gold.Chemscore.Fitness>
18.7654

> <Gold.Chemscore.DG>
-20.3195

> <Gold.Chemscore.ZeroCoef>
-5.4800

> <Gold.Chemscore.Hbond>
2.6417

> <Gold.Chemscore.Metal>
0.0000

> <Gold.Chemscore.Lipo>
80.9446

> <Gold.Chemscore.Internal_Hbond>
0.0000

> <Gold.Chemscore.DEClash>
0.6637

> <Gold.Chemscore.DEInternal>
0.8904

> <Gold.Chemscore.Rot>
1.3493

> <Gold.Chemscore.Internal.Correction>
   9.000000E+99

> <Gold.Chemscore.Hbonds>
donor molecule, donor type, donor heavy atom, donor atom, acceptor molecule, acceptor atom, score
      L1  H    10    29       P1  7948  0.77
      L1  H    13    30       P1  7948  0.65
      P1  H 10785 10796       L1     5  0.87

> <Gold.Chemscore.Hbond.Weighted>
-8.8231

> <Gold.Chemscore.Metal.Weighted>
-0.0000

> <Gold.Chemscore.Lipo.Weighted>
-9.4705

> <Gold.Chemscore.Internal_Hbond.Weighted>
0.0000

> <Gold.Chemscore.DEClash.Weighted>
0.6637

> <Gold.Chemscore.DEInternal.Weighted>
0.8904

> <Gold.Chemscore.Rot.Weighted>
3.4541

> <Gold.Chemscore.Internal.Correction.Weighted>
   9.000000E+99

> <Gold.Protein.RotatedTorsions>
[ 6907 6896 6895 6894 ] final  111.64 input  -60.11 | X-H torsion
[ 7974 7965 7964 7962 ] final   42.72 input  175.53 | X-H torsion
[ 8008 7997 7996 7995 ] final  133.45 input   59.86 | X-H torsion
[ 10167 10162 10161 10158 ] final  -44.60 input  -65.29 | X-H torsion
[ 10718 10713 10712 10709 ] final -153.97 input   66.30 | X-H torsion
[ 10763 10752 10751 10750 ] final -118.12 input  -60.55 | X-H torsion
[ 11005 11000 10999 10996 ] final  116.67 input  -57.11 | X-H torsion

> <Gold.Protein.ActiveResidues>
 VAL166  LYS551  ARG553  GLY616  TRP617  ASP618  TYR619  PRO620  LYS621  CYS622 
 ASP623  PHE694  ASN695  SER759  ASP760  ASP761  ALA762  ILE779  LEU786  VAL792 
 PHE793  MET794  SER795  GLU796  ALA797  LYS798  CYS799  TRP800  GLU811  SER814 

> <Gold.Protein.RotatedAtoms>
  152.4959  133.8629  159.7259 H   0  0  0  0  0  0  0  0  0  0  0  0  # atno 6907 bound_to 6896
  150.9136  133.6958  159.2855 H   0  0  0  0  0  0  0  0  0  0  0  0  # atno 6908 bound_to 6896
  151.4358  135.1019  159.9708 H   0  0  0  0  0  0  0  0  0  0  0  0  # atno 6909 bound_to 6896
  146.0716  139.5268  142.9594 H   0  0  0  0  0  0  0  0  0  0  0  0  # atno 7974 bound_to 7965
  156.2992  140.2521  156.3256 H   0  0  0  0  0  0  0  0  0  0  0  0  # atno 8008 bound_to 7997
  154.9194  140.0401  157.2009 H   0  0  0  0  0  0  0  0  0  0  0  0  # atno 8009 bound_to 7997
  154.8326  140.2878  155.5716 H   0  0  0  0  0  0  0  0  0  0  0  0  # atno 8010 bound_to 7997
  140.6890  143.2922  151.3519 H   0  0  0  0  0  0  0  0  0  0  0  0  # atno 10167 bound_to 10162
  156.4930  130.8356  151.2578 H   0  0  0  0  0  0  0  0  0  0  0  0  # atno 10718 bound_to 10713
  154.8577  135.4285  154.2088 H   0  0  0  0  0  0  0  0  0  0  0  0  # atno 10763 bound_to 10752
  153.3118  135.6976  153.7115 H   0  0  0  0  0  0  0  0  0  0  0  0  # atno 10764 bound_to 10752
  153.6204  135.3503  155.2983 H   0  0  0  0  0  0  0  0  0  0  0  0  # atno 10765 bound_to 10752
  139.9049  134.9601  156.7234 H   0  0  0  0  0  0  0  0  0  0  0  0  # atno 11005 bound_to 11000
  145.6381  141.0290  143.1827 LP  0  0  0  0  0  0  0  0  0  0  0  0  # atno 17320 bound_to 7965
  144.7235  139.7951  143.7373 LP  0  0  0  0  0  0  0  0  0  0  0  0  # atno 17321 bound_to 7965
  139.6275  144.0785  152.2447 LP  0  0  0  0  0  0  0  0  0  0  0  0  # atno 17342 bound_to 10162
  140.0249  144.6125  150.7535 LP  0  0  0  0  0  0  0  0  0  0  0  0  # atno 17343 bound_to 10162
  157.7471  131.0007  150.2936 LP  0  0  0  0  0  0  0  0  0  0  0  0  # atno 17370 bound_to 10713
  156.3408  130.3815  149.7411 LP  0  0  0  0  0  0  0  0  0  0  0  0  # atno 17371 bound_to 10713
  140.6982  133.9329  155.8008 LP  0  0  0  0  0  0  0  0  0  0  0  0  # atno 17394 bound_to 11000
  141.0391  134.0647  157.3924 LP  0  0  0  0  0  0  0  0  0  0  0  0  # atno 17395 bound_to 11000

$$$$
