AV-unprocessed.smi:2822|AV-procd|sdf|10876|dock5
  -GOLD-   2272015313D 1   1.00000     0.00000
 Structure written by MMmdl.
 40 42  0  0  0  0  0  0  0  0  2 V2000
  155.4753  138.4425  165.5816 Cl  0  0  0  0  0  0  0  0  0  0  0  0
  155.0299  137.5493  164.1697 C   0  0  0  0  0  0  0  0  0  0  0  0
  154.7055  136.1825  164.2937 C   0  0  0  0  0  0  0  0  0  0  0  0
  154.3561  135.4690  163.2024 N   0  3  0  0  0  0  0  0  0  0  0  0
  154.2984  136.0085  161.9666 C   0  0  0  0  0  0  0  0  0  0  0  0
  154.6111  137.3701  161.7787 C   0  0  0  0  0  0  0  0  0  0  0  0
  154.9852  138.1624  162.8930 C   0  0  0  0  0  0  0  0  0  0  0  0
  155.3063  139.5230  162.7714 N   0  0  0  0  0  0  0  0  0  0  0  0
  155.2555  140.1970  161.4829 C   0  0  0  0  0  0  0  0  0  0  0  0
  153.9727  141.0254  161.3325 C   0  0  2  0  0  0  0  0  0  0  0  0
  153.8970  141.7163  159.9585 C   0  0  0  0  0  0  0  0  0  0  0  0
  152.7142  142.5590  159.8397 N   0  0  0  0  0  0  0  0  0  0  0  0
  152.6543  143.2109  158.5326 C   0  0  0  0  0  0  0  0  0  0  0  0
  151.3967  144.0787  158.3679 C   0  0  0  0  0  0  0  0  0  0  0  0
  151.3192  145.1246  159.4894 C   0  0  0  0  0  0  0  0  0  0  0  0
  151.4388  144.4403  160.8600 C   0  0  0  0  0  0  0  0  0  0  0  0
  152.6945  143.5463  160.9236 C   0  0  1  0  0  0  0  0  0  0  0  0
  152.8020  142.8548  162.2982 C   0  0  0  0  0  0  0  0  0  0  0  0
  153.9648  142.0337  162.3400 O   0  0  0  0  0  0  0  0  0  0  0  0
  154.7152  135.6420  165.2291 H   0  0  0  0  0  0  0  0  0  0  0  0
  154.0051  135.3405  161.1700 H   0  0  0  0  0  0  0  0  0  0  0  0
  154.5565  137.7847  160.7832 H   0  0  0  0  0  0  0  0  0  0  0  0
  155.7714  139.9913  163.5369 H   0  0  0  0  0  0  0  0  0  0  0  0
  156.1317  140.8353  161.3617 H   0  0  0  0  0  0  0  0  0  0  0  0
  155.2908  139.4415  160.6971 H   0  0  0  0  0  0  0  0  0  0  0  0
  153.1039  140.3762  161.4584 H   0  0  0  0  0  0  0  0  0  0  0  0
  154.7949  142.3171  159.8042 H   0  0  0  0  0  0  0  0  0  0  0  0
  153.8890  140.9608  159.1719 H   0  0  0  0  0  0  0  0  0  0  0  0
  153.5422  143.8278  158.3851 H   0  0  0  0  0  0  0  0  0  0  0  0
  152.6697  142.4552  157.7463 H   0  0  0  0  0  0  0  0  0  0  0  0
  151.4041  144.5708  157.3950 H   0  0  0  0  0  0  0  0  0  0  0  0
  150.5088  143.4456  158.3915 H   0  0  0  0  0  0  0  0  0  0  0  0
  152.1266  145.8483  159.3707 H   0  0  0  0  0  0  0  0  0  0  0  0
  150.3852  145.6833  159.4239 H   0  0  0  0  0  0  0  0  0  0  0  0
  151.4726  145.1952  161.6462 H   0  0  0  0  0  0  0  0  0  0  0  0
  150.5478  143.8385  161.0450 H   0  0  0  0  0  0  0  0  0  0  0  0
  153.5668  144.1938  160.8155 H   0  0  0  0  0  0  0  0  0  0  0  0
  152.8686  143.5966  163.0944 H   0  0  0  0  0  0  0  0  0  0  0  0
  151.9178  142.2479  162.5000 H   0  0  0  0  0  0  0  0  0  0  0  0
  154.1257  134.4814  163.3171 H   0  0  0  0  0  0  0  0  0  0  0  0
  1  2  1  0  0  0  0
  2  7  1  0  0  0  0
  2  3  2  0  0  0  0
  3  4  1  0  0  0  0
  3 20  1  0  0  0  0
  4  5  2  0  0  0  0
  4 40  1  0  0  0  0
  5  6  1  0  0  0  0
  5 21  1  0  0  0  0
  6  7  2  0  0  0  0
  6 22  1  0  0  0  0
  7  8  1  0  0  0  0
  8  9  1  0  0  0  0
  8 23  1  0  0  0  0
  9 10  1  0  0  0  0
  9 24  1  0  0  0  0
  9 25  1  0  0  0  0
 10 19  1  0  0  0  0
 10 11  1  0  0  0  0
 10 26  1  0  0  0  0
 11 12  1  0  0  0  0
 11 27  1  0  0  0  0
 11 28  1  0  0  0  0
 12 17  1  0  0  0  0
 12 13  1  0  0  0  0
 13 14  1  0  0  0  0
 13 29  1  0  0  0  0
 13 30  1  0  0  0  0
 14 15  1  0  0  0  0
 14 31  1  0  0  0  0
 14 32  1  0  0  0  0
 15 16  1  0  0  0  0
 15 33  1  0  0  0  0
 15 34  1  0  0  0  0
 16 17  1  0  0  0  0
 16 35  1  0  0  0  0
 16 36  1  0  0  0  0
 17 18  1  0  0  0  0
 17 37  1  0  0  0  0
 18 19  1  0  0  0  0
 18 38  1  0  0  0  0
 18 39  1  0  0  0  0
M  CHG  1   4   1
M  END
> <s_m_source_file>
AV-unprocessed.smi

> <i_m_source_file_index>
2822

> <i_lp_mmshare_version>
43012

> <i_f3d_flags>
0

> <s_epik_input>
Q2xjMVtjSF1uW2NIXVtjSF1jMVtOSF1bQ0gyXVtDQEhdKFtDSDJdMilPW0NIMl1bQ0BASF0oTjIzKVtDSDJdW0NIMl1bQ0gyXVtDSDJdMw==

> <s_epik_cmdline>
J2VwaWtfcHl0aG9uJywgJy1waCcsICc3LjAnLCAnLXRuJywgJzgnLCAnLW1hJywgJzIwMCcsICctbWV0YWxfYmluZGluZycsICctaW1hZScsICc8aW5maWxlLm1hZT4nLCAnLW9tYWUnLCAnPG91dGZpbGUubWFlPic=

> <r_epik_Ionization_Penalty>
1.37653

> <r_epik_Ionization_Penalty_Charging>
0.152973

> <r_epik_Ionization_Penalty_Neutral>
1.22356

> <r_epik_State_Penalty>
1.42693

> <r_epik_Charging_Adjusted_Penalty>
1.5799

> <i_epik_Tot_Q>
1

> <i_epik_Tot_abs_Q>
1

> <r_epik_Metal_State_Penalty>
4.59822

> <b_epik_Metal_Only>
0

> <s_lp_Force_Field>
OPLS_2005

> <r_lp_Energy>
43.1836

> <b_lp_Chiralities_Consistent>
1

> <s_lp_Variant>
AV-unprocessed.smi:2822-17

> <Gold.Version>
5.8.1

> <Gold.Id.Protein>
6NUR|6NUR_protein|mol2

> <Gold.PLP.Fitness>
46.4849

> <Gold.PLP.PLP>
-46.7506

> <Gold.PLP.part.hbond>
-1.0000

> <Gold.PLP.part.metal>
0.0000

> <Gold.PLP.part.buried>
-6.3471

> <Gold.PLP.part.nonpolar>
-39.3320

> <Gold.PLP.part.repulsive>
0.0471

> <Gold.PLP.ligand.clash>
0.0000

> <Gold.PLP.ligand.torsion>
0.1335

> <Gold.PLP.Chemscore.Hbond>
0.0000

> <Gold.PLP.Chemscore.CHOScore>
0.0000

> <Gold.PLP.Chemscore.Metal>
0.0000

> <Gold.PLP.Chemscore.Internal.Correction>
0.0011

> <Gold.Rescore>
     Score         DG    S(hbond)    S(metal)    S(lipo)     H(rot)  DE(clash)    DE(int)     intcor
     19.03     -19.40       0.00        0.00     144.76       1.18       0.23       0.14       ----

> <Gold.Chemscore.Fitness>
19.0276

> <Gold.Chemscore.DG>
-19.3990

> <Gold.Chemscore.ZeroCoef>
-5.4800

> <Gold.Chemscore.Hbond>
0.0000

> <Gold.Chemscore.Metal>
0.0000

> <Gold.Chemscore.Lipo>
144.7574

> <Gold.Chemscore.Internal_Hbond>
0.0000

> <Gold.Chemscore.DEClash>
0.2339

> <Gold.Chemscore.DEInternal>
0.1374

> <Gold.Chemscore.Rot>
1.1788

> <Gold.Chemscore.Internal.Correction>
   9.000000E+99

> <Gold.Chemscore.Hbond.Weighted>
-0.0000

> <Gold.Chemscore.Metal.Weighted>
-0.0000

> <Gold.Chemscore.Lipo.Weighted>
-16.9366

> <Gold.Chemscore.Internal_Hbond.Weighted>
0.0000

> <Gold.Chemscore.DEClash.Weighted>
0.2339

> <Gold.Chemscore.DEInternal.Weighted>
0.1374

> <Gold.Chemscore.Rot.Weighted>
3.0177

> <Gold.Chemscore.Internal.Correction.Weighted>
   9.000000E+99

> <Gold.Protein.RotatedTorsions>
[ 6907 6896 6895 6894 ] final   61.82 input  -60.11 | X-H torsion
[ 7974 7965 7964 7962 ] final  -80.50 input  175.53 | X-H torsion
[ 8008 7997 7996 7995 ] final   64.21 input   59.86 | X-H torsion
[ 10167 10162 10161 10158 ] final  -41.58 input  -65.29 | X-H torsion
[ 10718 10713 10712 10709 ] final  175.04 input   66.30 | X-H torsion
[ 10763 10752 10751 10750 ] final -100.20 input  -60.55 | X-H torsion
[ 11005 11000 10999 10996 ] final  120.23 input  -57.11 | X-H torsion

> <Gold.Protein.ActiveResidues>
 VAL166  LYS551  ARG553  GLY616  TRP617  ASP618  TYR619  PRO620  LYS621  CYS622 
 ASP623  PHE694  ASN695  SER759  ASP760  ASP761  ALA762  ILE779  LEU786  VAL792 
 PHE793  MET794  SER795  GLU796  ALA797  LYS798  CYS799  TRP800  GLU811  SER814 

> <Gold.Protein.RotatedAtoms>
  152.4121  134.6106  160.0024 H   0  0  0  0  0  0  0  0  0  0  0  0  # atno 6907 bound_to 6896
  151.6281  133.3328  159.3110 H   0  0  0  0  0  0  0  0  0  0  0  0  # atno 6908 bound_to 6896
  150.8011  134.7145  159.6668 H   0  0  0  0  0  0  0  0  0  0  0  0  # atno 6909 bound_to 6896
  145.5591  140.9485  143.1457 H   0  0  0  0  0  0  0  0  0  0  0  0  # atno 7974 bound_to 7965
  155.6424  140.3497  155.4719 H   0  0  0  0  0  0  0  0  0  0  0  0  # atno 8008 bound_to 7997
  155.9915  140.1194  157.0657 H   0  0  0  0  0  0  0  0  0  0  0  0  # atno 8009 bound_to 7997
  154.4220  140.1118  156.5558 H   0  0  0  0  0  0  0  0  0  0  0  0  # atno 8010 bound_to 7997
  140.6998  143.3086  151.3087 H   0  0  0  0  0  0  0  0  0  0  0  0  # atno 10167 bound_to 10162
  156.9407  131.0000  151.2969 H   0  0  0  0  0  0  0  0  0  0  0  0  # atno 10718 bound_to 10713
  154.7560  135.4944  153.9376 H   0  0  0  0  0  0  0  0  0  0  0  0  # atno 10763 bound_to 10752
  153.1196  135.6729  153.9365 H   0  0  0  0  0  0  0  0  0  0  0  0  # atno 10764 bound_to 10752
  153.9101  135.3100  155.3427 H   0  0  0  0  0  0  0  0  0  0  0  0  # atno 10765 bound_to 10752
  139.9177  134.9633  156.7776 H   0  0  0  0  0  0  0  0  0  0  0  0  # atno 11005 bound_to 11000
  144.7492  139.7240  143.7280 LP  0  0  0  0  0  0  0  0  0  0  0  0  # atno 17320 bound_to 7965
  146.1864  139.5081  142.9834 LP  0  0  0  0  0  0  0  0  0  0  0  0  # atno 17321 bound_to 7965
  139.6501  144.0378  152.2620 LP  0  0  0  0  0  0  0  0  0  0  0  0  # atno 17342 bound_to 10162
  139.9911  144.6360  150.7813 LP  0  0  0  0  0  0  0  0  0  0  0  0  # atno 17343 bound_to 10162
  157.5787  130.8361  149.8491 LP  0  0  0  0  0  0  0  0  0  0  0  0  # atno 17370 bound_to 10713
  156.0406  130.3740  150.1446 LP  0  0  0  0  0  0  0  0  0  0  0  0  # atno 17371 bound_to 10713
  140.6570  133.9679  155.7785 LP  0  0  0  0  0  0  0  0  0  0  0  0  # atno 17394 bound_to 11000
  141.0669  134.0263  157.3581 LP  0  0  0  0  0  0  0  0  0  0  0  0  # atno 17395 bound_to 11000

$$$$
