AV-unprocessed.smi:170|AV-procd|sdf|1412|dock3
  -GOLD-   2262019173D 1   1.00000     0.00000
 Structure written by MMmdl.
 57 61  0  0  0  0  0  0  0  0  1 V2000
  146.2589  141.1917  153.4644 O   0  0  0  0  0  0  0  0  0  0  0  0
  147.2655  140.4216  154.0951 C   0  0  2  0  0  0  0  0  0  0  0  0
  148.6292  141.1367  154.0265 C   0  0  0  0  0  0  0  0  0  0  0  0
  149.3641  141.0406  155.2752 N   0  0  0  0  0  0  0  0  0  0  0  0
  148.9910  141.5657  156.4920 C   0  0  0  0  0  0  0  0  0  0  0  0
  149.8303  141.3558  157.4698 N   0  0  0  0  0  0  0  0  0  0  0  0
  150.8586  140.6318  156.8792 C   0  0  0  0  0  0  0  0  0  0  0  0
  152.0825  140.0910  157.3543 C   0  0  0  0  0  0  0  0  0  0  0  0
  152.4620  140.2147  158.6483 N   0  0  0  0  0  0  0  0  0  0  0  0
  153.3277  139.1006  159.0201 C   0  0  0  0  0  0  0  0  0  0  0  0
  153.6236  139.1288  160.5246 C   0  0  0  0  0  0  0  0  0  0  0  0
  154.2041  140.3829  160.8533 O   0  0  0  0  0  0  0  0  0  0  0  0
  153.3134  141.4611  160.5927 C   0  0  0  0  0  0  0  0  0  0  0  0
  152.9568  141.5276  159.0879 C   0  0  2  0  0  0  0  0  0  0  0  0
  151.9359  142.6621  158.8059 C   0  0  0  0  0  0  0  0  0  0  0  0
  152.3933  144.0459  159.2644 C   0  0  0  0  0  0  0  0  0  0  0  0
  152.0924  144.5111  160.6970 C   0  0  0  0  0  0  0  0  0  0  0  0
  151.9220  145.9313  160.1500 C   0  0  0  0  0  0  0  0  0  0  0  0
  151.6472  145.2997  158.7826 C   0  0  0  0  0  0  0  0  0  0  0  0
  152.8600  139.4087  156.4713 N   0  0  0  0  0  0  0  0  0  0  0  0
  152.4726  139.2830  155.1982 C   0  0  0  0  0  0  0  0  0  0  0  0
  151.3658  139.7460  154.6120 N   0  0  0  0  0  0  0  0  0  0  0  0
  150.5794  140.4191  155.5008 C   0  0  0  0  0  0  0  0  0  0  0  0
  147.2997  138.9990  153.5003 C   0  0  1  0  0  0  0  0  0  0  0  0
  146.3407  137.9855  154.1480 C   0  0  0  0  0  0  0  0  0  0  0  0
  145.3934  137.6221  153.0204 C   0  0  0  0  0  0  0  0  0  0  0  0
  146.2549  137.8535  151.7865 C   0  0  0  0  0  0  0  0  0  0  0  0
  146.9768  139.0306  152.1116 O   0  0  0  0  0  0  0  0  0  0  0  0
  145.4481  140.7069  153.4990 H   0  0  0  0  0  0  0  0  0  0  0  0
  146.9758  140.3377  155.1434 H   0  0  0  0  0  0  0  0  0  0  0  0
  149.2420  140.7042  153.2348 H   0  0  0  0  0  0  0  0  0  0  0  0
  148.5002  142.1912  153.7792 H   0  0  0  0  0  0  0  0  0  0  0  0
  148.0729  142.1181  156.6305 H   0  0  0  0  0  0  0  0  0  0  0  0
  152.8566  138.1517  158.7586 H   0  0  0  0  0  0  0  0  0  0  0  0
  154.2610  139.1622  158.4580 H   0  0  0  0  0  0  0  0  0  0  0  0
  152.7157  138.9646  161.1072 H   0  0  0  0  0  0  0  0  0  0  0  0
  154.3214  138.3332  160.7858 H   0  0  0  0  0  0  0  0  0  0  0  0
  152.4147  141.3542  161.2028 H   0  0  0  0  0  0  0  0  0  0  0  0
  153.8070  142.3779  160.9135 H   0  0  0  0  0  0  0  0  0  0  0  0
  153.8753  141.7385  158.5381 H   0  0  0  0  0  0  0  0  0  0  0  0
  151.7174  142.7118  157.7397 H   0  0  0  0  0  0  0  0  0  0  0  0
  150.9866  142.4166  159.2834 H   0  0  0  0  0  0  0  0  0  0  0  0
  153.4608  144.1838  159.0829 H   0  0  0  0  0  0  0  0  0  0  0  0
  151.1620  144.0997  161.0923 H   0  0  0  0  0  0  0  0  0  0  0  0
  152.9167  144.3879  161.4001 H   0  0  0  0  0  0  0  0  0  0  0  0
  151.0856  146.4879  160.5737 H   0  0  0  0  0  0  0  0  0  0  0  0
  152.8480  146.5081  160.1720 H   0  0  0  0  0  0  0  0  0  0  0  0
  152.1123  145.8107  157.9390 H   0  0  0  0  0  0  0  0  0  0  0  0
  150.5852  145.1194  158.6075 H   0  0  0  0  0  0  0  0  0  0  0  0
  153.1453  138.7317  154.5576 H   0  0  0  0  0  0  0  0  0  0  0  0
  148.3159  138.6108  153.5847 H   0  0  0  0  0  0  0  0  0  0  0  0
  146.8973  137.1024  154.4647 H   0  0  0  0  0  0  0  0  0  0  0  0
  145.8161  138.3723  155.0222 H   0  0  0  0  0  0  0  0  0  0  0  0
  145.0130  136.6029  153.0918 H   0  0  0  0  0  0  0  0  0  0  0  0
  144.5433  138.3057  153.0125 H   0  0  0  0  0  0  0  0  0  0  0  0
  146.9515  137.0268  151.6369 H   0  0  0  0  0  0  0  0  0  0  0  0
  145.6670  137.9801  150.8772 H   0  0  0  0  0  0  0  0  0  0  0  0
  1  2  1  0  0  0  0
  1 29  1  0  0  0  0
  2  3  1  0  0  0  0
  2 24  1  0  0  0  0
  2 30  1  0  0  0  0
  3  4  1  0  0  0  0
  3 31  1  0  0  0  0
  3 32  1  0  0  0  0
  4 23  1  0  0  0  0
  4  5  1  0  0  0  0
  5  6  2  0  0  0  0
  5 33  1  0  0  0  0
  6  7  1  0  0  0  0
  7 23  2  0  0  0  0
  7  8  1  0  0  0  0
  8  9  1  0  0  0  0
  8 20  2  0  0  0  0
  9 14  1  0  0  0  0
  9 10  1  0  0  0  0
 10 11  1  0  0  0  0
 10 34  1  0  0  0  0
 10 35  1  0  0  0  0
 11 12  1  0  0  0  0
 11 36  1  0  0  0  0
 11 37  1  0  0  0  0
 12 13  1  0  0  0  0
 13 14  1  0  0  0  0
 13 38  1  0  0  0  0
 13 39  1  0  0  0  0
 14 15  1  0  0  0  0
 14 40  1  0  0  0  0
 15 16  1  0  0  0  0
 15 41  1  0  0  0  0
 15 42  1  0  0  0  0
 16 19  1  0  0  0  0
 16 17  1  0  0  0  0
 16 43  1  0  0  0  0
 17 18  1  0  0  0  0
 17 44  1  0  0  0  0
 17 45  1  0  0  0  0
 18 19  1  0  0  0  0
 18 46  1  0  0  0  0
 18 47  1  0  0  0  0
 19 48  1  0  0  0  0
 19 49  1  0  0  0  0
 20 21  1  0  0  0  0
 21 22  2  0  0  0  0
 21 50  1  0  0  0  0
 22 23  1  0  0  0  0
 24 28  1  0  0  0  0
 24 25  1  0  0  0  0
 24 51  1  0  0  0  0
 25 26  1  0  0  0  0
 25 52  1  0  0  0  0
 25 53  1  0  0  0  0
 26 27  1  0  0  0  0
 26 54  1  0  0  0  0
 26 55  1  0  0  0  0
 27 28  1  0  0  0  0
 27 56  1  0  0  0  0
 27 57  1  0  0  0  0
M  END
> <s_m_source_file>
AV-unprocessed.smi

> <i_m_source_file_index>
170

> <i_lp_mmshare_version>
43012

> <i_f3d_flags>
0

> <s_epik_input>
TzFbQ0gyXVtDSDJdW0NIMl1bQ0BIXTFbQ0BIXShbT0hdKVtDSDJdbihbY0hdbjIpYyhjMjMpbltjSF1uYzNONFtDSDJdW0NIMl1PW0NIMl1bQ0BIXTRbQ0gyXVtDSF01W0NIMl1bQ0gyXVtDSDJdNQ==

> <s_epik_cmdline>
J2VwaWtfcHl0aG9uJywgJy1waCcsICc3LjAnLCAnLXRuJywgJzgnLCAnLW1hJywgJzIwMCcsICctbWV0YWxfYmluZGluZycsICctaW1hZScsICc8aW5maWxlLm1hZT4nLCAnLW9tYWUnLCAnPG91dGZpbGUubWFlPic=

> <r_lp_tautomer_probability>
1

> <r_epik_Ionization_Penalty>
4.98275e-05

> <r_epik_Ionization_Penalty_Charging>
0

> <r_epik_Ionization_Penalty_Neutral>
4.98275e-05

> <r_epik_State_Penalty>
-0

> <r_epik_Charging_Adjusted_Penalty>
0

> <i_epik_Tot_Q>
0

> <i_epik_Tot_abs_Q>
0

> <r_epik_Metal_State_Penalty>
-0

> <b_epik_Metal_Only>
0

> <s_lp_Force_Field>
OPLS_2005

> <r_lp_Energy>
52.9545

> <b_lp_Chiralities_Consistent>
1

> <s_lp_Variant>
AV-unprocessed.smi:170-7

> <Gold.Version>
5.8.1

> <Gold.Id.Protein>
6NUR|6NUR_protein|mol2

> <Gold.PLP.Fitness>
58.5216

> <Gold.PLP.PLP>
-53.6996

> <Gold.PLP.part.hbond>
-2.9994

> <Gold.PLP.part.metal>
0.0000

> <Gold.PLP.part.buried>
-3.8806

> <Gold.PLP.part.nonpolar>
-47.8296

> <Gold.PLP.part.repulsive>
1.5583

> <Gold.PLP.ligand.clash>
0.0281

> <Gold.PLP.ligand.torsion>
2.0317

> <Gold.PLP.Chemscore.Hbond>
2.8089

> <Gold.PLP.Chemscore.CHOScore>
0.0540

> <Gold.PLP.Chemscore.Metal>
0.0000

> <Gold.Chemscore.Hbonds>
donor molecule, donor type, donor heavy atom, donor atom, acceptor molecule, acceptor atom, score
      L1  H     1    29       P1 10175  0.77
      P1  H  7989  7998       L1    22  1.00
      P1  H  7997  8008       L1    20  1.00
      L1  C     5    33       P1  8028  0.05

> <Gold.PLP.Chemscore.Internal.Correction>
0.3248

> <Gold.Rescore>
     Score         DG    S(hbond)    S(metal)    S(lipo)     H(rot)  DE(clash)    DE(int)     intcor
     14.86     -20.63       1.78        0.00     135.81       2.61       1.68       4.09       ----

> <Gold.Chemscore.Fitness>
14.8572

> <Gold.Chemscore.DG>
-20.6309

> <Gold.Chemscore.ZeroCoef>
-5.4800

> <Gold.Chemscore.Hbond>
1.7827

> <Gold.Chemscore.Metal>
0.0000

> <Gold.Chemscore.Lipo>
135.8081

> <Gold.Chemscore.Internal_Hbond>
0.0000

> <Gold.Chemscore.DEClash>
1.6831

> <Gold.Chemscore.DEInternal>
4.0906

> <Gold.Chemscore.Rot>
2.6144

> <Gold.Chemscore.Internal.Correction>
   9.000000E+99

> <Gold.Chemscore.Hbonds>
donor molecule, donor type, donor heavy atom, donor atom, acceptor molecule, acceptor atom, score
      L1  H     1    29       P1 10175  0.66
      P1  H  7989  7998       L1    22  0.30
      P1  H  7997  8008       L1    20  0.43

> <Gold.Chemscore.Hbond.Weighted>
-5.9543

> <Gold.Chemscore.Metal.Weighted>
-0.0000

> <Gold.Chemscore.Lipo.Weighted>
-15.8895

> <Gold.Chemscore.Internal_Hbond.Weighted>
0.0000

> <Gold.Chemscore.DEClash.Weighted>
1.6831

> <Gold.Chemscore.DEInternal.Weighted>
4.0906

> <Gold.Chemscore.Rot.Weighted>
6.6929

> <Gold.Chemscore.Internal.Correction.Weighted>
   9.000000E+99

> <Gold.Protein.RotatedTorsions>
[ 6907 6896 6895 6894 ] final  -45.12 input  -60.11 | X-H torsion
[ 7974 7965 7964 7962 ] final    3.26 input  175.53 | X-H torsion
[ 8008 7997 7996 7995 ] final  -57.51 input   59.86 | X-H torsion
[ 10167 10162 10161 10158 ] final  166.41 input  -65.29 | X-H torsion
[ 10718 10713 10712 10709 ] final -154.16 input   66.30 | X-H torsion
[ 10763 10752 10751 10750 ] final -123.24 input  -60.55 | X-H torsion
[ 11005 11000 10999 10996 ] final   86.91 input  -57.11 | X-H torsion

> <Gold.Protein.ActiveResidues>
 VAL166  LYS551  ARG553  GLY616  TRP617  ASP618  TYR619  PRO620  LYS621  CYS622 
 ASP623  PHE694  ASN695  SER759  ASP760  ASP761  ALA762  ILE779  LEU786  VAL792 
 PHE793  MET794  SER795  GLU796  ALA797  LYS798  CYS799  TRP800  GLU811  SER814 

> <Gold.Protein.RotatedAtoms>
  150.9254  134.8671  159.7516 H   0  0  0  0  0  0  0  0  0  0  0  0  # atno 6907 bound_to 6896
  152.5013  134.4156  159.9473 H   0  0  0  0  0  0  0  0  0  0  0  0  # atno 6908 bound_to 6896
  151.4187  133.3665  159.2788 H   0  0  0  0  0  0  0  0  0  0  0  0  # atno 6909 bound_to 6896
  146.2445  140.0712  142.8362 H   0  0  0  0  0  0  0  0  0  0  0  0  # atno 7974 bound_to 7965
  154.4271  140.1105  156.5808 H   0  0  0  0  0  0  0  0  0  0  0  0  # atno 8008 bound_to 7997
  155.6114  140.3494  155.4604 H   0  0  0  0  0  0  0  0  0  0  0  0  # atno 8009 bound_to 7997
  156.0096  140.1216  157.0456 H   0  0  0  0  0  0  0  0  0  0  0  0  # atno 8010 bound_to 7997
  139.4924  144.4030  151.9388 H   0  0  0  0  0  0  0  0  0  0  0  0  # atno 10167 bound_to 10162
  156.4955  130.8367  151.2588 H   0  0  0  0  0  0  0  0  0  0  0  0  # atno 10718 bound_to 10713
  154.8704  135.4105  154.2911 H   0  0  0  0  0  0  0  0  0  0  0  0  # atno 10763 bound_to 10752
  153.3786  135.7010  153.6588 H   0  0  0  0  0  0  0  0  0  0  0  0  # atno 10764 bound_to 10752
  153.5419  135.3646  155.2694 H   0  0  0  0  0  0  0  0  0  0  0  0  # atno 10765 bound_to 10752
  139.8932  134.8387  156.2786 H   0  0  0  0  0  0  0  0  0  0  0  0  # atno 11005 bound_to 11000
  145.0814  140.9223  143.4823 LP  0  0  0  0  0  0  0  0  0  0  0  0  # atno 17320 bound_to 7965
  145.0866  139.2920  143.5756 LP  0  0  0  0  0  0  0  0  0  0  0  0  # atno 17321 bound_to 7965
  140.3469  144.3135  150.5956 LP  0  0  0  0  0  0  0  0  0  0  0  0  # atno 17342 bound_to 10162
  140.5518  143.2205  151.7914 LP  0  0  0  0  0  0  0  0  0  0  0  0  # atno 17343 bound_to 10162
  157.7469  130.9999  150.2906 LP  0  0  0  0  0  0  0  0  0  0  0  0  # atno 17370 bound_to 10713
  156.3384  130.3811  149.7430 LP  0  0  0  0  0  0  0  0  0  0  0  0  # atno 17371 bound_to 10713
  141.0053  133.7127  156.1025 LP  0  0  0  0  0  0  0  0  0  0  0  0  # atno 17394 bound_to 11000
  140.7442  134.4117  157.5550 LP  0  0  0  0  0  0  0  0  0  0  0  0  # atno 17395 bound_to 11000

$$$$
