AV-unprocessed.smi:3283|AV-procd|sdf|12570|dock10
  -GOLD-   2272018493D 1   1.00000     0.00000
 Structure written by MMmdl.
 44 45  0  0  0  0  0  0  0  0  2 V2000
  151.5942  141.2915  157.5940 C   0  0  0  0  0  0  0  0  0  0  0  0
  151.9067  142.4928  158.4706 C   0  0  0  0  0  0  0  0  0  0  0  0
  151.6614  143.7353  158.0124 C   0  0  0  0  0  0  0  0  0  0  0  0
  151.8591  144.9961  158.8214 C   0  0  0  0  0  0  0  0  0  0  0  0
  151.8720  144.6897  160.3206 C   0  0  0  0  0  0  0  0  0  0  0  0
  152.8332  143.5359  160.6498 C   0  0  1  0  0  0  0  0  0  0  0  0
  152.8790  143.3286  162.1765 C   0  0  0  0  0  0  0  0  0  0  0  0
  152.4750  142.2268  159.8800 C   0  0  2  0  0  0  0  0  0  0  0  0
  153.6956  141.2685  159.8640 C   0  0  0  0  0  0  0  0  0  0  0  0
  154.0186  140.7297  161.2006 N   0  3  0  0  0  0  0  0  0  0  0  0
  155.3384  140.0743  161.2889 C   0  0  0  0  0  0  0  0  0  0  0  0
  155.7161  139.7528  162.7430 C   0  0  0  0  0  0  0  0  0  0  0  0
  155.1173  138.4766  163.2516 C   0  0  0  0  0  0  0  0  0  0  0  0
  154.4208  137.5139  162.5756 C   0  0  0  0  0  0  0  0  0  0  0  0
  154.1244  136.5378  163.5659 C   0  0  0  0  0  0  0  0  0  0  0  0
  154.5982  136.8645  164.7553 N   0  0  0  0  0  0  0  0  0  0  0  0
  155.2030  138.0569  164.5694 N   0  0  0  0  0  0  0  0  0  0  0  0
  155.8345  138.7048  165.7042 C   0  0  0  0  0  0  0  0  0  0  0  0
  150.9779  140.5747  158.1360 H   0  0  0  0  0  0  0  0  0  0  0  0
  152.5084  140.7988  157.2642 H   0  0  0  0  0  0  0  0  0  0  0  0
  151.0446  141.5863  156.6995 H   0  0  0  0  0  0  0  0  0  0  0  0
  151.2834  143.8765  157.0101 H   0  0  0  0  0  0  0  0  0  0  0  0
  152.7924  145.4675  158.5119 H   0  0  0  0  0  0  0  0  0  0  0  0
  151.0546  145.6966  158.5956 H   0  0  0  0  0  0  0  0  0  0  0  0
  152.1517  145.5891  160.8707 H   0  0  0  0  0  0  0  0  0  0  0  0
  150.8639  144.4296  160.6473 H   0  0  0  0  0  0  0  0  0  0  0  0
  153.8269  143.8544  160.3296 H   0  0  0  0  0  0  0  0  0  0  0  0
  151.9124  142.9988  162.5588 H   0  0  0  0  0  0  0  0  0  0  0  0
  153.1326  144.2576  162.6880 H   0  0  0  0  0  0  0  0  0  0  0  0
  153.6218  142.5913  162.4764 H   0  0  0  0  0  0  0  0  0  0  0  0
  151.6671  141.7420  160.4305 H   0  0  0  0  0  0  0  0  0  0  0  0
  153.5099  140.4464  159.1711 H   0  0  0  0  0  0  0  0  0  0  0  0
  154.5891  141.7756  159.5036 H   0  0  0  0  0  0  0  0  0  0  0  0
  153.9916  141.4886  161.8670 H   0  0  0  0  0  0  0  0  0  0  0  0
  155.3158  139.1532  160.7052 H   0  0  0  0  0  0  0  0  0  0  0  0
  156.0958  140.7193  160.8410 H   0  0  0  0  0  0  0  0  0  0  0  0
  156.8012  139.7332  162.8440 H   0  0  0  0  0  0  0  0  0  0  0  0
  155.3816  140.5727  163.3795 H   0  0  0  0  0  0  0  0  0  0  0  0
  154.1629  137.5068  161.5268 H   0  0  0  0  0  0  0  0  0  0  0  0
  153.5858  135.6080  163.4560 H   0  0  0  0  0  0  0  0  0  0  0  0
  155.5582  139.7587  165.7363 H   0  0  0  0  0  0  0  0  0  0  0  0
  156.9170  138.6170  165.6212 H   0  0  0  0  0  0  0  0  0  0  0  0
  155.5165  138.2376  166.6376 H   0  0  0  0  0  0  0  0  0  0  0  0
  153.3097  140.0554  161.4508 H   0  0  0  0  0  0  0  0  0  0  0  0
  1  2  1  0  0  0  0
  1 19  1  0  0  0  0
  1 20  1  0  0  0  0
  1 21  1  0  0  0  0
  2  8  1  0  0  0  0
  2  3  2  0  0  0  0
  3  4  1  0  0  0  0
  3 22  1  0  0  0  0
  4  5  1  0  0  0  0
  4 23  1  0  0  0  0
  4 24  1  0  0  0  0
  5  6  1  0  0  0  0
  5 25  1  0  0  0  0
  5 26  1  0  0  0  0
  6  7  1  0  0  0  0
  6  8  1  0  0  0  0
  6 27  1  0  0  0  0
  7 28  1  0  0  0  0
  7 29  1  0  0  0  0
  7 30  1  0  0  0  0
  8  9  1  0  0  0  0
  8 31  1  0  0  0  0
  9 10  1  0  0  0  0
  9 32  1  0  0  0  0
  9 33  1  0  0  0  0
 10 11  1  0  0  0  0
 10 34  1  0  0  0  0
 10 44  1  0  0  0  0
 11 12  1  0  0  0  0
 11 35  1  0  0  0  0
 11 36  1  0  0  0  0
 12 13  1  0  0  0  0
 12 37  1  0  0  0  0
 12 38  1  0  0  0  0
 13 17  1  0  0  0  0
 13 14  2  0  0  0  0
 14 15  1  0  0  0  0
 14 39  1  0  0  0  0
 15 16  2  0  0  0  0
 15 40  1  0  0  0  0
 16 17  1  0  0  0  0
 17 18  1  0  0  0  0
 18 41  1  0  0  0  0
 18 42  1  0  0  0  0
 18 43  1  0  0  0  0
M  CHG  1  10   1
M  END
> <s_m_source_file>
AV-unprocessed.smi

> <i_m_source_file_index>
3283

> <i_lp_mmshare_version>
43012

> <i_f3d_flags>
0

> <s_epik_input>
W0NIM11DMT1bQ0hdW0NIMl1bQ0gyXVtDQEBIXShbQ0gzXSlbQ0BIXTFbQ0gyXVtOSF1bQ0gyXVtDSDJdYzJbY0hdW2NIXW5uMltDSDNd

> <s_epik_cmdline>
J2VwaWtfcHl0aG9uJywgJy1waCcsICc3LjAnLCAnLXRuJywgJzgnLCAnLW1hJywgJzIwMCcsICctbWV0YWxfYmluZGluZycsICctaW1hZScsICc8aW5maWxlLm1hZT4nLCAnLW9tYWUnLCAnPG91dGZpbGUubWFlPic=

> <r_lp_tautomer_probability>
1

> <r_epik_Ionization_Penalty>
0.000866911

> <r_epik_Ionization_Penalty_Charging>
0.000836385

> <r_epik_Ionization_Penalty_Neutral>
3.05258e-05

> <r_epik_State_Penalty>
-0

> <r_epik_Charging_Adjusted_Penalty>
0.000836385

> <i_epik_Tot_Q>
1

> <i_epik_Tot_abs_Q>
1

> <r_epik_Metal_State_Penalty>
-0

> <b_epik_Metal_Only>
0

> <s_lp_Force_Field>
OPLS_2005

> <r_lp_Energy>
14.6104

> <b_lp_Chiralities_Consistent>
1

> <s_lp_Variant>
AV-unprocessed.smi:3283-3

> <Gold.Version>
5.8.1

> <Gold.Id.Protein>
6NUR|6NUR_protein|mol2

> <Gold.PLP.Fitness>
48.1025

> <Gold.PLP.PLP>
-48.6719

> <Gold.PLP.part.hbond>
0.0000

> <Gold.PLP.part.metal>
0.0000

> <Gold.PLP.part.buried>
-6.7740

> <Gold.PLP.part.nonpolar>
-41.2810

> <Gold.PLP.part.repulsive>
0.1073

> <Gold.PLP.ligand.clash>
0.0000

> <Gold.PLP.ligand.torsion>
0.3111

> <Gold.PLP.Chemscore.Hbond>
0.0000

> <Gold.PLP.Chemscore.CHOScore>
0.0000

> <Gold.PLP.Chemscore.Metal>
0.0000

> <Gold.PLP.Chemscore.Internal.Correction>
0.0527

> <Gold.Rescore>
     Score         DG    S(hbond)    S(metal)    S(lipo)     H(rot)  DE(clash)    DE(int)     intcor
     16.78     -18.26       0.00        0.00     141.68       1.48       0.10       1.38       ----

> <Gold.Chemscore.Fitness>
16.7768

> <Gold.Chemscore.DG>
-18.2560

> <Gold.Chemscore.ZeroCoef>
-5.4800

> <Gold.Chemscore.Hbond>
0.0000

> <Gold.Chemscore.Metal>
0.0000

> <Gold.Chemscore.Lipo>
141.6826

> <Gold.Chemscore.Internal_Hbond>
0.0000

> <Gold.Chemscore.DEClash>
0.1027

> <Gold.Chemscore.DEInternal>
1.3765

> <Gold.Chemscore.Rot>
1.4847

> <Gold.Chemscore.Internal.Correction>
   9.000000E+99

> <Gold.Chemscore.Hbond.Weighted>
-0.0000

> <Gold.Chemscore.Metal.Weighted>
-0.0000

> <Gold.Chemscore.Lipo.Weighted>
-16.5769

> <Gold.Chemscore.Internal_Hbond.Weighted>
0.0000

> <Gold.Chemscore.DEClash.Weighted>
0.1027

> <Gold.Chemscore.DEInternal.Weighted>
1.3765

> <Gold.Chemscore.Rot.Weighted>
3.8008

> <Gold.Chemscore.Internal.Correction.Weighted>
   9.000000E+99

> <Gold.Protein.RotatedTorsions>
[ 6907 6896 6895 6894 ] final -138.95 input  -60.11 | X-H torsion
[ 7974 7965 7964 7962 ] final   48.67 input  175.53 | X-H torsion
[ 8008 7997 7996 7995 ] final   44.17 input   59.86 | X-H torsion
[ 10167 10162 10161 10158 ] final  -26.18 input  -65.29 | X-H torsion
[ 10718 10713 10712 10709 ] final   60.33 input   66.30 | X-H torsion
[ 10763 10752 10751 10750 ] final -110.67 input  -60.55 | X-H torsion
[ 11005 11000 10999 10996 ] final  -54.07 input  -57.11 | X-H torsion

> <Gold.Protein.ActiveResidues>
 VAL166  LYS551  ARG553  GLY616  TRP617  ASP618  TYR619  PRO620  LYS621  CYS622 
 ASP623  PHE694  ASN695  SER759  ASP760  ASP761  ALA762  ILE779  LEU786  VAL792 
 PHE793  MET794  SER795  GLU796  ALA797  LYS798  CYS799  TRP800  GLU811  SER814 

> <Gold.Protein.RotatedAtoms>
  151.0416  133.5701  159.2650 H   0  0  0  0  0  0  0  0  0  0  0  0  # atno 6907 bound_to 6896
  151.2746  135.0694  159.9156 H   0  0  0  0  0  0  0  0  0  0  0  0  # atno 6908 bound_to 6896
  152.5365  134.0140  159.8005 H   0  0  0  0  0  0  0  0  0  0  0  0  # atno 6909 bound_to 6896
  146.0182  139.4620  142.9914 H   0  0  0  0  0  0  0  0  0  0  0  0  # atno 7974 bound_to 7965
  155.3148  140.3393  155.4243 H   0  0  0  0  0  0  0  0  0  0  0  0  # atno 8008 bound_to 7997
  156.1938  140.1707  156.8077 H   0  0  0  0  0  0  0  0  0  0  0  0  # atno 8009 bound_to 7997
  154.5474  140.0712  156.8595 H   0  0  0  0  0  0  0  0  0  0  0  0  # atno 8010 bound_to 7997
  140.7284  143.4200  151.0966 H   0  0  0  0  0  0  0  0  0  0  0  0  # atno 10167 bound_to 10162
  157.5745  130.8933  149.9322 H   0  0  0  0  0  0  0  0  0  0  0  0  # atno 10718 bound_to 10713
  154.8260  135.4555  154.0921 H   0  0  0  0  0  0  0  0  0  0  0  0  # atno 10763 bound_to 10752
  153.2234  135.6897  153.7980 H   0  0  0  0  0  0  0  0  0  0  0  0  # atno 10764 bound_to 10752
  153.7388  135.3315  155.3276 H   0  0  0  0  0  0  0  0  0  0  0  0  # atno 10765 bound_to 10752
  141.1008  133.6618  156.4266 H   0  0  0  0  0  0  0  0  0  0  0  0  # atno 11005 bound_to 11000
  145.7235  141.0067  143.1390 LP  0  0  0  0  0  0  0  0  0  0  0  0  # atno 17320 bound_to 7965
  144.6979  139.8899  143.7452 LP  0  0  0  0  0  0  0  0  0  0  0  0  # atno 17321 bound_to 7965
  139.7845  143.8308  152.3143 LP  0  0  0  0  0  0  0  0  0  0  0  0  # atno 17342 bound_to 10162
  139.8270  144.7270  150.9499 LP  0  0  0  0  0  0  0  0  0  0  0  0  # atno 17343 bound_to 10162
  156.0789  130.3675  150.0620 LP  0  0  0  0  0  0  0  0  0  0  0  0  # atno 17370 bound_to 10713
  156.8768  130.9543  151.3603 LP  0  0  0  0  0  0  0  0  0  0  0  0  # atno 17371 bound_to 10713
  140.5028  134.6470  157.5255 LP  0  0  0  0  0  0  0  0  0  0  0  0  # atno 17394 bound_to 11000
  139.9858  134.7063  155.9776 LP  0  0  0  0  0  0  0  0  0  0  0  0  # atno 17395 bound_to 11000

$$$$
