AV-unprocessed.smi:1323|AV-procd|sdf|5466|dock8
  -GOLD-   22720 5 33D 1   1.00000     0.00000
 Structure written by MMmdl.
 45 46  0  0  0  0  0  0  0  0  1 V2000
  150.7681  141.7916  156.4060 C   0  0  0  0  0  0  0  0  0  0  0  0
  151.6204  142.3720  157.5458 C   0  0  1  0  0  0  0  0  0  0  0  0
  150.7620  143.1667  158.5531 C   0  0  0  0  0  0  0  0  0  0  0  0
  151.6226  143.7815  159.6689 C   0  0  0  0  0  0  0  0  0  0  0  0
  152.4782  142.7167  160.3734 C   0  0  0  0  0  0  0  0  0  0  0  0
  153.3260  141.9260  159.3653 C   0  0  0  0  0  0  0  0  0  0  0  0
  152.4480  141.2847  158.2680 C   0  0  1  0  0  0  0  0  0  0  0  0
  151.5233  140.3438  158.8007 O   0  0  0  0  0  0  0  0  0  0  0  0
  152.0545  139.0996  159.2280 C   0  0  0  0  0  0  0  0  0  0  0  0
  151.3868  137.9768  158.4185 C   0  0  0  0  0  0  0  0  0  0  0  0
  149.9930  137.7835  158.8102 N   0  0  0  0  0  0  0  0  0  0  0  0
  149.2994  136.6455  158.6465 C   0  0  0  0  0  0  0  0  0  0  0  0
  149.7904  135.6186  158.1756 O   0  0  0  0  0  0  0  0  0  0  0  0
  147.8348  136.6631  159.1041 C   0  0  0  0  0  0  0  0  0  0  0  0
  147.6071  135.8032  160.2773 N   0  0  0  0  0  0  0  0  0  0  0  0
  147.6678  134.4098  160.0748 C   0  0  0  0  0  0  0  0  0  0  0  0
  147.4443  133.5370  161.0699 C   0  0  0  0  0  0  0  0  0  0  0  0
  147.1324  134.0599  162.3791 C   0  0  0  0  0  0  0  0  0  0  0  0
  147.0754  135.3908  162.5847 C   0  0  0  0  0  0  0  0  0  0  0  0
  147.3274  136.3480  161.5014 C   0  0  0  0  0  0  0  0  0  0  0  0
  147.2894  137.5646  161.6843 O   0  0  0  0  0  0  0  0  0  0  0  0
  150.0121  141.1016  156.7823 H   0  0  0  0  0  0  0  0  0  0  0  0
  151.3867  141.2503  155.6898 H   0  0  0  0  0  0  0  0  0  0  0  0
  150.2512  142.5830  155.8627 H   0  0  0  0  0  0  0  0  0  0  0  0
  152.3234  143.0710  157.0903 H   0  0  0  0  0  0  0  0  0  0  0  0
  150.2172  143.9583  158.0377 H   0  0  0  0  0  0  0  0  0  0  0  0
  150.0066  142.5145  158.9938 H   0  0  0  0  0  0  0  0  0  0  0  0
  152.2727  144.5480  159.2451 H   0  0  0  0  0  0  0  0  0  0  0  0
  150.9845  144.2856  160.3953 H   0  0  0  0  0  0  0  0  0  0  0  0
  153.1234  143.1896  161.1141 H   0  0  0  0  0  0  0  0  0  0  0  0
  151.8350  142.0271  160.9200 H   0  0  0  0  0  0  0  0  0  0  0  0
  154.0450  142.6001  158.8981 H   0  0  0  0  0  0  0  0  0  0  0  0
  153.9236  141.1761  159.8822 H   0  0  0  0  0  0  0  0  0  0  0  0
  153.0868  140.7805  157.5411 H   0  0  0  0  0  0  0  0  0  0  0  0
  153.1330  139.0785  159.0664 H   0  0  0  0  0  0  0  0  0  0  0  0
  151.8752  138.9435  160.2916 H   0  0  0  0  0  0  0  0  0  0  0  0
  151.4631  138.1809  157.3491 H   0  0  0  0  0  0  0  0  0  0  0  0
  151.9166  137.0398  158.5901 H   0  0  0  0  0  0  0  0  0  0  0  0
  149.5164  138.5777  159.2121 H   0  0  0  0  0  0  0  0  0  0  0  0
  147.5619  137.6944  159.3318 H   0  0  0  0  0  0  0  0  0  0  0  0
  147.1823  136.3708  158.2790 H   0  0  0  0  0  0  0  0  0  0  0  0
  147.8963  134.1020  159.0646 H   0  0  0  0  0  0  0  0  0  0  0  0
  147.4894  132.4721  160.8946 H   0  0  0  0  0  0  0  0  0  0  0  0
  146.9408  133.3809  163.1970 H   0  0  0  0  0  0  0  0  0  0  0  0
  146.8379  135.7641  163.5701 H   0  0  0  0  0  0  0  0  0  0  0  0
  1  2  1  0  0  0  0
  1 22  1  0  0  0  0
  1 23  1  0  0  0  0
  1 24  1  0  0  0  0
  2  7  1  0  0  0  0
  2  3  1  0  0  0  0
  2 25  1  0  0  0  0
  3  4  1  0  0  0  0
  3 26  1  0  0  0  0
  3 27  1  0  0  0  0
  4  5  1  0  0  0  0
  4 28  1  0  0  0  0
  4 29  1  0  0  0  0
  5  6  1  0  0  0  0
  5 30  1  0  0  0  0
  5 31  1  0  0  0  0
  6  7  1  0  0  0  0
  6 32  1  0  0  0  0
  6 33  1  0  0  0  0
  7  8  1  0  0  0  0
  7 34  1  0  0  0  0
  8  9  1  0  0  0  0
  9 10  1  0  0  0  0
  9 35  1  0  0  0  0
  9 36  1  0  0  0  0
 10 11  1  0  0  0  0
 10 37  1  0  0  0  0
 10 38  1  0  0  0  0
 11 12  1  0  0  0  0
 11 39  1  0  0  0  0
 12 13  2  0  0  0  0
 12 14  1  0  0  0  0
 14 15  1  0  0  0  0
 14 40  1  0  0  0  0
 14 41  1  0  0  0  0
 15 20  1  0  0  0  0
 15 16  1  0  0  0  0
 16 17  2  0  0  0  0
 16 42  1  0  0  0  0
 17 18  1  0  0  0  0
 17 43  1  0  0  0  0
 18 19  2  0  0  0  0
 18 44  1  0  0  0  0
 19 20  1  0  0  0  0
 19 45  1  0  0  0  0
 20 21  2  0  0  0  0
M  END
> <s_m_source_file>
AV-unprocessed.smi

> <i_m_source_file_index>
1323

> <i_lp_mmshare_version>
43012

> <i_f3d_flags>
0

> <s_epik_input>
W0NIM11bQ0BASF0xW0NIMl1bQ0gyXVtDSDJdW0NIMl1bQ0BIXTFPW0NIMl1bQ0gyXVtOSF1DKD1PKVtDSDJdbjJbY0hdW2NIXVtjSF1bY0hdYzI9Tw==

> <s_epik_cmdline>
J2VwaWtfcHl0aG9uJywgJy1waCcsICc3LjAnLCAnLXRuJywgJzgnLCAnLW1hJywgJzIwMCcsICctbWV0YWxfYmluZGluZycsICctaW1hZScsICc8aW5maWxlLm1hZT4nLCAnLW9tYWUnLCAnPG91dGZpbGUubWFlPic=

> <r_lp_tautomer_probability>
1

> <r_epik_Ionization_Penalty>
4.02412e-07

> <r_epik_Ionization_Penalty_Charging>
3.74552e-07

> <r_epik_Ionization_Penalty_Neutral>
2.78599e-08

> <r_epik_State_Penalty>
-0

> <r_epik_Charging_Adjusted_Penalty>
3.74552e-07

> <i_epik_Tot_Q>
0

> <i_epik_Tot_abs_Q>
0

> <r_epik_Metal_State_Penalty>
-0

> <b_epik_Metal_Only>
0

> <s_lp_Force_Field>
OPLS_2005

> <r_lp_Energy>
18.6453

> <b_lp_Chiralities_Consistent>
1

> <s_lp_Variant>
AV-unprocessed.smi:1323-2

> <Gold.Version>
5.8.1

> <Gold.Id.Protein>
6NUR|6NUR_protein|mol2

> <Gold.PLP.Fitness>
50.4495

> <Gold.PLP.PLP>
-44.3764

> <Gold.PLP.part.hbond>
-3.0000

> <Gold.PLP.part.metal>
0.0000

> <Gold.PLP.part.buried>
-5.6799

> <Gold.PLP.part.nonpolar>
-36.0722

> <Gold.PLP.part.repulsive>
0.1992

> <Gold.PLP.ligand.clash>
0.0000

> <Gold.PLP.ligand.torsion>
0.8339

> <Gold.PLP.Chemscore.Hbond>
2.5520

> <Gold.PLP.Chemscore.CHOScore>
0.0000

> <Gold.PLP.Chemscore.Metal>
0.0000

> <Gold.Chemscore.Hbonds>
donor molecule, donor type, donor heavy atom, donor atom, acceptor molecule, acceptor atom, score
      P1  H  6896  6908       L1    13  1.00
      P1  H  6931  6943       L1    21  0.70
      P1  H  6934  6947       L1    21  0.78

> <Gold.PLP.Chemscore.Internal.Correction>
0.0848

> <Gold.Rescore>
     Score         DG    S(hbond)    S(metal)    S(lipo)     H(rot)  DE(clash)    DE(int)     intcor
     20.04     -20.97       2.64        0.00      99.44       1.94       0.00       0.93       ----

> <Gold.Chemscore.Fitness>
20.0429

> <Gold.Chemscore.DG>
-20.9747

> <Gold.Chemscore.ZeroCoef>
-5.4800

> <Gold.Chemscore.Hbond>
2.6425

> <Gold.Chemscore.Metal>
0.0000

> <Gold.Chemscore.Lipo>
99.4431

> <Gold.Chemscore.Internal_Hbond>
0.0000

> <Gold.Chemscore.DEClash>
0.0000

> <Gold.Chemscore.DEInternal>
0.9318

> <Gold.Chemscore.Rot>
1.9398

> <Gold.Chemscore.Internal.Correction>
   9.000000E+99

> <Gold.Chemscore.Hbonds>
donor molecule, donor type, donor heavy atom, donor atom, acceptor molecule, acceptor atom, score
      P1  H  6896  6908       L1    13  0.79
      P1  H  6931  6943       L1    21  0.55
      P1  H  6934  6947       L1    21  0.77

> <Gold.Chemscore.Hbond.Weighted>
-8.8258

> <Gold.Chemscore.Metal.Weighted>
-0.0000

> <Gold.Chemscore.Lipo.Weighted>
-11.6348

> <Gold.Chemscore.Internal_Hbond.Weighted>
0.0000

> <Gold.Chemscore.DEClash.Weighted>
0.0000

> <Gold.Chemscore.DEInternal.Weighted>
0.9318

> <Gold.Chemscore.Rot.Weighted>
4.9659

> <Gold.Chemscore.Internal.Correction.Weighted>
   9.000000E+99

> <Gold.Protein.RotatedTorsions>
[ 6907 6896 6895 6894 ] final  168.88 input  -60.11 | X-H torsion
[ 7974 7965 7964 7962 ] final  148.71 input  175.53 | X-H torsion
[ 8008 7997 7996 7995 ] final  112.66 input   59.86 | X-H torsion
[ 10167 10162 10161 10158 ] final  -90.59 input  -65.29 | X-H torsion
[ 10718 10713 10712 10709 ] final  107.74 input   66.30 | X-H torsion
[ 10763 10752 10751 10750 ] final -148.02 input  -60.55 | X-H torsion
[ 11005 11000 10999 10996 ] final   45.22 input  -57.11 | X-H torsion

> <Gold.Protein.ActiveResidues>
 VAL166  LYS551  ARG553  GLY616  TRP617  ASP618  TYR619  PRO620  LYS621  CYS622 
 ASP623  PHE694  ASN695  SER759  ASP760  ASP761  ALA762  ILE779  LEU786  VAL792 
 PHE793  MET794  SER795  GLU796  ALA797  LYS798  CYS799  TRP800  GLU811  SER814 

> <Gold.Protein.RotatedAtoms>
  151.8407  133.3423  159.3641 H   0  0  0  0  0  0  0  0  0  0  0  0  # atno 6907 bound_to 6896
  150.7236  134.5394  159.5749 H   0  0  0  0  0  0  0  0  0  0  0  0  # atno 6908 bound_to 6896
  152.2867  134.7768  160.0437 H   0  0  0  0  0  0  0  0  0  0  0  0  # atno 6909 bound_to 6896
  144.8493  139.6188  143.5981 H   0  0  0  0  0  0  0  0  0  0  0  0  # atno 7974 bound_to 7965
  156.2207  140.2995  155.9945 H   0  0  0  0  0  0  0  0  0  0  0  0  # atno 8008 bound_to 7997
  155.2489  140.0425  157.3001 H   0  0  0  0  0  0  0  0  0  0  0  0  # atno 8009 bound_to 7997
  154.5836  140.2382  155.8027 H   0  0  0  0  0  0  0  0  0  0  0  0  # atno 8010 bound_to 7997
  140.3534  143.2879  151.9699 H   0  0  0  0  0  0  0  0  0  0  0  0  # atno 10167 bound_to 10162
  157.6616  131.0879  150.6201 H   0  0  0  0  0  0  0  0  0  0  0  0  # atno 10718 bound_to 10713
  154.8255  135.3345  154.6908 H   0  0  0  0  0  0  0  0  0  0  0  0  # atno 10763 bound_to 10752
  153.7535  135.6937  153.4945 H   0  0  0  0  0  0  0  0  0  0  0  0  # atno 10764 bound_to 10752
  153.2160  135.4465  155.0385 H   0  0  0  0  0  0  0  0  0  0  0  0  # atno 10765 bound_to 10752
  140.1480  134.4498  155.8402 H   0  0  0  0  0  0  0  0  0  0  0  0  # atno 11005 bound_to 11000
  146.2771  139.6781  142.9255 LP  0  0  0  0  0  0  0  0  0  0  0  0  # atno 17320 bound_to 7965
  145.4532  141.0429  143.2793 LP  0  0  0  0  0  0  0  0  0  0  0  0  # atno 17321 bound_to 7965
  139.4823  144.6056  151.7527 LP  0  0  0  0  0  0  0  0  0  0  0  0  # atno 17342 bound_to 10162
  140.5197  144.0898  150.6019 LP  0  0  0  0  0  0  0  0  0  0  0  0  # atno 17343 bound_to 10162
  156.6504  130.4483  149.5721 LP  0  0  0  0  0  0  0  0  0  0  0  0  # atno 17370 bound_to 10713
  156.2142  130.6697  151.1301 LP  0  0  0  0  0  0  0  0  0  0  0  0  # atno 17371 bound_to 10713
  141.2195  133.6860  156.7368 LP  0  0  0  0  0  0  0  0  0  0  0  0  # atno 17394 bound_to 11000
  140.2640  134.8444  157.3785 LP  0  0  0  0  0  0  0  0  0  0  0  0  # atno 17395 bound_to 11000

$$$$
