AV-unprocessed.smi:1588|AV-procd|sdf|6391|dock5
  -GOLD-   22720 7 23D 1   1.00000     0.00000
 Structure written by MMmdl.
 37 38  0  0  0  0  0  0  0  0  2 V2000
  145.3549  131.9666  150.1797 C   0  0  0  0  0  0  0  0  0  0  0  0
  143.8549  132.1531  150.4459 C   0  0  0  0  0  0  0  0  0  0  0  0
  143.5327  133.5272  150.8991 N   0  3  1  0  0  0  0  0  0  0  0  0
  143.7508  133.7756  152.3425 C   0  0  0  0  0  0  0  0  0  0  0  0
  144.1069  135.2555  152.4525 C   0  0  0  0  0  0  0  0  0  0  0  0
  144.9253  135.4913  151.1852 C   0  0  2  0  0  0  0  0  0  0  0  0
  145.0474  136.9663  150.7555 C   0  0  0  0  0  0  0  0  0  0  0  0
  145.2957  137.8536  151.8871 N   0  0  0  0  0  0  0  0  0  0  0  0
  146.2062  138.8376  151.9063 C   0  0  0  0  0  0  0  0  0  0  0  0
  146.9506  139.0921  150.9592 O   0  0  0  0  0  0  0  0  0  0  0  0
  146.1951  139.4922  153.0790 N   0  0  0  0  0  0  0  0  0  0  0  0
  147.0113  140.5870  153.4609 C   0  0  0  0  0  0  0  0  0  0  0  0
  148.4049  140.6878  153.1996 C   0  0  0  0  0  0  0  0  0  0  0  0
  148.9051  141.8207  153.6721 N   0  0  0  0  0  0  0  0  0  0  0  0
  147.8439  142.4440  154.2325 N   0  0  0  0  0  0  0  0  0  0  0  0
  146.6704  141.7304  154.1279 C   0  0  0  0  0  0  0  0  0  0  0  0
  144.2337  134.5964  150.1474 C   0  0  0  0  0  0  0  0  0  0  0  0
  147.9355  143.3460  154.6781 H   0  0  0  0  0  0  0  0  0  0  0  0
  145.5709  130.9349  149.9007 H   0  0  0  0  0  0  0  0  0  0  0  0
  145.9447  132.1997  151.0668 H   0  0  0  0  0  0  0  0  0  0  0  0
  145.7021  132.6044  149.3666 H   0  0  0  0  0  0  0  0  0  0  0  0
  143.2762  131.9086  149.5537 H   0  0  0  0  0  0  0  0  0  0  0  0
  143.5497  131.4489  151.2211 H   0  0  0  0  0  0  0  0  0  0  0  0
  142.8726  133.5134  152.9330 H   0  0  0  0  0  0  0  0  0  0  0  0
  144.5887  133.1757  152.7019 H   0  0  0  0  0  0  0  0  0  0  0  0
  143.1993  135.8608  152.4388 H   0  0  0  0  0  0  0  0  0  0  0  0
  144.6572  135.4892  153.3645 H   0  0  0  0  0  0  0  0  0  0  0  0
  145.9242  135.0850  151.3544 H   0  0  0  0  0  0  0  0  0  0  0  0
  145.8431  137.0803  150.0173 H   0  0  0  0  0  0  0  0  0  0  0  0
  144.1278  137.2922  150.2686 H   0  0  0  0  0  0  0  0  0  0  0  0
  144.7251  137.7169  152.7089 H   0  0  0  0  0  0  0  0  0  0  0  0
  145.5295  139.1793  153.7703 H   0  0  0  0  0  0  0  0  0  0  0  0
  149.0569  139.9910  152.6935 H   0  0  0  0  0  0  0  0  0  0  0  0
  145.7348  142.0944  154.5262 H   0  0  0  0  0  0  0  0  0  0  0  0
  144.9539  134.2038  149.4278 H   0  0  0  0  0  0  0  0  0  0  0  0
  143.4841  135.1557  149.5864 H   0  0  0  0  0  0  0  0  0  0  0  0
  142.5482  133.6719  150.7258 H   0  0  0  0  0  0  0  0  0  0  0  0
  1  2  1  0  0  0  0
  1 19  1  0  0  0  0
  1 20  1  0  0  0  0
  1 21  1  0  0  0  0
  2  3  1  0  0  0  0
  2 22  1  0  0  0  0
  2 23  1  0  0  0  0
  3 17  1  0  0  0  0
  3  4  1  0  0  0  0
  3 37  1  0  0  0  0
  4  5  1  0  0  0  0
  4 24  1  0  0  0  0
  4 25  1  0  0  0  0
  5  6  1  0  0  0  0
  5 26  1  0  0  0  0
  5 27  1  0  0  0  0
  6  7  1  0  0  0  0
  6 17  1  0  0  0  0
  6 28  1  0  0  0  0
  7  8  1  0  0  0  0
  7 29  1  0  0  0  0
  7 30  1  0  0  0  0
  8  9  1  0  0  0  0
  8 31  1  0  0  0  0
  9 10  2  0  0  0  0
  9 11  1  0  0  0  0
 11 12  1  0  0  0  0
 11 32  1  0  0  0  0
 12 16  2  0  0  0  0
 12 13  1  0  0  0  0
 13 14  2  0  0  0  0
 13 33  1  0  0  0  0
 14 15  1  0  0  0  0
 15 18  1  0  0  0  0
 15 16  1  0  0  0  0
 16 34  1  0  0  0  0
 17 35  1  0  0  0  0
 17 36  1  0  0  0  0
M  CHG  1   3   1
M  END
> <s_m_source_file>
AV-unprocessed.smi

> <i_m_source_file_index>
1588

> <i_lp_mmshare_version>
43012

> <i_f3d_flags>
0

> <s_epik_input>
W0NIM11bQ0gyXU4xW0NIMl1bQ0gyXVtDQEhdKFtDSDJdMSlbQ0gyXVtOSF1DKD1PKVtOSF1jMltjSF1uW25IXVtjSF0y

> <s_epik_cmdline>
J2VwaWtfcHl0aG9uJywgJy1waCcsICc3LjAnLCAnLXRuJywgJzgnLCAnLW1hJywgJzIwMCcsICctbWV0YWxfYmluZGluZycsICctaW1hZScsICc8aW5maWxlLm1hZT4nLCAnLW9tYWUnLCAnPG91dGZpbGUubWFlPic=

> <r_lp_tautomer_probability>
0.5

> <r_epik_Ionization_Penalty>
0.000628417

> <r_epik_Ionization_Penalty_Charging>
0.000582718

> <r_epik_Ionization_Penalty_Neutral>
4.56984e-05

> <r_epik_State_Penalty>
0.000366292

> <r_epik_Charging_Adjusted_Penalty>
0.00094901

> <i_epik_Tot_Q>
1

> <i_epik_Tot_abs_Q>
1

> <r_epik_Metal_State_Penalty>
-0

> <b_epik_Metal_Only>
0

> <s_lp_Force_Field>
OPLS_2005

> <r_lp_Energy>
31.1472

> <b_lp_Chiralities_Consistent>
1

> <s_lp_Variant>
AV-unprocessed.smi:1588-3

> <Gold.Version>
5.8.1

> <Gold.Id.Protein>
6NUR|6NUR_protein|mol2

> <Gold.PLP.Fitness>
41.6014

> <Gold.PLP.PLP>
-27.7698

> <Gold.PLP.part.hbond>
-6.7219

> <Gold.PLP.part.metal>
0.0000

> <Gold.PLP.part.buried>
5.4743

> <Gold.PLP.part.nonpolar>
-30.2961

> <Gold.PLP.part.repulsive>
4.2526

> <Gold.PLP.ligand.clash>
0.0000

> <Gold.PLP.ligand.torsion>
0.7761

> <Gold.PLP.Chemscore.Hbond>
4.4400

> <Gold.PLP.Chemscore.CHOScore>
0.6846

> <Gold.PLP.Chemscore.Metal>
0.0000

> <Gold.Chemscore.Hbonds>
donor molecule, donor type, donor heavy atom, donor atom, acceptor molecule, acceptor atom, score
      L1  H     3    37       P1 10186  1.79
      L1  H    15    18       P1  8028  1.00
      P1  H  7954  7966       L1    10  0.75
      P1  H  8011  8017       L1    14  0.59

> <Gold.PLP.Chemscore.Internal.Correction>
0.0101

> <Gold.Rescore>
     Score         DG    S(hbond)    S(metal)    S(lipo)     H(rot)  DE(clash)    DE(int)     intcor
     13.59     -19.99       2.88        0.00      76.34       1.58       5.44       0.97       ----

> <Gold.Chemscore.Fitness>
13.5905

> <Gold.Chemscore.DG>
-19.9937

> <Gold.Chemscore.ZeroCoef>
-5.4800

> <Gold.Chemscore.Hbond>
2.8788

> <Gold.Chemscore.Metal>
0.0000

> <Gold.Chemscore.Lipo>
76.3357

> <Gold.Chemscore.Internal_Hbond>
0.0000

> <Gold.Chemscore.DEClash>
5.4351

> <Gold.Chemscore.DEInternal>
0.9682

> <Gold.Chemscore.Rot>
1.5753

> <Gold.Chemscore.Internal.Correction>
   9.000000E+99

> <Gold.Chemscore.Hbonds>
donor molecule, donor type, donor heavy atom, donor atom, acceptor molecule, acceptor atom, score
      L1  H     3    37       P1 10186  0.75
      L1  H    15    18       P1  8028  0.77
      P1  H  7954  7966       L1    10  0.70
      P1  H  8011  8017       L1    14  0.23

> <Gold.Chemscore.Hbond.Weighted>
-9.6152

> <Gold.Chemscore.Metal.Weighted>
-0.0000

> <Gold.Chemscore.Lipo.Weighted>
-8.9313

> <Gold.Chemscore.Internal_Hbond.Weighted>
0.0000

> <Gold.Chemscore.DEClash.Weighted>
5.4351

> <Gold.Chemscore.DEInternal.Weighted>
0.9682

> <Gold.Chemscore.Rot.Weighted>
4.0328

> <Gold.Chemscore.Internal.Correction.Weighted>
   9.000000E+99

> <Gold.Protein.RotatedTorsions>
[ 6907 6896 6895 6894 ] final -145.84 input  -60.11 | X-H torsion
[ 7974 7965 7964 7962 ] final  146.70 input  175.53 | X-H torsion
[ 8008 7997 7996 7995 ] final  151.20 input   59.86 | X-H torsion
[ 10167 10162 10161 10158 ] final -109.69 input  -65.29 | X-H torsion
[ 10718 10713 10712 10709 ] final  140.74 input   66.30 | X-H torsion
[ 10763 10752 10751 10750 ] final -123.83 input  -60.55 | X-H torsion
[ 11005 11000 10999 10996 ] final   52.84 input  -57.11 | X-H torsion

> <Gold.Protein.ActiveResidues>
 VAL166  LYS551  ARG553  GLY616  TRP617  ASP618  TYR619  PRO620  LYS621  CYS622 
 ASP623  PHE694  ASN695  SER759  ASP760  ASP761  ALA762  ILE779  LEU786  VAL792 
 PHE793  MET794  SER795  GLU796  ALA797  LYS798  CYS799  TRP800  GLU811  SER814 

> <Gold.Protein.RotatedAtoms>
  151.1334  133.5021  159.2598 H   0  0  0  0  0  0  0  0  0  0  0  0  # atno 6907 bound_to 6896
  151.1733  135.0327  159.8771 H   0  0  0  0  0  0  0  0  0  0  0  0  # atno 6908 bound_to 6896
  152.5460  134.1194  159.8446 H   0  0  0  0  0  0  0  0  0  0  0  0  # atno 6909 bound_to 6896
  144.8650  139.5937  143.5913 H   0  0  0  0  0  0  0  0  0  0  0  0  # atno 7974 bound_to 7965
  156.2684  140.2054  156.6138 H   0  0  0  0  0  0  0  0  0  0  0  0  # atno 8008 bound_to 7997
  154.6810  140.0540  157.0290 H   0  0  0  0  0  0  0  0  0  0  0  0  # atno 8009 bound_to 7997
  155.1000  140.3205  155.4552 H   0  0  0  0  0  0  0  0  0  0  0  0  # atno 8010 bound_to 7997
  140.1526  143.4186  152.1484 H   0  0  0  0  0  0  0  0  0  0  0  0  # atno 10167 bound_to 10162
  157.3999  131.1015  151.0562 H   0  0  0  0  0  0  0  0  0  0  0  0  # atno 10718 bound_to 10713
  154.8714  135.4084  154.3007 H   0  0  0  0  0  0  0  0  0  0  0  0  # atno 10763 bound_to 10752
  153.3867  135.7013  153.6530 H   0  0  0  0  0  0  0  0  0  0  0  0  # atno 10764 bound_to 10752
  153.5330  135.3663  155.2655 H   0  0  0  0  0  0  0  0  0  0  0  0  # atno 10765 bound_to 10752
  140.0816  134.5331  155.8941 H   0  0  0  0  0  0  0  0  0  0  0  0  # atno 11005 bound_to 11000
  146.2889  139.7083  142.9175 LP  0  0  0  0  0  0  0  0  0  0  0  0  # atno 17320 bound_to 7965
  145.4238  141.0409  143.2949 LP  0  0  0  0  0  0  0  0  0  0  0  0  # atno 17321 bound_to 7965
  139.5418  144.7264  151.4708 LP  0  0  0  0  0  0  0  0  0  0  0  0  # atno 17342 bound_to 10162
  140.6693  143.8329  150.6979 LP  0  0  0  0  0  0  0  0  0  0  0  0  # atno 17343 bound_to 10162
  157.1565  130.6207  149.5598 LP  0  0  0  0  0  0  0  0  0  0  0  0  # atno 17370 bound_to 10713
  155.9820  130.4831  150.6859 LP  0  0  0  0  0  0  0  0  0  0  0  0  # atno 17371 bound_to 10713
  141.2048  133.6642  156.6145 LP  0  0  0  0  0  0  0  0  0  0  0  0  # atno 17394 bound_to 11000
  140.3480  134.7793  157.4446 LP  0  0  0  0  0  0  0  0  0  0  0  0  # atno 17395 bound_to 11000

$$$$
