AV-unprocessed.smi:1821|AV-procd|sdf|7388|dock1
  -GOLD-   22720 9 53D 1   1.00000     0.00000
 Structure written by MMmdl.
 36 38  0  0  0  0  0  0  0  0  2 V2000
  151.6807  137.7346  154.5005 C   0  0  0  0  0  0  0  0  0  0  0  0
  150.5674  138.7185  154.3658 C   0  0  0  0  0  0  0  0  0  0  0  0
  149.4861  138.5999  153.5443 N   0  3  0  0  0  0  0  0  0  0  0  0
  148.6604  139.7165  153.6859 C   0  0  0  0  0  0  0  0  0  0  0  0
  147.4608  140.0495  153.0643 C   0  0  0  0  0  0  0  0  0  0  0  0
  146.8727  141.2755  153.4395 C   0  0  0  0  0  0  0  0  0  0  0  0
  147.4750  142.1164  154.3982 C   0  0  0  0  0  0  0  0  0  0  0  0
  148.6908  141.7679  155.0224 C   0  0  0  0  0  0  0  0  0  0  0  0
  149.2659  140.5552  154.6438 C   0  0  0  0  0  0  0  0  0  0  0  0
  150.4397  139.9013  155.0321 N   0  0  0  0  0  0  0  0  0  0  0  0
  151.3177  140.5336  156.0280 C   0  0  0  0  0  0  0  0  0  0  0  0
  150.9441  140.1625  157.4779 C   0  0  2  0  0  0  0  0  0  0  0  0
  149.5556  140.3436  157.6831 O   0  0  0  0  0  0  0  0  0  0  0  0
  151.7930  140.9303  158.4849 C   0  0  0  0  0  0  0  0  0  0  0  0
  151.7833  142.3457  158.5126 C   0  0  0  0  0  0  0  0  0  0  0  0
  151.0202  143.0477  157.6404 F   0  0  0  0  0  0  0  0  0  0  0  0
  152.5753  143.0432  159.4454 C   0  0  0  0  0  0  0  0  0  0  0  0
  153.3864  142.3375  160.3528 C   0  0  0  0  0  0  0  0  0  0  0  0
  153.4088  140.9309  160.3251 C   0  0  0  0  0  0  0  0  0  0  0  0
  152.6191  140.2285  159.3939 C   0  0  0  0  0  0  0  0  0  0  0  0
  152.6650  138.8743  159.3773 F   0  0  0  0  0  0  0  0  0  0  0  0
  151.5641  136.9220  153.7830 H   0  0  0  0  0  0  0  0  0  0  0  0
  151.6891  137.3124  155.5055 H   0  0  0  0  0  0  0  0  0  0  0  0
  152.6391  138.2217  154.3194 H   0  0  0  0  0  0  0  0  0  0  0  0
  146.9976  139.4077  152.3293 H   0  0  0  0  0  0  0  0  0  0  0  0
  145.9414  141.5773  152.9823 H   0  0  0  0  0  0  0  0  0  0  0  0
  146.9954  143.0483  154.6600 H   0  0  0  0  0  0  0  0  0  0  0  0
  149.1462  142.4191  155.7541 H   0  0  0  0  0  0  0  0  0  0  0  0
  152.3475  140.2502  155.8061 H   0  0  0  0  0  0  0  0  0  0  0  0
  151.2593  141.6128  155.8827 H   0  0  0  0  0  0  0  0  0  0  0  0
  151.1191  139.0963  157.6195 H   0  0  0  0  0  0  0  0  0  0  0  0
  149.3905  141.2632  157.8248 H   0  0  0  0  0  0  0  0  0  0  0  0
  152.5616  144.1231  159.4626 H   0  0  0  0  0  0  0  0  0  0  0  0
  153.9937  142.8746  161.0665 H   0  0  0  0  0  0  0  0  0  0  0  0
  154.0350  140.3891  161.0186 H   0  0  0  0  0  0  0  0  0  0  0  0
  149.3286  137.8119  152.9292 H   0  0  0  0  0  0  0  0  0  0  0  0
  1  2  1  0  0  0  0
  1 22  1  0  0  0  0
  1 23  1  0  0  0  0
  1 24  1  0  0  0  0
  2 10  1  0  0  0  0
  2  3  2  0  0  0  0
  3  4  1  0  0  0  0
  3 36  1  0  0  0  0
  4  9  2  0  0  0  0
  4  5  1  0  0  0  0
  5  6  2  0  0  0  0
  5 25  1  0  0  0  0
  6  7  1  0  0  0  0
  6 26  1  0  0  0  0
  7  8  2  0  0  0  0
  7 27  1  0  0  0  0
  8  9  1  0  0  0  0
  8 28  1  0  0  0  0
  9 10  1  0  0  0  0
 10 11  1  0  0  0  0
 11 12  1  0  0  0  0
 11 29  1  0  0  0  0
 11 30  1  0  0  0  0
 12 13  1  0  0  0  0
 12 14  1  0  0  0  0
 12 31  1  0  0  0  0
 13 32  1  0  0  0  0
 14 20  1  0  0  0  0
 14 15  2  0  0  0  0
 15 16  1  0  0  0  0
 15 17  1  0  0  0  0
 17 18  2  0  0  0  0
 17 33  1  0  0  0  0
 18 19  1  0  0  0  0
 18 34  1  0  0  0  0
 19 20  2  0  0  0  0
 19 35  1  0  0  0  0
 20 21  1  0  0  0  0
M  CHG  1   3   1
M  END
> <s_m_source_file>
AV-unprocessed.smi

> <i_m_source_file_index>
1821

> <i_lp_mmshare_version>
43012

> <i_f3d_flags>
0

> <s_epik_input>
W2NIXTFbY0hdW2NIXVtjSF1jKGMxMiluKGMobjIpW0NIM10pW0NIMl1bQ0BIXShbT0hdKWMzYyhGKVtjSF1bY0hdW2NIXWMzRg==

> <s_epik_cmdline>
J2VwaWtfcHl0aG9uJywgJy1waCcsICc3LjAnLCAnLXRuJywgJzgnLCAnLW1hJywgJzIwMCcsICctbWV0YWxfYmluZGluZycsICctaW1hZScsICc8aW5maWxlLm1hZT4nLCAnLW9tYWUnLCAnPG91dGZpbGUubWFlPic=

> <r_epik_Ionization_Penalty>
0.963869

> <r_epik_Ionization_Penalty_Charging>
0.963868

> <r_epik_Ionization_Penalty_Neutral>
1.34362e-06

> <r_epik_State_Penalty>
1.00924

> <r_epik_Charging_Adjusted_Penalty>
1.9731

> <i_epik_Tot_Q>
1

> <i_epik_Tot_abs_Q>
1

> <r_epik_Metal_State_Penalty>
4.98304

> <b_epik_Metal_Only>
0

> <s_lp_Force_Field>
OPLS_2005

> <r_lp_Energy>
15.8254

> <b_lp_Chiralities_Consistent>
1

> <s_lp_Variant>
AV-unprocessed.smi:1821-3

> <Gold.Version>
5.8.1

> <Gold.Id.Protein>
6NUR|6NUR_protein|mol2

> <Gold.PLP.Fitness>
53.2623

> <Gold.PLP.PLP>
-48.0863

> <Gold.PLP.part.hbond>
-2.0000

> <Gold.PLP.part.metal>
0.0000

> <Gold.PLP.part.buried>
1.2010

> <Gold.PLP.part.nonpolar>
-47.5350

> <Gold.PLP.part.repulsive>
0.0789

> <Gold.PLP.ligand.clash>
0.0000

> <Gold.PLP.ligand.torsion>
0.4295

> <Gold.PLP.Chemscore.Hbond>
2.0000

> <Gold.PLP.Chemscore.CHOScore>
0.0000

> <Gold.PLP.Chemscore.Metal>
0.0000

> <Gold.Chemscore.Hbonds>
donor molecule, donor type, donor heavy atom, donor atom, acceptor molecule, acceptor atom, score
      L1  H     3    36       P1  7948  2.00

> <Gold.PLP.Chemscore.Internal.Correction>
0.0350

> <Gold.Rescore>
     Score         DG    S(hbond)    S(metal)    S(lipo)     H(rot)  DE(clash)    DE(int)     intcor
     15.83     -17.74       0.97        0.00     119.49       1.94       0.32       1.58       ----

> <Gold.Chemscore.Fitness>
15.8340

> <Gold.Chemscore.DG>
-17.7403

> <Gold.Chemscore.ZeroCoef>
-5.4800

> <Gold.Chemscore.Hbond>
0.9699

> <Gold.Chemscore.Metal>
0.0000

> <Gold.Chemscore.Lipo>
119.4929

> <Gold.Chemscore.Internal_Hbond>
0.0000

> <Gold.Chemscore.DEClash>
0.3228

> <Gold.Chemscore.DEInternal>
1.5835

> <Gold.Chemscore.Rot>
1.9375

> <Gold.Chemscore.Internal.Correction>
   9.000000E+99

> <Gold.Chemscore.Hbonds>
donor molecule, donor type, donor heavy atom, donor atom, acceptor molecule, acceptor atom, score
      L1  H     3    36       P1  7948  0.94

> <Gold.Chemscore.Hbond.Weighted>
-3.2395

> <Gold.Chemscore.Metal.Weighted>
-0.0000

> <Gold.Chemscore.Lipo.Weighted>
-13.9807

> <Gold.Chemscore.Internal_Hbond.Weighted>
0.0000

> <Gold.Chemscore.DEClash.Weighted>
0.3228

> <Gold.Chemscore.DEInternal.Weighted>
1.5835

> <Gold.Chemscore.Rot.Weighted>
4.9599

> <Gold.Chemscore.Internal.Correction.Weighted>
   9.000000E+99

> <Gold.Protein.RotatedTorsions>
[ 6907 6896 6895 6894 ] final   19.06 input  -60.11 | X-H torsion
[ 7974 7965 7964 7962 ] final -138.78 input  175.53 | X-H torsion
[ 8008 7997 7996 7995 ] final  -43.56 input   59.86 | X-H torsion
[ 10167 10162 10161 10158 ] final  100.26 input  -65.29 | X-H torsion
[ 10718 10713 10712 10709 ] final   24.49 input   66.30 | X-H torsion
[ 10763 10752 10751 10750 ] final  133.34 input  -60.55 | X-H torsion
[ 11005 11000 10999 10996 ] final  -80.20 input  -57.11 | X-H torsion

> <Gold.Protein.ActiveResidues>
 VAL166  LYS551  ARG553  GLY616  TRP617  ASP618  TYR619  PRO620  LYS621  CYS622 
 ASP623  PHE694  ASN695  SER759  ASP760  ASP761  ALA762  ILE779  LEU786  VAL792 
 PHE793  MET794  SER795  GLU796  ALA797  LYS798  CYS799  TRP800  GLU811  SER814 

> <Gold.Protein.RotatedAtoms>
  151.8750  135.0475  160.0482 H   0  0  0  0  0  0  0  0  0  0  0  0  # atno 6907 bound_to 6896
  152.2558  133.5250  159.5361 H   0  0  0  0  0  0  0  0  0  0  0  0  # atno 6908 bound_to 6896
  150.7099  134.0814  159.3941 H   0  0  0  0  0  0  0  0  0  0  0  0  # atno 6909 bound_to 6896
  144.8730  140.6395  143.5255 H   0  0  0  0  0  0  0  0  0  0  0  0  # atno 7974 bound_to 7965
  154.3997  140.1444  156.3539 H   0  0  0  0  0  0  0  0  0  0  0  0  # atno 8008 bound_to 7997
  155.8244  140.3468  155.5512 H   0  0  0  0  0  0  0  0  0  0  0  0  # atno 8009 bound_to 7997
  155.8254  140.0904  157.1814 H   0  0  0  0  0  0  0  0  0  0  0  0  # atno 8010 bound_to 7997
  139.7543  144.6974  151.0386 H   0  0  0  0  0  0  0  0  0  0  0  0  # atno 10167 bound_to 10162
  157.1804  130.6800  149.6111 H   0  0  0  0  0  0  0  0  0  0  0  0  # atno 10718 bound_to 10713
  153.8056  135.3136  155.3395 H   0  0  0  0  0  0  0  0  0  0  0  0  # atno 10763 bound_to 10752
  154.8072  135.4690  154.0425 H   0  0  0  0  0  0  0  0  0  0  0  0  # atno 10764 bound_to 10752
  153.1787  135.6890  153.8596 H   0  0  0  0  0  0  0  0  0  0  0  0  # atno 10765 bound_to 10752
  141.1668  133.7139  156.8237 H   0  0  0  0  0  0  0  0  0  0  0  0  # atno 11005 bound_to 11000
  145.4095  139.1582  143.4133 LP  0  0  0  0  0  0  0  0  0  0  0  0  # atno 17320 bound_to 7965
  146.2943  140.4198  142.8727 LP  0  0  0  0  0  0  0  0  0  0  0  0  # atno 17321 bound_to 7965
  140.7801  143.4772  151.0067 LP  0  0  0  0  0  0  0  0  0  0  0  0  # atno 17342 bound_to 10162
  139.8459  143.7502  152.3179 LP  0  0  0  0  0  0  0  0  0  0  0  0  # atno 17343 bound_to 10162
  155.9725  130.4648  150.6232 LP  0  0  0  0  0  0  0  0  0  0  0  0  # atno 17370 bound_to 10713
  157.3958  131.0802  151.1353 LP  0  0  0  0  0  0  0  0  0  0  0  0  # atno 17371 bound_to 10713
  140.2101  134.8834  157.3265 LP  0  0  0  0  0  0  0  0  0  0  0  0  # atno 17394 bound_to 11000
  140.2096  134.4155  155.7620 LP  0  0  0  0  0  0  0  0  0  0  0  0  # atno 17395 bound_to 11000

$$$$
