#       Name:                AV-unprocessed.smi:674
#       Creating user name   scv26
#       Creation time:       Fri Mar 27 00:26:21 2020


#       File generated by GOLD software.
#

@<TRIPOS>MOLECULE
AV-unprocessed.smi:674
    52    53     1
SMALL
NO_CHARGES


@<TRIPOS>ATOM
      1 ****        -5.4507   4.1000  -1.9478 C.3            1 S1                 0.0000
      2 ****        -4.8243   3.9277  -0.5592 C.3            1 S1                 0.0000
      3 ****        -4.1635   2.5872  -0.4034 C.2            1 S1                 0.0000
      4 ****        -2.7749   2.2806  -0.4945 C.2            1 S1                 0.0000
      5 ****        -2.7491   0.9286  -0.2863 C.2            1 S1                 0.0000
      6 ****        -1.6797   0.0890  -0.2784 N.am           1 S1                 0.0000
      7 ****        -0.3740   0.3896  -0.3903 C.2            1 S1                 0.0000
      8 ****         0.0937   1.5248  -0.4833 O.2            1 S1                 0.0000
      9 ****         0.3794  -0.7181  -0.3812 N.am           1 S1                 0.0000
     10 ****         1.8347  -0.7235  -0.4832 C.3            1 S1                 0.0000
     11 ****         2.4097  -2.1283  -0.6476 C.3            1 S1                 0.0000
     12 ****         3.5809  -1.6543   0.2325 C.3            1 S1                 0.0000
     13 ****         4.8393  -1.1211  -0.4705 C.3            1 S1                 0.0000
     14 ****         3.9450  -2.6268   1.2133 O.3            1 S1                 0.0000
     15 ****         4.4986  -3.8408   0.7211 C.3            1 S1                 0.0000
     16 ****         2.5819  -0.6347   0.8715 C.3            1 S1                 0.0000
     17 ****         3.1391   0.7449   1.2365 C.3            1 S1                 0.0000
     18 ****         1.8171  -1.1221   2.1188 C.3            1 S1                 0.0000
     19 ****        -4.0394   0.4847  -0.0886 N.pl3          1 S1                 0.0000
     20 ****        -4.5429  -0.8515   0.1647 C.3            1 S1                 0.0000
     21 ****        -4.9091   1.5147  -0.1604 N.2            1 S1                 0.0000
     22 ****        -5.9236   5.0775  -2.0423 H              1 S1                 0.0000
     23 ****        -6.2131   3.3427  -2.1335 H              1 S1                 0.0000
     24 ****        -4.6976   4.0164  -2.7321 H              1 S1                 0.0000
     25 ****        -4.0955   4.7213  -0.3917 H              1 S1                 0.0000
     26 ****        -5.5922   4.0573   0.2044 H              1 S1                 0.0000
     27 ****        -1.9541   2.9544  -0.6885 H              1 S1                 0.0000
     28 ****        -1.9031  -0.8903  -0.1800 H              1 S1                 0.0000
     29 ****        -0.0787  -1.6135  -0.2954 H              1 S1                 0.0000
     30 ****         2.2290  -0.0358  -1.2352 H              1 S1                 0.0000
     31 ****         1.8016  -2.9091  -0.1867 H              1 S1                 0.0000
     32 ****         2.6824  -2.3873  -1.6709 H              1 S1                 0.0000
     33 ****         4.6137  -0.2788  -1.1243 H              1 S1                 0.0000
     34 ****         5.3059  -1.8787  -1.0995 H              1 S1                 0.0000
     35 ****         5.5839  -0.7839   0.2507 H              1 S1                 0.0000
     36 ****         4.6389  -4.5309   1.5527 H              1 S1                 0.0000
     37 ****         5.4744  -3.6866   0.2613 H              1 S1                 0.0000
     38 ****         3.8425  -4.3261  -0.0017 H              1 S1                 0.0000
     39 ****         3.8925   0.6752   2.0216 H              1 S1                 0.0000
     40 ****         2.3535   1.4129   1.5913 H              1 S1                 0.0000
     41 ****         3.6033   1.2377   0.3826 H              1 S1                 0.0000
     42 ****         2.4757  -1.1995   2.9845 H              1 S1                 0.0000
     43 ****         1.3679  -2.1045   1.9725 H              1 S1                 0.0000
     44 ****         1.0100  -0.4401   2.3884 H              1 S1                 0.0000
     45 ****        -3.7216  -1.5583   0.2826 H              1 S1                 0.0000
     46 ****        -5.1674  -1.1714  -0.6699 H              1 S1                 0.0000
     47 ****        -5.1397  -0.8526   1.0771 H              1 S1                 0.0000
     48 ****        -0.5150   2.3183  -0.4793 LP             1 S1                 0.0000
     49 ****         1.0822   1.6534  -0.5630 LP             1 S1                 0.0000
     50 ****         3.1232  -2.8560   1.7349 LP             1 S1                 0.0000
     51 ****         4.6198  -2.2085   1.8213 LP             1 S1                 0.0000
     52 ****        -5.9027   1.4783  -0.0535 LP             1 S1                 0.0000
@<TRIPOS>BOND
    1    1    2 1     
    2    1   22 1     
    3    1   23 1     
    4    1   24 1     
    5    2    3 1     
    6    2   25 1     
    7    2   26 1     
    8    3   21 2     
    9    3    4 1     
   10    4    5 2     
   11    4   27 1     
   12    5    6 1     
   13    5   19 1     
   14    6    7 am    
   15    6   28 1     
   16    7    8 2     
   17    7    9 am    
   18    9   10 1     
   19    9   29 1     
   20   10   16 1     
   21   10   11 1     
   22   10   30 1     
   23   11   12 1     
   24   11   31 1     
   25   11   32 1     
   26   12   13 1     
   27   12   14 1     
   28   12   16 1     
   29   13   33 1     
   30   13   34 1     
   31   13   35 1     
   32   14   15 1     
   33   15   36 1     
   34   15   37 1     
   35   15   38 1     
   36   16   17 1     
   37   16   18 1     
   38   17   39 1     
   39   17   40 1     
   40   17   41 1     
   41   18   42 1     
   42   18   43 1     
   43   18   44 1     
   44   19   20 1     
   45   19   21 1     
   46   20   45 1     
   47   20   46 1     
   48   20   47 1     
   49    8   48 1     
   50    8   49 1     
   51   14   50 1     
   52   14   51 1     
   53   21   52 1     
@<TRIPOS>SUBSTRUCTURE
      1 S1             1
@<TRIPOS>SET
LONE_PAIRS      STATIC     ATOMS    <user>   **** ""
5 48 49 50 51 52
DONOR_HYDROGENS      STATIC     ATOMS    <user>   **** ""
2 28 29
ATOM$BLUE        STATIC     ATOMS    COLORGROUP SYSTEM
5 48 49 50 51 52
ATOM$RED        STATIC     ATOMS    COLORGROUP SYSTEM
2 28 29
