AV-unprocessed.smi:40|AV-procd|sdf|379|dock9
  -GOLD-   2262016233D 1   1.00000     0.00000
 Structure written by MMmdl.
 47 48  0  0  0  0  0  0  0  0  1 V2000
  151.8623  144.3024  158.6195 C   0  0  0  0  0  0  0  0  0  0  0  0
  152.8251  143.4076  159.4079 C   0  0  0  0  0  0  0  0  0  0  0  0
  152.4282  141.9260  159.3517 C   0  0  0  0  0  0  0  0  0  0  0  0
  153.5617  140.9890  159.8023 C   0  0  0  0  0  0  0  0  0  0  0  0
  153.1200  139.5237  159.9264 C   0  0  0  0  0  0  0  0  0  0  0  0
  152.7077  139.0624  158.6514 O   0  0  0  0  0  0  0  0  0  0  0  0
  152.2816  137.8022  158.4713 C   0  0  0  0  0  0  0  0  0  0  0  0
  152.2143  136.9666  159.3725 O   0  0  0  0  0  0  0  0  0  0  0  0
  151.9143  137.5454  157.0843 N   0  0  0  0  0  0  0  0  0  0  0  0
  151.4430  136.4173  156.4907 C   0  0  0  0  0  0  0  0  0  0  0  0
  151.6647  135.1975  156.9546 N   0  0  0  0  0  0  0  0  0  0  0  0
  151.1880  134.0514  156.3805 C   0  0  0  0  0  0  0  0  0  0  0  0
  151.4138  132.9585  156.8944 O   0  0  0  0  0  0  0  0  0  0  0  0
  150.4279  134.1880  155.1934 N   0  0  0  0  0  0  0  0  0  0  0  0
  149.8155  132.9783  154.5162 C   0  0  2  0  0  0  0  0  0  0  0  0
  149.2173  133.3821  153.3237 O   0  0  0  0  0  0  0  0  0  0  0  0
  148.1067  132.5342  153.0625 C   0  0  2  0  0  0  0  0  0  0  0  0
  147.1545  133.1675  152.0373 C   0  0  0  0  0  0  0  0  0  0  0  0
  147.5181  132.2282  154.4494 C   0  0  2  0  0  0  0  0  0  0  0  0
  146.5671  133.2028  154.8397 O   0  0  0  0  0  0  0  0  0  0  0  0
  148.7587  132.2079  155.3443 C   0  0  2  0  0  0  0  0  0  0  0  0
  148.5361  132.6713  156.6658 O   0  0  0  0  0  0  0  0  0  0  0  0
  150.1694  135.4557  154.6958 C   0  0  0  0  0  0  0  0  0  0  0  0
  150.6484  136.5702  155.2902 C   0  0  0  0  0  0  0  0  0  0  0  0
  150.3862  137.7859  154.7791 F   0  0  0  0  0  0  0  0  0  0  0  0
  150.6575  132.3334  154.2614 H   0  0  0  0  0  0  0  0  0  0  0  0
  148.5035  131.6064  152.6467 H   0  0  0  0  0  0  0  0  0  0  0  0
  147.0129  131.2619  154.4579 H   0  0  0  0  0  0  0  0  0  0  0  0
  149.1165  131.1803  155.4192 H   0  0  0  0  0  0  0  0  0  0  0  0
  152.1675  145.3473  158.6772 H   0  0  0  0  0  0  0  0  0  0  0  0
  150.8477  144.2307  159.0134 H   0  0  0  0  0  0  0  0  0  0  0  0
  151.8349  144.0206  157.5666 H   0  0  0  0  0  0  0  0  0  0  0  0
  153.8366  143.5321  159.0200 H   0  0  0  0  0  0  0  0  0  0  0  0
  152.8484  143.7404  160.4464 H   0  0  0  0  0  0  0  0  0  0  0  0
  151.5537  141.7738  159.9851 H   0  0  0  0  0  0  0  0  0  0  0  0
  152.1216  141.6666  158.3379 H   0  0  0  0  0  0  0  0  0  0  0  0
  154.3857  141.0519  159.0909 H   0  0  0  0  0  0  0  0  0  0  0  0
  153.9578  141.3261  160.7610 H   0  0  0  0  0  0  0  0  0  0  0  0
  153.9381  138.9055  160.2984 H   0  0  0  0  0  0  0  0  0  0  0  0
  152.2957  139.4445  160.6365 H   0  0  0  0  0  0  0  0  0  0  0  0
  152.0075  138.3537  156.4863 H   0  0  0  0  0  0  0  0  0  0  0  0
  146.2834  132.5343  151.8680 H   0  0  0  0  0  0  0  0  0  0  0  0
  147.6561  133.3074  151.0797 H   0  0  0  0  0  0  0  0  0  0  0  0
  146.8027  134.1456  152.3669 H   0  0  0  0  0  0  0  0  0  0  0  0
  146.5003  133.8467  154.1513 H   0  0  0  0  0  0  0  0  0  0  0  0
  147.7588  133.2084  156.6683 H   0  0  0  0  0  0  0  0  0  0  0  0
  149.5721  135.5723  153.8028 H   0  0  0  0  0  0  0  0  0  0  0  0
  1  2  1  0  0  0  0
  1 30  1  0  0  0  0
  1 31  1  0  0  0  0
  1 32  1  0  0  0  0
  2  3  1  0  0  0  0
  2 33  1  0  0  0  0
  2 34  1  0  0  0  0
  3  4  1  0  0  0  0
  3 35  1  0  0  0  0
  3 36  1  0  0  0  0
  4  5  1  0  0  0  0
  4 37  1  0  0  0  0
  4 38  1  0  0  0  0
  5  6  1  0  0  0  0
  5 39  1  0  0  0  0
  5 40  1  0  0  0  0
  6  7  1  0  0  0  0
  7  8  2  0  0  0  0
  7  9  1  0  0  0  0
  9 10  1  0  0  0  0
  9 41  1  0  0  0  0
 10 24  1  0  0  0  0
 10 11  2  0  0  0  0
 11 12  1  0  0  0  0
 12 13  2  0  0  0  0
 12 14  1  0  0  0  0
 14 15  1  0  0  0  0
 14 23  1  0  0  0  0
 15 26  1  0  0  0  0
 15 21  1  0  0  0  0
 15 16  1  0  0  0  0
 16 17  1  0  0  0  0
 17 27  1  0  0  0  0
 17 18  1  0  0  0  0
 17 19  1  0  0  0  0
 18 42  1  0  0  0  0
 18 43  1  0  0  0  0
 18 44  1  0  0  0  0
 19 28  1  0  0  0  0
 19 20  1  0  0  0  0
 19 21  1  0  0  0  0
 20 45  1  0  0  0  0
 21 29  1  0  0  0  0
 21 22  1  0  0  0  0
 22 46  1  0  0  0  0
 23 24  2  0  0  0  0
 23 47  1  0  0  0  0
 24 25  1  0  0  0  0
M  END
> <s_m_source_file>
AV-unprocessed.smi

> <i_m_source_file_index>
40

> <i_lp_mmshare_version>
43012

> <i_f3d_flags>
0

> <s_epik_input>
W0NIM11bQ0gyXVtDSDJdW0NIMl1bQ0gyXU9DKD1PKVtOSF1jMW5jKD1PKW4oW2NIXWMxRilbQ0BASF0yT1tDQEhdKFtDSDNdKVtDQEBIXShbT0hdKVtDQEhdMltPSF0=

> <s_epik_cmdline>
J2VwaWtfcHl0aG9uJywgJy1waCcsICc3LjAnLCAnLXRuJywgJzgnLCAnLW1hJywgJzIwMCcsICctbWV0YWxfYmluZGluZycsICctaW1hZScsICc8aW5maWxlLm1hZT4nLCAnLW9tYWUnLCAnPG91dGZpbGUubWFlPic=

> <r_lp_tautomer_probability>
1

> <r_epik_Ionization_Penalty>
2.29506e-06

> <r_epik_Ionization_Penalty_Charging>
8.26867e-09

> <r_epik_Ionization_Penalty_Neutral>
2.2868e-06

> <r_epik_State_Penalty>
-0

> <r_epik_Charging_Adjusted_Penalty>
8.26867e-09

> <i_epik_Tot_Q>
0

> <i_epik_Tot_abs_Q>
0

> <r_epik_Metal_State_Penalty>
-0

> <b_epik_Metal_Only>
0

> <s_epik_Chemistry_Notes>
This compound has an ester and may undergo hydrolysis at high or low pH. This compound contains an acetal/aminal-like group ( X-CH(R)-Y where X, Y are N, S, or O) that may be acid/base labile, releasing an aldehyde.

> <s_lp_Force_Field>
OPLS_2005

> <r_lp_Energy>
38.6632

> <b_lp_Chiralities_Consistent>
1

> <s_lp_Variant>
AV-unprocessed.smi:40-13

> <Gold.Version>
5.8.1

> <Gold.Id.Protein>
6NUR|6NUR_protein|mol2

> <Gold.PLP.Fitness>
46.8720

> <Gold.PLP.PLP>
-40.1475

> <Gold.PLP.part.hbond>
-3.0000

> <Gold.PLP.part.metal>
0.0000

> <Gold.PLP.part.buried>
-5.6775

> <Gold.PLP.part.nonpolar>
-33.8890

> <Gold.PLP.part.repulsive>
0.3126

> <Gold.PLP.ligand.clash>
0.0000

> <Gold.PLP.ligand.torsion>
0.2866

> <Gold.PLP.Chemscore.Hbond>
1.5262

> <Gold.PLP.Chemscore.CHOScore>
0.8712

> <Gold.PLP.Chemscore.Metal>
0.0000

> <Gold.Chemscore.Hbonds>
donor molecule, donor type, donor heavy atom, donor atom, acceptor molecule, acceptor atom, score
      P1  H  6896  6907       L1     8  0.79
      L1  C    23    47       P1  7948  0.97

> <Gold.PLP.Chemscore.Internal.Correction>
0.1056

> <Gold.Rescore>
     Score         DG    S(hbond)    S(metal)    S(lipo)     H(rot)  DE(clash)    DE(int)     intcor
      8.67      -9.30       1.04        0.00      83.82       3.70       0.06       0.57       ----

> <Gold.Chemscore.Fitness>
8.6664

> <Gold.Chemscore.DG>
-9.3001

> <Gold.Chemscore.ZeroCoef>
-5.4800

> <Gold.Chemscore.Hbond>
1.0403

> <Gold.Chemscore.Metal>
0.0000

> <Gold.Chemscore.Lipo>
83.8156

> <Gold.Chemscore.Internal_Hbond>
0.0000

> <Gold.Chemscore.DEClash>
0.0613

> <Gold.Chemscore.DEInternal>
0.5724

> <Gold.Chemscore.Rot>
3.6957

> <Gold.Chemscore.Internal.Correction>
   9.000000E+99

> <Gold.Chemscore.Hbonds>
donor molecule, donor type, donor heavy atom, donor atom, acceptor molecule, acceptor atom, score
      P1  H  6896  6907       L1     8  0.74

> <Gold.Chemscore.Hbond.Weighted>
-3.4746

> <Gold.Chemscore.Metal.Weighted>
-0.0000

> <Gold.Chemscore.Lipo.Weighted>
-9.8064

> <Gold.Chemscore.Internal_Hbond.Weighted>
0.0000

> <Gold.Chemscore.DEClash.Weighted>
0.0613

> <Gold.Chemscore.DEInternal.Weighted>
0.5724

> <Gold.Chemscore.Rot.Weighted>
9.4610

> <Gold.Chemscore.Internal.Correction.Weighted>
   9.000000E+99

> <Gold.Protein.RotatedTorsions>
[ 6907 6896 6895 6894 ] final  -12.77 input  -60.11 | X-H torsion
[ 7974 7965 7964 7962 ] final   41.71 input  175.53 | X-H torsion
[ 8008 7997 7996 7995 ] final  -86.48 input   59.86 | X-H torsion
[ 10167 10162 10161 10158 ] final   80.13 input  -65.29 | X-H torsion
[ 10718 10713 10712 10709 ] final -115.04 input   66.30 | X-H torsion
[ 10763 10752 10751 10750 ] final   28.01 input  -60.55 | X-H torsion
[ 11005 11000 10999 10996 ] final  -90.55 input  -57.11 | X-H torsion

> <Gold.Protein.ActiveResidues>
 VAL166  LYS551  ARG553  GLY616  TRP617  ASP618  TYR619  PRO620  LYS621  CYS622 
 ASP623  PHE694  ASN695  SER759  ASP760  ASP761  ALA762  ILE779  LEU786  VAL792 
 PHE793  MET794  SER795  GLU796  ALA797  LYS798  CYS799  TRP800  GLU811  SER814 

> <Gold.Protein.RotatedAtoms>
  151.3654  135.0912  159.9447 H   0  0  0  0  0  0  0  0  0  0  0  0  # atno 6907 bound_to 6896
  152.5150  133.9217  159.7548 H   0  0  0  0  0  0  0  0  0  0  0  0  # atno 6908 bound_to 6896
  150.9620  133.6381  159.2782 H   0  0  0  0  0  0  0  0  0  0  0  0  # atno 6909 bound_to 6896
  146.0801  139.5384  142.9543 H   0  0  0  0  0  0  0  0  0  0  0  0  # atno 7974 bound_to 7965
  154.6524  140.0578  156.9970 H   0  0  0  0  0  0  0  0  0  0  0  0  # atno 8008 bound_to 7997
  155.1352  140.3260  155.4446 H   0  0  0  0  0  0  0  0  0  0  0  0  # atno 8009 bound_to 7997
  156.2582  140.1974  156.6470 H   0  0  0  0  0  0  0  0  0  0  0  0  # atno 8010 bound_to 7997
  139.9530  144.6013  150.8143 H   0  0  0  0  0  0  0  0  0  0  0  0  # atno 10167 bound_to 10162
  156.0870  130.6059  150.8854 H   0  0  0  0  0  0  0  0  0  0  0  0  # atno 10718 bound_to 10713
  153.0519  135.6523  154.0672 H   0  0  0  0  0  0  0  0  0  0  0  0  # atno 10763 bound_to 10752
  154.0359  135.2907  155.3363 H   0  0  0  0  0  0  0  0  0  0  0  0  # atno 10764 bound_to 10752
  154.6812  135.5319  153.8333 H   0  0  0  0  0  0  0  0  0  0  0  0  # atno 10765 bound_to 10752
  141.1563  133.7699  156.9754 H   0  0  0  0  0  0  0  0  0  0  0  0  # atno 11005 bound_to 11000
  145.6234  141.0318  143.1902 LP  0  0  0  0  0  0  0  0  0  0  0  0  # atno 17320 bound_to 7965
  144.7287  139.7793  143.7355 LP  0  0  0  0  0  0  0  0  0  0  0  0  # atno 17321 bound_to 7965
  140.7577  143.3092  151.2887 LP  0  0  0  0  0  0  0  0  0  0  0  0  # atno 17342 bound_to 10162
  139.6614  144.0183  152.2694 LP  0  0  0  0  0  0  0  0  0  0  0  0  # atno 17343 bound_to 10162
  157.6007  131.0941  150.8965 LP  0  0  0  0  0  0  0  0  0  0  0  0  # atno 17370 bound_to 10713
  156.9123  130.5285  149.5280 LP  0  0  0  0  0  0  0  0  0  0  0  0  # atno 17371 bound_to 10713
  140.1101  134.9482  157.2053 LP  0  0  0  0  0  0  0  0  0  0  0  0  # atno 17394 bound_to 11000
  140.3205  134.2922  155.7247 LP  0  0  0  0  0  0  0  0  0  0  0  0  # atno 17395 bound_to 11000

$$$$
