AV-unprocessed.smi:876|AV-procd|sdf|4026|dock3
  -GOLD-   22720 1513D 1   1.00000     0.00000
 Structure written by MMmdl.
 40 41  0  0  0  0  0  0  0  0  1 V2000
  151.6397  139.8370  156.0328 C   0  0  0  0  0  0  0  0  0  0  0  0
  150.5044  140.7500  155.9839 N   0  0  0  0  0  0  0  0  0  0  0  0
  150.5989  142.0631  156.6140 C   0  0  0  0  0  0  0  0  0  0  0  0
  149.3191  140.3767  155.3097 C   0  0  0  0  0  0  0  0  0  0  0  0
  148.2069  141.2510  155.2282 C   0  0  0  0  0  0  0  0  0  0  0  0
  147.0472  140.8339  154.5468 C   0  0  0  0  0  0  0  0  0  0  0  0
  147.0245  139.5515  153.9513 C   0  0  0  0  0  0  0  0  0  0  0  0
  145.9145  139.0037  153.2516 N   0  0  0  0  0  0  0  0  0  0  0  0
  145.5870  137.7133  153.0647 C   0  0  0  0  0  0  0  0  0  0  0  0
  146.2129  136.7460  153.4975 O   0  0  0  0  0  0  0  0  0  0  0  0
  144.4602  137.6004  152.3475 N   0  0  0  0  0  0  0  0  0  0  0  0
  143.8254  136.3374  151.9864 C   0  0  1  0  0  0  0  0  0  0  0  0
  144.5766  135.6687  150.8679 C   0  0  0  0  0  0  0  0  0  0  0  0
  144.9361  134.4217  151.1639 C   0  0  0  0  0  0  0  0  0  0  0  0
  144.5049  134.0016  152.5459 C   0  0  1  0  0  0  0  0  0  0  0  0
  145.6637  133.4544  153.3975 C   0  0  0  0  0  0  0  0  0  0  0  0
  145.1832  132.9513  154.6268 O   0  0  0  0  0  0  0  0  0  0  0  0
  143.8712  135.2900  153.1303 C   0  0  0  0  0  0  0  0  0  0  0  0
  148.1733  138.7492  154.0933 C   0  0  0  0  0  0  0  0  0  0  0  0
  149.2858  139.1444  154.7459 N   0  0  0  0  0  0  0  0  0  0  0  0
  142.8000  136.5086  151.6545 H   0  0  0  0  0  0  0  0  0  0  0  0
  143.7356  133.2358  152.4366 H   0  0  0  0  0  0  0  0  0  0  0  0
  152.0024  139.6217  155.0273 H   0  0  0  0  0  0  0  0  0  0  0  0
  151.3573  138.8988  156.5114 H   0  0  0  0  0  0  0  0  0  0  0  0
  152.4672  140.2627  156.6005 H   0  0  0  0  0  0  0  0  0  0  0  0
  149.8410  142.1717  157.3903 H   0  0  0  0  0  0  0  0  0  0  0  0
  150.4549  142.8531  155.8762 H   0  0  0  0  0  0  0  0  0  0  0  0
  151.5744  142.2136  157.0765 H   0  0  0  0  0  0  0  0  0  0  0  0
  148.2160  142.2317  155.6793 H   0  0  0  0  0  0  0  0  0  0  0  0
  146.2012  141.5016  154.5096 H   0  0  0  0  0  0  0  0  0  0  0  0
  145.2604  139.6810  152.8876 H   0  0  0  0  0  0  0  0  0  0  0  0
  144.0063  138.4454  152.0328 H   0  0  0  0  0  0  0  0  0  0  0  0
  144.7733  136.1645  149.9286 H   0  0  0  0  0  0  0  0  0  0  0  0
  145.4682  133.7560  150.5003 H   0  0  0  0  0  0  0  0  0  0  0  0
  146.1959  132.6630  152.8684 H   0  0  0  0  0  0  0  0  0  0  0  0
  146.3845  134.2452  153.6064 H   0  0  0  0  0  0  0  0  0  0  0  0
  144.4529  132.3777  154.4521 H   0  0  0  0  0  0  0  0  0  0  0  0
  144.4650  135.6585  153.9686 H   0  0  0  0  0  0  0  0  0  0  0  0
  142.8718  135.0937  153.5203 H   0  0  0  0  0  0  0  0  0  0  0  0
  148.2051  137.7570  153.6671 H   0  0  0  0  0  0  0  0  0  0  0  0
  1  2  1  0  0  0  0
  1 23  1  0  0  0  0
  1 24  1  0  0  0  0
  1 25  1  0  0  0  0
  2  3  1  0  0  0  0
  2  4  1  0  0  0  0
  3 26  1  0  0  0  0
  3 27  1  0  0  0  0
  3 28  1  0  0  0  0
  4 20  1  0  0  0  0
  4  5  2  0  0  0  0
  5  6  1  0  0  0  0
  5 29  1  0  0  0  0
  6  7  2  0  0  0  0
  6 30  1  0  0  0  0
  7  8  1  0  0  0  0
  7 19  1  0  0  0  0
  8  9  1  0  0  0  0
  8 31  1  0  0  0  0
  9 10  2  0  0  0  0
  9 11  1  0  0  0  0
 11 12  1  0  0  0  0
 11 32  1  0  0  0  0
 12 21  1  0  0  0  0
 12 18  1  0  0  0  0
 12 13  1  0  0  0  0
 13 14  2  0  0  0  0
 13 33  1  0  0  0  0
 14 15  1  0  0  0  0
 14 34  1  0  0  0  0
 15 22  1  0  0  0  0
 15 16  1  0  0  0  0
 15 18  1  0  0  0  0
 16 17  1  0  0  0  0
 16 35  1  0  0  0  0
 16 36  1  0  0  0  0
 17 37  1  0  0  0  0
 18 38  1  0  0  0  0
 18 39  1  0  0  0  0
 19 20  2  0  0  0  0
 19 40  1  0  0  0  0
M  END
> <s_m_source_file>
AV-unprocessed.smi

> <i_m_source_file_index>
876

> <i_lp_mmshare_version>
43012

> <i_f3d_flags>
0

> <s_epik_input>
W0NIM11OKFtDSDNdKWMxW2NIXVtjSF1jKFtjSF1uMSlbTkhdQyg9TylbTkhdW0NAQEhdMltDSF09W0NIXVtDQEBIXShbQ0gyXTIpW0NIMl1bT0hd

> <s_epik_cmdline>
J2VwaWtfcHl0aG9uJywgJy1waCcsICc3LjAnLCAnLXRuJywgJzgnLCAnLW1hJywgJzIwMCcsICctbWV0YWxfYmluZGluZycsICctaW1hZScsICc8aW5maWxlLm1hZT4nLCAnLW9tYWUnLCAnPG91dGZpbGUubWFlPic=

> <r_lp_tautomer_probability>
1

> <r_epik_Ionization_Penalty>
0.617998

> <r_epik_Ionization_Penalty_Charging>
0

> <r_epik_Ionization_Penalty_Neutral>
0.617998

> <r_epik_State_Penalty>
0.632637

> <r_epik_Charging_Adjusted_Penalty>
0.632637

> <i_epik_Tot_Q>
0

> <i_epik_Tot_abs_Q>
0

> <r_epik_Metal_State_Penalty>
0.305596

> <b_epik_Metal_Only>
0

> <s_lp_Force_Field>
OPLS_2005

> <r_lp_Energy>
21.5566

> <b_lp_Chiralities_Consistent>
1

> <s_lp_Variant>
AV-unprocessed.smi:876-8

> <Gold.Version>
5.8.1

> <Gold.Id.Protein>
6NUR|6NUR_protein|mol2

> <Gold.PLP.Fitness>
43.4610

> <Gold.PLP.PLP>
-32.5313

> <Gold.PLP.part.hbond>
-4.0000

> <Gold.PLP.part.metal>
0.0000

> <Gold.PLP.part.buried>
-2.2439

> <Gold.PLP.part.nonpolar>
-25.7740

> <Gold.PLP.part.repulsive>
0.3152

> <Gold.PLP.ligand.clash>
0.0000

> <Gold.PLP.ligand.torsion>
0.4143

> <Gold.PLP.Chemscore.Hbond>
2.9120

> <Gold.PLP.Chemscore.CHOScore>
1.0000

> <Gold.PLP.Chemscore.Metal>
0.0000

> <Gold.Chemscore.Hbonds>
donor molecule, donor type, donor heavy atom, donor atom, acceptor molecule, acceptor atom, score
      L1  H     8    31       P1 10175  1.00
      L1  H    11    32       P1 10175  0.84
      L1  H    17    37       P1 10957  1.00
      L1  C    19    40       P1  7948  1.00

> <Gold.PLP.Chemscore.Internal.Correction>
0.0221

> <Gold.Rescore>
     Score         DG    S(hbond)    S(metal)    S(lipo)     H(rot)  DE(clash)    DE(int)     intcor
     14.61     -17.67       2.89        0.00      60.96       1.80       0.05       3.01       ----

> <Gold.Chemscore.Fitness>
14.6097

> <Gold.Chemscore.DG>
-17.6692

> <Gold.Chemscore.ZeroCoef>
-5.4800

> <Gold.Chemscore.Hbond>
2.8922

> <Gold.Chemscore.Metal>
0.0000

> <Gold.Chemscore.Lipo>
60.9584

> <Gold.Chemscore.Internal_Hbond>
0.0000

> <Gold.Chemscore.DEClash>
0.0506

> <Gold.Chemscore.DEInternal>
3.0089

> <Gold.Chemscore.Rot>
1.7980

> <Gold.Chemscore.Internal.Correction>
   9.000000E+99

> <Gold.Chemscore.Hbonds>
donor molecule, donor type, donor heavy atom, donor atom, acceptor molecule, acceptor atom, score
      L1  H     8    31       P1 10175  1.00
      L1  H    11    32       P1 10175  0.79
      L1  H    17    37       P1 10957  0.68

> <Gold.Chemscore.Hbond.Weighted>
-9.6599

> <Gold.Chemscore.Metal.Weighted>
-0.0000

> <Gold.Chemscore.Lipo.Weighted>
-7.1321

> <Gold.Chemscore.Internal_Hbond.Weighted>
0.0000

> <Gold.Chemscore.DEClash.Weighted>
0.0506

> <Gold.Chemscore.DEInternal.Weighted>
3.0089

> <Gold.Chemscore.Rot.Weighted>
4.6029

> <Gold.Chemscore.Internal.Correction.Weighted>
   9.000000E+99

> <Gold.Protein.RotatedTorsions>
[ 6907 6896 6895 6894 ] final -140.89 input  -60.11 | X-H torsion
[ 7974 7965 7964 7962 ] final  130.63 input  175.53 | X-H torsion
[ 8008 7997 7996 7995 ] final  -87.47 input   59.86 | X-H torsion
[ 10167 10162 10161 10158 ] final   16.73 input  -65.29 | X-H torsion
[ 10718 10713 10712 10709 ] final -113.80 input   66.30 | X-H torsion
[ 10763 10752 10751 10750 ] final  112.53 input  -60.55 | X-H torsion
[ 11005 11000 10999 10996 ] final -168.80 input  -57.11 | X-H torsion

> <Gold.Protein.ActiveResidues>
 VAL166  LYS551  ARG553  GLY616  TRP617  ASP618  TYR619  PRO620  LYS621  CYS622 
 ASP623  PHE694  ASN695  SER759  ASP760  ASP761  ALA762  ILE779  LEU786  VAL792 
 PHE793  MET794  SER795  GLU796  ALA797  LYS798  CYS799  TRP800  GLU811  SER814 

> <Gold.Protein.RotatedAtoms>
  151.0666  133.5500  159.2629 H   0  0  0  0  0  0  0  0  0  0  0  0  # atno 6907 bound_to 6896
  151.2456  135.0603  159.9052 H   0  0  0  0  0  0  0  0  0  0  0  0  # atno 6908 bound_to 6896
  152.5405  134.0434  159.8131 H   0  0  0  0  0  0  0  0  0  0  0  0  # atno 6909 bound_to 6896
  145.0159  139.4177  143.5221 H   0  0  0  0  0  0  0  0  0  0  0  0  # atno 7974 bound_to 7965
  154.6636  140.0565  157.0089 H   0  0  0  0  0  0  0  0  0  0  0  0  # atno 8008 bound_to 7997
  155.1192  140.3246  155.4483 H   0  0  0  0  0  0  0  0  0  0  0  0  # atno 8009 bound_to 7997
  156.2628  140.2000  156.6314 H   0  0  0  0  0  0  0  0  0  0  0  0  # atno 8010 bound_to 7997
  140.5776  143.9042  150.6763 H   0  0  0  0  0  0  0  0  0  0  0  0  # atno 10167 bound_to 10162
  156.0790  130.5993  150.8691 H   0  0  0  0  0  0  0  0  0  0  0  0  # atno 10718 bound_to 10713
  153.4791  135.3683  155.2432 H   0  0  0  0  0  0  0  0  0  0  0  0  # atno 10763 bound_to 10752
  154.8755  135.3950  154.3721 H   0  0  0  0  0  0  0  0  0  0  0  0  # atno 10764 bound_to 10752
  153.4322  135.7082  153.6288 H   0  0  0  0  0  0  0  0  0  0  0  0  # atno 10765 bound_to 10752
  140.5379  134.5551  157.5092 H   0  0  0  0  0  0  0  0  0  0  0  0  # atno 11005 bound_to 11000
  146.3478  139.9629  142.8715 LP  0  0  0  0  0  0  0  0  0  0  0  0  # atno 17320 bound_to 7965
  145.1960  140.9833  143.4183 LP  0  0  0  0  0  0  0  0  0  0  0  0  # atno 17321 bound_to 7965
  140.2533  143.3577  152.1386 LP  0  0  0  0  0  0  0  0  0  0  0  0  # atno 17342 bound_to 10162
  139.5151  144.6958  151.5633 LP  0  0  0  0  0  0  0  0  0  0  0  0  # atno 17343 bound_to 10162
  157.5898  131.0945  150.9137 LP  0  0  0  0  0  0  0  0  0  0  0  0  # atno 17370 bound_to 10713
  156.9315  130.5351  149.5279 LP  0  0  0  0  0  0  0  0  0  0  0  0  # atno 17371 bound_to 10713
  139.9519  134.7601  156.0428 LP  0  0  0  0  0  0  0  0  0  0  0  0  # atno 17394 bound_to 11000
  141.1244  133.6603  156.3298 LP  0  0  0  0  0  0  0  0  0  0  0  0  # atno 17395 bound_to 11000

$$$$
