AV-unprocessed.smi:3052|AV-procd|sdf|11636|dock9
  -GOLD-   2272017 33D 1   1.00000     0.00000
 Structure written by MMmdl.
 41 43  0  0  0  0  0  0  0  0  1 V2000
  151.3915  138.0829  154.3451 C   0  0  0  0  0  0  0  0  0  0  0  0
  150.2558  139.0573  154.4904 C   0  0  0  0  0  0  0  0  0  0  0  0
  150.5077  140.2783  154.9387 N   0  0  0  0  0  0  0  0  0  0  0  0
  149.2917  140.9782  154.9061 O   0  0  0  0  0  0  0  0  0  0  0  0
  148.3187  140.1519  154.4408 C   0  0  0  0  0  0  0  0  0  0  0  0
  146.9478  140.7325  154.3171 C   0  0  0  0  0  0  0  0  0  0  0  0
  146.6892  141.9291  153.4364 C   0  0  0  0  0  0  0  0  0  0  0  0
  146.5813  142.0587  154.9401 C   0  0  0  0  0  0  0  0  0  0  0  0
  148.8694  138.9302  154.1841 C   0  0  0  0  0  0  0  0  0  0  0  0
  148.1673  137.8237  153.6457 N   0  0  0  0  0  0  0  0  0  0  0  0
  146.8902  137.4910  153.8845 C   0  0  0  0  0  0  0  0  0  0  0  0
  146.1399  138.1006  154.6454 O   0  0  0  0  0  0  0  0  0  0  0  0
  146.5304  136.4162  153.1637 N   0  0  0  0  0  0  0  0  0  0  0  0
  145.2309  135.7340  153.1239 C   0  0  2  0  0  0  0  0  0  0  0  0
  144.1941  136.8806  153.0348 C   0  0  0  0  0  0  0  0  0  0  0  0
  145.0283  134.9742  154.4631 C   0  0  0  0  0  0  0  0  0  0  0  0
  143.7106  134.4814  154.6046 O   0  0  0  0  0  0  0  0  0  0  0  0
  145.1309  134.7470  151.9475 C   0  0  0  0  0  0  0  0  0  0  0  0
  144.5426  135.1026  150.6021 C   0  0  0  0  0  0  0  0  0  0  0  0
  143.8457  134.0923  151.4930 C   0  0  0  0  0  0  0  0  0  0  0  0
  151.2285  137.4082  153.5049 H   0  0  0  0  0  0  0  0  0  0  0  0
  151.5052  137.4782  155.2449 H   0  0  0  0  0  0  0  0  0  0  0  0
  152.3379  138.5955  154.1699 H   0  0  0  0  0  0  0  0  0  0  0  0
  146.1912  139.9507  154.3306 H   0  0  0  0  0  0  0  0  0  0  0  0
  147.5453  142.3967  152.9539 H   0  0  0  0  0  0  0  0  0  0  0  0
  145.7656  141.9395  152.8615 H   0  0  0  0  0  0  0  0  0  0  0  0
  145.5848  142.1547  155.3660 H   0  0  0  0  0  0  0  0  0  0  0  0
  147.3599  142.6285  155.4431 H   0  0  0  0  0  0  0  0  0  0  0  0
  148.6394  137.3128  152.9144 H   0  0  0  0  0  0  0  0  0  0  0  0
  147.2420  136.0150  152.5708 H   0  0  0  0  0  0  0  0  0  0  0  0
  143.1663  136.5195  153.0213 H   0  0  0  0  0  0  0  0  0  0  0  0
  144.3390  137.4960  152.1470 H   0  0  0  0  0  0  0  0  0  0  0  0
  144.2764  137.5469  153.8947 H   0  0  0  0  0  0  0  0  0  0  0  0
  145.7102  134.1274  154.5449 H   0  0  0  0  0  0  0  0  0  0  0  0
  145.2369  135.6281  155.3110 H   0  0  0  0  0  0  0  0  0  0  0  0
  143.7447  133.5378  154.6401 H   0  0  0  0  0  0  0  0  0  0  0  0
  145.9907  134.0820  151.8975 H   0  0  0  0  0  0  0  0  0  0  0  0
  144.0657  136.0713  150.4759 H   0  0  0  0  0  0  0  0  0  0  0  0
  145.0560  134.7242  149.7206 H   0  0  0  0  0  0  0  0  0  0  0  0
  143.8983  133.0462  151.1986 H   0  0  0  0  0  0  0  0  0  0  0  0
  142.9054  134.3935  151.9471 H   0  0  0  0  0  0  0  0  0  0  0  0
  1  2  1  0  0  0  0
  1 21  1  0  0  0  0
  1 22  1  0  0  0  0
  1 23  1  0  0  0  0
  2  9  1  0  0  0  0
  2  3  2  0  0  0  0
  3  4  1  0  0  0  0
  4  5  1  0  0  0  0
  5  6  1  0  0  0  0
  5  9  2  0  0  0  0
  6  8  1  0  0  0  0
  6  7  1  0  0  0  0
  6 24  1  0  0  0  0
  7  8  1  0  0  0  0
  7 25  1  0  0  0  0
  7 26  1  0  0  0  0
  8 27  1  0  0  0  0
  8 28  1  0  0  0  0
  9 10  1  0  0  0  0
 10 11  1  0  0  0  0
 10 29  1  0  0  0  0
 11 12  2  0  0  0  0
 11 13  1  0  0  0  0
 13 14  1  0  0  0  0
 13 30  1  0  0  0  0
 14 15  1  0  0  0  0
 14 16  1  0  0  0  0
 14 18  1  0  0  0  0
 15 31  1  0  0  0  0
 15 32  1  0  0  0  0
 15 33  1  0  0  0  0
 16 17  1  0  0  0  0
 16 34  1  0  0  0  0
 16 35  1  0  0  0  0
 17 36  1  0  0  0  0
 18 20  1  0  0  0  0
 18 19  1  0  0  0  0
 18 37  1  0  0  0  0
 19 20  1  0  0  0  0
 19 38  1  0  0  0  0
 19 39  1  0  0  0  0
 20 40  1  0  0  0  0
 20 41  1  0  0  0  0
M  END
> <s_m_source_file>
AV-unprocessed.smi

> <i_m_source_file_index>
3052

> <i_lp_mmshare_version>
43012

> <i_f3d_flags>
0

> <s_epik_input>
W0NIM11jMW5vYyhbQ0hdMltDSDJdW0NIMl0yKWMxW05IXUMoPU8pW05IXVtDQEBdKFtDSDNdKShbQ0gyXVtPSF0pW0NIXTNbQ0gyXVtDSDJdMw==

> <s_epik_cmdline>
J2VwaWtfcHl0aG9uJywgJy1waCcsICc3LjAnLCAnLXRuJywgJzgnLCAnLW1hJywgJzIwMCcsICctbWV0YWxfYmluZGluZycsICctaW1hZScsICc8aW5maWxlLm1hZT4nLCAnLW9tYWUnLCAnPG91dGZpbGUubWFlPic=

> <r_lp_tautomer_probability>
1

> <r_epik_Ionization_Penalty>
3.5887e-05

> <r_epik_Ionization_Penalty_Charging>
0

> <r_epik_Ionization_Penalty_Neutral>
3.5887e-05

> <r_epik_State_Penalty>
-0

> <r_epik_Charging_Adjusted_Penalty>
0

> <i_epik_Tot_Q>
0

> <i_epik_Tot_abs_Q>
0

> <r_epik_Metal_State_Penalty>
-0

> <b_epik_Metal_Only>
0

> <s_lp_Force_Field>
OPLS_2005

> <r_lp_Energy>
28.1978

> <b_lp_Chiralities_Consistent>
1

> <s_lp_Variant>
AV-unprocessed.smi:3052-2

> <Gold.Version>
5.8.1

> <Gold.Id.Protein>
6NUR|6NUR_protein|mol2

> <Gold.PLP.Fitness>
40.1263

> <Gold.PLP.PLP>
-30.0938

> <Gold.PLP.part.hbond>
-3.9145

> <Gold.PLP.part.metal>
0.0000

> <Gold.PLP.part.buried>
-6.7011

> <Gold.PLP.part.nonpolar>
-21.1680

> <Gold.PLP.part.repulsive>
0.2964

> <Gold.PLP.ligand.clash>
0.0000

> <Gold.PLP.ligand.torsion>
1.4285

> <Gold.PLP.Chemscore.Hbond>
3.6655

> <Gold.PLP.Chemscore.CHOScore>
0.0000

> <Gold.PLP.Chemscore.Metal>
0.0000

> <Gold.Chemscore.Hbonds>
donor molecule, donor type, donor heavy atom, donor atom, acceptor molecule, acceptor atom, score
      L1  H    10    29       P1  7948  0.99
      L1  H    13    30       P1  7948  0.93
      L1  H    17    36       P1 10957  0.81
      P1  H  7989  7998       L1     3  0.90

> <Gold.PLP.Chemscore.Internal.Correction>
1.8930

> <Gold.Rescore>
     Score         DG    S(hbond)    S(metal)    S(lipo)     H(rot)  DE(clash)    DE(int)     intcor
     12.20     -17.61       2.94        0.00      66.97       2.16       0.02       5.39       ----

> <Gold.Chemscore.Fitness>
12.2030

> <Gold.Chemscore.DG>
-17.6060

> <Gold.Chemscore.ZeroCoef>
-5.4800

> <Gold.Chemscore.Hbond>
2.9380

> <Gold.Chemscore.Metal>
0.0000

> <Gold.Chemscore.Lipo>
66.9652

> <Gold.Chemscore.Internal_Hbond>
0.0000

> <Gold.Chemscore.DEClash>
0.0164

> <Gold.Chemscore.DEInternal>
5.3867

> <Gold.Chemscore.Rot>
2.1569

> <Gold.Chemscore.Internal.Correction>
   9.000000E+99

> <Gold.Chemscore.Hbonds>
donor molecule, donor type, donor heavy atom, donor atom, acceptor molecule, acceptor atom, score
      L1  H    10    29       P1  7948  0.92
      L1  H    13    30       P1  7948  0.91
      L1  H    17    36       P1 10957  0.78
      P1  H  7989  7998       L1     3  0.12

> <Gold.Chemscore.Hbond.Weighted>
-9.8129

> <Gold.Chemscore.Metal.Weighted>
-0.0000

> <Gold.Chemscore.Lipo.Weighted>
-7.8349

> <Gold.Chemscore.Internal_Hbond.Weighted>
0.0000

> <Gold.Chemscore.DEClash.Weighted>
0.0164

> <Gold.Chemscore.DEInternal.Weighted>
5.3867

> <Gold.Chemscore.Rot.Weighted>
5.5218

> <Gold.Chemscore.Internal.Correction.Weighted>
   9.000000E+99

> <Gold.Protein.RotatedTorsions>
[ 6907 6896 6895 6894 ] final   96.74 input  -60.11 | X-H torsion
[ 7974 7965 7964 7962 ] final   29.03 input  175.53 | X-H torsion
[ 8008 7997 7996 7995 ] final -143.32 input   59.86 | X-H torsion
[ 10167 10162 10161 10158 ] final  136.44 input  -65.29 | X-H torsion
[ 10718 10713 10712 10709 ] final   69.17 input   66.30 | X-H torsion
[ 10763 10752 10751 10750 ] final  -72.34 input  -60.55 | X-H torsion
[ 11005 11000 10999 10996 ] final   85.98 input  -57.11 | X-H torsion

> <Gold.Protein.ActiveResidues>
 VAL166  LYS551  ARG553  GLY616  TRP617  ASP618  TYR619  PRO620  LYS621  CYS622 
 ASP623  PHE694  ASN695  SER759  ASP760  ASP761  ALA762  ILE779  LEU786  VAL792 
 PHE793  MET794  SER795  GLU796  ALA797  LYS798  CYS799  TRP800  GLU811  SER814 

> <Gold.Protein.RotatedAtoms>
  152.5432  134.0840  159.8247 H   0  0  0  0  0  0  0  0  0  0  0  0  # atno 6907 bound_to 6896
  151.0938  133.5288  159.2621 H   0  0  0  0  0  0  0  0  0  0  0  0  # atno 6908 bound_to 6896
  151.2069  135.0474  159.8949 H   0  0  0  0  0  0  0  0  0  0  0  0  # atno 6909 bound_to 6896
  146.1695  139.6976  142.8978 H   0  0  0  0  0  0  0  0  0  0  0  0  # atno 7974 bound_to 7965
  155.5087  140.0581  157.2927 H   0  0  0  0  0  0  0  0  0  0  0  0  # atno 8008 bound_to 7997
  154.4560  140.1973  156.0328 H   0  0  0  0  0  0  0  0  0  0  0  0  # atno 8009 bound_to 7997
  156.0799  140.3248  155.7685 H   0  0  0  0  0  0  0  0  0  0  0  0  # atno 8010 bound_to 7997
  139.5180  144.6464  151.5427 H   0  0  0  0  0  0  0  0  0  0  0  0  # atno 10167 bound_to 10162
  157.6330  130.9411  150.0476 H   0  0  0  0  0  0  0  0  0  0  0  0  # atno 10718 bound_to 10713
  154.4444  135.5933  153.6150 H   0  0  0  0  0  0  0  0  0  0  0  0  # atno 10763 bound_to 10752
  152.9808  135.6006  154.3683 H   0  0  0  0  0  0  0  0  0  0  0  0  # atno 10764 bound_to 10752
  154.3536  135.2841  155.2337 H   0  0  0  0  0  0  0  0  0  0  0  0  # atno 10765 bound_to 10752
  139.8957  134.8324  156.2656 H   0  0  0  0  0  0  0  0  0  0  0  0  # atno 11005 bound_to 11000
  145.4379  141.0420  143.2874 LP  0  0  0  0  0  0  0  0  0  0  0  0  # atno 17320 bound_to 7965
  144.8141  139.5908  143.7016 LP  0  0  0  0  0  0  0  0  0  0  0  0  # atno 17321 bound_to 7965
  140.6251  143.9185  150.6558 LP  0  0  0  0  0  0  0  0  0  0  0  0  # atno 17342 bound_to 10162
  140.2471  143.3621  152.1438 LP  0  0  0  0  0  0  0  0  0  0  0  0  # atno 17343 bound_to 10162
  156.1548  130.3643  149.9384 LP  0  0  0  0  0  0  0  0  0  0  0  0  # atno 17370 bound_to 10713
  156.7396  130.9074  151.3631 LP  0  0  0  0  0  0  0  0  0  0  0  0  # atno 17371 bound_to 10713
  141.0134  133.7082  156.1148 LP  0  0  0  0  0  0  0  0  0  0  0  0  # atno 17394 bound_to 11000
  140.7336  134.4228  157.5563 LP  0  0  0  0  0  0  0  0  0  0  0  0  # atno 17395 bound_to 11000

$$$$
