#       Name:                AV-unprocessed.smi:1268
#       Creating user name   scv26
#       Creation time:       Fri Mar 27 04:44:53 2020


#       File generated by GOLD software.
#

@<TRIPOS>MOLECULE
AV-unprocessed.smi:1268
    45    46     1
SMALL
NO_CHARGES


@<TRIPOS>ATOM
      1 ****        -2.4169   1.3449  -2.0329 O.2            1 S1                 0.0000
      2 ****        -2.6726   1.6823  -0.8768 C.2            1 S1                 0.0000
      3 ****        -2.4802   0.8842   0.1831 N.am           1 S1                 0.0000
      4 ****        -1.9779  -0.4846   0.1222 C.3            1 S1                 0.0000
      5 ****        -0.4369  -0.5381   0.0518 C.3            1 S1                 0.0000
      6 ****        -0.0490  -0.4734  -1.3068 O.3            1 S1                 0.0000
      7 ****         0.1085  -1.8682   0.6126 C.3            1 S1                 0.0000
      8 ****         1.5930  -1.9366   0.5926 N.4            1 S1                 1.0000
      9 ****         2.0896  -3.3374   0.5655 C.3            1 S1                 0.0000
     10 ****         3.6183  -3.3858   0.4043 C.3            1 S1                 0.0000
     11 ****         4.3132  -2.5842   1.5120 C.3            1 S1                 0.0000
     12 ****         3.7670  -1.1512   1.5383 C.3            1 S1                 0.0000
     13 ****         2.2353  -1.1478   1.6784 C.3            1 S1                 0.0000
     14 ****        -3.1726   2.8740  -0.5062 N.am           1 S1                 0.0000
     15 ****        -3.5167   3.9760  -1.3326 C.2            1 S1                 0.0000
     16 ****        -3.3547   4.0030  -2.6606 N.2            1 S1                 0.0000
     17 ****        -3.7814   5.2118  -3.2163 C.2            1 S1                 0.0000
     18 ****        -4.2659   6.1012  -2.2899 C.2            1 S1                 0.0000
     19 ****        -4.2061   5.4518  -0.6730 S.3            1 S1                 0.0000
     20 ****        -2.7181   1.2418   1.0968 H              1 S1                 0.0000
     21 ****        -2.3166  -0.9629   1.0417 H              1 S1                 0.0000
     22 ****        -2.4409  -1.0436  -0.6935 H              1 S1                 0.0000
     23 ****        -0.0150   0.3089   0.5925 H              1 S1                 0.0000
     24 ****        -0.4558   0.2853  -1.6999 H              1 S1                 0.0000
     25 ****        -0.2418  -2.0283   1.6335 H              1 S1                 0.0000
     26 ****        -0.3061  -2.6859   0.0204 H              1 S1                 0.0000
     27 ****         1.7906  -3.8482   1.4822 H              1 S1                 0.0000
     28 ****         1.6284  -3.8760  -0.2634 H              1 S1                 0.0000
     29 ****         3.9627  -4.4201   0.4213 H              1 S1                 0.0000
     30 ****         3.8972  -2.9829  -0.5704 H              1 S1                 0.0000
     31 ****         4.1425  -3.0625   2.4774 H              1 S1                 0.0000
     32 ****         5.3918  -2.5755   1.3530 H              1 S1                 0.0000
     33 ****         4.2184  -0.5963   2.3612 H              1 S1                 0.0000
     34 ****         4.0527  -0.6327   0.6219 H              1 S1                 0.0000
     35 ****         1.8843  -0.1169   1.6595 H              1 S1                 0.0000
     36 ****         1.9486  -1.5599   2.6473 H              1 S1                 0.0000
     37 ****        -3.3373   3.0059   0.4807 H              1 S1                 0.0000
     38 ****        -3.7041   5.3549  -4.2841 H              1 S1                 0.0000
     39 ****        -4.6532   7.0946  -2.4602 H              1 S1                 0.0000
     40 ****         1.8779  -1.5218  -0.2837 H              1 S1                 0.0000
     41 ****        -2.0460   0.4348  -2.2177 LP             1 S1                 0.0000
     42 ****        -2.5801   1.9810  -2.7871 LP             1 S1                 0.0000
     43 ****        -0.3478  -1.3007  -1.7825 LP             1 S1                 0.0000
     44 ****         0.9458  -0.3934  -1.3700 LP             1 S1                 0.0000
     45 ****        -2.9732   3.2471  -3.1926 LP             1 S1                 0.0000
@<TRIPOS>BOND
    1    1    2 2     
    2    2    3 am    
    3    2   14 am    
    4    3    4 1     
    5    3   20 1     
    6    4    5 1     
    7    4   21 1     
    8    4   22 1     
    9    5    6 1     
   10    5    7 1     
   11    5   23 1     
   12    6   24 1     
   13    7    8 1     
   14    7   25 1     
   15    7   26 1     
   16    8   13 1     
   17    8    9 1     
   18    8   40 1     
   19    9   10 1     
   20    9   27 1     
   21    9   28 1     
   22   10   11 1     
   23   10   29 1     
   24   10   30 1     
   25   11   12 1     
   26   11   31 1     
   27   11   32 1     
   28   12   13 1     
   29   12   33 1     
   30   12   34 1     
   31   13   35 1     
   32   13   36 1     
   33   14   15 1     
   34   14   37 1     
   35   15   19 1     
   36   15   16 2     
   37   16   17 1     
   38   17   18 2     
   39   17   38 1     
   40   18   19 1     
   41   18   39 1     
   42    1   41 1     
   43    1   42 1     
   44    6   43 1     
   45    6   44 1     
   46   16   45 1     
@<TRIPOS>SUBSTRUCTURE
      1 S1             1
@<TRIPOS>SET
LONE_PAIRS      STATIC     ATOMS    <user>   **** ""
5 41 42 43 44 45
DONOR_HYDROGENS      STATIC     ATOMS    <user>   **** ""
4 20 24 40 37
ATOM$BLUE        STATIC     ATOMS    COLORGROUP SYSTEM
5 41 42 43 44 45
ATOM$RED        STATIC     ATOMS    COLORGROUP SYSTEM
4 20 24 40 37
