#       Name:                AV-unprocessed.smi:2994
#       Creating user name   scv26
#       Creation time:       Fri Mar 27 16:32:58 2020


#       File generated by GOLD software.
#

@<TRIPOS>MOLECULE
AV-unprocessed.smi:2994
    52    54     1
SMALL
NO_CHARGES


@<TRIPOS>ATOM
      1 ****        -5.0399  -3.9005   0.0936 C.3            1 S1                 0.0000
      2 ****        -4.5213  -2.7322  -0.7565 C.3            1 S1                 0.0000
      3 ****        -3.0859  -2.5925  -0.5307 N.am           1 S1                 0.0000
      4 ****        -2.3811  -1.4618  -0.6805 C.2            1 S1                 0.0000
      5 ****        -2.8805  -0.3940  -1.0326 O.2            1 S1                 0.0000
      6 ****        -1.0815  -1.6659  -0.4036 N.am           1 S1                 0.0000
      7 ****         0.0044  -0.7471  -0.4252 C.ar           1 S1                 0.0000
      8 ****        -0.1179   0.6520  -0.6063 C.ar           1 S1                 0.0000
      9 ****         1.0460   1.4441  -0.5959 C.ar           1 S1                 0.0000
     10 ****         2.2959   0.8183  -0.3906 C.ar           1 S1                 0.0000
     11 ****         3.5618   1.6250  -0.3930 C.2            1 S1                 0.0000
     12 ****         4.4108   1.3838  -1.2523 O.2            1 S1                 0.0000
     13 ****         3.7139   2.5917   0.5475 N.am           1 S1                 0.0000
     14 ****         2.8996   2.7481   1.7638 C.3            1 S1                 0.0000
     15 ****         3.7362   2.3255   2.9858 C.3            1 S1                 0.0000
     16 ****         5.0513   3.1223   3.0617 C.3            1 S1                 0.0000
     17 ****         5.8083   3.0908   1.7219 C.3            1 S1                 0.0000
     18 ****         4.8790   3.4866   0.5605 C.3            1 S1                 0.0000
     19 ****         2.4202  -0.5172  -0.2261 N.ar           1 S1                 0.0000
     20 ****         1.3008  -1.2705  -0.2388 C.ar           1 S1                 0.0000
     21 ****        -4.8892  -2.9221  -2.2189 C.3            1 S1                 0.0000
     22 ****        -5.1781  -1.7435  -3.1187 C.3            1 S1                 0.0000
     23 ****        -6.2973  -2.6707  -2.7042 C.3            1 S1                 0.0000
     24 ****        -6.1209  -4.0063  -0.0023 H              1 S1                 0.0000
     25 ****        -4.8186  -3.7477   1.1506 H              1 S1                 0.0000
     26 ****        -4.5860  -4.8449  -0.2094 H              1 S1                 0.0000
     27 ****        -5.0170  -1.8276  -0.3983 H              1 S1                 0.0000
     28 ****        -2.5915  -3.4235  -0.2407 H              1 S1                 0.0000
     29 ****        -0.8310  -2.6133  -0.1611 H              1 S1                 0.0000
     30 ****        -1.0682   1.1404  -0.7471 H              1 S1                 0.0000
     31 ****         0.9767   2.5129  -0.7378 H              1 S1                 0.0000
     32 ****         2.5952   3.7913   1.8593 H              1 S1                 0.0000
     33 ****         1.9767   2.1716   1.7569 H              1 S1                 0.0000
     34 ****         3.1616   2.4671   3.9015 H              1 S1                 0.0000
     35 ****         3.9584   1.2593   2.9219 H              1 S1                 0.0000
     36 ****         4.8263   4.1578   3.3199 H              1 S1                 0.0000
     37 ****         5.6826   2.7344   3.8615 H              1 S1                 0.0000
     38 ****         6.6673   3.7610   1.7622 H              1 S1                 0.0000
     39 ****         6.2038   2.0892   1.5475 H              1 S1                 0.0000
     40 ****         5.4309   3.4729  -0.3805 H              1 S1                 0.0000
     41 ****         4.5396   4.5158   0.6868 H              1 S1                 0.0000
     42 ****         1.4475  -2.3311  -0.0958 H              1 S1                 0.0000
     43 ****        -4.3796  -3.7622  -2.6875 H              1 S1                 0.0000
     44 ****        -5.1641  -0.7489  -2.6774 H              1 S1                 0.0000
     45 ****        -4.8286  -1.8018  -4.1474 H              1 S1                 0.0000
     46 ****        -6.6971  -3.3460  -3.4578 H              1 S1                 0.0000
     47 ****        -7.0216  -2.2914  -1.9860 H              1 S1                 0.0000
     48 ****        -3.8606  -0.3392  -1.2232 LP             1 S1                 0.0000
     49 ****        -2.3063   0.4191  -1.1281 LP             1 S1                 0.0000
     50 ****         4.2485   0.6643  -1.9275 LP             1 S1                 0.0000
     51 ****         5.2624   1.9076  -1.2747 LP             1 S1                 0.0000
     52 ****         3.3190  -0.9365  -0.0982 LP             1 S1                 0.0000
@<TRIPOS>BOND
    1    1    2 1     
    2    1   24 1     
    3    1   25 1     
    4    1   26 1     
    5    2    3 1     
    6    2   21 1     
    7    2   27 1     
    8    3    4 am    
    9    3   28 1     
   10    4    5 2     
   11    4    6 am    
   12    6    7 1     
   13    6   29 1     
   14    7   20 ar    
   15    7    8 ar    
   16    8    9 ar    
   17    8   30 1     
   18    9   10 ar    
   19    9   31 1     
   20   10   11 1     
   21   10   19 ar    
   22   11   12 2     
   23   11   13 am    
   24   13   18 1     
   25   13   14 1     
   26   14   15 1     
   27   14   32 1     
   28   14   33 1     
   29   15   16 1     
   30   15   34 1     
   31   15   35 1     
   32   16   17 1     
   33   16   36 1     
   34   16   37 1     
   35   17   18 1     
   36   17   38 1     
   37   17   39 1     
   38   18   40 1     
   39   18   41 1     
   40   19   20 ar    
   41   20   42 1     
   42   21   23 1     
   43   21   22 1     
   44   21   43 1     
   45   22   23 1     
   46   22   44 1     
   47   22   45 1     
   48   23   46 1     
   49   23   47 1     
   50    5   48 1     
   51    5   49 1     
   52   12   50 1     
   53   12   51 1     
   54   19   52 1     
@<TRIPOS>SUBSTRUCTURE
      1 S1             1
@<TRIPOS>SET
LONE_PAIRS      STATIC     ATOMS    <user>   **** ""
5 48 49 50 51 52
DONOR_HYDROGENS      STATIC     ATOMS    <user>   **** ""
2 28 29
ATOM$BLUE        STATIC     ATOMS    COLORGROUP SYSTEM
5 48 49 50 51 52
ATOM$RED        STATIC     ATOMS    COLORGROUP SYSTEM
2 28 29
