#       Name:                AV-unprocessed.smi:2494
#       Creating user name   scv26
#       Creation time:       Fri Mar 27 13:45:25 2020


#       File generated by GOLD software.
#

@<TRIPOS>MOLECULE
AV-unprocessed.smi:2494
    37    38     1
SMALL
NO_CHARGES


@<TRIPOS>ATOM
      1 ****        -3.3768   2.3155  -0.3961 O.3            1 S1                 0.0000
      2 ****        -2.9102   0.9956  -0.5755 C.3            1 S1                 0.0000
      3 ****        -1.3759   0.9693  -0.4780 C.3            1 S1                 0.0000
      4 ****        -0.7597  -0.4536  -0.5524 C.3            1 S1                 0.0000
      5 ****        -1.0474  -1.0949  -1.9331 C.3            1 S1                 0.0000
      6 ****        -0.4306  -2.3705  -2.0449 O.3            1 S1                 0.0000
      7 ****         0.9810  -2.2759  -1.9362 C.3            1 S1                 0.0000
      8 ****         1.3295  -1.7390  -0.5434 C.3            1 S1                 0.0000
      9 ****         0.6909  -0.4482  -0.3022 N.3            1 S1                 0.0000
     10 ****         1.2077   0.1995   0.8128 C.ar           1 S1                 0.0000
     11 ****         0.5594   0.0570   1.9770 N.ar           1 S1                 0.0000
     12 ****         1.0920   0.6687   3.0571 C.ar           1 S1                 0.0000
     13 ****         2.2828   1.4164   2.9682 C.ar           1 S1                 0.0000
     14 ****         2.9686   2.1979   4.3447 Cl             1 S1                 0.0000
     15 ****         2.8856   1.4900   1.6968 C.ar           1 S1                 0.0000
     16 ****         2.3463   0.8750   0.6218 N.ar           1 S1                 0.0000
     17 ****        -4.3198   2.3126  -0.4600 H              1 S1                 0.0000
     18 ****        -3.3551   0.3559   0.1872 H              1 S1                 0.0000
     19 ****        -3.2551   0.6417  -1.5464 H              1 S1                 0.0000
     20 ****        -0.9487   1.5940  -1.2638 H              1 S1                 0.0000
     21 ****        -1.1071   1.4507   0.4616 H              1 S1                 0.0000
     22 ****        -1.2202  -1.0746   0.2174 H              1 S1                 0.0000
     23 ****        -2.1174  -1.2399  -2.0758 H              1 S1                 0.0000
     24 ****        -0.7054  -0.4486  -2.7435 H              1 S1                 0.0000
     25 ****         1.4158  -3.2654  -2.0774 H              1 S1                 0.0000
     26 ****         1.3843  -1.6328  -2.7202 H              1 S1                 0.0000
     27 ****         1.0034  -2.4459   0.2209 H              1 S1                 0.0000
     28 ****         2.4125  -1.6476  -0.4506 H              1 S1                 0.0000
     29 ****         0.5668   0.5577   3.9942 H              1 S1                 0.0000
     30 ****         3.8019   2.0398   1.5406 H              1 S1                 0.0000
     31 ****        -2.9928   2.9079  -1.1043 LP             1 S1                 0.0000
     32 ****        -3.1010   2.6510   0.5047 LP             1 S1                 0.0000
     33 ****        -0.6624  -2.7670  -2.9332 LP             1 S1                 0.0000
     34 ****        -0.7738  -2.9626  -1.3158 LP             1 S1                 0.0000
     35 ****         0.9604   0.1966  -1.0175 LP             1 S1                 0.0000
     36 ****        -0.2822  -0.4790   2.0432 LP             1 S1                 0.0000
     37 ****         2.7797   0.9227  -0.2782 LP             1 S1                 0.0000
@<TRIPOS>BOND
    1    1    2 1     
    2    1   17 1     
    3    2    3 1     
    4    2   18 1     
    5    2   19 1     
    6    3    4 1     
    7    3   20 1     
    8    3   21 1     
    9    4    9 1     
   10    4    5 1     
   11    4   22 1     
   12    5    6 1     
   13    5   23 1     
   14    5   24 1     
   15    6    7 1     
   16    7    8 1     
   17    7   25 1     
   18    7   26 1     
   19    8    9 1     
   20    8   27 1     
   21    8   28 1     
   22    9   10 1     
   23   10   16 ar    
   24   10   11 ar    
   25   11   12 ar    
   26   12   13 ar    
   27   12   29 1     
   28   13   14 1     
   29   13   15 ar    
   30   15   16 ar    
   31   15   30 1     
   32    1   31 1     
   33    1   32 1     
   34    6   33 1     
   35    6   34 1     
   36    9   35 1     
   37   11   36 1     
   38   16   37 1     
@<TRIPOS>SUBSTRUCTURE
      1 S1             1
@<TRIPOS>SET
LONE_PAIRS      STATIC     ATOMS    <user>   **** ""
7 31 32 33 34 35 36 37
DONOR_HYDROGENS      STATIC     ATOMS    <user>   **** ""
1 17
ATOM$BLUE        STATIC     ATOMS    COLORGROUP SYSTEM
7 31 32 33 34 35 36 37
ATOM$RED        STATIC     ATOMS    COLORGROUP SYSTEM
1 17
