#       Name:                AV-unprocessed.smi:2919
#       Creating user name   scv26
#       Creation time:       Fri Mar 27 16:08:37 2020


#       File generated by GOLD software.
#

@<TRIPOS>MOLECULE
AV-unprocessed.smi:2919
    39    41     1
SMALL
NO_CHARGES


@<TRIPOS>ATOM
      1 ****        -4.7312   0.2941   0.1190 C.3            1 S1                 0.0000
      2 ****        -3.2432   0.0813   0.3333 C.ar           1 S1                 0.0000
      3 ****        -2.5241   1.2125   0.5023 N.ar           1 S1                 0.0000
      4 ****        -1.2064   1.1530   0.7000 N.ar           1 S1                 0.0000
      5 ****        -0.5599  -0.0372   0.7332 C.ar           1 S1                 0.0000
      6 ****         0.8306  -0.0183   0.9473 N.pl3          1 S1                 0.0000
      7 ****         1.6091   1.1928   0.7057 C.3            1 S1                 0.0000
      8 ****         3.0871   1.0340   1.0698 C.3            1 S1                 0.0000
      9 ****         3.7811   1.4624  -0.2309 C.3            1 S1                 0.0000
     10 ****         3.6678   0.3803  -1.3125 C.3            1 S1                 0.0000
     11 ****         2.1966   0.4897  -1.7075 C.3            1 S1                 0.0000
     12 ****         1.6992   1.6091  -0.7767 C.3            1 S1                 0.0000
     13 ****         2.8607   2.4204  -0.7260 O.3            1 S1                 0.0000
     14 ****        -1.2524  -1.2644   0.5652 C.ar           1 S1                 0.0000
     15 ****        -0.5488  -2.5451   0.6008 C.1            1 S1                 0.0000
     16 ****         0.0086  -3.5587   0.6287 N.1            1 S1                 0.0000
     17 ****        -2.6530  -1.2058   0.3547 C.ar           1 S1                 0.0000
     18 ****        -3.4793  -2.4748   0.1611 C.3            1 S1                 0.0000
     19 ****        -5.3043  -0.2083   0.8987 H              1 S1                 0.0000
     20 ****        -5.0371  -0.1007  -0.8501 H              1 S1                 0.0000
     21 ****        -4.9920   1.3533   0.1442 H              1 S1                 0.0000
     22 ****         1.3253  -0.8985   0.9307 H              1 S1                 0.0000
     23 ****         1.1958   2.0145   1.2925 H              1 S1                 0.0000
     24 ****         3.3473   1.7052   1.8890 H              1 S1                 0.0000
     25 ****         3.3627   0.0203   1.3643 H              1 S1                 0.0000
     26 ****         4.7936   1.8410  -0.0887 H              1 S1                 0.0000
     27 ****         4.3102   0.6107  -2.1632 H              1 S1                 0.0000
     28 ****         3.9345  -0.6093  -0.9401 H              1 S1                 0.0000
     29 ****         2.1076   0.7935  -2.7510 H              1 S1                 0.0000
     30 ****         1.6509  -0.4460  -1.5843 H              1 S1                 0.0000
     31 ****         0.8135   2.1266  -1.1461 H              1 S1                 0.0000
     32 ****        -3.1074  -3.0401  -0.6942 H              1 S1                 0.0000
     33 ****        -4.5357  -2.2804  -0.0153 H              1 S1                 0.0000
     34 ****        -3.4080  -3.1081   1.0461 H              1 S1                 0.0000
     35 ****        -2.9830   2.1007   0.4790 LP             1 S1                 0.0000
     36 ****        -0.6882   1.9990   0.8255 LP             1 S1                 0.0000
     37 ****         3.1216   2.7582  -1.6304 LP             1 S1                 0.0000
     38 ****         2.7512   3.1929  -0.1005 LP             1 S1                 0.0000
     39 ****         0.4903  -4.4347   0.6528 LP             1 S1                 0.0000
@<TRIPOS>BOND
    1    1    2 1     
    2    1   19 1     
    3    1   20 1     
    4    1   21 1     
    5    2   17 ar    
    6    2    3 ar    
    7    3    4 ar    
    8    4    5 ar    
    9    5    6 1     
   10    5   14 ar    
   11    6    7 1     
   12    6   22 1     
   13    7   12 1     
   14    7    8 1     
   15    7   23 1     
   16    8    9 1     
   17    8   24 1     
   18    8   25 1     
   19    9   13 1     
   20    9   10 1     
   21    9   26 1     
   22   10   11 1     
   23   10   27 1     
   24   10   28 1     
   25   11   12 1     
   26   11   29 1     
   27   11   30 1     
   28   12   13 1     
   29   12   31 1     
   30   14   15 1     
   31   14   17 ar    
   32   15   16 3     
   33   17   18 1     
   34   18   32 1     
   35   18   33 1     
   36   18   34 1     
   37    3   35 1     
   38    4   36 1     
   39   13   37 1     
   40   13   38 1     
   41   16   39 1     
@<TRIPOS>SUBSTRUCTURE
      1 S1             1
@<TRIPOS>SET
LONE_PAIRS      STATIC     ATOMS    <user>   **** ""
5 35 36 37 38 39
DONOR_HYDROGENS      STATIC     ATOMS    <user>   **** ""
1 22
ATOM$BLUE        STATIC     ATOMS    COLORGROUP SYSTEM
5 35 36 37 38 39
ATOM$RED        STATIC     ATOMS    COLORGROUP SYSTEM
1 22
