AV-unprocessed.smi:1123|AV-procd|sdf|4831|dock7
  -GOLD-   22720 3393D 1   1.00000     0.00000
 Structure written by MMmdl.
 38 39  0  0  0  0  0  0  0  0  2 V2000
  153.7031  142.5356  161.3451 C   0  0  0  0  0  0  0  0  0  0  0  0
  152.9499  141.8400  160.1929 C   0  0  2  0  0  0  0  0  0  0  0  0
  153.8275  140.8452  159.4120 C   0  0  0  0  0  0  0  0  0  0  0  0
  153.3325  140.0841  158.5796 O   0  0  0  0  0  0  0  0  0  0  0  0
  155.1437  140.8720  159.6782 N   0  0  0  0  0  0  0  0  0  0  0  0
  156.1428  140.0226  159.0409 C   0  0  0  0  0  0  0  0  0  0  0  0
  157.5585  140.3400  159.5592 C   0  0  0  0  0  0  0  0  0  0  0  0
  158.1533  141.5358  158.9110 N   0  3  0  0  0  0  0  0  0  0  0  0
  159.5696  141.7371  159.3014 C   0  0  0  0  0  0  0  0  0  0  0  0
  160.1351  143.0109  158.6513 C   0  0  0  0  0  0  0  0  0  0  0  0
  160.0028  142.9208  157.2386 O   0  0  0  0  0  0  0  0  0  0  0  0
  158.6421  142.8187  156.8393 C   0  0  0  0  0  0  0  0  0  0  0  0
  158.0191  141.5429  157.4326 C   0  0  0  0  0  0  0  0  0  0  0  0
  152.3327  142.8077  159.2934 N   0  0  0  0  0  0  0  0  0  0  0  0
  152.3999  144.1408  159.2891 C   0  0  0  0  0  0  0  0  0  0  0  0
  151.6822  144.7130  158.3329 N   0  0  0  0  0  0  0  0  0  0  0  0
  151.1560  143.5983  157.7442 C   0  0  0  0  0  0  0  0  0  0  0  0
  151.5066  142.4317  158.2852 N   0  0  0  0  0  0  0  0  0  0  0  0
  154.1009  141.8079  162.0531 H   0  0  0  0  0  0  0  0  0  0  0  0
  153.0375  143.1976  161.8997 H   0  0  0  0  0  0  0  0  0  0  0  0
  154.5383  143.1363  160.9829 H   0  0  0  0  0  0  0  0  0  0  0  0
  152.1419  141.2586  160.6399 H   0  0  0  0  0  0  0  0  0  0  0  0
  155.4740  141.5229  160.3762 H   0  0  0  0  0  0  0  0  0  0  0  0
  155.8714  138.9902  159.2575 H   0  0  0  0  0  0  0  0  0  0  0  0
  156.0959  140.1360  157.9562 H   0  0  0  0  0  0  0  0  0  0  0  0
  157.4995  140.5214  160.6335 H   0  0  0  0  0  0  0  0  0  0  0  0
  158.2184  139.4811  159.4272 H   0  0  0  0  0  0  0  0  0  0  0  0
  159.6489  141.8153  160.3863 H   0  0  0  0  0  0  0  0  0  0  0  0
  160.1594  140.8704  158.9981 H   0  0  0  0  0  0  0  0  0  0  0  0
  159.6230  143.9001  159.0223 H   0  0  0  0  0  0  0  0  0  0  0  0
  161.1903  143.1236  158.9010 H   0  0  0  0  0  0  0  0  0  0  0  0
  158.0900  143.7052  157.1559 H   0  0  0  0  0  0  0  0  0  0  0  0
  158.5959  142.7871  155.7506 H   0  0  0  0  0  0  0  0  0  0  0  0
  158.5092  140.6616  157.0156 H   0  0  0  0  0  0  0  0  0  0  0  0
  156.9703  141.4931  157.1432 H   0  0  0  0  0  0  0  0  0  0  0  0
  152.9845  144.7046  160.0012 H   0  0  0  0  0  0  0  0  0  0  0  0
  150.4910  143.6483  156.8945 H   0  0  0  0  0  0  0  0  0  0  0  0
  157.6470  142.3373  159.2599 H   0  0  0  0  0  0  0  0  0  0  0  0
  1  2  1  0  0  0  0
  1 19  1  0  0  0  0
  1 20  1  0  0  0  0
  1 21  1  0  0  0  0
  2  3  1  0  0  0  0
  2 14  1  0  0  0  0
  2 22  1  0  0  0  0
  3  4  2  0  0  0  0
  3  5  1  0  0  0  0
  5  6  1  0  0  0  0
  5 23  1  0  0  0  0
  6  7  1  0  0  0  0
  6 24  1  0  0  0  0
  6 25  1  0  0  0  0
  7  8  1  0  0  0  0
  7 26  1  0  0  0  0
  7 27  1  0  0  0  0
  8 13  1  0  0  0  0
  8  9  1  0  0  0  0
  8 38  1  0  0  0  0
  9 10  1  0  0  0  0
  9 28  1  0  0  0  0
  9 29  1  0  0  0  0
 10 11  1  0  0  0  0
 10 30  1  0  0  0  0
 10 31  1  0  0  0  0
 11 12  1  0  0  0  0
 12 13  1  0  0  0  0
 12 32  1  0  0  0  0
 12 33  1  0  0  0  0
 13 34  1  0  0  0  0
 13 35  1  0  0  0  0
 14 18  1  0  0  0  0
 14 15  1  0  0  0  0
 15 16  2  0  0  0  0
 15 36  1  0  0  0  0
 16 17  1  0  0  0  0
 17 18  2  0  0  0  0
 17 37  1  0  0  0  0
M  CHG  1   8   1
M  END
> <s_m_source_file>
AV-unprocessed.smi

> <i_m_source_file_index>
1123

> <i_lp_mmshare_version>
43012

> <i_f3d_flags>
0

> <s_epik_input>
bjFbY0hdbltjSF1uMVtDQEhdKFtDSDNdKUMoPU8pW05IXVtDSDJdW0NIMl1OMltDSDJdW0NIMl1PW0NIMl1bQ0gyXTI=

> <s_epik_cmdline>
J2VwaWtfcHl0aG9uJywgJy1waCcsICc3LjAnLCAnLXRuJywgJzgnLCAnLW1hJywgJzIwMCcsICctbWV0YWxfYmluZGluZycsICctaW1hZScsICc8aW5maWxlLm1hZT4nLCAnLW9tYWUnLCAnPG91dGZpbGUubWFlPic=

> <r_lp_tautomer_probability>
1

> <r_epik_Ionization_Penalty>
0.71326

> <r_epik_Ionization_Penalty_Charging>
0.713252

> <r_epik_Ionization_Penalty_Neutral>
7.98515e-06

> <r_epik_State_Penalty>
0.737017

> <r_epik_Charging_Adjusted_Penalty>
1.45027

> <i_epik_Tot_Q>
1

> <i_epik_Tot_abs_Q>
1

> <r_epik_Metal_State_Penalty>
0.73702

> <b_epik_Metal_Only>
0

> <s_lp_Force_Field>
OPLS_2005

> <r_lp_Energy>
21.5068

> <b_lp_Chiralities_Consistent>
1

> <s_lp_Variant>
AV-unprocessed.smi:1123-3

> <Gold.Version>
5.8.1

> <Gold.Id.Protein>
6NUR|6NUR_protein|mol2

> <Gold.PLP.Fitness>
43.9959

> <Gold.PLP.PLP>
-38.6220

> <Gold.PLP.part.hbond>
-2.7338

> <Gold.PLP.part.metal>
0.0000

> <Gold.PLP.part.buried>
-3.0881

> <Gold.PLP.part.nonpolar>
-32.5026

> <Gold.PLP.part.repulsive>
0.3475

> <Gold.PLP.ligand.clash>
0.0000

> <Gold.PLP.ligand.torsion>
0.2903

> <Gold.PLP.Chemscore.Hbond>
0.9760

> <Gold.PLP.Chemscore.CHOScore>
0.9649

> <Gold.PLP.Chemscore.Metal>
0.0000

> <Gold.Chemscore.Hbonds>
donor molecule, donor type, donor heavy atom, donor atom, acceptor molecule, acceptor atom, score
      P1  H  7997  8009       L1     4  1.00
      L1  C    17    37       P1  8028  1.00

> <Gold.PLP.Chemscore.Internal.Correction>
0.1317

> <Gold.Rescore>
     Score         DG    S(hbond)    S(metal)    S(lipo)     H(rot)  DE(clash)    DE(int)     intcor
      8.11      -9.27       0.90        0.00      65.64       2.69       0.03       1.12       ----

> <Gold.Chemscore.Fitness>
8.1099

> <Gold.Chemscore.DG>
-9.2670

> <Gold.Chemscore.ZeroCoef>
-5.4800

> <Gold.Chemscore.Hbond>
0.8976

> <Gold.Chemscore.Metal>
0.0000

> <Gold.Chemscore.Lipo>
65.6370

> <Gold.Chemscore.Internal_Hbond>
0.0000

> <Gold.Chemscore.DEClash>
0.0323

> <Gold.Chemscore.DEInternal>
1.1247

> <Gold.Chemscore.Rot>
2.6916

> <Gold.Chemscore.Internal.Correction>
   9.000000E+99

> <Gold.Chemscore.Hbonds>
donor molecule, donor type, donor heavy atom, donor atom, acceptor molecule, acceptor atom, score
      P1  H  7997  8009       L1     4  0.46

> <Gold.Chemscore.Hbond.Weighted>
-2.9980

> <Gold.Chemscore.Metal.Weighted>
-0.0000

> <Gold.Chemscore.Lipo.Weighted>
-7.6795

> <Gold.Chemscore.Internal_Hbond.Weighted>
0.0000

> <Gold.Chemscore.DEClash.Weighted>
0.0323

> <Gold.Chemscore.DEInternal.Weighted>
1.1247

> <Gold.Chemscore.Rot.Weighted>
6.8906

> <Gold.Chemscore.Internal.Correction.Weighted>
   9.000000E+99

> <Gold.Protein.RotatedTorsions>
[ 6907 6896 6895 6894 ] final  -58.93 input  -60.11 | X-H torsion
[ 7974 7965 7964 7962 ] final  -89.97 input  175.53 | X-H torsion
[ 8008 7997 7996 7995 ] final  150.89 input   59.86 | X-H torsion
[ 10167 10162 10161 10158 ] final  119.06 input  -65.29 | X-H torsion
[ 10718 10713 10712 10709 ] final   -3.42 input   66.30 | X-H torsion
[ 10763 10752 10751 10750 ] final -107.26 input  -60.55 | X-H torsion
[ 11005 11000 10999 10996 ] final  -42.73 input  -57.11 | X-H torsion

> <Gold.Protein.ActiveResidues>
 VAL166  LYS551  ARG553  GLY616  TRP617  ASP618  TYR619  PRO620  LYS621  CYS622 
 ASP623  PHE694  ASN695  SER759  ASP760  ASP761  ALA762  ILE779  LEU786  VAL792 
 PHE793  MET794  SER795  GLU796  ALA797  LYS798  CYS799  TRP800  GLU811  SER814 

> <Gold.Protein.RotatedAtoms>
  150.7969  134.7035  159.6563 H   0  0  0  0  0  0  0  0  0  0  0  0  # atno 6907 bound_to 6896
  152.4082  134.6166  160.0049 H   0  0  0  0  0  0  0  0  0  0  0  0  # atno 6908 bound_to 6896
  151.6417  133.3288  159.3168 H   0  0  0  0  0  0  0  0  0  0  0  0  # atno 6909 bound_to 6896
  145.4327  140.9556  143.2119 H   0  0  0  0  0  0  0  0  0  0  0  0  # atno 7974 bound_to 7965
  156.2697  140.2062  156.6089 H   0  0  0  0  0  0  0  0  0  0  0  0  # atno 8008 bound_to 7997
  154.6847  140.0536  157.0326 H   0  0  0  0  0  0  0  0  0  0  0  0  # atno 8009 bound_to 7997
  155.0951  140.3200  155.4565 H   0  0  0  0  0  0  0  0  0  0  0  0  # atno 8010 bound_to 7997
  139.6071  144.7072  151.2929 H   0  0  0  0  0  0  0  0  0  0  0  0  # atno 10167 bound_to 10162
  156.7763  130.5316  149.5758 H   0  0  0  0  0  0  0  0  0  0  0  0  # atno 10718 bound_to 10713
  154.8064  135.4681  154.0403 H   0  0  0  0  0  0  0  0  0  0  0  0  # atno 10763 bound_to 10752
  153.1869  135.6849  153.8411 H   0  0  0  0  0  0  0  0  0  0  0  0  # atno 10764 bound_to 10752
  153.7942  135.3239  155.3360 H   0  0  0  0  0  0  0  0  0  0  0  0  # atno 10765 bound_to 10752
  141.0336  133.6809  156.2635 H   0  0  0  0  0  0  0  0  0  0  0  0  # atno 11005 bound_to 11000
  144.8172  139.5855  143.7003 LP  0  0  0  0  0  0  0  0  0  0  0  0  # atno 17320 bound_to 7965
  146.2598  139.6385  142.9369 LP  0  0  0  0  0  0  0  0  0  0  0  0  # atno 17321 bound_to 7965
  140.7292  143.6913  150.7919 LP  0  0  0  0  0  0  0  0  0  0  0  0  # atno 17342 bound_to 10162
  140.0501  143.5258  152.2677 LP  0  0  0  0  0  0  0  0  0  0  0  0  # atno 17343 bound_to 10162
  156.1246  130.6134  151.0244 LP  0  0  0  0  0  0  0  0  0  0  0  0  # atno 17370 bound_to 10713
  157.6667  131.0870  150.7710 LP  0  0  0  0  0  0  0  0  0  0  0  0  # atno 17371 bound_to 10713
  140.6363  134.5212  157.5565 LP  0  0  0  0  0  0  0  0  0  0  0  0  # atno 17394 bound_to 11000
  139.9225  134.8121  156.1169 LP  0  0  0  0  0  0  0  0  0  0  0  0  # atno 17395 bound_to 11000

$$$$
