AV-unprocessed.smi:2273|AV-procd|sdf|9165|dock3
  -GOLD-   2272012373D 1   1.00000     0.00000
 Structure written by MMmdl.
 53 54  0  0  0  0  0  0  0  0  1 V2000
  144.1437  144.5560  154.6919 C   0  0  0  0  0  0  0  0  0  0  0  0
  145.4280  143.8438  154.2405 C   0  0  0  0  0  0  0  0  0  0  0  0
  145.5233  142.3585  154.6726 C   0  0  0  0  0  0  0  0  0  0  0  0
  145.1492  142.1809  156.1656 C   0  0  0  0  0  0  0  0  0  0  0  0
  145.8758  143.1367  157.1244 C   0  0  0  0  0  0  0  0  0  0  0  0
  146.9148  141.7461  154.3630 C   0  0  1  0  0  0  0  0  0  0  0  0
  148.0756  142.3526  155.1798 C   0  0  0  0  0  0  0  0  0  0  0  0
  149.4103  141.6974  154.7824 C   0  0  1  0  0  0  0  0  0  0  0  0
  150.5048  142.1731  155.6309 N   0  0  0  0  0  0  0  0  0  0  0  0
  150.7331  141.8980  156.9281 C   0  0  0  0  0  0  0  0  0  0  0  0
  149.9691  141.1843  157.5763 O   0  0  0  0  0  0  0  0  0  0  0  0
  151.8323  142.4902  157.4377 N   0  0  0  0  0  0  0  0  0  0  0  0
  152.2727  142.4231  158.7681 C   0  0  0  0  0  0  0  0  0  0  0  0
  152.0510  143.4839  159.5882 C   0  0  0  0  0  0  0  0  0  0  0  0
  151.3056  144.7214  159.1136 C   0  0  0  0  0  0  0  0  0  0  0  0
  152.5176  143.4243  160.9577 C   0  0  0  0  0  0  0  0  0  0  0  0
  153.1653  142.3328  161.3863 C   0  0  0  0  0  0  0  0  0  0  0  0
  153.4197  141.2463  160.5372 N   0  0  0  0  0  0  0  0  0  0  0  0
  154.1524  140.1068  161.0952 C   0  0  0  0  0  0  0  0  0  0  0  0
  153.0407  141.2404  159.2268 C   0  0  0  0  0  0  0  0  0  0  0  0
  153.3479  140.3045  158.4850 O   0  0  0  0  0  0  0  0  0  0  0  0
  149.2748  140.1733  154.9136 C   0  0  0  0  0  0  0  0  0  0  0  0
  148.0530  139.6667  154.1300 C   0  0  0  0  0  0  0  0  0  0  0  0
  146.8742  140.3352  154.5679 O   0  0  0  0  0  0  0  0  0  0  0  0
  144.0926  145.5578  154.2649 H   0  0  0  0  0  0  0  0  0  0  0  0
  144.0924  144.6670  155.7741 H   0  0  0  0  0  0  0  0  0  0  0  0
  143.2564  144.0132  154.3652 H   0  0  0  0  0  0  0  0  0  0  0  0
  145.4625  143.9219  153.1560 H   0  0  0  0  0  0  0  0  0  0  0  0
  146.2973  144.3934  154.6034 H   0  0  0  0  0  0  0  0  0  0  0  0
  144.7899  141.8033  154.0862 H   0  0  0  0  0  0  0  0  0  0  0  0
  144.0710  142.2820  156.2944 H   0  0  0  0  0  0  0  0  0  0  0  0
  145.3900  141.1701  156.4901 H   0  0  0  0  0  0  0  0  0  0  0  0
  145.6453  142.8860  158.1601 H   0  0  0  0  0  0  0  0  0  0  0  0
  145.5818  144.1746  156.9738 H   0  0  0  0  0  0  0  0  0  0  0  0
  146.9571  143.0698  157.0029 H   0  0  0  0  0  0  0  0  0  0  0  0
  147.1439  141.9305  153.3139 H   0  0  0  0  0  0  0  0  0  0  0  0
  148.1151  143.4292  155.0177 H   0  0  0  0  0  0  0  0  0  0  0  0
  147.9171  142.2054  156.2472 H   0  0  0  0  0  0  0  0  0  0  0  0
  149.6305  141.9255  153.7379 H   0  0  0  0  0  0  0  0  0  0  0  0
  151.1645  142.7936  155.1840 H   0  0  0  0  0  0  0  0  0  0  0  0
  152.3166  143.1492  156.8463 H   0  0  0  0  0  0  0  0  0  0  0  0
  151.2027  145.4527  159.9154 H   0  0  0  0  0  0  0  0  0  0  0  0
  150.3045  144.4579  158.7709 H   0  0  0  0  0  0  0  0  0  0  0  0
  151.8408  145.1981  158.2919 H   0  0  0  0  0  0  0  0  0  0  0  0
  152.3413  144.2470  161.6351 H   0  0  0  0  0  0  0  0  0  0  0  0
  153.5340  142.2297  162.3964 H   0  0  0  0  0  0  0  0  0  0  0  0
  153.6109  139.1756  160.9211 H   0  0  0  0  0  0  0  0  0  0  0  0
  154.3055  140.1917  162.1717 H   0  0  0  0  0  0  0  0  0  0  0  0
  155.1349  140.0215  160.6288 H   0  0  0  0  0  0  0  0  0  0  0  0
  150.1784  139.6796  154.5540 H   0  0  0  0  0  0  0  0  0  0  0  0
  149.1649  139.8987  155.9637 H   0  0  0  0  0  0  0  0  0  0  0  0
  148.1899  139.8162  153.0579 H   0  0  0  0  0  0  0  0  0  0  0  0
  147.9267  138.5953  154.2860 H   0  0  0  0  0  0  0  0  0  0  0  0
  1  2  1  0  0  0  0
  1 25  1  0  0  0  0
  1 26  1  0  0  0  0
  1 27  1  0  0  0  0
  2  3  1  0  0  0  0
  2 28  1  0  0  0  0
  2 29  1  0  0  0  0
  3  4  1  0  0  0  0
  3  6  1  0  0  0  0
  3 30  1  0  0  0  0
  4  5  1  0  0  0  0
  4 31  1  0  0  0  0
  4 32  1  0  0  0  0
  5 33  1  0  0  0  0
  5 34  1  0  0  0  0
  5 35  1  0  0  0  0
  6 24  1  0  0  0  0
  6  7  1  0  0  0  0
  6 36  1  0  0  0  0
  7  8  1  0  0  0  0
  7 37  1  0  0  0  0
  7 38  1  0  0  0  0
  8  9  1  0  0  0  0
  8 22  1  0  0  0  0
  8 39  1  0  0  0  0
  9 10  1  0  0  0  0
  9 40  1  0  0  0  0
 10 11  2  0  0  0  0
 10 12  1  0  0  0  0
 12 13  1  0  0  0  0
 12 41  1  0  0  0  0
 13 20  1  0  0  0  0
 13 14  2  0  0  0  0
 14 15  1  0  0  0  0
 14 16  1  0  0  0  0
 15 42  1  0  0  0  0
 15 43  1  0  0  0  0
 15 44  1  0  0  0  0
 16 17  2  0  0  0  0
 16 45  1  0  0  0  0
 17 18  1  0  0  0  0
 17 46  1  0  0  0  0
 18 19  1  0  0  0  0
 18 20  1  0  0  0  0
 19 47  1  0  0  0  0
 19 48  1  0  0  0  0
 19 49  1  0  0  0  0
 20 21  2  0  0  0  0
 22 23  1  0  0  0  0
 22 50  1  0  0  0  0
 22 51  1  0  0  0  0
 23 24  1  0  0  0  0
 23 52  1  0  0  0  0
 23 53  1  0  0  0  0
M  END
> <s_m_source_file>
AV-unprocessed.smi

> <i_m_source_file_index>
2273

> <i_lp_mmshare_version>
43012

> <i_f3d_flags>
0

> <s_epik_input>
W0NIM11bQ0gyXVtDSF0oW0NIMl1bQ0gzXSlbQ0BASF0xW0NIMl1bQ0BIXShbQ0gyXVtDSDJdTzEpW05IXUMoPU8pW05IXWMyYyhbQ0gzXSlbY0hdW2NIXW4oW0NIM10pYzI9Tw==

> <s_epik_cmdline>
J2VwaWtfcHl0aG9uJywgJy1waCcsICc3LjAnLCAnLXRuJywgJzgnLCAnLW1hJywgJzIwMCcsICctbWV0YWxfYmluZGluZycsICctaW1hZScsICc8aW5maWxlLm1hZT4nLCAnLW9tYWUnLCAnPG91dGZpbGUubWFlPic=

> <r_lp_tautomer_probability>
1

> <r_epik_Ionization_Penalty>
2.66245e-05

> <r_epik_Ionization_Penalty_Charging>
6.91055e-06

> <r_epik_Ionization_Penalty_Neutral>
1.97139e-05

> <r_epik_State_Penalty>
-0

> <r_epik_Charging_Adjusted_Penalty>
6.91055e-06

> <i_epik_Tot_Q>
0

> <i_epik_Tot_abs_Q>
0

> <r_epik_Metal_State_Penalty>
-0

> <b_epik_Metal_Only>
0

> <s_lp_Force_Field>
OPLS_2005

> <r_lp_Energy>
39.8716

> <b_lp_Chiralities_Consistent>
1

> <s_lp_Variant>
AV-unprocessed.smi:2273-2

> <Gold.Version>
5.8.1

> <Gold.Id.Protein>
6NUR|6NUR_protein|mol2

> <Gold.PLP.Fitness>
46.0252

> <Gold.PLP.PLP>
-44.8329

> <Gold.PLP.part.hbond>
-1.8505

> <Gold.PLP.part.metal>
0.0000

> <Gold.PLP.part.buried>
4.0470

> <Gold.PLP.part.nonpolar>
-46.2276

> <Gold.PLP.part.repulsive>
0.3658

> <Gold.PLP.ligand.clash>
0.0000

> <Gold.PLP.ligand.torsion>
1.0167

> <Gold.PLP.Chemscore.Hbond>
0.8406

> <Gold.PLP.Chemscore.CHOScore>
0.0000

> <Gold.PLP.Chemscore.Metal>
0.0000

> <Gold.Chemscore.Hbonds>
donor molecule, donor type, donor heavy atom, donor atom, acceptor molecule, acceptor atom, score
      P1  H  7997  8010       L1    21  0.86

> <Gold.PLP.Chemscore.Internal.Correction>
0.7040

> <Gold.Rescore>
     Score         DG    S(hbond)    S(metal)    S(lipo)     H(rot)  DE(clash)    DE(int)     intcor
     12.74     -17.69       0.71        0.00     115.15       1.42       2.68       2.27       ----

> <Gold.Chemscore.Fitness>
12.7387

> <Gold.Chemscore.DG>
-17.6899

> <Gold.Chemscore.ZeroCoef>
-5.4800

> <Gold.Chemscore.Hbond>
0.7132

> <Gold.Chemscore.Metal>
0.0000

> <Gold.Chemscore.Lipo>
115.1487

> <Gold.Chemscore.Internal_Hbond>
0.0000

> <Gold.Chemscore.DEClash>
2.6808

> <Gold.Chemscore.DEInternal>
2.2704

> <Gold.Chemscore.Rot>
1.4236

> <Gold.Chemscore.Internal.Correction>
   9.000000E+99

> <Gold.Chemscore.Hbonds>
donor molecule, donor type, donor heavy atom, donor atom, acceptor molecule, acceptor atom, score
      P1  H  7997  8010       L1    21  0.86

> <Gold.Chemscore.Hbond.Weighted>
-2.3820

> <Gold.Chemscore.Metal.Weighted>
-0.0000

> <Gold.Chemscore.Lipo.Weighted>
-13.4724

> <Gold.Chemscore.Internal_Hbond.Weighted>
0.0000

> <Gold.Chemscore.DEClash.Weighted>
2.6808

> <Gold.Chemscore.DEInternal.Weighted>
2.2704

> <Gold.Chemscore.Rot.Weighted>
3.6445

> <Gold.Chemscore.Internal.Correction.Weighted>
   9.000000E+99

> <Gold.Protein.RotatedTorsions>
[ 6907 6896 6895 6894 ] final -125.62 input  -60.11 | X-H torsion
[ 7974 7965 7964 7962 ] final -108.92 input  175.53 | X-H torsion
[ 8008 7997 7996 7995 ] final   24.19 input   59.86 | X-H torsion
[ 10167 10162 10161 10158 ] final   13.35 input  -65.29 | X-H torsion
[ 10718 10713 10712 10709 ] final   45.44 input   66.30 | X-H torsion
[ 10763 10752 10751 10750 ] final  102.74 input  -60.55 | X-H torsion
[ 11005 11000 10999 10996 ] final  -92.48 input  -57.11 | X-H torsion

> <Gold.Protein.ActiveResidues>
 VAL166  LYS551  ARG553  GLY616  TRP617  ASP618  TYR619  PRO620  LYS621  CYS622 
 ASP623  PHE694  ASN695  SER759  ASP760  ASP761  ALA762  ILE779  LEU786  VAL792 
 PHE793  MET794  SER795  GLU796  ALA797  LYS798  CYS799  TRP800  GLU811  SER814 

> <Gold.Protein.RotatedAtoms>
  150.8886  133.7274  159.2911 H   0  0  0  0  0  0  0  0  0  0  0  0  # atno 6907 bound_to 6896
  151.4832  135.1052  159.9793 H   0  0  0  0  0  0  0  0  0  0  0  0  # atno 6908 bound_to 6896
  152.4806  133.8197  159.7102 H   0  0  0  0  0  0  0  0  0  0  0  0  # atno 6909 bound_to 6896
  145.1869  140.8997  143.3447 H   0  0  0  0  0  0  0  0  0  0  0  0  # atno 7974 bound_to 7965
  154.9924  140.3115  155.4901 H   0  0  0  0  0  0  0  0  0  0  0  0  # atno 8008 bound_to 7997
  156.2938  140.2247  156.4970 H   0  0  0  0  0  0  0  0  0  0  0  0  # atno 8009 bound_to 7997
  154.7691  140.0453  157.1025 H   0  0  0  0  0  0  0  0  0  0  0  0  # atno 8010 bound_to 7997
  140.6008  143.8607  150.6964 H   0  0  0  0  0  0  0  0  0  0  0  0  # atno 10167 bound_to 10162
  157.4375  130.8061  149.7662 H   0  0  0  0  0  0  0  0  0  0  0  0  # atno 10718 bound_to 10713
  153.3435  135.4000  155.1591 H   0  0  0  0  0  0  0  0  0  0  0  0  # atno 10763 bound_to 10752
  154.8648  135.3639  154.5314 H   0  0  0  0  0  0  0  0  0  0  0  0  # atno 10764 bound_to 10752
  153.5761  135.7078  153.5543 H   0  0  0  0  0  0  0  0  0  0  0  0  # atno 10765 bound_to 10752
  141.1521  133.7824  157.0026 H   0  0  0  0  0  0  0  0  0  0  0  0  # atno 11005 bound_to 11000
  145.0080  139.3536  143.6134 LP  0  0  0  0  0  0  0  0  0  0  0  0  # atno 17320 bound_to 7965
  146.3443  139.9331  142.8751 LP  0  0  0  0  0  0  0  0  0  0  0  0  # atno 17321 bound_to 7965
  140.2153  143.3851  152.1686 LP  0  0  0  0  0  0  0  0  0  0  0  0  # atno 17342 bound_to 10162
  139.5290  144.7137  151.5124 LP  0  0  0  0  0  0  0  0  0  0  0  0  # atno 17343 bound_to 10162
  155.9936  130.3923  150.2893 LP  0  0  0  0  0  0  0  0  0  0  0  0  # atno 17370 bound_to 10713
  157.1055  131.0207  151.3069 LP  0  0  0  0  0  0  0  0  0  0  0  0  # atno 17371 bound_to 10713
  140.0930  134.9581  157.1805 LP  0  0  0  0  0  0  0  0  0  0  0  0  # atno 17394 bound_to 11000
  140.3420  134.2693  155.7210 LP  0  0  0  0  0  0  0  0  0  0  0  0  # atno 17395 bound_to 11000

$$$$
