AV-unprocessed.smi:1543|AV-procd|sdf|6206|dock7
  -GOLD-   22720 6373D 1   1.00000     0.00000
 Structure written by MMmdl.
 48 49  0  0  0  0  0  0  0  0  1 V2000
  151.4814  135.0567  154.7954 C   0  0  0  0  0  0  0  0  0  0  0  0
  150.9895  136.3080  154.0607 C   0  0  1  0  0  0  0  0  0  0  0  0
  149.7591  136.9364  154.7408 C   0  0  0  0  0  0  0  0  0  0  0  0
  149.3295  138.1699  154.0734 N   0  0  0  0  0  0  0  0  0  0  0  0
  148.0670  138.7611  154.6012 C   0  0  0  0  0  0  0  0  0  0  0  0
  148.1603  139.1518  156.0961 C   0  0  0  0  0  0  0  0  0  0  0  0
  147.6834  140.0430  153.8187 C   0  0  0  0  0  0  0  0  0  0  0  0
  146.8660  137.7794  154.4595 C   0  0  0  0  0  0  0  0  0  0  0  0
  147.0594  136.7915  153.3980 N   0  0  0  0  0  0  0  0  0  0  0  0
  146.1729  135.8598  153.0205 C   0  0  0  0  0  0  0  0  0  0  0  0
  145.0661  135.7222  153.5404 O   0  0  0  0  0  0  0  0  0  0  0  0
  146.6499  135.1287  151.9985 N   0  0  0  0  0  0  0  0  0  0  0  0
  146.0376  134.0403  151.3197 C   0  0  0  0  0  0  0  0  0  0  0  0
  144.6396  133.8826  151.1547 C   0  0  0  0  0  0  0  0  0  0  0  0
  144.1597  132.7455  150.4766 C   0  0  0  0  0  0  0  0  0  0  0  0
  145.0915  131.8059  149.9944 C   0  0  0  0  0  0  0  0  0  0  0  0
  146.4250  131.9372  150.1546 N   0  0  0  0  0  0  0  0  0  0  0  0
  146.8778  133.0296  150.8061 C   0  0  0  0  0  0  0  0  0  0  0  0
  150.4689  139.0927  154.0218 C   0  0  0  0  0  0  0  0  0  0  0  0
  151.7030  138.4590  153.3521 C   0  0  1  0  0  0  0  0  0  0  0  0
  152.9178  139.3928  153.3767 C   0  0  0  0  0  0  0  0  0  0  0  0
  152.0468  137.2607  154.0397 O   0  0  0  0  0  0  0  0  0  0  0  0
  150.7070  134.2898  154.8250 H   0  0  0  0  0  0  0  0  0  0  0  0
  151.7636  135.2877  155.8229 H   0  0  0  0  0  0  0  0  0  0  0  0
  152.3527  134.6302  154.2979 H   0  0  0  0  0  0  0  0  0  0  0  0
  150.7388  136.0339  153.0344 H   0  0  0  0  0  0  0  0  0  0  0  0
  148.9629  136.1945  154.7345 H   0  0  0  0  0  0  0  0  0  0  0  0
  149.9958  137.1375  155.7858 H   0  0  0  0  0  0  0  0  0  0  0  0
  147.2224  139.5851  156.4454 H   0  0  0  0  0  0  0  0  0  0  0  0
  148.9354  139.8951  156.2816 H   0  0  0  0  0  0  0  0  0  0  0  0
  148.3652  138.2927  156.7345 H   0  0  0  0  0  0  0  0  0  0  0  0
  146.6777  140.3802  154.0715 H   0  0  0  0  0  0  0  0  0  0  0  0
  147.7096  139.8806  152.7406 H   0  0  0  0  0  0  0  0  0  0  0  0
  148.3474  140.8781  154.0409 H   0  0  0  0  0  0  0  0  0  0  0  0
  146.6951  137.2364  155.3887 H   0  0  0  0  0  0  0  0  0  0  0  0
  145.9406  138.3362  154.3008 H   0  0  0  0  0  0  0  0  0  0  0  0
  147.9367  136.8361  152.9008 H   0  0  0  0  0  0  0  0  0  0  0  0
  147.5446  135.4167  151.6301 H   0  0  0  0  0  0  0  0  0  0  0  0
  143.9288  134.5956  151.5419 H   0  0  0  0  0  0  0  0  0  0  0  0
  143.1001  132.5948  150.3327 H   0  0  0  0  0  0  0  0  0  0  0  0
  144.7563  130.9226  149.4712 H   0  0  0  0  0  0  0  0  0  0  0  0
  147.9502  133.0998  150.9173 H   0  0  0  0  0  0  0  0  0  0  0  0
  150.2141  139.9910  153.4622 H   0  0  0  0  0  0  0  0  0  0  0  0
  150.7385  139.4125  155.0286 H   0  0  0  0  0  0  0  0  0  0  0  0
  151.4698  138.2162  152.3139 H   0  0  0  0  0  0  0  0  0  0  0  0
  152.7084  140.3238  152.8495 H   0  0  0  0  0  0  0  0  0  0  0  0
  153.7779  138.9254  152.8967 H   0  0  0  0  0  0  0  0  0  0  0  0
  153.2023  139.6437  154.3991 H   0  0  0  0  0  0  0  0  0  0  0  0
  1  2  1  0  0  0  0
  1 23  1  0  0  0  0
  1 24  1  0  0  0  0
  1 25  1  0  0  0  0
  2 22  1  0  0  0  0
  2  3  1  0  0  0  0
  2 26  1  0  0  0  0
  3  4  1  0  0  0  0
  3 27  1  0  0  0  0
  3 28  1  0  0  0  0
  4  5  1  0  0  0  0
  4 19  1  0  0  0  0
  5  6  1  0  0  0  0
  5  7  1  0  0  0  0
  5  8  1  0  0  0  0
  6 29  1  0  0  0  0
  6 30  1  0  0  0  0
  6 31  1  0  0  0  0
  7 32  1  0  0  0  0
  7 33  1  0  0  0  0
  7 34  1  0  0  0  0
  8  9  1  0  0  0  0
  8 35  1  0  0  0  0
  8 36  1  0  0  0  0
  9 10  1  0  0  0  0
  9 37  1  0  0  0  0
 10 11  2  0  0  0  0
 10 12  1  0  0  0  0
 12 13  1  0  0  0  0
 12 38  1  0  0  0  0
 13 18  1  0  0  0  0
 13 14  2  0  0  0  0
 14 15  1  0  0  0  0
 14 39  1  0  0  0  0
 15 16  2  0  0  0  0
 15 40  1  0  0  0  0
 16 17  1  0  0  0  0
 16 41  1  0  0  0  0
 17 18  2  0  0  0  0
 18 42  1  0  0  0  0
 19 20  1  0  0  0  0
 19 43  1  0  0  0  0
 19 44  1  0  0  0  0
 20 21  1  0  0  0  0
 20 22  1  0  0  0  0
 20 45  1  0  0  0  0
 21 46  1  0  0  0  0
 21 47  1  0  0  0  0
 21 48  1  0  0  0  0
M  END
> <s_m_source_file>
AV-unprocessed.smi

> <i_m_source_file_index>
1543

> <i_lp_mmshare_version>
43012

> <i_f3d_flags>
0

> <s_epik_input>
W0NIM11bQ0BASF0xW0NIMl1OKFtDSDJdW0NASF0oTzEpW0NIM10pQyhbQ0gzXSkoW0NIM10pW0NIMl1bTkhdQyg9TylbTkhdYzJbY0hdW2NIXVtjSF1uW2NIXTI=

> <s_epik_cmdline>
J2VwaWtfcHl0aG9uJywgJy1waCcsICc3LjAnLCAnLXRuJywgJzgnLCAnLW1hJywgJzIwMCcsICctbWV0YWxfYmluZGluZycsICctaW1hZScsICc8aW5maWxlLm1hZT4nLCAnLW9tYWUnLCAnPG91dGZpbGUubWFlPic=

> <r_epik_Ionization_Penalty>
0.270794

> <r_epik_Ionization_Penalty_Charging>
0

> <r_epik_Ionization_Penalty_Neutral>
0.270794

> <r_epik_State_Penalty>
0.268291

> <r_epik_Charging_Adjusted_Penalty>
0.268291

> <i_epik_Tot_Q>
0

> <i_epik_Tot_abs_Q>
0

> <r_epik_Metal_State_Penalty>
0.264827

> <b_epik_Metal_Only>
0

> <s_lp_Force_Field>
OPLS_2005

> <r_lp_Energy>
43.3582

> <b_lp_Chiralities_Consistent>
1

> <s_lp_Variant>
AV-unprocessed.smi:1543-2

> <Gold.Version>
5.8.1

> <Gold.Id.Protein>
6NUR|6NUR_protein|mol2

> <Gold.PLP.Fitness>
42.4973

> <Gold.PLP.PLP>
-34.1125

> <Gold.PLP.part.hbond>
-3.0000

> <Gold.PLP.part.metal>
0.0000

> <Gold.PLP.part.buried>
-5.7355

> <Gold.PLP.part.nonpolar>
-27.8870

> <Gold.PLP.part.repulsive>
1.3521

> <Gold.PLP.ligand.clash>
0.0000

> <Gold.PLP.ligand.torsion>
0.9382

> <Gold.PLP.Chemscore.Hbond>
2.9760

> <Gold.PLP.Chemscore.CHOScore>
0.4254

> <Gold.PLP.Chemscore.Metal>
0.0000

> <Gold.Chemscore.Hbonds>
donor molecule, donor type, donor heavy atom, donor atom, acceptor molecule, acceptor atom, score
      L1  H     9    37       P1  7948  1.00
      L1  H    12    38       P1  7948  1.00
      L1  C    18    42       P1 10747  0.58

> <Gold.PLP.Chemscore.Internal.Correction>
0.0571

> <Gold.Rescore>
     Score         DG    S(hbond)    S(metal)    S(lipo)     H(rot)  DE(clash)    DE(int)     intcor
     18.86     -21.45       2.68        0.00      91.25       1.43       0.58       2.01       ----

> <Gold.Chemscore.Fitness>
18.8646

> <Gold.Chemscore.DG>
-21.4539

> <Gold.Chemscore.ZeroCoef>
-5.4800

> <Gold.Chemscore.Hbond>
2.6815

> <Gold.Chemscore.Metal>
0.0000

> <Gold.Chemscore.Lipo>
91.2503

> <Gold.Chemscore.Internal_Hbond>
0.0000

> <Gold.Chemscore.DEClash>
0.5805

> <Gold.Chemscore.DEInternal>
2.0088

> <Gold.Chemscore.Rot>
1.4291

> <Gold.Chemscore.Internal.Correction>
   9.000000E+99

> <Gold.Chemscore.Hbonds>
donor molecule, donor type, donor heavy atom, donor atom, acceptor molecule, acceptor atom, score
      L1  H     9    37       P1  7948  0.93
      L1  H    12    38       P1  7948  0.86

> <Gold.Chemscore.Hbond.Weighted>
-8.9561

> <Gold.Chemscore.Metal.Weighted>
-0.0000

> <Gold.Chemscore.Lipo.Weighted>
-10.6763

> <Gold.Chemscore.Internal_Hbond.Weighted>
0.0000

> <Gold.Chemscore.DEClash.Weighted>
0.5805

> <Gold.Chemscore.DEInternal.Weighted>
2.0088

> <Gold.Chemscore.Rot.Weighted>
3.6586

> <Gold.Chemscore.Internal.Correction.Weighted>
   9.000000E+99

> <Gold.Protein.RotatedTorsions>
[ 6907 6896 6895 6894 ] final   98.65 input  -60.11 | X-H torsion
[ 7974 7965 7964 7962 ] final  133.28 input  175.53 | X-H torsion
[ 8008 7997 7996 7995 ] final -178.91 input   59.86 | X-H torsion
[ 10167 10162 10161 10158 ] final  154.85 input  -65.29 | X-H torsion
[ 10718 10713 10712 10709 ] final  128.68 input   66.30 | X-H torsion
[ 10763 10752 10751 10750 ] final -164.05 input  -60.55 | X-H torsion
[ 11005 11000 10999 10996 ] final   92.28 input  -57.11 | X-H torsion

> <Gold.Protein.ActiveResidues>
 VAL166  LYS551  ARG553  GLY616  TRP617  ASP618  TYR619  PRO620  LYS621  CYS622 
 ASP623  PHE694  ASN695  SER759  ASP760  ASP761  ALA762  ILE779  LEU786  VAL792 
 PHE793  MET794  SER795  GLU796  ALA797  LYS798  CYS799  TRP800  GLU811  SER814 

> <Gold.Protein.RotatedAtoms>
  152.5406  134.0549  159.8126 H   0  0  0  0  0  0  0  0  0  0  0  0  # atno 6907 bound_to 6896
  151.0685  133.5478  159.2636 H   0  0  0  0  0  0  0  0  0  0  0  0  # atno 6908 bound_to 6896
  151.2350  135.0576  159.9056 H   0  0  0  0  0  0  0  0  0  0  0  0  # atno 6909 bound_to 6896
  144.9882  139.4434  143.5352 H   0  0  0  0  0  0  0  0  0  0  0  0  # atno 7974 bound_to 7965
  156.0243  140.1268  157.0324 H   0  0  0  0  0  0  0  0  0  0  0  0  # atno 8008 bound_to 7997
  154.4324  140.1062  156.6079 H   0  0  0  0  0  0  0  0  0  0  0  0  # atno 8009 bound_to 7997
  155.5899  140.3469  155.4566 H   0  0  0  0  0  0  0  0  0  0  0  0  # atno 8010 bound_to 7997
  139.4822  144.5150  151.7965 H   0  0  0  0  0  0  0  0  0  0  0  0  # atno 10167 bound_to 10162
  157.5222  131.1098  150.9136 H   0  0  0  0  0  0  0  0  0  0  0  0  # atno 10718 bound_to 10713
  154.7065  135.2998  154.9263 H   0  0  0  0  0  0  0  0  0  0  0  0  # atno 10763 bound_to 10752
  154.0178  135.6686  153.4774 H   0  0  0  0  0  0  0  0  0  0  0  0  # atno 10764 bound_to 10752
  153.0721  135.5055  154.8238 H   0  0  0  0  0  0  0  0  0  0  0  0  # atno 10765 bound_to 10752
  139.8826  134.8724  156.3550 H   0  0  0  0  0  0  0  0  0  0  0  0  # atno 11005 bound_to 11000
  146.3425  139.9197  142.8768 LP  0  0  0  0  0  0  0  0  0  0  0  0  # atno 17320 bound_to 7965
  145.2324  140.9978  143.3983 LP  0  0  0  0  0  0  0  0  0  0  0  0  # atno 17321 bound_to 7965
  140.4657  144.1658  150.5911 LP  0  0  0  0  0  0  0  0  0  0  0  0  # atno 17342 bound_to 10162
  140.4436  143.2516  151.9440 LP  0  0  0  0  0  0  0  0  0  0  0  0  # atno 17343 bound_to 10162
  156.9743  130.5502  149.5292 LP  0  0  0  0  0  0  0  0  0  0  0  0  # atno 17370 bound_to 10713
  156.0362  130.5449  150.8658 LP  0  0  0  0  0  0  0  0  0  0  0  0  # atno 17371 bound_to 10713
  140.9568  133.7414  156.0347 LP  0  0  0  0  0  0  0  0  0  0  0  0  # atno 17394 bound_to 11000
  140.8038  134.3478  157.5432 LP  0  0  0  0  0  0  0  0  0  0  0  0  # atno 17395 bound_to 11000

$$$$
