AV-unprocessed.smi:1952|AV-procd|sdf|7889|dock7
  -GOLD-   2272010 43D 1   1.00000     0.00000
 Structure written by MMmdl.
 39 40  0  0  0  0  0  0  0  0  3 V2000
  152.0723  140.6619  159.1497 C   0  0  0  0  0  0  0  0  0  0  0  0
  151.9145  140.2281  157.7328 C   0  0  0  0  0  0  0  0  0  0  0  0
  150.9167  140.3944  156.8147 C   0  0  0  0  0  0  0  0  0  0  0  0
  151.4225  139.7333  155.6628 C   0  0  0  0  0  0  0  0  0  0  0  0
  150.7934  139.6136  154.4835 N   0  5  0  0  0  0  0  0  0  0  0  0
  149.4541  139.7789  154.4098 C   0  0  0  0  0  0  0  0  0  0  0  0
  148.7888  140.6215  155.0160 O   0  0  0  0  0  0  0  0  0  0  0  0
  148.8541  138.9368  153.5547 N   0  0  0  0  0  0  0  0  0  0  0  0
  147.4390  138.9320  153.1783 C   0  0  2  0  0  0  0  0  0  0  0  0
  147.0683  140.2973  152.5842 C   0  0  0  0  0  0  0  0  0  0  0  0
  146.5506  138.5833  154.3943 C   0  0  0  0  0  0  0  0  0  0  0  0
  145.1228  138.4101  154.0271 N   0  3  0  0  0  0  0  0  0  0  0  0
  144.8732  137.2447  153.1487 C   0  0  0  0  0  0  0  0  0  0  0  0
  143.3929  137.2110  152.7313 C   0  0  0  0  0  0  0  0  0  0  0  0
  142.5687  137.1760  153.8910 O   0  0  0  0  0  0  0  0  0  0  0  0
  142.7486  138.3265  154.7095 C   0  0  0  0  0  0  0  0  0  0  0  0
  144.2068  138.3888  155.1921 C   0  0  0  0  0  0  0  0  0  0  0  0
  152.6158  139.1999  155.8676 N   0  0  0  0  0  0  0  0  0  0  0  0
  152.9413  139.5192  157.1913 O   0  0  0  0  0  0  0  0  0  0  0  0
  152.3857  139.8281  159.7778 H   0  0  0  0  0  0  0  0  0  0  0  0
  151.1328  141.0482  159.5451 H   0  0  0  0  0  0  0  0  0  0  0  0
  152.8226  141.4484  159.2310 H   0  0  0  0  0  0  0  0  0  0  0  0
  149.9762  140.9086  156.9444 H   0  0  0  0  0  0  0  0  0  0  0  0
  149.4447  138.2589  153.0951 H   0  0  0  0  0  0  0  0  0  0  0  0
  147.2744  138.1913  152.3946 H   0  0  0  0  0  0  0  0  0  0  0  0
  146.0249  140.3172  152.2682 H   0  0  0  0  0  0  0  0  0  0  0  0
  147.6806  140.5244  151.7107 H   0  0  0  0  0  0  0  0  0  0  0  0
  147.2122  141.1000  153.3085 H   0  0  0  0  0  0  0  0  0  0  0  0
  146.9205  137.6513  154.8243 H   0  0  0  0  0  0  0  0  0  0  0  0
  146.6457  139.3373  155.1771 H   0  0  0  0  0  0  0  0  0  0  0  0
  145.5008  137.3083  152.2589 H   0  0  0  0  0  0  0  0  0  0  0  0
  145.1422  136.3250  153.6705 H   0  0  0  0  0  0  0  0  0  0  0  0
  143.1419  138.0787  152.1188 H   0  0  0  0  0  0  0  0  0  0  0  0
  143.1921  136.3258  152.1274 H   0  0  0  0  0  0  0  0  0  0  0  0
  142.4822  139.2289  154.1565 H   0  0  0  0  0  0  0  0  0  0  0  0
  142.0725  138.2634  155.5622 H   0  0  0  0  0  0  0  0  0  0  0  0
  144.4313  137.5269  155.8221 H   0  0  0  0  0  0  0  0  0  0  0  0
  144.3509  139.2783  155.8048 H   0  0  0  0  0  0  0  0  0  0  0  0
  144.8800  139.2255  153.4808 H   0  0  0  0  0  0  0  0  0  0  0  0
  1  2  1  0  0  0  0
  1 20  1  0  0  0  0
  1 21  1  0  0  0  0
  1 22  1  0  0  0  0
  2 19  1  0  0  0  0
  2  3  2  0  0  0  0
  3  4  1  0  0  0  0
  3 23  1  0  0  0  0
  4  5  1  0  0  0  0
  4 18  2  0  0  0  0
  5  6  1  0  0  0  0
  6  7  2  0  0  0  0
  6  8  1  0  0  0  0
  8  9  1  0  0  0  0
  8 24  1  0  0  0  0
  9 10  1  0  0  0  0
  9 11  1  0  0  0  0
  9 25  1  0  0  0  0
 10 26  1  0  0  0  0
 10 27  1  0  0  0  0
 10 28  1  0  0  0  0
 11 12  1  0  0  0  0
 11 29  1  0  0  0  0
 11 30  1  0  0  0  0
 12 17  1  0  0  0  0
 12 13  1  0  0  0  0
 12 39  1  0  0  0  0
 13 14  1  0  0  0  0
 13 31  1  0  0  0  0
 13 32  1  0  0  0  0
 14 15  1  0  0  0  0
 14 33  1  0  0  0  0
 14 34  1  0  0  0  0
 15 16  1  0  0  0  0
 16 17  1  0  0  0  0
 16 35  1  0  0  0  0
 16 36  1  0  0  0  0
 17 37  1  0  0  0  0
 17 38  1  0  0  0  0
 18 19  1  0  0  0  0
M  CHG  1   5  -1
M  CHG  1  12   1
M  END
> <s_m_source_file>
AV-unprocessed.smi

> <i_m_source_file_index>
1952

> <i_lp_mmshare_version>
43012

> <i_f3d_flags>
0

> <s_epik_input>
W0NIM11jMVtjSF1jKG5vMSlbTkhdQyg9TylbTkhdW0NASF0oW0NIM10pW0NIMl1OMltDSDJdW0NIMl1PW0NIMl1bQ0gyXTI=

> <s_epik_cmdline>
J2VwaWtfcHl0aG9uJywgJy1waCcsICc3LjAnLCAnLXRuJywgJzgnLCAnLW1hJywgJzIwMCcsICctbWV0YWxfYmluZGluZycsICctaW1hZScsICc8aW5maWxlLm1hZT4nLCAnLW9tYWUnLCAnPG91dGZpbGUubWFlPic=

> <r_epik_Ionization_Penalty>
6.62152

> <r_epik_Ionization_Penalty_Charging>
6.62142

> <r_epik_Ionization_Penalty_Neutral>
9.8734e-05

> <r_epik_State_Penalty>
6.82189

> <r_epik_Charging_Adjusted_Penalty>
13.4433

> <i_epik_Tot_Q>
0

> <i_epik_Tot_abs_Q>
2

> <r_epik_Metal_State_Penalty>
2.76365

> <b_epik_Metal_Only>
1

> <s_lp_Force_Field>
OPLS_2005

> <r_lp_Energy>
7.85486

> <b_lp_Chiralities_Consistent>
1

> <s_lp_Variant>
AV-unprocessed.smi:1952-7

> <Gold.Version>
5.8.1

> <Gold.Id.Protein>
6NUR|6NUR_protein|mol2

> <Gold.PLP.Fitness>
37.8516

> <Gold.PLP.PLP>
-26.6193

> <Gold.PLP.part.hbond>
-5.4237

> <Gold.PLP.part.metal>
0.0000

> <Gold.PLP.part.buried>
-1.4842

> <Gold.PLP.part.nonpolar>
-19.5015

> <Gold.PLP.part.repulsive>
0.3782

> <Gold.PLP.ligand.clash>
0.0000

> <Gold.PLP.ligand.torsion>
0.4698

> <Gold.PLP.Chemscore.Hbond>
4.0335

> <Gold.PLP.Chemscore.CHOScore>
0.0000

> <Gold.PLP.Chemscore.Metal>
0.0000

> <Gold.Chemscore.Hbonds>
donor molecule, donor type, donor heavy atom, donor atom, acceptor molecule, acceptor atom, score
      L1  H     8    24       P1  7948  0.08
      L1  H    12    39       P1 10175  2.00
      P1  H  7989  7998       L1     5  1.00
      P1  H  7997  8009       L1    19  0.75

> <Gold.PLP.Chemscore.Internal.Correction>
0.0712

> <Gold.Rescore>
     Score         DG    S(hbond)    S(metal)    S(lipo)     H(rot)  DE(clash)    DE(int)     intcor
     11.72     -15.25       2.68        0.00      41.54       1.58       0.13       3.40       ----

> <Gold.Chemscore.Fitness>
11.7221

> <Gold.Chemscore.DG>
-15.2515

> <Gold.Chemscore.ZeroCoef>
-5.4800

> <Gold.Chemscore.Hbond>
2.6813

> <Gold.Chemscore.Metal>
0.0000

> <Gold.Chemscore.Lipo>
41.5404

> <Gold.Chemscore.Internal_Hbond>
0.0000

> <Gold.Chemscore.DEClash>
0.1305

> <Gold.Chemscore.DEInternal>
3.3989

> <Gold.Chemscore.Rot>
1.5798

> <Gold.Chemscore.Internal.Correction>
   9.000000E+99

> <Gold.Chemscore.Hbonds>
donor molecule, donor type, donor heavy atom, donor atom, acceptor molecule, acceptor atom, score
      L1  H     8    24       P1  7948  0.09
      L1  H    12    39       P1 10175  0.95
      P1  H  7989  7998       L1     5  0.26
      P1  H  7997  8009       L1    19  0.09

> <Gold.Chemscore.Hbond.Weighted>
-8.9555

> <Gold.Chemscore.Metal.Weighted>
-0.0000

> <Gold.Chemscore.Lipo.Weighted>
-4.8602

> <Gold.Chemscore.Internal_Hbond.Weighted>
0.0000

> <Gold.Chemscore.DEClash.Weighted>
0.1305

> <Gold.Chemscore.DEInternal.Weighted>
3.3989

> <Gold.Chemscore.Rot.Weighted>
4.0442

> <Gold.Chemscore.Internal.Correction.Weighted>
   9.000000E+99

> <Gold.Protein.RotatedTorsions>
[ 6907 6896 6895 6894 ] final  -45.72 input  -60.11 | X-H torsion
[ 7974 7965 7964 7962 ] final   35.30 input  175.53 | X-H torsion
[ 8008 7997 7996 7995 ] final  165.86 input   59.86 | X-H torsion
[ 10167 10162 10161 10158 ] final   19.98 input  -65.29 | X-H torsion
[ 10718 10713 10712 10709 ] final  -15.83 input   66.30 | X-H torsion
[ 10763 10752 10751 10750 ] final   92.53 input  -60.55 | X-H torsion
[ 11005 11000 10999 10996 ] final   45.49 input  -57.11 | X-H torsion

> <Gold.Protein.ActiveResidues>
 VAL166  LYS551  ARG553  GLY616  TRP617  ASP618  TYR619  PRO620  LYS621  CYS622 
 ASP623  PHE694  ASN695  SER759  ASP760  ASP761  ALA762  ILE779  LEU786  VAL792 
 PHE793  MET794  SER795  GLU796  ALA797  LYS798  CYS799  TRP800  GLU811  SER814 

> <Gold.Protein.RotatedAtoms>
  150.9189  134.8606  159.7475 H   0  0  0  0  0  0  0  0  0  0  0  0  # atno 6907 bound_to 6896
  152.4982  134.4248  159.9502 H   0  0  0  0  0  0  0  0  0  0  0  0  # atno 6908 bound_to 6896
  151.4284  133.3638  159.2800 H   0  0  0  0  0  0  0  0  0  0  0  0  # atno 6909 bound_to 6896
  146.1293  139.6160  142.9237 H   0  0  0  0  0  0  0  0  0  0  0  0  # atno 7974 bound_to 7965
  156.1766  140.1659  156.8351 H   0  0  0  0  0  0  0  0  0  0  0  0  # atno 8008 bound_to 7997
  154.5314  140.0756  156.8385 H   0  0  0  0  0  0  0  0  0  0  0  0  # atno 8009 bound_to 7997
  155.3400  140.3384  155.4241 H   0  0  0  0  0  0  0  0  0  0  0  0  # atno 8010 bound_to 7997
  140.5538  143.9460  150.6596 H   0  0  0  0  0  0  0  0  0  0  0  0  # atno 10167 bound_to 10162
  156.5962  130.4812  149.6258 H   0  0  0  0  0  0  0  0  0  0  0  0  # atno 10718 bound_to 10713
  153.2202  135.4358  155.0481 H   0  0  0  0  0  0  0  0  0  0  0  0  # atno 10763 bound_to 10752
  154.8246  135.3354  154.6938 H   0  0  0  0  0  0  0  0  0  0  0  0  # atno 10764 bound_to 10752
  153.7370  135.7007  153.5032 H   0  0  0  0  0  0  0  0  0  0  0  0  # atno 10765 bound_to 10752
  140.1455  134.4528  155.8419 H   0  0  0  0  0  0  0  0  0  0  0  0  # atno 11005 bound_to 11000
  145.5296  141.0428  143.2390 LP  0  0  0  0  0  0  0  0  0  0  0  0  # atno 17320 bound_to 7965
  144.7674  139.6814  143.7209 LP  0  0  0  0  0  0  0  0  0  0  0  0  # atno 17321 bound_to 7965
  140.2893  143.3335  152.1077 LP  0  0  0  0  0  0  0  0  0  0  0  0  # atno 17342 bound_to 10162
  139.5039  144.6765  151.6116 LP  0  0  0  0  0  0  0  0  0  0  0  0  # atno 17343 bound_to 10162
  156.2507  130.6906  151.1642 LP  0  0  0  0  0  0  0  0  0  0  0  0  # atno 17370 bound_to 10713
  157.7291  131.0627  150.5789 LP  0  0  0  0  0  0  0  0  0  0  0  0  # atno 17371 bound_to 10713
  141.2192  133.6850  156.7325 LP  0  0  0  0  0  0  0  0  0  0  0  0  # atno 17394 bound_to 11000
  140.2669  134.8423  157.3811 LP  0  0  0  0  0  0  0  0  0  0  0  0  # atno 17395 bound_to 11000

$$$$
