AV-unprocessed.smi:212|AV-procd|sdf|1618|dock7
  -GOLD-   2262019553D 1   1.00000     0.00000
 Structure written by MMmdl.
 65 68  0  0  0  0  0  0  0  0  2 V2000
  142.4690  135.5212  153.9833 C   0  0  0  0  0  0  0  0  0  0  0  0
  143.9637  135.7267  154.2816 C   0  0  1  0  0  0  0  0  0  0  0  0
  144.8395  134.6198  153.6579 C   0  0  0  0  0  0  0  0  0  0  0  0
  144.9283  134.7622  152.1812 N   0  3  2  0  0  0  0  0  0  0  0  0
  145.6439  133.6394  151.5211 C   0  0  0  0  0  0  0  0  0  0  0  0
  144.7745  132.9432  150.4492 C   0  0  0  0  0  0  0  0  0  0  0  0
  145.5862  131.8506  149.7335 C   0  0  0  0  0  0  0  0  0  0  0  0
  143.4762  132.3494  151.0261 C   0  0  0  0  0  0  0  0  0  0  0  0
  144.4264  133.9017  149.4691 O   0  0  0  0  0  0  0  0  0  0  0  0
  145.4274  136.0995  151.7746 C   0  0  0  0  0  0  0  0  0  0  0  0
  144.5689  137.2184  152.3932 C   0  0  0  0  0  0  0  0  0  0  0  0
  144.4275  137.0449  153.8402 N   0  0  0  0  0  0  0  0  0  0  0  0
  145.3124  137.6678  154.6622 C   0  0  0  0  0  0  0  0  0  0  0  0
  145.3234  137.3800  155.9911 N   0  0  0  0  0  0  0  0  0  0  0  0
  146.1781  138.0000  156.8099 C   0  0  0  0  0  0  0  0  0  0  0  0
  147.0942  138.9234  156.5146 N   0  0  0  0  0  0  0  0  0  0  0  0
  147.0984  139.2079  155.1815 C   0  0  0  0  0  0  0  0  0  0  0  0
  146.2481  138.6336  154.1949 C   0  0  0  0  0  0  0  0  0  0  0  0
  146.5462  139.1662  152.9461 N   0  0  0  0  0  0  0  0  0  0  0  0
  147.5111  140.0126  153.1818 C   0  0  0  0  0  0  0  0  0  0  0  0
  147.9160  140.0892  154.4955 N   0  0  0  0  0  0  0  0  0  0  0  0
  148.9535  140.9477  155.0375 C   0  0  0  0  0  0  0  0  0  0  0  0
  149.3439  140.6554  156.5142 C   0  0  2  0  0  0  0  0  0  0  0  0
  149.6896  141.9766  157.2364 C   0  0  0  0  0  0  0  0  0  0  0  0
  150.5980  142.7525  156.4825 O   0  0  0  0  0  0  0  0  0  0  0  0
  150.4854  139.6204  156.7403 C   0  0  2  0  0  0  0  0  0  0  0  0
  151.0059  139.4584  158.1563 C   0  0  0  0  0  0  0  0  0  0  0  0
  152.2929  138.6642  157.9336 C   0  0  0  0  0  0  0  0  0  0  0  0
  152.7125  138.9357  156.5971 O   0  0  0  0  0  0  0  0  0  0  0  0
  151.7869  139.8081  155.9596 C   0  0  0  0  0  0  0  0  0  0  0  0
  142.1229  134.5639  154.3739 H   0  0  0  0  0  0  0  0  0  0  0  0
  142.2571  135.5349  152.9141 H   0  0  0  0  0  0  0  0  0  0  0  0
  141.8687  136.3016  154.4521 H   0  0  0  0  0  0  0  0  0  0  0  0
  144.0757  135.6400  155.3622 H   0  0  0  0  0  0  0  0  0  0  0  0
  145.8458  134.6699  154.0772 H   0  0  0  0  0  0  0  0  0  0  0  0
  144.4420  133.6385  153.9192 H   0  0  0  0  0  0  0  0  0  0  0  0
  146.5621  134.0038  151.0570 H   0  0  0  0  0  0  0  0  0  0  0  0
  145.9690  132.9112  152.2662 H   0  0  0  0  0  0  0  0  0  0  0  0
  145.8923  131.0681  150.4286 H   0  0  0  0  0  0  0  0  0  0  0  0
  146.4903  132.2577  149.2788 H   0  0  0  0  0  0  0  0  0  0  0  0
  145.0059  131.3760  148.9412 H   0  0  0  0  0  0  0  0  0  0  0  0
  143.6909  131.6222  151.8097 H   0  0  0  0  0  0  0  0  0  0  0  0
  142.8971  131.8396  150.2555 H   0  0  0  0  0  0  0  0  0  0  0  0
  142.8326  133.1179  151.4551 H   0  0  0  0  0  0  0  0  0  0  0  0
  145.2044  134.1348  148.9854 H   0  0  0  0  0  0  0  0  0  0  0  0
  146.4687  136.2038  152.0822 H   0  0  0  0  0  0  0  0  0  0  0  0
  145.4068  136.1850  150.6874 H   0  0  0  0  0  0  0  0  0  0  0  0
  144.9850  138.1979  152.1544 H   0  0  0  0  0  0  0  0  0  0  0  0
  143.5741  137.2049  151.9478 H   0  0  0  0  0  0  0  0  0  0  0  0
  146.1201  137.7162  157.8503 H   0  0  0  0  0  0  0  0  0  0  0  0
  147.9611  140.6016  152.3958 H   0  0  0  0  0  0  0  0  0  0  0  0
  149.8304  140.8881  154.3926 H   0  0  0  0  0  0  0  0  0  0  0  0
  148.5898  141.9713  154.9443 H   0  0  0  0  0  0  0  0  0  0  0  0
  148.4649  140.2521  157.0186 H   0  0  0  0  0  0  0  0  0  0  0  0
  148.7960  142.5825  157.3878 H   0  0  0  0  0  0  0  0  0  0  0  0
  150.1133  141.7804  158.2218 H   0  0  0  0  0  0  0  0  0  0  0  0
  150.1056  143.3141  155.9033 H   0  0  0  0  0  0  0  0  0  0  0  0
  150.1074  138.6457  156.4265 H   0  0  0  0  0  0  0  0  0  0  0  0
  151.2513  140.4217  158.6007 H   0  0  0  0  0  0  0  0  0  0  0  0
  150.3042  138.9481  158.8163 H   0  0  0  0  0  0  0  0  0  0  0  0
  153.0679  138.9331  158.6517 H   0  0  0  0  0  0  0  0  0  0  0  0
  152.1050  137.5940  158.0249 H   0  0  0  0  0  0  0  0  0  0  0  0
  151.6792  139.5682  154.9015 H   0  0  0  0  0  0  0  0  0  0  0  0
  152.1845  140.8161  156.0360 H   0  0  0  0  0  0  0  0  0  0  0  0
  143.9794  134.7134  151.8377 H   0  0  0  0  0  0  0  0  0  0  0  0
  1  2  1  0  0  0  0
  1 31  1  0  0  0  0
  1 32  1  0  0  0  0
  1 33  1  0  0  0  0
  2 12  1  0  0  0  0
  2  3  1  0  0  0  0
  2 34  1  0  0  0  0
  3  4  1  0  0  0  0
  3 35  1  0  0  0  0
  3 36  1  0  0  0  0
  4  5  1  0  0  0  0
  4 10  1  0  0  0  0
  4 65  1  0  0  0  0
  5  6  1  0  0  0  0
  5 37  1  0  0  0  0
  5 38  1  0  0  0  0
  6  7  1  0  0  0  0
  6  8  1  0  0  0  0
  6  9  1  0  0  0  0
  7 39  1  0  0  0  0
  7 40  1  0  0  0  0
  7 41  1  0  0  0  0
  8 42  1  0  0  0  0
  8 43  1  0  0  0  0
  8 44  1  0  0  0  0
  9 45  1  0  0  0  0
 10 11  1  0  0  0  0
 10 46  1  0  0  0  0
 10 47  1  0  0  0  0
 11 12  1  0  0  0  0
 11 48  1  0  0  0  0
 11 49  1  0  0  0  0
 12 13  1  0  0  0  0
 13 18  1  0  0  0  0
 13 14  2  0  0  0  0
 14 15  1  0  0  0  0
 15 16  2  0  0  0  0
 15 50  1  0  0  0  0
 16 17  1  0  0  0  0
 17 21  1  0  0  0  0
 17 18  2  0  0  0  0
 18 19  1  0  0  0  0
 19 20  2  0  0  0  0
 20 21  1  0  0  0  0
 20 51  1  0  0  0  0
 21 22  1  0  0  0  0
 22 23  1  0  0  0  0
 22 52  1  0  0  0  0
 22 53  1  0  0  0  0
 23 24  1  0  0  0  0
 23 26  1  0  0  0  0
 23 54  1  0  0  0  0
 24 25  1  0  0  0  0
 24 55  1  0  0  0  0
 24 56  1  0  0  0  0
 25 57  1  0  0  0  0
 26 30  1  0  0  0  0
 26 27  1  0  0  0  0
 26 58  1  0  0  0  0
 27 28  1  0  0  0  0
 27 59  1  0  0  0  0
 27 60  1  0  0  0  0
 28 29  1  0  0  0  0
 28 61  1  0  0  0  0
 28 62  1  0  0  0  0
 29 30  1  0  0  0  0
 30 63  1  0  0  0  0
 30 64  1  0  0  0  0
M  CHG  1   4   1
M  END
> <s_m_source_file>
AV-unprocessed.smi

> <i_m_source_file_index>
212

> <i_lp_mmshare_version>
43012

> <i_f3d_flags>
0

> <s_epik_input>
W0NIM11bQ0BASF0xW0NIMl1OKFtDSDJdQyhbQ0gzXSkoW0NIM10pW09IXSlbQ0gyXVtDSDJdTjFjKG5bY0hdbjIpYyhjMjMpbltjSF1uM1tDSDJdW0NASF0oW0NIMl1bT0hdKVtDQEBIXTRbQ0gyXVtDSDJdT1tDSDJdNA==

> <s_epik_cmdline>
J2VwaWtfcHl0aG9uJywgJy1waCcsICc3LjAnLCAnLXRuJywgJzgnLCAnLW1hJywgJzIwMCcsICctbWV0YWxfYmluZGluZycsICctaW1hZScsICc8aW5maWxlLm1hZT4nLCAnLW9tYWUnLCAnPG91dGZpbGUubWFlPic=

> <r_lp_tautomer_probability>
1

> <r_epik_Ionization_Penalty>
0.00182193

> <r_epik_Ionization_Penalty_Charging>
0.00173996

> <r_epik_Ionization_Penalty_Neutral>
8.19718e-05

> <r_epik_State_Penalty>
-0

> <r_epik_Charging_Adjusted_Penalty>
0.00173996

> <i_epik_Tot_Q>
1

> <i_epik_Tot_abs_Q>
1

> <r_epik_Metal_State_Penalty>
-0

> <b_epik_Metal_Only>
0

> <s_lp_Force_Field>
OPLS_2005

> <r_lp_Energy>
59.4292

> <b_lp_Chiralities_Consistent>
1

> <s_lp_Variant>
AV-unprocessed.smi:212-2

> <Gold.Version>
5.8.1

> <Gold.Id.Protein>
6NUR|6NUR_protein|mol2

> <Gold.PLP.Fitness>
47.6636

> <Gold.PLP.PLP>
-38.5000

> <Gold.PLP.part.hbond>
-3.0320

> <Gold.PLP.part.metal>
0.0000

> <Gold.PLP.part.buried>
-5.0554

> <Gold.PLP.part.nonpolar>
-29.9556

> <Gold.PLP.part.repulsive>
0.3930

> <Gold.PLP.ligand.clash>
0.0000

> <Gold.PLP.ligand.torsion>
1.6571

> <Gold.PLP.Chemscore.Hbond>
3.0000

> <Gold.PLP.Chemscore.CHOScore>
0.7635

> <Gold.PLP.Chemscore.Metal>
0.0000

> <Gold.Chemscore.Hbonds>
donor molecule, donor type, donor heavy atom, donor atom, acceptor molecule, acceptor atom, score
      L1  H     9    45       P1  7921  1.00
      L1  H    25    57       P1  8028  0.99
      P1  H  7997  8008       L1    29  0.85
      L1  C    20    51       P1  7957  0.95

> <Gold.PLP.Chemscore.Internal.Correction>
1.1876

> <Gold.Rescore>
     Score         DG    S(hbond)    S(metal)    S(lipo)     H(rot)  DE(clash)    DE(int)     intcor
     11.36     -15.90       2.62        0.00      88.50       3.40       0.17       4.37       ----

> <Gold.Chemscore.Fitness>
11.3566

> <Gold.Chemscore.DG>
-15.9004

> <Gold.Chemscore.ZeroCoef>
-5.4800

> <Gold.Chemscore.Hbond>
2.6245

> <Gold.Chemscore.Metal>
0.0000

> <Gold.Chemscore.Lipo>
88.5045

> <Gold.Chemscore.Internal_Hbond>
0.0000

> <Gold.Chemscore.DEClash>
0.1734

> <Gold.Chemscore.DEInternal>
4.3705

> <Gold.Chemscore.Rot>
3.3986

> <Gold.Chemscore.Internal.Correction>
   9.000000E+99

> <Gold.Chemscore.Hbonds>
donor molecule, donor type, donor heavy atom, donor atom, acceptor molecule, acceptor atom, score
      L1  H     9    45       P1  7921  0.96
      L1  H    25    57       P1  8028  0.94
      P1  H  7997  8008       L1    29  0.13

> <Gold.Chemscore.Hbond.Weighted>
-8.7658

> <Gold.Chemscore.Metal.Weighted>
-0.0000

> <Gold.Chemscore.Lipo.Weighted>
-10.3550

> <Gold.Chemscore.Internal_Hbond.Weighted>
0.0000

> <Gold.Chemscore.DEClash.Weighted>
0.1734

> <Gold.Chemscore.DEInternal.Weighted>
4.3705

> <Gold.Chemscore.Rot.Weighted>
8.7005

> <Gold.Chemscore.Internal.Correction.Weighted>
   9.000000E+99

> <Gold.Protein.RotatedTorsions>
[ 6907 6896 6895 6894 ] final -158.07 input  -60.11 | X-H torsion
[ 7974 7965 7964 7962 ] final  122.13 input  175.53 | X-H torsion
[ 8008 7997 7996 7995 ] final  -43.44 input   59.86 | X-H torsion
[ 10167 10162 10161 10158 ] final   35.13 input  -65.29 | X-H torsion
[ 10718 10713 10712 10709 ] final  -29.54 input   66.30 | X-H torsion
[ 10763 10752 10751 10750 ] final  131.64 input  -60.55 | X-H torsion
[ 11005 11000 10999 10996 ] final -170.44 input  -57.11 | X-H torsion

> <Gold.Protein.ActiveResidues>
 VAL166  LYS551  ARG553  GLY616  TRP617  ASP618  TYR619  PRO620  LYS621  CYS622 
 ASP623  PHE694  ASN695  SER759  ASP760  ASP761  ALA762  ILE779  LEU786  VAL792 
 PHE793  MET794  SER795  GLU796  ALA797  LYS798  CYS799  TRP800  GLU811  SER814 

> <Gold.Protein.RotatedAtoms>
  151.3126  133.4074  159.2647 H   0  0  0  0  0  0  0  0  0  0  0  0  # atno 6907 bound_to 6896
  151.0102  134.9391  159.8013 H   0  0  0  0  0  0  0  0  0  0  0  0  # atno 6908 bound_to 6896
  152.5298  134.3090  159.9159 H   0  0  0  0  0  0  0  0  0  0  0  0  # atno 6909 bound_to 6896
  145.1112  139.3452  143.4762 H   0  0  0  0  0  0  0  0  0  0  0  0  # atno 7974 bound_to 7965
  154.3997  140.1448  156.3519 H   0  0  0  0  0  0  0  0  0  0  0  0  # atno 8008 bound_to 7997
  155.8261  140.3467  155.5522 H   0  0  0  0  0  0  0  0  0  0  0  0  # atno 8009 bound_to 7997
  155.8237  140.0902  157.1824 H   0  0  0  0  0  0  0  0  0  0  0  0  # atno 8010 bound_to 7997
  140.4251  144.1405  150.6152 H   0  0  0  0  0  0  0  0  0  0  0  0  # atno 10167 bound_to 10162
  156.4112  130.4408  149.7251 H   0  0  0  0  0  0  0  0  0  0  0  0  # atno 10718 bound_to 10713
  153.7776  135.3173  155.3361 H   0  0  0  0  0  0  0  0  0  0  0  0  # atno 10763 bound_to 10752
  154.8173  135.4627  154.0682 H   0  0  0  0  0  0  0  0  0  0  0  0  # atno 10764 bound_to 10752
  153.1961  135.6915  153.8375 H   0  0  0  0  0  0  0  0  0  0  0  0  # atno 10765 bound_to 10752
  140.5195  134.5723  157.5043 H   0  0  0  0  0  0  0  0  0  0  0  0  # atno 11005 bound_to 11000
  146.3526  140.1031  142.8607 LP  0  0  0  0  0  0  0  0  0  0  0  0  # atno 17320 bound_to 7965
  145.0845  140.9243  143.4805 LP  0  0  0  0  0  0  0  0  0  0  0  0  # atno 17321 bound_to 7965
  140.4491  143.2494  151.9372 LP  0  0  0  0  0  0  0  0  0  0  0  0  # atno 17342 bound_to 10162
  139.4783  144.5580  151.8283 LP  0  0  0  0  0  0  0  0  0  0  0  0  # atno 17343 bound_to 10162
  156.4229  130.7777  151.2795 LP  0  0  0  0  0  0  0  0  0  0  0  0  # atno 17370 bound_to 10713
  157.7507  131.0177  150.3597 LP  0  0  0  0  0  0  0  0  0  0  0  0  # atno 17371 bound_to 10713
  139.9614  134.7447  156.0230 LP  0  0  0  0  0  0  0  0  0  0  0  0  # atno 17394 bound_to 11000
  141.1342  133.6579  156.3547 LP  0  0  0  0  0  0  0  0  0  0  0  0  # atno 17395 bound_to 11000

$$$$
