#       Name:                AV-unprocessed.smi:942
#       Creating user name   scv26
#       Creation time:       Fri Mar 27 02:13:23 2020


#       File generated by GOLD software.
#

@<TRIPOS>MOLECULE
AV-unprocessed.smi:942
    45    47     1
SMALL
NO_CHARGES


@<TRIPOS>ATOM
      1 ****         0.4422   2.2904  -0.4760 O.2            1 S1                 0.0000
      2 ****         0.0123   1.2490   0.0210 C.2            1 S1                 0.0000
      3 ****         0.8027   0.2763   0.4990 N.am           1 S1                 0.0000
      4 ****         2.2664   0.2598   0.4541 C.3            1 S1                 0.0000
      5 ****         2.8429   0.3979   1.8783 C.3            1 S1                 0.0000
      6 ****         3.5232  -0.9376   2.2134 C.3            1 S1                 0.0000
      7 ****         2.9906  -1.9369   1.1877 C.3            1 S1                 0.0000
      8 ****         2.8051  -1.0873  -0.0737 C.3            1 S1                 0.0000
      9 ****         1.9994  -1.6957  -1.1292 N.pl3          1 S1                 0.0000
     10 ****         1.3663  -2.9354  -1.1344 C.2            1 S1                 0.0000
     11 ****         0.7373  -3.0537  -2.3528 C.2            1 S1                 0.0000
     12 ****         0.9780  -1.9161  -3.1176 N.2            1 S1                 0.0000
     13 ****         1.7371  -1.1638  -2.3323 C.2            1 S1                 0.0000
     14 ****        -1.4987   0.9977   0.1058 C.3            1 S1                 0.0000
     15 ****        -2.1215   0.9197  -1.3046 C.3            1 S1                 0.0000
     16 ****        -3.6387   0.6801  -1.2336 C.3            1 S1                 0.0000
     17 ****        -4.3343   1.7577  -0.3865 C.3            1 S1                 0.0000
     18 ****        -3.7156   1.8473   1.0176 C.3            1 S1                 0.0000
     19 ****        -2.1992   2.0891   0.9430 C.3            1 S1                 0.0000
     20 ****         0.3556  -0.5405   0.8896 H              1 S1                 0.0000
     21 ****         2.6372   1.0659  -0.1814 H              1 S1                 0.0000
     22 ****         3.5626   1.2155   1.9327 H              1 S1                 0.0000
     23 ****         2.0602   0.6188   2.6056 H              1 S1                 0.0000
     24 ****         4.6028  -0.8365   2.0953 H              1 S1                 0.0000
     25 ****         3.3338  -1.2560   3.2388 H              1 S1                 0.0000
     26 ****         3.6661  -2.7791   1.0348 H              1 S1                 0.0000
     27 ****         2.0331  -2.3275   1.5353 H              1 S1                 0.0000
     28 ****         3.7956  -0.9101  -0.4964 H              1 S1                 0.0000
     29 ****         1.4048  -3.6173  -0.2983 H              1 S1                 0.0000
     30 ****         0.1392  -3.8673  -2.7363 H              1 S1                 0.0000
     31 ****         2.1044  -0.1942  -2.6356 H              1 S1                 0.0000
     32 ****        -1.6596   0.0375   0.5997 H              1 S1                 0.0000
     33 ****        -1.9305   1.8435  -1.8531 H              1 S1                 0.0000
     34 ****        -1.6529   0.1187  -1.8784 H              1 S1                 0.0000
     35 ****        -4.0603   0.6685  -2.2392 H              1 S1                 0.0000
     36 ****        -3.8336  -0.3041  -0.8058 H              1 S1                 0.0000
     37 ****        -4.2501   2.7245  -0.8847 H              1 S1                 0.0000
     38 ****        -5.4000   1.5407  -0.3104 H              1 S1                 0.0000
     39 ****        -4.1920   2.6482   1.5836 H              1 S1                 0.0000
     40 ****        -3.9121   0.9238   1.5636 H              1 S1                 0.0000
     41 ****        -1.7843   2.1132   1.9515 H              1 S1                 0.0000
     42 ****        -2.0154   3.0738   0.5099 H              1 S1                 0.0000
     43 ****         1.4282   2.4446  -0.5389 LP             1 S1                 0.0000
     44 ****        -0.1947   2.9820  -0.8167 LP             1 S1                 0.0000
     45 ****         0.6546  -1.7135  -4.0419 LP             1 S1                 0.0000
@<TRIPOS>BOND
    1    1    2 2     
    2    2    3 am    
    3    2   14 1     
    4    3    4 1     
    5    3   20 1     
    6    4    8 1     
    7    4    5 1     
    8    4   21 1     
    9    5    6 1     
   10    5   22 1     
   11    5   23 1     
   12    6    7 1     
   13    6   24 1     
   14    6   25 1     
   15    7    8 1     
   16    7   26 1     
   17    7   27 1     
   18    8    9 1     
   19    8   28 1     
   20    9   13 1     
   21    9   10 1     
   22   10   11 2     
   23   10   29 1     
   24   11   12 1     
   25   11   30 1     
   26   12   13 2     
   27   13   31 1     
   28   14   19 1     
   29   14   15 1     
   30   14   32 1     
   31   15   16 1     
   32   15   33 1     
   33   15   34 1     
   34   16   17 1     
   35   16   35 1     
   36   16   36 1     
   37   17   18 1     
   38   17   37 1     
   39   17   38 1     
   40   18   19 1     
   41   18   39 1     
   42   18   40 1     
   43   19   41 1     
   44   19   42 1     
   45    1   43 1     
   46    1   44 1     
   47   12   45 1     
@<TRIPOS>SUBSTRUCTURE
      1 S1             1
@<TRIPOS>SET
LONE_PAIRS      STATIC     ATOMS    <user>   **** ""
3 43 44 45
DONOR_HYDROGENS      STATIC     ATOMS    <user>   **** ""
1 20
ATOM$BLUE        STATIC     ATOMS    COLORGROUP SYSTEM
3 43 44 45
ATOM$RED        STATIC     ATOMS    COLORGROUP SYSTEM
1 20
