AV-unprocessed.smi:26|AV-procd|sdf|186|dock10
  -GOLD-   2262015453D 1   1.00000     0.00000
 Structure written by MMmdl.
 58 61  0  0  0  0  0  0  0  0  1 V2000
  154.6712  133.5042  162.1459 C   0  0  0  0  0  0  0  0  0  0  0  0
  153.6356  134.5698  161.9720 C   0  0  0  0  0  0  0  0  0  0  0  0
  153.6471  135.6352  161.1228 C   0  0  0  0  0  0  0  0  0  0  0  0
  152.4552  136.3831  161.3169 C   0  0  0  0  0  0  0  0  0  0  0  0
  152.0361  137.6378  160.6395 C   0  0  0  0  0  0  0  0  0  0  0  0
  150.9701  137.7541  160.0327 O   0  0  0  0  0  0  0  0  0  0  0  0
  153.0227  138.8167  160.7398 C   0  0  0  0  0  0  0  0  0  0  0  0
  152.5530  140.0148  160.0542 N   0  0  0  0  0  0  0  0  0  0  0  0
  152.2831  139.9185  158.6657 C   0  0  0  0  0  0  0  0  0  0  0  0
  152.4324  138.8668  158.0411 O   0  0  0  0  0  0  0  0  0  0  0  0
  151.8340  141.1612  158.0476 C   0  0  0  0  0  0  0  0  0  0  0  0
  151.5522  141.1860  156.7338 F   0  0  0  0  0  0  0  0  0  0  0  0
  151.7003  142.2923  158.7728 C   0  0  0  0  0  0  0  0  0  0  0  0
  151.9726  142.3578  160.1288 N   0  0  0  0  0  0  0  0  0  0  0  0
  151.8293  143.6545  160.8935 C   0  0  1  0  0  0  0  0  0  0  0  0
  152.7580  144.7226  160.3045 C   0  0  0  0  0  0  0  0  0  0  0  0
  151.8272  145.4722  159.3757 C   0  0  0  0  0  0  0  0  0  0  0  0
  150.5083  145.3944  160.1352 C   0  0  0  0  0  0  0  0  0  0  0  0
  150.5149  144.1158  160.7637 O   0  0  0  0  0  0  0  0  0  0  0  0
  152.4286  141.2069  160.8084 C   0  0  0  0  0  0  0  0  0  0  0  0
  152.7192  141.2522  162.0059 O   0  0  0  0  0  0  0  0  0  0  0  0
  151.7177  135.7381  162.2839 C   0  0  0  0  0  0  0  0  0  0  0  0
  150.3730  136.0999  162.8529 C   0  0  0  0  0  0  0  0  0  0  0  0
  152.4506  134.6184  162.7047 N   0  0  0  0  0  0  0  0  0  0  0  0
  152.0734  133.6430  163.7406 C   0  0  1  0  0  0  0  0  0  0  0  0
  152.2844  134.2178  165.1563 C   0  0  0  0  0  0  0  0  0  0  0  0
  150.7095  133.0015  163.4648 C   0  0  0  0  0  0  0  0  0  0  0  0
  150.5170  132.2883  162.2598 C   0  0  0  0  0  0  0  0  0  0  0  0
  149.2811  131.6757  161.9768 C   0  0  0  0  0  0  0  0  0  0  0  0
  148.2235  131.7650  162.9003 C   0  0  0  0  0  0  0  0  0  0  0  0
  148.4053  132.4653  164.1072 C   0  0  0  0  0  0  0  0  0  0  0  0
  149.6415  133.0775  164.3907 C   0  0  0  0  0  0  0  0  0  0  0  0
  155.5151  133.6701  161.4757 H   0  0  0  0  0  0  0  0  0  0  0  0
  154.2609  132.5193  161.9218 H   0  0  0  0  0  0  0  0  0  0  0  0
  155.0564  133.4955  163.1659 H   0  0  0  0  0  0  0  0  0  0  0  0
  154.4472  135.8585  160.4322 H   0  0  0  0  0  0  0  0  0  0  0  0
  153.2157  139.0804  161.7807 H   0  0  0  0  0  0  0  0  0  0  0  0
  153.9952  138.5467  160.3253 H   0  0  0  0  0  0  0  0  0  0  0  0
  151.3709  143.1819  158.2572 H   0  0  0  0  0  0  0  0  0  0  0  0
  152.0314  143.4212  161.9399 H   0  0  0  0  0  0  0  0  0  0  0  0
  153.0964  145.3727  161.1123 H   0  0  0  0  0  0  0  0  0  0  0  0
  153.6288  144.2908  159.8097 H   0  0  0  0  0  0  0  0  0  0  0  0
  152.1478  146.4960  159.1825 H   0  0  0  0  0  0  0  0  0  0  0  0
  151.7463  144.9524  158.4203 H   0  0  0  0  0  0  0  0  0  0  0  0
  150.4687  146.1651  160.9063 H   0  0  0  0  0  0  0  0  0  0  0  0
  149.6408  145.5175  159.4865 H   0  0  0  0  0  0  0  0  0  0  0  0
  149.6496  136.2607  162.0537 H   0  0  0  0  0  0  0  0  0  0  0  0
  150.4396  137.0193  163.4344 H   0  0  0  0  0  0  0  0  0  0  0  0
  149.9503  135.3371  163.4983 H   0  0  0  0  0  0  0  0  0  0  0  0
  152.7593  132.8008  163.6801 H   0  0  0  0  0  0  0  0  0  0  0  0
  152.1606  133.4462  165.9163 H   0  0  0  0  0  0  0  0  0  0  0  0
  151.5963  135.0283  165.3914 H   0  0  0  0  0  0  0  0  0  0  0  0
  153.2958  134.6110  165.2628 H   0  0  0  0  0  0  0  0  0  0  0  0
  151.3213  132.2091  161.5430 H   0  0  0  0  0  0  0  0  0  0  0  0
  149.1455  131.1365  161.0509 H   0  0  0  0  0  0  0  0  0  0  0  0
  147.2752  131.2955  162.6842 H   0  0  0  0  0  0  0  0  0  0  0  0
  147.5950  132.5328  164.8183 H   0  0  0  0  0  0  0  0  0  0  0  0
  149.7487  133.6066  165.3252 H   0  0  0  0  0  0  0  0  0  0  0  0
  1  2  1  0  0  0  0
  1 33  1  0  0  0  0
  1 34  1  0  0  0  0
  1 35  1  0  0  0  0
  2 24  1  0  0  0  0
  2  3  2  0  0  0  0
  3  4  1  0  0  0  0
  3 36  1  0  0  0  0
  4  5  1  0  0  0  0
  4 22  2  0  0  0  0
  5  6  2  0  0  0  0
  5  7  1  0  0  0  0
  7  8  1  0  0  0  0
  7 37  1  0  0  0  0
  7 38  1  0  0  0  0
  8 20  1  0  0  0  0
  8  9  1  0  0  0  0
  9 10  2  0  0  0  0
  9 11  1  0  0  0  0
 11 12  1  0  0  0  0
 11 13  2  0  0  0  0
 13 14  1  0  0  0  0
 13 39  1  0  0  0  0
 14 15  1  0  0  0  0
 14 20  1  0  0  0  0
 15 19  1  0  0  0  0
 15 16  1  0  0  0  0
 15 40  1  0  0  0  0
 16 17  1  0  0  0  0
 16 41  1  0  0  0  0
 16 42  1  0  0  0  0
 17 18  1  0  0  0  0
 17 43  1  0  0  0  0
 17 44  1  0  0  0  0
 18 19  1  0  0  0  0
 18 45  1  0  0  0  0
 18 46  1  0  0  0  0
 20 21  2  0  0  0  0
 22 23  1  0  0  0  0
 22 24  1  0  0  0  0
 23 47  1  0  0  0  0
 23 48  1  0  0  0  0
 23 49  1  0  0  0  0
 24 25  1  0  0  0  0
 25 26  1  0  0  0  0
 25 27  1  0  0  0  0
 25 50  1  0  0  0  0
 26 51  1  0  0  0  0
 26 52  1  0  0  0  0
 26 53  1  0  0  0  0
 27 32  1  0  0  0  0
 27 28  2  0  0  0  0
 28 29  1  0  0  0  0
 28 54  1  0  0  0  0
 29 30  2  0  0  0  0
 29 55  1  0  0  0  0
 30 31  1  0  0  0  0
 30 56  1  0  0  0  0
 31 32  2  0  0  0  0
 31 57  1  0  0  0  0
 32 58  1  0  0  0  0
M  END
> <s_m_source_file>
AV-unprocessed.smi

> <i_m_source_file_index>
26

> <i_lp_mmshare_version>
43012

> <i_f3d_flags>
0

> <s_epik_input>
W2NIXTFbY0hdW2NIXVtjSF1bY0hdYzFbQ0BASF0oW0NIM10pbjJjKFtDSDNdKWMoW2NIXWMyW0NIM10pQyg9TylbQ0gyXW4zYyg9TyljKEYpW2NIXW4oYzM9TylbQ0BASF00W0NIMl1bQ0gyXVtDSDJdTzQ=

> <s_epik_cmdline>
J2VwaWtfcHl0aG9uJywgJy1waCcsICc3LjAnLCAnLXRuJywgJzgnLCAnLW1hJywgJzIwMCcsICctbWV0YWxfYmluZGluZycsICctaW1hZScsICc8aW5maWxlLm1hZT4nLCAnLW9tYWUnLCAnPG91dGZpbGUubWFlPic=

> <r_lp_tautomer_probability>
1

> <r_epik_Ionization_Penalty>
5.02402e-09

> <r_epik_Ionization_Penalty_Charging>
5.01743e-09

> <r_epik_Ionization_Penalty_Neutral>
6.58831e-12

> <r_epik_State_Penalty>
-0

> <r_epik_Charging_Adjusted_Penalty>
5.01743e-09

> <i_epik_Tot_Q>
0

> <i_epik_Tot_abs_Q>
0

> <r_epik_Metal_State_Penalty>
-0

> <b_epik_Metal_Only>
0

> <s_epik_Chemistry_Notes>
This compound contains an acetal/aminal-like group ( X-CH(R)-Y where X, Y are N, S, or O) that may be acid/base labile, releasing an aldehyde.

> <s_lp_Force_Field>
OPLS_2005

> <r_lp_Energy>
50.594

> <b_lp_Chiralities_Consistent>
1

> <s_lp_Variant>
AV-unprocessed.smi:26-4

> <Gold.Version>
5.8.1

> <Gold.Id.Protein>
6NUR|6NUR_protein|mol2

> <Gold.PLP.Fitness>
54.9824

> <Gold.PLP.PLP>
-54.9602

> <Gold.PLP.part.hbond>
-2.4311

> <Gold.PLP.part.metal>
0.0000

> <Gold.PLP.part.buried>
-6.3696

> <Gold.PLP.part.nonpolar>
-46.1707

> <Gold.PLP.part.repulsive>
0.1706

> <Gold.PLP.ligand.clash>
0.0000

> <Gold.PLP.ligand.torsion>
1.3611

> <Gold.PLP.Chemscore.Hbond>
0.8000

> <Gold.PLP.Chemscore.CHOScore>
0.0000

> <Gold.PLP.Chemscore.Metal>
0.0000

> <Gold.PLP.Chemscore.Internal.Correction>
0.3444

> <Gold.Rescore>
     Score         DG    S(hbond)    S(metal)    S(lipo)     H(rot)  DE(clash)    DE(int)     intcor
     11.97     -17.67       0.93        0.00     117.91       1.84       0.67       5.03       ----

> <Gold.Chemscore.Fitness>
11.9701

> <Gold.Chemscore.DG>
-17.6658

> <Gold.Chemscore.ZeroCoef>
-5.4800

> <Gold.Chemscore.Hbond>
0.9251

> <Gold.Chemscore.Metal>
0.0000

> <Gold.Chemscore.Lipo>
117.9149

> <Gold.Chemscore.Internal_Hbond>
0.0000

> <Gold.Chemscore.DEClash>
0.6674

> <Gold.Chemscore.DEInternal>
5.0283

> <Gold.Chemscore.Rot>
1.8359

> <Gold.Chemscore.Internal.Correction>
   9.000000E+99

> <Gold.Chemscore.Hbond.Weighted>
-3.0898

> <Gold.Chemscore.Metal.Weighted>
-0.0000

> <Gold.Chemscore.Lipo.Weighted>
-13.7960

> <Gold.Chemscore.Internal_Hbond.Weighted>
0.0000

> <Gold.Chemscore.DEClash.Weighted>
0.6674

> <Gold.Chemscore.DEInternal.Weighted>
5.0283

> <Gold.Chemscore.Rot.Weighted>
4.7000

> <Gold.Chemscore.Internal.Correction.Weighted>
   9.000000E+99

> <Gold.Protein.RotatedTorsions>
[ 6907 6896 6895 6894 ] final   34.15 input  -60.11 | X-H torsion
[ 7974 7965 7964 7962 ] final  115.81 input  175.53 | X-H torsion
[ 8008 7997 7996 7995 ] final  173.98 input   59.86 | X-H torsion
[ 10167 10162 10161 10158 ] final  -83.61 input  -65.29 | X-H torsion
[ 10718 10713 10712 10709 ] final   38.69 input   66.30 | X-H torsion
[ 10763 10752 10751 10750 ] final  104.21 input  -60.55 | X-H torsion
[ 11005 11000 10999 10996 ] final  -98.37 input  -57.11 | X-H torsion

> <Gold.Protein.ActiveResidues>
 VAL166  LYS551  ARG553  GLY616  TRP617  ASP618  TYR619  PRO620  LYS621  CYS622 
 ASP623  PHE694  ASN695  SER759  ASP760  ASP761  ALA762  ILE779  LEU786  VAL792 
 PHE793  MET794  SER795  GLU796  ALA797  LYS798  CYS799  TRP800  GLU811  SER814 

> <Gold.Protein.RotatedAtoms>
  152.0985  134.9358  160.0569 H   0  0  0  0  0  0  0  0  0  0  0  0  # atno 6907 bound_to 6896
  152.0582  133.4045  159.4414 H   0  0  0  0  0  0  0  0  0  0  0  0  # atno 6908 bound_to 6896
  150.6838  134.3150  159.4806 H   0  0  0  0  0  0  0  0  0  0  0  0  # atno 6909 bound_to 6896
  145.1873  139.3018  143.4386 H   0  0  0  0  0  0  0  0  0  0  0  0  # atno 7974 bound_to 7965
  156.1021  140.1446  156.9453 H   0  0  0  0  0  0  0  0  0  0  0  0  # atno 8008 bound_to 7997
  154.4709  140.0910  156.7187 H   0  0  0  0  0  0  0  0  0  0  0  0  # atno 8009 bound_to 7997
  155.4742  140.3443  155.4332 H   0  0  0  0  0  0  0  0  0  0  0  0  # atno 8010 bound_to 7997
  140.4210  143.2584  151.8890 H   0  0  0  0  0  0  0  0  0  0  0  0  # atno 10167 bound_to 10162
  157.3618  130.7653  149.7053 H   0  0  0  0  0  0  0  0  0  0  0  0  # atno 10718 bound_to 10713
  153.3629  135.3951  155.1731 H   0  0  0  0  0  0  0  0  0  0  0  0  # atno 10763 bound_to 10752
  154.8682  135.3684  154.5076 H   0  0  0  0  0  0  0  0  0  0  0  0  # atno 10764 bound_to 10752
  153.5537  135.7082  153.5639 H   0  0  0  0  0  0  0  0  0  0  0  0  # atno 10765 bound_to 10752
  141.1347  133.8240  157.0830 H   0  0  0  0  0  0  0  0  0  0  0  0  # atno 11005 bound_to 11000
  146.3442  140.2074  142.8589 LP  0  0  0  0  0  0  0  0  0  0  0  0  # atno 17320 bound_to 7965
  145.0076  140.8686  143.5244 LP  0  0  0  0  0  0  0  0  0  0  0  0  # atno 17321 bound_to 7965
  139.4782  144.5437  151.8490 LP  0  0  0  0  0  0  0  0  0  0  0  0  # atno 17342 bound_to 10162
  140.4533  144.1824  150.5899 LP  0  0  0  0  0  0  0  0  0  0  0  0  # atno 17343 bound_to 10162
  155.9739  130.4111  150.3967 LP  0  0  0  0  0  0  0  0  0  0  0  0  # atno 17370 bound_to 10713
  157.2045  131.0446  151.2632 LP  0  0  0  0  0  0  0  0  0  0  0  0  # atno 17371 bound_to 10713
  140.0440  134.9840  157.1014 LP  0  0  0  0  0  0  0  0  0  0  0  0  # atno 17394 bound_to 11000
  140.4092  134.2000  155.7163 LP  0  0  0  0  0  0  0  0  0  0  0  0  # atno 17395 bound_to 11000

$$$$
