#       Name:                AV-unprocessed.smi:1718
#       Creating user name   scv26
#       Creation time:       Fri Mar 27 08:13:59 2020


#       File generated by GOLD software.
#

@<TRIPOS>MOLECULE
AV-unprocessed.smi:1718
    48    49     1
SMALL
NO_CHARGES


@<TRIPOS>ATOM
      1 ****        -1.2360  -3.0117  -2.0044 C.3            1 S1                 0.0000
      2 ****        -0.7692  -2.2137  -0.7778 C.3            1 S1                 0.0000
      3 ****         0.6554  -2.1995  -0.7901 O.3            1 S1                 0.0000
      4 ****         1.2707  -1.7819   0.4232 C.3            1 S1                 0.0000
      5 ****         2.7921  -1.8074   0.2381 C.3            1 S1                 0.0000
      6 ****         3.3198  -0.7449  -0.7258 C.3            1 S1                 0.0000
      7 ****         4.7353  -0.5597  -0.2298 C.3            1 S1                 0.0000
      8 ****         4.5485  -0.6665   1.2804 C.3            1 S1                 0.0000
      9 ****         3.4496  -1.5527   1.4772 O.3            1 S1                 0.0000
     10 ****        -1.3124  -0.7758  -0.8044 C.2            1 S1                 0.0000
     11 ****        -1.1221  -0.0757  -1.7989 O.2            1 S1                 0.0000
     12 ****        -1.9749  -0.3896   0.3034 N.am           1 S1                 0.0000
     13 ****        -2.5374   0.8591   0.6164 C.2            1 S1                 0.0000
     14 ****        -2.2110   2.0318   0.0059 C.2            1 S1                 0.0000
     15 ****        -2.8155   3.3028   0.3843 C.2            1 S1                 0.0000
     16 ****        -2.5544   4.6102  -0.3425 C.3            1 S1                 0.0000
     17 ****        -3.6536   5.3638  -0.3834 F              1 S1                 0.0000
     18 ****        -1.6029   5.2975   0.2875 F              1 S1                 0.0000
     19 ****        -2.1490   4.3893  -1.5931 F              1 S1                 0.0000
     20 ****        -3.7345   3.1623   1.4061 C.2            1 S1                 0.0000
     21 ****        -4.0914   2.0485   2.0825 N.pl3          1 S1                -1.0000
     22 ****        -3.5206   0.8652   1.7192 C.2            1 S1                 0.0000
     23 ****        -3.8056  -0.1892   2.2881 O.2            1 S1                 0.0000
     24 ****        -2.3243  -3.0422  -2.0664 H              1 S1                 0.0000
     25 ****        -0.8808  -4.0410  -1.9531 H              1 S1                 0.0000
     26 ****        -0.8585  -2.5801  -2.9321 H              1 S1                 0.0000
     27 ****        -1.1192  -2.7291   0.1189 H              1 S1                 0.0000
     28 ****         0.9512  -0.7822   0.7194 H              1 S1                 0.0000
     29 ****         0.9853  -2.4646   1.2248 H              1 S1                 0.0000
     30 ****         3.1106  -2.7948  -0.0998 H              1 S1                 0.0000
     31 ****         3.2674  -1.0546  -1.7699 H              1 S1                 0.0000
     32 ****         2.7630   0.1871  -0.6179 H              1 S1                 0.0000
     33 ****         5.3683  -1.3718  -0.5905 H              1 S1                 0.0000
     34 ****         5.1801   0.3863  -0.5393 H              1 S1                 0.0000
     35 ****         5.4454  -1.0241   1.7865 H              1 S1                 0.0000
     36 ****         4.2871   0.3058   1.7000 H              1 S1                 0.0000
     37 ****        -2.1216  -1.0993   1.0067 H              1 S1                 0.0000
     38 ****        -1.4665   2.0607  -0.7728 H              1 S1                 0.0000
     39 ****        -4.2678   4.0834   1.7245 H              1 S1                 0.0000
     40 ****         0.9517  -1.5790  -1.5162 LP             1 S1                 0.0000
     41 ****         0.9717  -3.1261  -0.9938 LP             1 S1                 0.0000
     42 ****         3.7850  -2.4152   1.8562 LP             1 S1                 0.0000
     43 ****         2.8013  -1.1378   2.1156 LP             1 S1                 0.0000
     44 ****        -0.6180  -0.4436  -2.5803 LP             1 S1                 0.0000
     45 ****        -1.4717   0.8608  -1.8254 LP             1 S1                 0.0000
     46 ****        -4.7557   2.0910   2.8287 LP             1 S1                 0.0000
     47 ****        -3.3722  -1.0442   2.0030 LP             1 S1                 0.0000
     48 ****        -4.4705  -0.1905   3.0351 LP             1 S1                 0.0000
@<TRIPOS>BOND
    1    1    2 1     
    2    1   24 1     
    3    1   25 1     
    4    1   26 1     
    5    2    3 1     
    6    2   10 1     
    7    2   27 1     
    8    3    4 1     
    9    4    5 1     
   10    4   28 1     
   11    4   29 1     
   12    5    9 1     
   13    5    6 1     
   14    5   30 1     
   15    6    7 1     
   16    6   31 1     
   17    6   32 1     
   18    7    8 1     
   19    7   33 1     
   20    7   34 1     
   21    8    9 1     
   22    8   35 1     
   23    8   36 1     
   24   10   11 2     
   25   10   12 am    
   26   12   13 1     
   27   12   37 1     
   28   13   22 1     
   29   13   14 2     
   30   14   15 1     
   31   14   38 1     
   32   15   16 1     
   33   15   20 2     
   34   16   17 1     
   35   16   18 1     
   36   16   19 1     
   37   20   21 1     
   38   20   39 1     
   39   21   22 1     
   40   22   23 2     
   41    3   40 1     
   42    3   41 1     
   43    9   42 1     
   44    9   43 1     
   45   11   44 1     
   46   11   45 1     
   47   21   46 1     
   48   23   47 1     
   49   23   48 1     
@<TRIPOS>SUBSTRUCTURE
      1 S1             1
@<TRIPOS>SET
LONE_PAIRS      STATIC     ATOMS    <user>   **** ""
9 40 41 42 43 44 45 46 47 48
DONOR_HYDROGENS      STATIC     ATOMS    <user>   **** ""
1 37
ATOM$BLUE        STATIC     ATOMS    COLORGROUP SYSTEM
9 40 41 42 43 44 45 46 47 48
ATOM$RED        STATIC     ATOMS    COLORGROUP SYSTEM
1 37
