#       Name:                AV-unprocessed.smi:2127
#       Creating user name   scv26
#       Creation time:       Fri Mar 27 11:43:26 2020


#       File generated by GOLD software.
#

@<TRIPOS>MOLECULE
AV-unprocessed.smi:2127
    39    40     1
SMALL
NO_CHARGES


@<TRIPOS>ATOM
      1 ****         1.3741   0.8168   0.3648 O.2            1 S1                 0.0000
      2 ****         1.0478  -0.2658  -0.1219 C.2            1 S1                 0.0000
      3 ****         1.8807  -1.2933  -0.3597 N.am           1 S1                 0.0000
      4 ****         3.2776  -1.3693  -0.1125 C.ar           1 S1                 0.0000
      5 ****         4.1341  -0.2442  -0.0409 C.ar           1 S1                 0.0000
      6 ****         5.5071  -0.4498   0.1952 C.ar           1 S1                 0.0000
      7 ****         5.9742  -1.7704   0.3426 C.ar           1 S1                 0.0000
      8 ****         5.1716  -2.8525   0.2614 N.ar           1 S1                 0.0000
      9 ****         3.8566  -2.6476   0.0340 C.ar           1 S1                 0.0000
     10 ****        -0.2116  -0.5751  -0.4618 N.am           1 S1                 0.0000
     11 ****        -1.3737   0.3023  -0.3218 C.3            1 S1                 0.0000
     12 ****        -1.8914   0.2907   1.1398 C.3            1 S1                 0.0000
     13 ****        -3.3790   0.6492   1.3363 C.3            1 S1                 0.0000
     14 ****        -3.8271   1.9864   0.7127 C.3            1 S1                 0.0000
     15 ****        -3.5505   2.1758  -0.7982 C.3            1 S1                 0.0000
     16 ****        -3.4246   0.9280  -1.5506 N.am           1 S1                 0.0000
     17 ****        -2.4374   0.0276  -1.4022 C.2            1 S1                 0.0000
     18 ****        -2.3907  -0.9932  -2.0875 O.2            1 S1                 0.0000
     19 ****         1.4513  -2.1470  -0.6857 H              1 S1                 0.0000
     20 ****         3.7712   0.7628  -0.1750 H              1 S1                 0.0000
     21 ****         6.1876   0.3863   0.2577 H              1 S1                 0.0000
     22 ****         7.0212  -1.9628   0.5243 H              1 S1                 0.0000
     23 ****         3.2450  -3.5362  -0.0259 H              1 S1                 0.0000
     24 ****        -0.3866  -1.4880  -0.8563 H              1 S1                 0.0000
     25 ****        -1.0144   1.3107  -0.5315 H              1 S1                 0.0000
     26 ****        -1.7357  -0.6998   1.5700 H              1 S1                 0.0000
     27 ****        -1.2780   0.9678   1.7356 H              1 S1                 0.0000
     28 ****        -4.0010  -0.1568   0.9444 H              1 S1                 0.0000
     29 ****        -3.5926   0.6739   2.4052 H              1 S1                 0.0000
     30 ****        -4.9005   2.0818   0.8796 H              1 S1                 0.0000
     31 ****        -3.3739   2.8136   1.2600 H              1 S1                 0.0000
     32 ****        -4.3524   2.7654  -1.2425 H              1 S1                 0.0000
     33 ****        -2.6471   2.7698  -0.9408 H              1 S1                 0.0000
     34 ****        -4.1303   0.7430  -2.2487 H              1 S1                 0.0000
     35 ****         2.3270   0.9846   0.6173 LP             1 S1                 0.0000
     36 ****         0.6862   1.5284   0.5077 LP             1 S1                 0.0000
     37 ****         5.5392  -3.7765   0.3663 LP             1 S1                 0.0000
     38 ****        -1.6560  -1.6568  -1.9466 LP             1 S1                 0.0000
     39 ****        -3.0875  -1.1593  -2.7853 LP             1 S1                 0.0000
@<TRIPOS>BOND
    1    1    2 2     
    2    2    3 am    
    3    2   10 am    
    4    3    4 1     
    5    3   19 1     
    6    4    9 ar    
    7    4    5 ar    
    8    5    6 ar    
    9    5   20 1     
   10    6    7 ar    
   11    6   21 1     
   12    7    8 ar    
   13    7   22 1     
   14    8    9 ar    
   15    9   23 1     
   16   10   11 1     
   17   10   24 1     
   18   11   17 1     
   19   11   12 1     
   20   11   25 1     
   21   12   13 1     
   22   12   26 1     
   23   12   27 1     
   24   13   14 1     
   25   13   28 1     
   26   13   29 1     
   27   14   15 1     
   28   14   30 1     
   29   14   31 1     
   30   15   16 1     
   31   15   32 1     
   32   15   33 1     
   33   16   17 am    
   34   16   34 1     
   35   17   18 2     
   36    1   35 1     
   37    1   36 1     
   38    8   37 1     
   39   18   38 1     
   40   18   39 1     
@<TRIPOS>SUBSTRUCTURE
      1 S1             1
@<TRIPOS>SET
LONE_PAIRS      STATIC     ATOMS    <user>   **** ""
5 35 36 37 38 39
DONOR_HYDROGENS      STATIC     ATOMS    <user>   **** ""
3 19 24 34
ATOM$BLUE        STATIC     ATOMS    COLORGROUP SYSTEM
5 35 36 37 38 39
ATOM$RED        STATIC     ATOMS    COLORGROUP SYSTEM
3 19 24 34
