AV-unprocessed.smi:45|AV-procd|sdf|411|dock10
  -GOLD-   2262016273D 1   1.00000     0.00000
 Structure written by MMmdl.
 61 64  0  0  0  0  0  0  0  0  2 V2000
  155.6898  126.1612  155.3714 C   0  0  0  0  0  0  0  0  0  0  0  0
  155.5138  127.5584  155.1884 O   0  0  0  0  0  0  0  0  0  0  0  0
  154.2269  128.0523  155.1318 C   0  0  0  0  0  0  0  0  0  0  0  0
  153.0699  127.2677  155.3712 C   0  0  0  0  0  0  0  0  0  0  0  0
  151.7863  127.8414  155.2933 C   0  0  0  0  0  0  0  0  0  0  0  0
  151.6370  129.2053  154.9755 C   0  0  0  0  0  0  0  0  0  0  0  0
  150.2565  129.8208  154.8796 C   0  0  0  0  0  0  0  0  0  0  0  0
  150.2279  131.2093  155.3139 N   0  0  0  0  0  0  0  0  0  0  0  0
  149.2918  132.1189  154.7966 C   0  0  0  0  0  0  0  0  0  0  0  0
  148.4172  131.6730  153.8560 N   0  3  0  0  0  0  0  0  0  0  0  0
  147.5092  132.4983  153.3103 C   0  0  0  0  0  0  0  0  0  0  0  0
  146.6312  131.9978  152.3531 N   0  0  0  0  0  0  0  0  0  0  0  0
  146.2998  130.5853  152.2131 C   0  0  0  0  0  0  0  0  0  0  0  0
  145.2968  130.4996  151.0613 C   0  0  0  0  0  0  0  0  0  0  0  0
  145.5759  131.7633  150.2505 C   0  0  0  0  0  0  0  0  0  0  0  0
  145.9892  132.7940  151.3116 C   0  0  1  0  0  0  0  0  0  0  0  0
  144.7913  133.5911  151.8685 C   0  0  0  0  0  0  0  0  0  0  0  0
  144.6094  133.2997  153.2376 O   0  0  0  0  0  0  0  0  0  0  0  0
  147.4180  133.7870  153.6616 N   0  0  0  0  0  0  0  0  0  0  0  0
  148.2593  134.2776  154.5910 C   0  0  0  0  0  0  0  0  0  0  0  0
  149.2435  133.4775  155.2037 C   0  0  0  0  0  0  0  0  0  0  0  0
  150.1420  134.0523  156.2655 C   0  0  0  0  0  0  0  0  0  0  0  0
  150.3613  133.4443  157.3131 O   0  0  0  0  0  0  0  0  0  0  0  0
  150.6858  135.2445  155.9729 N   0  0  0  0  0  0  0  0  0  0  0  0
  151.5262  136.0182  156.8791 C   0  0  0  0  0  0  0  0  0  0  0  0
  151.6564  137.4678  156.4453 C   0  0  0  0  0  0  0  0  0  0  0  0
  151.2783  138.3996  157.3260 N   0  0  0  0  0  0  0  0  0  0  0  0
  151.3773  139.6879  156.9324 C   0  0  0  0  0  0  0  0  0  0  0  0
  151.8569  140.0377  155.6539 C   0  0  0  0  0  0  0  0  0  0  0  0
  152.2248  138.9692  154.8117 C   0  0  0  0  0  0  0  0  0  0  0  0
  152.1222  137.6824  155.2099 N   0  0  0  0  0  0  0  0  0  0  0  0
  152.7808  129.9919  154.7360 C   0  0  0  0  0  0  0  0  0  0  0  0
  154.0657  129.4199  154.8147 C   0  0  0  0  0  0  0  0  0  0  0  0
  155.4475  130.4124  154.5157 Cl  0  0  0  0  0  0  0  0  0  0  0  0
  146.7150  133.4858  150.8814 H   0  0  0  0  0  0  0  0  0  0  0  0
  156.7551  125.9316  155.3832 H   0  0  0  0  0  0  0  0  0  0  0  0
  155.2399  125.5924  154.5564 H   0  0  0  0  0  0  0  0  0  0  0  0
  155.2701  125.8273  156.3212 H   0  0  0  0  0  0  0  0  0  0  0  0
  153.1395  126.2188  155.6161 H   0  0  0  0  0  0  0  0  0  0  0  0
  150.9164  127.2272  155.4752 H   0  0  0  0  0  0  0  0  0  0  0  0
  149.9013  129.7538  153.8505 H   0  0  0  0  0  0  0  0  0  0  0  0
  149.5704  129.2369  155.4944 H   0  0  0  0  0  0  0  0  0  0  0  0
  150.8736  131.5075  156.0323 H   0  0  0  0  0  0  0  0  0  0  0  0
  147.2081  130.0321  151.9708 H   0  0  0  0  0  0  0  0  0  0  0  0
  145.8866  130.1758  153.1356 H   0  0  0  0  0  0  0  0  0  0  0  0
  145.4022  129.5855  150.4763 H   0  0  0  0  0  0  0  0  0  0  0  0
  144.2794  130.5309  151.4533 H   0  0  0  0  0  0  0  0  0  0  0  0
  146.4132  131.5807  149.5753 H   0  0  0  0  0  0  0  0  0  0  0  0
  144.7262  132.0749  149.6422 H   0  0  0  0  0  0  0  0  0  0  0  0
  144.9348  134.6646  151.7405 H   0  0  0  0  0  0  0  0  0  0  0  0
  143.8708  133.3269  151.3474 H   0  0  0  0  0  0  0  0  0  0  0  0
  143.8414  132.7568  153.3329 H   0  0  0  0  0  0  0  0  0  0  0  0
  148.1326  135.3188  154.8500 H   0  0  0  0  0  0  0  0  0  0  0  0
  150.4701  135.6701  155.0834 H   0  0  0  0  0  0  0  0  0  0  0  0
  151.1404  135.9550  157.8986 H   0  0  0  0  0  0  0  0  0  0  0  0
  152.5187  135.5668  156.8996 H   0  0  0  0  0  0  0  0  0  0  0  0
  151.0728  140.4437  157.6414 H   0  0  0  0  0  0  0  0  0  0  0  0
  151.9376  141.0671  155.3374 H   0  0  0  0  0  0  0  0  0  0  0  0
  152.6014  139.1470  153.8152 H   0  0  0  0  0  0  0  0  0  0  0  0
  152.6734  131.0381  154.4889 H   0  0  0  0  0  0  0  0  0  0  0  0
  148.4593  130.6957  153.5687 H   0  0  0  0  0  0  0  0  0  0  0  0
  1  2  1  0  0  0  0
  1 36  1  0  0  0  0
  1 37  1  0  0  0  0
  1 38  1  0  0  0  0
  2  3  1  0  0  0  0
  3 33  1  0  0  0  0
  3  4  2  0  0  0  0
  4  5  1  0  0  0  0
  4 39  1  0  0  0  0
  5  6  2  0  0  0  0
  5 40  1  0  0  0  0
  6  7  1  0  0  0  0
  6 32  1  0  0  0  0
  7  8  1  0  0  0  0
  7 41  1  0  0  0  0
  7 42  1  0  0  0  0
  8  9  1  0  0  0  0
  8 43  1  0  0  0  0
  9 21  1  0  0  0  0
  9 10  2  0  0  0  0
 10 11  1  0  0  0  0
 10 61  1  0  0  0  0
 11 12  1  0  0  0  0
 11 19  2  0  0  0  0
 12 16  1  0  0  0  0
 12 13  1  0  0  0  0
 13 14  1  0  0  0  0
 13 44  1  0  0  0  0
 13 45  1  0  0  0  0
 14 15  1  0  0  0  0
 14 46  1  0  0  0  0
 14 47  1  0  0  0  0
 15 16  1  0  0  0  0
 15 48  1  0  0  0  0
 15 49  1  0  0  0  0
 16 35  1  0  0  0  0
 16 17  1  0  0  0  0
 17 18  1  0  0  0  0
 17 50  1  0  0  0  0
 17 51  1  0  0  0  0
 18 52  1  0  0  0  0
 19 20  1  0  0  0  0
 20 21  2  0  0  0  0
 20 53  1  0  0  0  0
 21 22  1  0  0  0  0
 22 23  2  0  0  0  0
 22 24  1  0  0  0  0
 24 25  1  0  0  0  0
 24 54  1  0  0  0  0
 25 26  1  0  0  0  0
 25 55  1  0  0  0  0
 25 56  1  0  0  0  0
 26 31  1  0  0  0  0
 26 27  2  0  0  0  0
 27 28  1  0  0  0  0
 28 29  2  0  0  0  0
 28 57  1  0  0  0  0
 29 30  1  0  0  0  0
 29 58  1  0  0  0  0
 30 31  2  0  0  0  0
 30 59  1  0  0  0  0
 32 33  2  0  0  0  0
 32 60  1  0  0  0  0
 33 34  1  0  0  0  0
M  CHG  1  10   1
M  END
> <s_m_source_file>
AV-unprocessed.smi

> <i_m_source_file_index>
45

> <i_lp_mmshare_version>
43012

> <i_f3d_flags>
0

> <s_epik_input>
W0NIM11PYzFbY0hdW2NIXWMoW2NIXWMxQ2wpW0NIMl1bTkhdYzJuYyhOM1tDSDJdW0NIMl1bQ0gyXVtDQEhdM1tDSDJdW09IXSluW2NIXWMyQyg9TylbTkhdW0NIMl1jNG5bY0hdW2NIXVtjSF1uNA==

> <s_epik_cmdline>
J2VwaWtfcHl0aG9uJywgJy1waCcsICc3LjAnLCAnLXRuJywgJzgnLCAnLW1hJywgJzIwMCcsICctbWV0YWxfYmluZGluZycsICctaW1hZScsICc8aW5maWxlLm1hZT4nLCAnLW9tYWUnLCAnPG91dGZpbGUubWFlPic=

> <r_lp_tautomer_probability>
0.424989

> <r_epik_Ionization_Penalty>
2.31209

> <r_epik_Ionization_Penalty_Charging>
2.31199

> <r_epik_Ionization_Penalty_Neutral>
9.65277e-05

> <r_epik_State_Penalty>
2.29675

> <r_epik_Charging_Adjusted_Penalty>
4.60874

> <i_epik_Tot_Q>
1

> <i_epik_Tot_abs_Q>
1

> <r_epik_Metal_State_Penalty>
2.3404

> <b_epik_Metal_Only>
0

> <s_epik_Chemistry_Notes>
This compound contains an electron-poor aromatic ring that is susceptible to covalent hydrolysis at low pH, typically resulting in measured values for nitrogen ring protonation that are around two units higher than predicted values.

> <s_lp_Force_Field>
OPLS_2005

> <r_lp_Energy>
34.7273

> <b_lp_Chiralities_Consistent>
1

> <s_lp_Variant>
AV-unprocessed.smi:45-5

> <Gold.Version>
5.8.1

> <Gold.Id.Protein>
6NUR|6NUR_protein|mol2

> <Gold.PLP.Fitness>
56.1195

> <Gold.PLP.PLP>
-51.6747

> <Gold.PLP.part.hbond>
-3.0000

> <Gold.PLP.part.metal>
0.0000

> <Gold.PLP.part.buried>
-6.1453

> <Gold.PLP.part.nonpolar>
-42.6049

> <Gold.PLP.part.repulsive>
0.3124

> <Gold.PLP.ligand.clash>
0.0000

> <Gold.PLP.ligand.torsion>
2.4536

> <Gold.PLP.Chemscore.Hbond>
2.5701

> <Gold.PLP.Chemscore.CHOScore>
0.0000

> <Gold.PLP.Chemscore.Metal>
0.0000

> <Gold.Chemscore.Hbonds>
donor molecule, donor type, donor heavy atom, donor atom, acceptor molecule, acceptor atom, score
      L1  H    18    52       P1 10957  0.70
      P1  H  6896  6908       L1    23  0.93
      P1  H 10752 10764       L1    31  0.22

> <Gold.PLP.Chemscore.Internal.Correction>
1.6415

> <Gold.Rescore>
     Score         DG    S(hbond)    S(metal)    S(lipo)     H(rot)  DE(clash)    DE(int)     intcor
     12.42     -18.26       2.15        0.00     112.11       2.94       0.04       5.80       ----

> <Gold.Chemscore.Fitness>
12.4244

> <Gold.Chemscore.DG>
-18.2618

> <Gold.Chemscore.ZeroCoef>
-5.4800

> <Gold.Chemscore.Hbond>
2.1526

> <Gold.Chemscore.Metal>
0.0000

> <Gold.Chemscore.Lipo>
112.1141

> <Gold.Chemscore.Internal_Hbond>
0.0000

> <Gold.Chemscore.DEClash>
0.0373

> <Gold.Chemscore.DEInternal>
5.8002

> <Gold.Chemscore.Rot>
2.9395

> <Gold.Chemscore.Internal.Correction>
   9.000000E+99

> <Gold.Chemscore.Hbonds>
donor molecule, donor type, donor heavy atom, donor atom, acceptor molecule, acceptor atom, score
      L1  H    18    52       P1 10957  0.34
      P1  H  6896  6908       L1    23  0.85
      P1  H 10752 10764       L1    31  0.11

> <Gold.Chemscore.Hbond.Weighted>
-7.1896

> <Gold.Chemscore.Metal.Weighted>
-0.0000

> <Gold.Chemscore.Lipo.Weighted>
-13.1174

> <Gold.Chemscore.Internal_Hbond.Weighted>
0.0000

> <Gold.Chemscore.DEClash.Weighted>
0.0373

> <Gold.Chemscore.DEInternal.Weighted>
5.8002

> <Gold.Chemscore.Rot.Weighted>
7.5251

> <Gold.Chemscore.Internal.Correction.Weighted>
   9.000000E+99

> <Gold.Protein.RotatedTorsions>
[ 6907 6896 6895 6894 ] final   96.57 input  -60.11 | X-H torsion
[ 7974 7965 7964 7962 ] final  -34.98 input  175.53 | X-H torsion
[ 8008 7997 7996 7995 ] final  111.81 input   59.86 | X-H torsion
[ 10167 10162 10161 10158 ] final -166.31 input  -65.29 | X-H torsion
[ 10718 10713 10712 10709 ] final -108.94 input   66.30 | X-H torsion
[ 10763 10752 10751 10750 ] final  -64.55 input  -60.55 | X-H torsion
[ 11005 11000 10999 10996 ] final  133.59 input  -57.11 | X-H torsion

> <Gold.Protein.ActiveResidues>
 VAL166  LYS551  ARG553  GLY616  TRP617  ASP618  TYR619  PRO620  LYS621  CYS622 
 ASP623  PHE694  ASN695  SER759  ASP760  ASP761  ALA762  ILE779  LEU786  VAL792 
 PHE793  MET794  SER795  GLU796  ALA797  LYS798  CYS799  TRP800  GLU811  SER814 

> <Gold.Protein.RotatedAtoms>
  152.5433  134.0866  159.8258 H   0  0  0  0  0  0  0  0  0  0  0  0  # atno 6907 bound_to 6896
  151.0961  133.5271  159.2619 H   0  0  0  0  0  0  0  0  0  0  0  0  # atno 6908 bound_to 6896
  151.2044  135.0465  159.8939 H   0  0  0  0  0  0  0  0  0  0  0  0  # atno 6909 bound_to 6896
  146.0785  140.6104  142.8919 H   0  0  0  0  0  0  0  0  0  0  0  0  # atno 7974 bound_to 7965
  156.2149  140.3012  155.9817 H   0  0  0  0  0  0  0  0  0  0  0  0  # atno 8008 bound_to 7997
  155.2630  140.0430  157.3016 H   0  0  0  0  0  0  0  0  0  0  0  0  # atno 8009 bound_to 7997
  154.5753  140.2360  155.8139 H   0  0  0  0  0  0  0  0  0  0  0  0  # atno 8010 bound_to 7997
  139.6123  144.0789  152.1854 H   0  0  0  0  0  0  0  0  0  0  0  0  # atno 10167 bound_to 10162
  156.0511  130.5738  150.8031 H   0  0  0  0  0  0  0  0  0  0  0  0  # atno 10718 bound_to 10713
  154.3318  135.6175  153.5555 H   0  0  0  0  0  0  0  0  0  0  0  0  # atno 10763 bound_to 10752
  152.9811  135.5748  154.4953 H   0  0  0  0  0  0  0  0  0  0  0  0  # atno 10764 bound_to 10752
  154.4641  135.2857  155.1668 H   0  0  0  0  0  0  0  0  0  0  0  0  # atno 10765 bound_to 10752
  139.9861  134.9531  156.9746 H   0  0  0  0  0  0  0  0  0  0  0  0  # atno 11005 bound_to 11000
  144.7277  140.4576  143.6961 LP  0  0  0  0  0  0  0  0  0  0  0  0  # atno 17320 bound_to 7965
  145.6262  139.1530  143.2995 LP  0  0  0  0  0  0  0  0  0  0  0  0  # atno 17321 bound_to 7965
  140.0411  144.6007  150.7410 LP  0  0  0  0  0  0  0  0  0  0  0  0  # atno 17342 bound_to 10162
  140.7328  143.2709  151.3891 LP  0  0  0  0  0  0  0  0  0  0  0  0  # atno 17343 bound_to 10162
  157.5438  131.0941  150.9790 LP  0  0  0  0  0  0  0  0  0  0  0  0  # atno 17370 bound_to 10713
  157.0067  130.5621  149.5316 LP  0  0  0  0  0  0  0  0  0  0  0  0  # atno 17371 bound_to 10713
  140.4999  134.1108  155.7248 LP  0  0  0  0  0  0  0  0  0  0  0  0  # atno 17394 bound_to 11000
  141.1526  133.8941  157.2060 LP  0  0  0  0  0  0  0  0  0  0  0  0  # atno 17395 bound_to 11000

$$$$
