AV-unprocessed.smi:83|AV-procd|sdf|803|dock2
  -GOLD-   2262017193D 1   1.00000     0.00000
 Structure written by MMmdl.
 56 59  0  0  0  0  0  0  0  0  1 V2000
  153.3934  141.9852  161.8600 C   0  0  0  0  0  0  0  0  0  0  0  0
  152.7881  143.3801  161.6992 C   0  0  0  0  0  0  0  0  0  0  0  0
  152.7049  144.1122  162.6856 O   0  0  0  0  0  0  0  0  0  0  0  0
  152.3578  143.7559  160.4778 N   0  0  0  0  0  0  0  0  0  0  0  0
  151.6920  145.0150  160.1524 C   0  0  0  0  0  0  0  0  0  0  0  0
  151.1490  144.8315  158.7338 C   0  0  0  0  0  0  0  0  0  0  0  0
  152.0874  143.8088  158.1008 C   0  0  2  0  0  0  0  0  0  0  0  0
  151.4718  143.0653  156.8927 C   0  0  0  0  0  0  0  0  0  0  0  0
  150.7403  141.8516  157.2626 N   0  0  0  0  0  0  0  0  0  0  0  0
  149.7259  141.9576  158.3032 C   0  0  0  0  0  0  0  0  0  0  0  0
  150.5808  140.9201  156.2874 C   0  0  0  0  0  0  0  0  0  0  0  0
  149.9218  141.2975  155.1604 N   0  0  0  0  0  0  0  0  0  0  0  0
  149.6479  140.4063  154.2042 C   0  0  0  0  0  0  0  0  0  0  0  0
  149.9222  139.1018  154.1782 N   0  0  0  0  0  0  0  0  0  0  0  0
  150.5941  138.7171  155.3001 C   0  0  0  0  0  0  0  0  0  0  0  0
  150.9826  139.5541  156.3852 C   0  0  0  0  0  0  0  0  0  0  0  0
  151.6452  138.7940  157.3443 N   0  0  0  0  0  0  0  0  0  0  0  0
  151.6355  137.5821  156.8626 C   0  0  0  0  0  0  0  0  0  0  0  0
  150.9944  137.4424  155.6540 N   0  0  0  0  0  0  0  0  0  0  0  0
  150.7578  136.2087  154.9297 C   0  0  0  0  0  0  0  0  0  0  0  0
  149.4042  135.5624  155.2994 C   0  0  1  0  0  0  0  0  0  0  0  0
  148.4114  136.1841  154.5086 O   0  0  0  0  0  0  0  0  0  0  0  0
  149.3427  134.0345  155.0706 C   0  0  2  0  0  0  0  0  0  0  0  0
  149.4721  133.6025  153.6071 C   0  0  0  0  0  0  0  0  0  0  0  0
  148.7641  132.2554  153.5557 C   0  0  0  0  0  0  0  0  0  0  0  0
  148.0260  132.1745  154.8927 C   0  0  0  0  0  0  0  0  0  0  0  0
  148.0682  133.4994  155.3972 O   0  0  0  0  0  0  0  0  0  0  0  0
  152.4694  142.9156  159.2907 C   0  0  0  0  0  0  0  0  0  0  0  0
  152.7086  141.2210  161.4919 H   0  0  0  0  0  0  0  0  0  0  0  0
  153.5982  141.7738  162.9099 H   0  0  0  0  0  0  0  0  0  0  0  0
  154.3325  141.9086  161.3115 H   0  0  0  0  0  0  0  0  0  0  0  0
  150.8893  145.2548  160.8511 H   0  0  0  0  0  0  0  0  0  0  0  0
  152.4244  145.8230  160.1804 H   0  0  0  0  0  0  0  0  0  0  0  0
  150.1369  144.4270  158.7820 H   0  0  0  0  0  0  0  0  0  0  0  0
  151.1071  145.7675  158.1763 H   0  0  0  0  0  0  0  0  0  0  0  0
  152.9797  144.3471  157.7772 H   0  0  0  0  0  0  0  0  0  0  0  0
  150.8377  143.7376  156.3138 H   0  0  0  0  0  0  0  0  0  0  0  0
  152.2741  142.7702  156.2156 H   0  0  0  0  0  0  0  0  0  0  0  0
  149.3968  140.9712  158.6319 H   0  0  0  0  0  0  0  0  0  0  0  0
  148.8597  142.5172  157.9493 H   0  0  0  0  0  0  0  0  0  0  0  0
  150.1306  142.4772  159.1720 H   0  0  0  0  0  0  0  0  0  0  0  0
  149.1175  140.7902  153.3455 H   0  0  0  0  0  0  0  0  0  0  0  0
  152.0616  136.7459  157.3978 H   0  0  0  0  0  0  0  0  0  0  0  0
  150.7949  136.4312  153.8625 H   0  0  0  0  0  0  0  0  0  0  0  0
  151.5785  135.5205  155.1362 H   0  0  0  0  0  0  0  0  0  0  0  0
  149.1728  135.7775  156.3435 H   0  0  0  0  0  0  0  0  0  0  0  0
  148.7178  136.2166  153.6152 H   0  0  0  0  0  0  0  0  0  0  0  0
  150.1025  133.5330  155.6736 H   0  0  0  0  0  0  0  0  0  0  0  0
  148.9527  134.3097  152.9587 H   0  0  0  0  0  0  0  0  0  0  0  0
  150.5103  133.5466  153.2783 H   0  0  0  0  0  0  0  0  0  0  0  0
  148.0719  132.2167  152.7142 H   0  0  0  0  0  0  0  0  0  0  0  0
  149.4684  131.4298  153.4510 H   0  0  0  0  0  0  0  0  0  0  0  0
  147.0013  131.8176  154.7919 H   0  0  0  0  0  0  0  0  0  0  0  0
  148.5498  131.5116  155.5827 H   0  0  0  0  0  0  0  0  0  0  0  0
  153.4783  142.5152  159.1817 H   0  0  0  0  0  0  0  0  0  0  0  0
  151.7787  142.0774  159.3924 H   0  0  0  0  0  0  0  0  0  0  0  0
  1  2  1  0  0  0  0
  1 29  1  0  0  0  0
  1 30  1  0  0  0  0
  1 31  1  0  0  0  0
  2  3  2  0  0  0  0
  2  4  1  0  0  0  0
  4 28  1  0  0  0  0
  4  5  1  0  0  0  0
  5  6  1  0  0  0  0
  5 32  1  0  0  0  0
  5 33  1  0  0  0  0
  6  7  1  0  0  0  0
  6 34  1  0  0  0  0
  6 35  1  0  0  0  0
  7  8  1  0  0  0  0
  7 28  1  0  0  0  0
  7 36  1  0  0  0  0
  8  9  1  0  0  0  0
  8 37  1  0  0  0  0
  8 38  1  0  0  0  0
  9 10  1  0  0  0  0
  9 11  1  0  0  0  0
 10 39  1  0  0  0  0
 10 40  1  0  0  0  0
 10 41  1  0  0  0  0
 11 16  1  0  0  0  0
 11 12  2  0  0  0  0
 12 13  1  0  0  0  0
 13 14  2  0  0  0  0
 13 42  1  0  0  0  0
 14 15  1  0  0  0  0
 15 19  1  0  0  0  0
 15 16  2  0  0  0  0
 16 17  1  0  0  0  0
 17 18  2  0  0  0  0
 18 19  1  0  0  0  0
 18 43  1  0  0  0  0
 19 20  1  0  0  0  0
 20 21  1  0  0  0  0
 20 44  1  0  0  0  0
 20 45  1  0  0  0  0
 21 22  1  0  0  0  0
 21 23  1  0  0  0  0
 21 46  1  0  0  0  0
 22 47  1  0  0  0  0
 23 27  1  0  0  0  0
 23 24  1  0  0  0  0
 23 48  1  0  0  0  0
 24 25  1  0  0  0  0
 24 49  1  0  0  0  0
 24 50  1  0  0  0  0
 25 26  1  0  0  0  0
 25 51  1  0  0  0  0
 25 52  1  0  0  0  0
 26 27  1  0  0  0  0
 26 53  1  0  0  0  0
 26 54  1  0  0  0  0
 28 55  1  0  0  0  0
 28 56  1  0  0  0  0
M  END
> <s_m_source_file>
AV-unprocessed.smi

> <i_m_source_file_index>
83

> <i_lp_mmshare_version>
43012

> <i_f3d_flags>
0

> <s_epik_input>
W0NIM11DKD1PKU4xW0NIMl1bQ0gyXVtDQEhdKFtDSDJdMSlbQ0gyXU4oW0NIM10pYyhuW2NIXW4yKWMoYzIzKW5bY0hdbjNbQ0gyXVtDQEhdKFtPSF0pW0NAQEhdNFtDSDJdW0NIMl1bQ0gyXU80

> <s_epik_cmdline>
J2VwaWtfcHl0aG9uJywgJy1waCcsICc3LjAnLCAnLXRuJywgJzgnLCAnLW1hJywgJzIwMCcsICctbWV0YWxfYmluZGluZycsICctaW1hZScsICc8aW5maWxlLm1hZT4nLCAnLW9tYWUnLCAnPG91dGZpbGUubWFlPic=

> <r_lp_tautomer_probability>
1

> <r_epik_Ionization_Penalty>
0.00109752

> <r_epik_Ionization_Penalty_Charging>
0

> <r_epik_Ionization_Penalty_Neutral>
0.00109752

> <r_epik_State_Penalty>
0.000634803

> <r_epik_Charging_Adjusted_Penalty>
0.000634803

> <i_epik_Tot_Q>
0

> <i_epik_Tot_abs_Q>
0

> <r_epik_Metal_State_Penalty>
-0

> <b_epik_Metal_Only>
0

> <s_lp_Force_Field>
OPLS_2005

> <r_lp_Energy>
52.1505

> <b_lp_Chiralities_Consistent>
1

> <s_lp_Variant>
AV-unprocessed.smi:83-4

> <Gold.Version>
5.8.1

> <Gold.Id.Protein>
6NUR|6NUR_protein|mol2

> <Gold.PLP.Fitness>
52.2950

> <Gold.PLP.PLP>
-51.0139

> <Gold.PLP.part.hbond>
-1.6426

> <Gold.PLP.part.metal>
0.0000

> <Gold.PLP.part.buried>
-3.0178

> <Gold.PLP.part.nonpolar>
-46.3113

> <Gold.PLP.part.repulsive>
0.5241

> <Gold.PLP.ligand.clash>
0.0000

> <Gold.PLP.ligand.torsion>
2.4915

> <Gold.PLP.Chemscore.Hbond>
1.0000

> <Gold.PLP.Chemscore.CHOScore>
0.8351

> <Gold.PLP.Chemscore.Metal>
0.0000

> <Gold.Chemscore.Hbonds>
donor molecule, donor type, donor heavy atom, donor atom, acceptor molecule, acceptor atom, score
      L1  H    22    47       P1  7948  1.00
      L1  C    13    42       P1  7957  0.83

> <Gold.PLP.Chemscore.Internal.Correction>
0.7589

> <Gold.Rescore>
     Score         DG    S(hbond)    S(metal)    S(lipo)     H(rot)  DE(clash)    DE(int)     intcor
     11.36     -14.23       1.00        0.00     103.48       2.62       0.41       2.47       ----

> <Gold.Chemscore.Fitness>
11.3587

> <Gold.Chemscore.DG>
-14.2325

> <Gold.Chemscore.ZeroCoef>
-5.4800

> <Gold.Chemscore.Hbond>
1.0000

> <Gold.Chemscore.Metal>
0.0000

> <Gold.Chemscore.Lipo>
103.4824

> <Gold.Chemscore.Internal_Hbond>
0.0000

> <Gold.Chemscore.DEClash>
0.4073

> <Gold.Chemscore.DEInternal>
2.4665

> <Gold.Chemscore.Rot>
2.6152

> <Gold.Chemscore.Internal.Correction>
   9.000000E+99

> <Gold.Chemscore.Hbonds>
donor molecule, donor type, donor heavy atom, donor atom, acceptor molecule, acceptor atom, score
      L1  H    22    47       P1  7948  1.00

> <Gold.Chemscore.Hbond.Weighted>
-3.3400

> <Gold.Chemscore.Metal.Weighted>
-0.0000

> <Gold.Chemscore.Lipo.Weighted>
-12.1074

> <Gold.Chemscore.Internal_Hbond.Weighted>
0.0000

> <Gold.Chemscore.DEClash.Weighted>
0.4073

> <Gold.Chemscore.DEInternal.Weighted>
2.4665

> <Gold.Chemscore.Rot.Weighted>
6.6949

> <Gold.Chemscore.Internal.Correction.Weighted>
   9.000000E+99

> <Gold.Protein.RotatedTorsions>
[ 6907 6896 6895 6894 ] final   31.43 input  -60.11 | X-H torsion
[ 7974 7965 7964 7962 ] final   83.62 input  175.53 | X-H torsion
[ 8008 7997 7996 7995 ] final -138.57 input   59.86 | X-H torsion
[ 10167 10162 10161 10158 ] final  100.80 input  -65.29 | X-H torsion
[ 10718 10713 10712 10709 ] final  157.59 input   66.30 | X-H torsion
[ 10763 10752 10751 10750 ] final  -39.36 input  -60.55 | X-H torsion
[ 11005 11000 10999 10996 ] final    4.24 input  -57.11 | X-H torsion

> <Gold.Protein.ActiveResidues>
 VAL166  LYS551  ARG553  GLY616  TRP617  ASP618  TYR619  PRO620  LYS621  CYS622 
 ASP623  PHE694  ASN695  SER759  ASP760  ASP761  ALA762  ILE779  LEU786  VAL792 
 PHE793  MET794  SER795  GLU796  ALA797  LYS798  CYS799  TRP800  GLU811  SER814 

> <Gold.Protein.RotatedAtoms>
  152.0601  134.9599  160.0574 H   0  0  0  0  0  0  0  0  0  0  0  0  # atno 6907 bound_to 6896
  152.0966  133.4223  159.4576 H   0  0  0  0  0  0  0  0  0  0  0  0  # atno 6908 bound_to 6896
  150.6838  134.2728  159.4639 H   0  0  0  0  0  0  0  0  0  0  0  0  # atno 6909 bound_to 6896
  145.6095  139.2366  143.2200 H   0  0  0  0  0  0  0  0  0  0  0  0  # atno 7974 bound_to 7965
  155.4306  140.0525  157.3019 H   0  0  0  0  0  0  0  0  0  0  0  0  # atno 8008 bound_to 7997
  154.4862  140.2101  155.9609 H   0  0  0  0  0  0  0  0  0  0  0  0  # atno 8009 bound_to 7997
  156.1277  140.3177  155.8307 H   0  0  0  0  0  0  0  0  0  0  0  0  # atno 8010 bound_to 7997
  139.7495  144.6988  151.0453 H   0  0  0  0  0  0  0  0  0  0  0  0  # atno 10167 bound_to 10162
  157.1895  131.0651  151.2087 H   0  0  0  0  0  0  0  0  0  0  0  0  # atno 10718 bound_to 10713
  153.9281  135.6775  153.4746 H   0  0  0  0  0  0  0  0  0  0  0  0  # atno 10763 bound_to 10752
  153.0993  135.4835  154.8835 H   0  0  0  0  0  0  0  0  0  0  0  0  # atno 10764 bound_to 10752
  154.7442  135.3168  154.8631 H   0  0  0  0  0  0  0  0  0  0  0  0  # atno 10765 bound_to 10752
  140.5841  133.9985  155.8060 H   0  0  0  0  0  0  0  0  0  0  0  0  # atno 11005 bound_to 11000
  146.1515  140.6918  142.9320 LP  0  0  0  0  0  0  0  0  0  0  0  0  # atno 17320 bound_to 7965
  144.7276  140.4572  143.6962 LP  0  0  0  0  0  0  0  0  0  0  0  0  # atno 17321 bound_to 7965
  140.7796  143.4826  150.9998 LP  0  0  0  0  0  0  0  0  0  0  0  0  # atno 17342 bound_to 10162
  139.8514  143.7433  152.3178 LP  0  0  0  0  0  0  0  0  0  0  0  0  # atno 17343 bound_to 10162
  157.3875  130.7264  149.6673 LP  0  0  0  0  0  0  0  0  0  0  0  0  # atno 17370 bound_to 10713
  155.9713  130.4155  150.4187 LP  0  0  0  0  0  0  0  0  0  0  0  0  # atno 17371 bound_to 10713
  141.0977  133.9817  157.3132 LP  0  0  0  0  0  0  0  0  0  0  0  0  # atno 17394 bound_to 11000
  139.9304  135.0200  156.8379 LP  0  0  0  0  0  0  0  0  0  0  0  0  # atno 17395 bound_to 11000

$$$$
