AV-unprocessed.smi:2299|AV-procd|sdf|9230|dock4
  -GOLD-   2272012453D 1   1.00000     0.00000
 Structure written by MMmdl.
 42 43  0  0  0  0  0  0  0  0  1 V2000
  148.1805  135.1955  157.2577 C   0  0  0  0  0  0  0  0  0  0  0  0
  149.3424  136.0425  157.7976 C   0  0  0  0  0  0  0  0  0  0  0  0
  148.8572  137.1319  158.7656 C   0  0  0  0  0  0  0  0  0  0  0  0
  150.1699  136.6219  156.6809 C   0  0  0  0  0  0  0  0  0  0  0  0
  149.8877  136.4258  155.3950 N   0  0  0  0  0  0  0  0  0  0  0  0
  150.8806  137.1017  154.6999 C   0  0  0  0  0  0  0  0  0  0  0  0
  151.7386  137.6899  155.5947 C   0  0  0  0  0  0  0  0  0  0  0  0
  151.2687  137.3856  156.8737 N   0  0  0  0  0  0  0  0  0  0  0  0
  151.8423  137.7823  158.1619 C   0  0  0  0  0  0  0  0  0  0  0  0
  152.4162  139.2022  158.1940 C   0  0  0  0  0  0  0  0  0  0  0  0
  153.6288  139.3791  158.0800 O   0  0  0  0  0  0  0  0  0  0  0  0
  151.5317  140.1999  158.3501 N   0  0  0  0  0  0  0  0  0  0  0  0
  151.8465  141.6287  158.3683 C   0  0  2  0  0  0  0  0  0  0  0  0
  151.9348  142.1352  159.8252 C   0  0  0  0  0  0  0  0  0  0  0  0
  152.7633  143.4193  159.9923 C   0  0  0  0  0  0  0  0  0  0  0  0
  152.2011  144.6491  159.2640 C   0  0  0  0  0  0  0  0  0  0  0  0
  152.2086  144.5157  157.7316 C   0  0  0  0  0  0  0  0  0  0  0  0
  151.0995  143.7117  157.2334 N   0  0  0  0  0  0  0  0  0  0  0  0
  150.8627  142.4143  157.4805 C   0  0  0  0  0  0  0  0  0  0  0  0
  149.8702  141.8600  157.0083 O   0  0  0  0  0  0  0  0  0  0  0  0
  148.5468  134.3920  156.6180 H   0  0  0  0  0  0  0  0  0  0  0  0
  147.4868  135.7985  156.6709 H   0  0  0  0  0  0  0  0  0  0  0  0
  147.6166  134.7385  158.0713 H   0  0  0  0  0  0  0  0  0  0  0  0
  149.9631  135.3663  158.3829 H   0  0  0  0  0  0  0  0  0  0  0  0
  149.6982  137.6810  159.1904 H   0  0  0  0  0  0  0  0  0  0  0  0
  148.2939  136.6995  159.5929 H   0  0  0  0  0  0  0  0  0  0  0  0
  148.2092  137.8511  158.2635 H   0  0  0  0  0  0  0  0  0  0  0  0
  150.9042  137.1090  153.6202 H   0  0  0  0  0  0  0  0  0  0  0  0
  152.6213  138.2862  155.4161 H   0  0  0  0  0  0  0  0  0  0  0  0
  151.0689  137.7038  158.9270 H   0  0  0  0  0  0  0  0  0  0  0  0
  152.6277  137.0714  158.4227 H   0  0  0  0  0  0  0  0  0  0  0  0
  150.5544  139.9568  158.4281 H   0  0  0  0  0  0  0  0  0  0  0  0
  152.8283  141.7421  157.9044 H   0  0  0  0  0  0  0  0  0  0  0  0
  150.9333  142.2806  160.2329 H   0  0  0  0  0  0  0  0  0  0  0  0
  152.3975  141.3694  160.4494 H   0  0  0  0  0  0  0  0  0  0  0  0
  152.8327  143.6491  161.0562 H   0  0  0  0  0  0  0  0  0  0  0  0
  153.7867  143.2369  159.6620 H   0  0  0  0  0  0  0  0  0  0  0  0
  151.1955  144.8760  159.6211 H   0  0  0  0  0  0  0  0  0  0  0  0
  152.8146  145.5089  159.5350 H   0  0  0  0  0  0  0  0  0  0  0  0
  152.1072  145.5063  157.2876 H   0  0  0  0  0  0  0  0  0  0  0  0
  153.1595  144.1175  157.3746 H   0  0  0  0  0  0  0  0  0  0  0  0
  150.4341  144.1922  156.6450 H   0  0  0  0  0  0  0  0  0  0  0  0
  1  2  1  0  0  0  0
  1 21  1  0  0  0  0
  1 22  1  0  0  0  0
  1 23  1  0  0  0  0
  2  3  1  0  0  0  0
  2  4  1  0  0  0  0
  2 24  1  0  0  0  0
  3 25  1  0  0  0  0
  3 26  1  0  0  0  0
  3 27  1  0  0  0  0
  4  8  1  0  0  0  0
  4  5  2  0  0  0  0
  5  6  1  0  0  0  0
  6  7  2  0  0  0  0
  6 28  1  0  0  0  0
  7  8  1  0  0  0  0
  7 29  1  0  0  0  0
  8  9  1  0  0  0  0
  9 10  1  0  0  0  0
  9 30  1  0  0  0  0
  9 31  1  0  0  0  0
 10 11  2  0  0  0  0
 10 12  1  0  0  0  0
 12 13  1  0  0  0  0
 12 32  1  0  0  0  0
 13 19  1  0  0  0  0
 13 14  1  0  0  0  0
 13 33  1  0  0  0  0
 14 15  1  0  0  0  0
 14 34  1  0  0  0  0
 14 35  1  0  0  0  0
 15 16  1  0  0  0  0
 15 36  1  0  0  0  0
 15 37  1  0  0  0  0
 16 17  1  0  0  0  0
 16 38  1  0  0  0  0
 16 39  1  0  0  0  0
 17 18  1  0  0  0  0
 17 40  1  0  0  0  0
 17 41  1  0  0  0  0
 18 19  1  0  0  0  0
 18 42  1  0  0  0  0
 19 20  2  0  0  0  0
M  END
> <s_m_source_file>
AV-unprocessed.smi

> <i_m_source_file_index>
2299

> <i_lp_mmshare_version>
43012

> <i_f3d_flags>
0

> <s_epik_input>
W0NIM11bQ0hdKFtDSDNdKWMxbltjSF1bY0hdbjFbQ0gyXUMoPU8pW05IXVtDQEBIXTJbQ0gyXVtDSDJdW0NIMl1bQ0gyXVtOSF1DMj1P

> <s_epik_cmdline>
J2VwaWtfcHl0aG9uJywgJy1waCcsICc3LjAnLCAnLXRuJywgJzgnLCAnLW1hJywgJzIwMCcsICctbWV0YWxfYmluZGluZycsICctaW1hZScsICc8aW5maWxlLm1hZT4nLCAnLW9tYWUnLCAnPG91dGZpbGUubWFlPic=

> <r_lp_tautomer_probability>
1

> <r_epik_Ionization_Penalty>
0.557868

> <r_epik_Ionization_Penalty_Charging>
0.557868

> <r_epik_Ionization_Penalty_Neutral>
1.99744e-07

> <r_epik_State_Penalty>
0.568774

> <r_epik_Charging_Adjusted_Penalty>
1.12664

> <i_epik_Tot_Q>
0

> <i_epik_Tot_abs_Q>
0

> <r_epik_Metal_State_Penalty>
0.289303

> <b_epik_Metal_Only>
0

> <s_lp_Force_Field>
OPLS_2005

> <r_lp_Energy>
12.6328

> <b_lp_Chiralities_Consistent>
1

> <s_lp_Variant>
AV-unprocessed.smi:2299-3

> <Gold.Version>
5.8.1

> <Gold.Id.Protein>
6NUR|6NUR_protein|mol2

> <Gold.PLP.Fitness>
40.1893

> <Gold.PLP.PLP>
-32.5121

> <Gold.PLP.part.hbond>
-1.7955

> <Gold.PLP.part.metal>
0.0000

> <Gold.PLP.part.buried>
-5.6304

> <Gold.PLP.part.nonpolar>
-26.1303

> <Gold.PLP.part.repulsive>
0.3359

> <Gold.PLP.ligand.clash>
0.0000

> <Gold.PLP.ligand.torsion>
0.8615

> <Gold.PLP.Chemscore.Hbond>
1.9920

> <Gold.PLP.Chemscore.CHOScore>
1.1177

> <Gold.PLP.Chemscore.Metal>
0.0000

> <Gold.Chemscore.Hbonds>
donor molecule, donor type, donor heavy atom, donor atom, acceptor molecule, acceptor atom, score
      L1  H    18    42       P1  8028  1.00
      P1  H  7997  8009       L1    11  1.00
      L1  C     6    28       P1  7948  0.15
      L1  C     6    28       P1  7949  0.96

> <Gold.PLP.Chemscore.Internal.Correction>
0.0710

> <Gold.Rescore>
     Score         DG    S(hbond)    S(metal)    S(lipo)     H(rot)  DE(clash)    DE(int)     intcor
     16.52     -17.34       1.98        0.00      81.98       1.70       0.04       0.78       ----

> <Gold.Chemscore.Fitness>
16.5231

> <Gold.Chemscore.DG>
-17.3408

> <Gold.Chemscore.ZeroCoef>
-5.4800

> <Gold.Chemscore.Hbond>
1.9827

> <Gold.Chemscore.Metal>
0.0000

> <Gold.Chemscore.Lipo>
81.9810

> <Gold.Chemscore.Internal_Hbond>
0.0000

> <Gold.Chemscore.DEClash>
0.0383

> <Gold.Chemscore.DEInternal>
0.7794

> <Gold.Chemscore.Rot>
1.7004

> <Gold.Chemscore.Internal.Correction>
   9.000000E+99

> <Gold.Chemscore.Hbonds>
donor molecule, donor type, donor heavy atom, donor atom, acceptor molecule, acceptor atom, score
      L1  H    18    42       P1  8028  1.00
      P1  H  7997  8009       L1    11  0.95

> <Gold.Chemscore.Hbond.Weighted>
-6.6221

> <Gold.Chemscore.Metal.Weighted>
-0.0000

> <Gold.Chemscore.Lipo.Weighted>
-9.5918

> <Gold.Chemscore.Internal_Hbond.Weighted>
0.0000

> <Gold.Chemscore.DEClash.Weighted>
0.0383

> <Gold.Chemscore.DEInternal.Weighted>
0.7794

> <Gold.Chemscore.Rot.Weighted>
4.3530

> <Gold.Chemscore.Internal.Correction.Weighted>
   9.000000E+99

> <Gold.Protein.RotatedTorsions>
[ 6907 6896 6895 6894 ] final   75.11 input  -60.11 | X-H torsion
[ 7974 7965 7964 7962 ] final -113.91 input  175.53 | X-H torsion
[ 8008 7997 7996 7995 ] final  169.55 input   59.86 | X-H torsion
[ 10167 10162 10161 10158 ] final  -37.50 input  -65.29 | X-H torsion
[ 10718 10713 10712 10709 ] final  134.69 input   66.30 | X-H torsion
[ 10763 10752 10751 10750 ] final  -70.63 input  -60.55 | X-H torsion
[ 11005 11000 10999 10996 ] final   12.96 input  -57.11 | X-H torsion

> <Gold.Protein.ActiveResidues>
 VAL166  LYS551  ARG553  GLY616  TRP617  ASP618  TYR619  PRO620  LYS621  CYS622 
 ASP623  PHE694  ASN695  SER759  ASP760  ASP761  ALA762  ILE779  LEU786  VAL792 
 PHE793  MET794  SER795  GLU796  ALA797  LYS798  CYS799  TRP800  GLU811  SER814 

> <Gold.Protein.RotatedAtoms>
  152.5009  134.4170  159.9467 H   0  0  0  0  0  0  0  0  0  0  0  0  # atno 6907 bound_to 6896
  151.4141  133.3712  159.2755 H   0  0  0  0  0  0  0  0  0  0  0  0  # atno 6908 bound_to 6896
  150.9270  134.8708  159.7586 H   0  0  0  0  0  0  0  0  0  0  0  0  # atno 6909 bound_to 6896
  145.1264  140.8699  143.3784 H   0  0  0  0  0  0  0  0  0  0  0  0  # atno 7974 bound_to 7965
  156.1447  140.1561  156.8865 H   0  0  0  0  0  0  0  0  0  0  0  0  # atno 8008 bound_to 7997
  154.5018  140.0823  156.7851 H   0  0  0  0  0  0  0  0  0  0  0  0  # atno 8009 bound_to 7997
  155.4011  140.3414  155.4259 H   0  0  0  0  0  0  0  0  0  0  0  0  # atno 8010 bound_to 7997
  140.7116  143.3337  151.2510 H   0  0  0  0  0  0  0  0  0  0  0  0  # atno 10167 bound_to 10162
  157.4647  131.1076  150.9877 H   0  0  0  0  0  0  0  0  0  0  0  0  # atno 10718 bound_to 10713
  154.4204  135.5988  153.6006 H   0  0  0  0  0  0  0  0  0  0  0  0  # atno 10763 bound_to 10752
  152.9793  135.5951  154.3962 H   0  0  0  0  0  0  0  0  0  0  0  0  # atno 10764 bound_to 10752
  154.3787  135.2841  155.2203 H   0  0  0  0  0  0  0  0  0  0  0  0  # atno 10765 bound_to 10752
  140.4861  134.0887  155.7761 H   0  0  0  0  0  0  0  0  0  0  0  0  # atno 11005 bound_to 11000
  145.0684  139.3051  143.5845 LP  0  0  0  0  0  0  0  0  0  0  0  0  # atno 17320 bound_to 7965
  146.3517  140.0150  142.8663 LP  0  0  0  0  0  0  0  0  0  0  0  0  # atno 17321 bound_to 7965
  139.6827  143.9827  152.2817 LP  0  0  0  0  0  0  0  0  0  0  0  0  # atno 17342 bound_to 10162
  139.9462  144.6650  150.8217 LP  0  0  0  0  0  0  0  0  0  0  0  0  # atno 17343 bound_to 10162
  157.0662  130.5845  149.5394 LP  0  0  0  0  0  0  0  0  0  0  0  0  # atno 17370 bound_to 10713
  156.0045  130.5129  150.7780 LP  0  0  0  0  0  0  0  0  0  0  0  0  # atno 17371 bound_to 10713
  141.1507  133.8973  157.2104 LP  0  0  0  0  0  0  0  0  0  0  0  0  # atno 17394 bound_to 11000
  139.9797  135.0102  156.9719 LP  0  0  0  0  0  0  0  0  0  0  0  0  # atno 17395 bound_to 11000

$$$$
