#       Name:                AV-unprocessed.smi:692
#       Creating user name   scv26
#       Creation time:       Fri Mar 27 00:34:55 2020


#       File generated by GOLD software.
#

@<TRIPOS>MOLECULE
AV-unprocessed.smi:692
    42    43     1
SMALL
NO_CHARGES


@<TRIPOS>ATOM
      1 ****        -6.6534   0.8510   1.0366 C.3            1 S1                 0.0000
      2 ****        -5.9277   0.4872  -0.2634 C.3            1 S1                 0.0000
      3 ****        -4.5755   1.1255  -0.3584 C.2            1 S1                 0.0000
      4 ****        -4.2386   2.2374  -1.0857 C.2            1 S1                 0.0000
      5 ****        -2.5546   2.6383  -0.9048 S.3            1 S1                 0.0000
      6 ****        -2.3518   1.2525   0.1693 C.2            1 S1                 0.0000
      7 ****        -1.1997   0.9000   0.7623 N.pl3          1 S1                -1.0000
      8 ****        -0.2775   0.1865   0.0770 C.2            1 S1                 0.0000
      9 ****        -0.3709  -0.1973  -1.0912 O.2            1 S1                 0.0000
     10 ****         0.8228  -0.0968   0.7889 N.am           1 S1                 0.0000
     11 ****         1.9826  -0.8468   0.3147 C.3            1 S1                 0.0000
     12 ****         2.7657  -1.3979   1.5074 C.3            1 S1                 0.0000
     13 ****         3.9637  -2.2243   1.0252 C.3            1 S1                 0.0000
     14 ****         4.7932  -1.5294  -0.0654 C.2            1 S1                 0.0000
     15 ****         5.9398  -1.9316  -0.2662 O.2            1 S1                 0.0000
     16 ****         4.2361  -0.5276  -0.7883 N.am           1 S1                 0.0000
     17 ****         4.9965   0.1240  -1.8561 C.3            1 S1                 0.0000
     18 ****         2.9029   0.0437  -0.5427 C.3            1 S1                 0.0000
     19 ****        -3.4976   0.5862   0.3487 N.2            1 S1                 0.0000
     20 ****        -7.6341   0.3771   1.0801 H              1 S1                 0.0000
     21 ****        -6.7991   1.9286   1.1166 H              1 S1                 0.0000
     22 ****        -6.0864   0.5238   1.9088 H              1 S1                 0.0000
     23 ****        -5.8331  -0.5971  -0.3312 H              1 S1                 0.0000
     24 ****        -6.5425   0.7868  -1.1126 H              1 S1                 0.0000
     25 ****        -4.8746   2.8438  -1.7124 H              1 S1                 0.0000
     26 ****         0.8542   0.2372   1.7409 H              1 S1                 0.0000
     27 ****         1.6390  -1.6921  -0.2853 H              1 S1                 0.0000
     28 ****         3.1116  -0.5797   2.1410 H              1 S1                 0.0000
     29 ****         2.1194  -2.0200   2.1279 H              1 S1                 0.0000
     30 ****         4.6079  -2.4703   1.8701 H              1 S1                 0.0000
     31 ****         3.6110  -3.1720   0.6170 H              1 S1                 0.0000
     32 ****         5.2131  -0.5843  -2.6569 H              1 S1                 0.0000
     33 ****         5.9433   0.5118  -1.4770 H              1 S1                 0.0000
     34 ****         4.4548   0.9635  -2.2941 H              1 S1                 0.0000
     35 ****         2.4122   0.2556  -1.4939 H              1 S1                 0.0000
     36 ****         3.0477   1.0053  -0.0477 H              1 S1                 0.0000
     37 ****        -1.0237   1.1650   1.7104 LP             1 S1                 0.0000
     38 ****        -1.1901   0.0160  -1.6236 LP             1 S1                 0.0000
     39 ****         0.3725  -0.7218  -1.5061 LP             1 S1                 0.0000
     40 ****         6.3055  -2.6897   0.2737 LP             1 S1                 0.0000
     41 ****         6.5051  -1.5000  -0.9691 LP             1 S1                 0.0000
     42 ****        -3.5755  -0.2213   0.9334 LP             1 S1                 0.0000
@<TRIPOS>BOND
    1    1    2 1     
    2    1   20 1     
    3    1   21 1     
    4    1   22 1     
    5    2    3 1     
    6    2   23 1     
    7    2   24 1     
    8    3   19 1     
    9    3    4 2     
   10    4    5 1     
   11    4   25 1     
   12    5    6 1     
   13    6    7 1     
   14    6   19 2     
   15    7    8 1     
   16    8    9 2     
   17    8   10 am    
   18   10   11 1     
   19   10   26 1     
   20   11   18 1     
   21   11   12 1     
   22   11   27 1     
   23   12   13 1     
   24   12   28 1     
   25   12   29 1     
   26   13   14 1     
   27   13   30 1     
   28   13   31 1     
   29   14   15 2     
   30   14   16 am    
   31   16   17 1     
   32   16   18 1     
   33   17   32 1     
   34   17   33 1     
   35   17   34 1     
   36   18   35 1     
   37   18   36 1     
   38    7   37 1     
   39    9   38 1     
   40    9   39 1     
   41   15   40 1     
   42   15   41 1     
   43   19   42 1     
@<TRIPOS>SUBSTRUCTURE
      1 S1             1
@<TRIPOS>SET
LONE_PAIRS      STATIC     ATOMS    <user>   **** ""
6 37 38 39 40 41 42
DONOR_HYDROGENS      STATIC     ATOMS    <user>   **** ""
1 26
ATOM$BLUE        STATIC     ATOMS    COLORGROUP SYSTEM
6 37 38 39 40 41 42
ATOM$RED        STATIC     ATOMS    COLORGROUP SYSTEM
1 26
