AV-unprocessed.smi:3331|AV-procd|sdf|12828|dock10
  -GOLD-   2272019203D 1   1.00000     0.00000
 Structure written by MMmdl.
 46 47  0  0  0  0  0  0  0  0  1 V2000
  153.0853  142.7610  160.1763 C   0  0  0  0  0  0  0  0  0  0  0  0
  152.0649  141.9888  159.3286 C   0  0  1  0  0  0  0  0  0  0  0  0
  151.4047  142.9014  158.2692 C   0  0  0  0  0  0  0  0  0  0  0  0
  150.4760  142.1307  157.3035 C   0  0  2  0  0  0  0  0  0  0  0  0
  149.1219  141.7880  157.9501 C   0  0  0  0  0  0  0  0  0  0  0  0
  151.2097  140.8882  156.7529 C   0  0  0  0  0  0  0  0  0  0  0  0
  151.6780  140.0550  157.8699 N   0  0  0  0  0  0  0  0  0  0  0  0
  151.2034  138.8325  158.2221 C   0  0  0  0  0  0  0  0  0  0  0  0
  151.6827  138.1964  159.1633 O   0  0  0  0  0  0  0  0  0  0  0  0
  150.0296  138.1941  157.4414 C   0  0  1  0  0  0  0  0  0  0  0  0
  150.5290  136.9726  156.6539 C   0  0  0  0  0  0  0  0  0  0  0  0
  148.8989  137.7962  158.3012 N   0  0  0  0  0  0  0  0  0  0  0  0
  149.2038  136.6797  159.1897 C   0  0  0  0  0  0  0  0  0  0  0  0
  147.9245  135.8727  159.4516 C   0  0  0  0  0  0  0  0  0  0  0  0
  147.5248  135.9438  160.8438 N   0  0  0  0  0  0  0  0  0  0  0  0
  147.2410  134.9074  161.7082 C   0  0  0  0  0  0  0  0  0  0  0  0
  146.9147  135.4615  162.9130 C   0  0  0  0  0  0  0  0  0  0  0  0
  147.0294  136.8610  162.6832 C   0  0  0  0  0  0  0  0  0  0  0  0
  147.3935  137.1467  161.4434 N   0  0  0  0  0  0  0  0  0  0  0  0
  152.7038  140.7565  158.6539 C   0  0  0  0  0  0  0  0  0  0  0  0
  153.9060  143.1370  159.5648 H   0  0  0  0  0  0  0  0  0  0  0  0
  153.5121  142.1247  160.9520 H   0  0  0  0  0  0  0  0  0  0  0  0
  152.6191  143.6139  160.6701 H   0  0  0  0  0  0  0  0  0  0  0  0
  151.2855  141.6335  160.0042 H   0  0  0  0  0  0  0  0  0  0  0  0
  150.8586  143.7120  158.7536 H   0  0  0  0  0  0  0  0  0  0  0  0
  152.1901  143.3791  157.6817 H   0  0  0  0  0  0  0  0  0  0  0  0
  150.2609  142.7877  156.4599 H   0  0  0  0  0  0  0  0  0  0  0  0
  149.2354  141.1390  158.8183 H   0  0  0  0  0  0  0  0  0  0  0  0
  148.4676  141.2803  157.2414 H   0  0  0  0  0  0  0  0  0  0  0  0
  148.6076  142.6907  158.2800 H   0  0  0  0  0  0  0  0  0  0  0  0
  150.5915  140.3610  156.0294 H   0  0  0  0  0  0  0  0  0  0  0  0
  152.0784  141.2103  156.1767 H   0  0  0  0  0  0  0  0  0  0  0  0
  149.6224  138.9112  156.7318 H   0  0  0  0  0  0  0  0  0  0  0  0
  151.3352  137.2405  155.9701 H   0  0  0  0  0  0  0  0  0  0  0  0
  149.7274  136.5383  156.0556 H   0  0  0  0  0  0  0  0  0  0  0  0
  150.9045  136.1939  157.3196 H   0  0  0  0  0  0  0  0  0  0  0  0
  148.0740  137.5889  157.7563 H   0  0  0  0  0  0  0  0  0  0  0  0
  149.9596  136.0281  158.7505 H   0  0  0  0  0  0  0  0  0  0  0  0
  149.6060  137.0582  160.1305 H   0  0  0  0  0  0  0  0  0  0  0  0
  147.1032  136.2398  158.8339 H   0  0  0  0  0  0  0  0  0  0  0  0
  148.0750  134.8243  159.1891 H   0  0  0  0  0  0  0  0  0  0  0  0
  147.2953  133.8741  161.3987 H   0  0  0  0  0  0  0  0  0  0  0  0
  146.6368  134.9459  163.8203 H   0  0  0  0  0  0  0  0  0  0  0  0
  146.8592  137.6725  163.3754 H   0  0  0  0  0  0  0  0  0  0  0  0
  153.5170  141.0640  157.9945 H   0  0  0  0  0  0  0  0  0  0  0  0
  153.1669  140.1207  159.4098 H   0  0  0  0  0  0  0  0  0  0  0  0
  1  2  1  0  0  0  0
  1 21  1  0  0  0  0
  1 22  1  0  0  0  0
  1 23  1  0  0  0  0
  2 20  1  0  0  0  0
  2  3  1  0  0  0  0
  2 24  1  0  0  0  0
  3  4  1  0  0  0  0
  3 25  1  0  0  0  0
  3 26  1  0  0  0  0
  4  5  1  0  0  0  0
  4  6  1  0  0  0  0
  4 27  1  0  0  0  0
  5 28  1  0  0  0  0
  5 29  1  0  0  0  0
  5 30  1  0  0  0  0
  6  7  1  0  0  0  0
  6 31  1  0  0  0  0
  6 32  1  0  0  0  0
  7  8  1  0  0  0  0
  7 20  1  0  0  0  0
  8  9  2  0  0  0  0
  8 10  1  0  0  0  0
 10 11  1  0  0  0  0
 10 12  1  0  0  0  0
 10 33  1  0  0  0  0
 11 34  1  0  0  0  0
 11 35  1  0  0  0  0
 11 36  1  0  0  0  0
 12 13  1  0  0  0  0
 12 37  1  0  0  0  0
 13 14  1  0  0  0  0
 13 38  1  0  0  0  0
 13 39  1  0  0  0  0
 14 15  1  0  0  0  0
 14 40  1  0  0  0  0
 14 41  1  0  0  0  0
 15 19  1  0  0  0  0
 15 16  1  0  0  0  0
 16 17  2  0  0  0  0
 16 42  1  0  0  0  0
 17 18  1  0  0  0  0
 17 43  1  0  0  0  0
 18 19  2  0  0  0  0
 18 44  1  0  0  0  0
 20 45  1  0  0  0  0
 20 46  1  0  0  0  0
M  END
> <s_m_source_file>
AV-unprocessed.smi

> <i_m_source_file_index>
3331

> <i_lp_mmshare_version>
43012

> <i_f3d_flags>
0

> <s_epik_input>
W0NIM11bQ0BASF0xW0NIMl1bQ0BASF0oW0NIM10pW0NIMl1OKFtDSDJdMSlDKD1PKVtDQEhdKFtDSDNdKVtOSF1bQ0gyXVtDSDJdbjJbY0hdW2NIXVtjSF1uMg==

> <s_epik_cmdline>
J2VwaWtfcHl0aG9uJywgJy1waCcsICc3LjAnLCAnLXRuJywgJzgnLCAnLW1hJywgJzIwMCcsICctbWV0YWxfYmluZGluZycsICctaW1hZScsICc8aW5maWxlLm1hZT4nLCAnLW9tYWUnLCAnPG91dGZpbGUubWFlPic=

> <r_lp_tautomer_probability>
1

> <r_epik_Ionization_Penalty>
0.767994

> <r_epik_Ionization_Penalty_Charging>
0

> <r_epik_Ionization_Penalty_Neutral>
0.767994

> <r_epik_State_Penalty>
0.795453

> <r_epik_Charging_Adjusted_Penalty>
0.795453

> <i_epik_Tot_Q>
0

> <i_epik_Tot_abs_Q>
0

> <r_epik_Metal_State_Penalty>
0.794784

> <b_epik_Metal_Only>
0

> <s_lp_Force_Field>
OPLS_2005

> <r_lp_Energy>
29.1639

> <b_lp_Chiralities_Consistent>
1

> <s_lp_Variant>
AV-unprocessed.smi:3331-12

> <Gold.Version>
5.8.1

> <Gold.Id.Protein>
6NUR|6NUR_protein|mol2

> <Gold.PLP.Fitness>
43.0111

> <Gold.PLP.PLP>
-39.2138

> <Gold.PLP.part.hbond>
-2.0000

> <Gold.PLP.part.metal>
0.0000

> <Gold.PLP.part.buried>
-5.4343

> <Gold.PLP.part.nonpolar>
-32.6458

> <Gold.PLP.part.repulsive>
0.0000

> <Gold.PLP.ligand.clash>
0.0000

> <Gold.PLP.ligand.torsion>
0.7507

> <Gold.PLP.Chemscore.Hbond>
1.7500

> <Gold.PLP.Chemscore.CHOScore>
0.0000

> <Gold.PLP.Chemscore.Metal>
0.0000

> <Gold.Chemscore.Hbonds>
donor molecule, donor type, donor heavy atom, donor atom, acceptor molecule, acceptor atom, score
      P1  H  6931  6943       L1    19  0.79
      P1  H  6934  6947       L1    19  0.93

> <Gold.PLP.Chemscore.Internal.Correction>
0.0487

> <Gold.Rescore>
     Score         DG    S(hbond)    S(metal)    S(lipo)     H(rot)  DE(clash)    DE(int)     intcor
     16.02     -17.93       1.49        0.00     100.40       1.66       0.08       1.82       ----

> <Gold.Chemscore.Fitness>
16.0165

> <Gold.Chemscore.DG>
-17.9252

> <Gold.Chemscore.ZeroCoef>
-5.4800

> <Gold.Chemscore.Hbond>
1.4852

> <Gold.Chemscore.Metal>
0.0000

> <Gold.Chemscore.Lipo>
100.3988

> <Gold.Chemscore.Internal_Hbond>
0.0000

> <Gold.Chemscore.DEClash>
0.0849

> <Gold.Chemscore.DEInternal>
1.8238

> <Gold.Chemscore.Rot>
1.6649

> <Gold.Chemscore.Internal.Correction>
   9.000000E+99

> <Gold.Chemscore.Hbonds>
donor molecule, donor type, donor heavy atom, donor atom, acceptor molecule, acceptor atom, score
      P1  H  6931  6943       L1    19  0.12
      P1  H  6934  6947       L1    19  0.80

> <Gold.Chemscore.Hbond.Weighted>
-4.9606

> <Gold.Chemscore.Metal.Weighted>
-0.0000

> <Gold.Chemscore.Lipo.Weighted>
-11.7467

> <Gold.Chemscore.Internal_Hbond.Weighted>
0.0000

> <Gold.Chemscore.DEClash.Weighted>
0.0849

> <Gold.Chemscore.DEInternal.Weighted>
1.8238

> <Gold.Chemscore.Rot.Weighted>
4.2621

> <Gold.Chemscore.Internal.Correction.Weighted>
   9.000000E+99

> <Gold.Protein.RotatedTorsions>
[ 6907 6896 6895 6894 ] final -134.57 input  -60.11 | X-H torsion
[ 7974 7965 7964 7962 ] final -178.28 input  175.53 | X-H torsion
[ 8008 7997 7996 7995 ] final -127.57 input   59.86 | X-H torsion
[ 10167 10162 10161 10158 ] final   76.86 input  -65.29 | X-H torsion
[ 10718 10713 10712 10709 ] final   75.03 input   66.30 | X-H torsion
[ 10763 10752 10751 10750 ] final   77.63 input  -60.55 | X-H torsion
[ 11005 11000 10999 10996 ] final -123.10 input  -57.11 | X-H torsion

> <Gold.Protein.ActiveResidues>
 VAL166  LYS551  ARG553  GLY616  TRP617  ASP618  TYR619  PRO620  LYS621  CYS622 
 ASP623  PHE694  ASN695  SER759  ASP760  ASP761  ALA762  ILE779  LEU786  VAL792 
 PHE793  MET794  SER795  GLU796  ALA797  LYS798  CYS799  TRP800  GLU811  SER814 

> <Gold.Protein.RotatedAtoms>
  150.9875  133.6183  159.2713 H   0  0  0  0  0  0  0  0  0  0  0  0  # atno 6907 bound_to 6896
  151.3416  135.0864  159.9382 H   0  0  0  0  0  0  0  0  0  0  0  0  # atno 6908 bound_to 6896
  152.5235  133.9485  159.7715 H   0  0  0  0  0  0  0  0  0  0  0  0  # atno 6909 bound_to 6896
  144.7130  140.0893  143.6422 H   0  0  0  0  0  0  0  0  0  0  0  0  # atno 7974 bound_to 7965
  155.2484  140.0431  157.2983 H   0  0  0  0  0  0  0  0  0  0  0  0  # atno 8008 bound_to 7997
  154.5784  140.2394  155.8058 H   0  0  0  0  0  0  0  0  0  0  0  0  # atno 8009 bound_to 7997
  156.2175  140.2980  155.9882 H   0  0  0  0  0  0  0  0  0  0  0  0  # atno 8010 bound_to 7997
  139.9878  144.5780  150.7844 H   0  0  0  0  0  0  0  0  0  0  0  0  # atno 10167 bound_to 10162
  157.6617  130.9707  150.1295 H   0  0  0  0  0  0  0  0  0  0  0  0  # atno 10718 bound_to 10713
  153.0813  135.4907  154.8508 H   0  0  0  0  0  0  0  0  0  0  0  0  # atno 10763 bound_to 10752
  154.7154  135.3028  154.9134 H   0  0  0  0  0  0  0  0  0  0  0  0  # atno 10764 bound_to 10752
  153.9815  135.6789  153.4803 H   0  0  0  0  0  0  0  0  0  0  0  0  # atno 10765 bound_to 10752
  140.9945  134.0491  157.3614 H   0  0  0  0  0  0  0  0  0  0  0  0  # atno 11005 bound_to 11000
  145.9634  139.2817  143.1142 LP  0  0  0  0  0  0  0  0  0  0  0  0  # atno 17320 bound_to 7965
  145.9195  140.9125  143.0412 LP  0  0  0  0  0  0  0  0  0  0  0  0  # atno 17321 bound_to 7965
  140.7466  143.2893  151.3375 LP  0  0  0  0  0  0  0  0  0  0  0  0  # atno 17342 bound_to 10162
  139.6362  144.0625  152.2518 LP  0  0  0  0  0  0  0  0  0  0  0  0  # atno 17343 bound_to 10162
  156.2146  130.3669  149.8629 LP  0  0  0  0  0  0  0  0  0  0  0  0  # atno 17370 bound_to 10713
  156.6499  130.8739  151.3529 LP  0  0  0  0  0  0  0  0  0  0  0  0  # atno 17371 bound_to 10713
  139.9008  135.0163  156.7258 LP  0  0  0  0  0  0  0  0  0  0  0  0  # atno 17394 bound_to 11000
  140.6988  133.9325  155.8011 LP  0  0  0  0  0  0  0  0  0  0  0  0  # atno 17395 bound_to 11000

$$$$
