#       Name:                AV-unprocessed.smi:3313
#       Creating user name   scv26
#       Creation time:       Fri Mar 27 19:07:36 2020


#       File generated by GOLD software.
#

@<TRIPOS>MOLECULE
AV-unprocessed.smi:3313
    46    46     1
SMALL
NO_CHARGES


@<TRIPOS>ATOM
      1 ****        -3.3273  -1.6171   0.1590 C.3            1 S1                 0.0000
      2 ****        -2.5570  -0.8014   1.2107 C.3            1 S1                 0.0000
      3 ****        -2.1333  -1.6967   2.3915 C.3            1 S1                 0.0000
      4 ****        -1.5704  -0.9328   3.4909 N.pl3          1 S1                 0.0000
      5 ****        -2.2192  -0.4079   4.5887 C.2            1 S1                 0.0000
      6 ****        -1.2813   0.2327   5.3466 C.2            1 S1                 0.0000
      7 ****        -0.0718   0.0417   4.6218 C.2            1 S1                 0.0000
      8 ****        -0.2485  -0.6541   3.5099 N.2            1 S1                 0.0000
      9 ****        -1.3692  -0.1547   0.6084 N.4            1 S1                 1.0000
     10 ****        -1.6452   1.0496  -0.2056 C.3            1 S1                 0.0000
     11 ****        -0.3503   1.6825  -0.7524 C.3            1 S1                 0.0000
     12 ****         0.4465   0.7749  -1.6983 C.2            1 S1                 0.0000
     13 ****        -0.0900  -0.1984  -2.2285 O.2            1 S1                 0.0000
     14 ****         1.7331   1.1172  -1.8883 N.am           1 S1                 0.0000
     15 ****         2.7437   0.4472  -2.7160 C.3            1 S1                 0.0000
     16 ****         4.0455   1.2553  -2.5723 C.3            1 S1                 0.0000
     17 ****         2.3184   0.4415  -4.1997 C.3            1 S1                 0.0000
     18 ****         2.9896  -0.9920  -2.2158 C.3            1 S1                 0.0000
     19 ****        -4.1886  -2.1149   0.6054 H              1 S1                 0.0000
     20 ****        -2.6953  -2.3863  -0.2867 H              1 S1                 0.0000
     21 ****        -3.7046  -0.9877  -0.6466 H              1 S1                 0.0000
     22 ****        -3.2168  -0.0237   1.5990 H              1 S1                 0.0000
     23 ****        -2.9958  -2.2441   2.7747 H              1 S1                 0.0000
     24 ****        -1.4089  -2.4473   2.0704 H              1 S1                 0.0000
     25 ****        -3.2819  -0.5321   4.7377 H              1 S1                 0.0000
     26 ****        -1.4348   0.7563   6.2786 H              1 S1                 0.0000
     27 ****         0.9218   0.3861   4.8684 H              1 S1                 0.0000
     28 ****        -0.7607   0.1251   1.3652 H              1 S1                 0.0000
     29 ****        -2.3143   0.8015  -1.0297 H              1 S1                 0.0000
     30 ****        -2.1681   1.7803   0.4125 H              1 S1                 0.0000
     31 ****        -0.5958   2.5974  -1.2926 H              1 S1                 0.0000
     32 ****         0.2894   1.9779   0.0808 H              1 S1                 0.0000
     33 ****         2.0555   1.9408  -1.4007 H              1 S1                 0.0000
     34 ****         4.8527   0.8160  -3.1595 H              1 S1                 0.0000
     35 ****         4.3796   1.2921  -1.5346 H              1 S1                 0.0000
     36 ****         3.9161   2.2836  -2.9128 H              1 S1                 0.0000
     37 ****         2.1089   1.4506  -4.5567 H              1 S1                 0.0000
     38 ****         1.4261  -0.1610  -4.3701 H              1 S1                 0.0000
     39 ****         3.1058   0.0287  -4.8310 H              1 S1                 0.0000
     40 ****         3.8047  -1.4636  -2.7655 H              1 S1                 0.0000
     41 ****         2.1128  -1.6270  -2.3415 H              1 S1                 0.0000
     42 ****         3.2582  -1.0050  -1.1589 H              1 S1                 0.0000
     43 ****        -0.8802  -0.8333   0.0417 H              1 S1                 0.0000
     44 ****         0.4418  -0.9150   2.8351 LP             1 S1                 0.0000
     45 ****        -1.0515  -0.4017  -2.0435 LP             1 S1                 0.0000
     46 ****         0.4358  -0.7855  -2.8440 LP             1 S1                 0.0000
@<TRIPOS>BOND
    1    1    2 1     
    2    1   19 1     
    3    1   20 1     
    4    1   21 1     
    5    2    3 1     
    6    2    9 1     
    7    2   22 1     
    8    3    4 1     
    9    3   23 1     
   10    3   24 1     
   11    4    8 1     
   12    4    5 1     
   13    5    6 2     
   14    5   25 1     
   15    6    7 1     
   16    6   26 1     
   17    7    8 2     
   18    7   27 1     
   19    9   10 1     
   20    9   28 1     
   21    9   43 1     
   22   10   11 1     
   23   10   29 1     
   24   10   30 1     
   25   11   12 1     
   26   11   31 1     
   27   11   32 1     
   28   12   13 2     
   29   12   14 am    
   30   14   15 1     
   31   14   33 1     
   32   15   16 1     
   33   15   17 1     
   34   15   18 1     
   35   16   34 1     
   36   16   35 1     
   37   16   36 1     
   38   17   37 1     
   39   17   38 1     
   40   17   39 1     
   41   18   40 1     
   42   18   41 1     
   43   18   42 1     
   44    8   44 1     
   45   13   45 1     
   46   13   46 1     
@<TRIPOS>SUBSTRUCTURE
      1 S1             1
@<TRIPOS>SET
LONE_PAIRS      STATIC     ATOMS    <user>   **** ""
3 44 45 46
DONOR_HYDROGENS      STATIC     ATOMS    <user>   **** ""
3 28 43 33
ATOM$BLUE        STATIC     ATOMS    COLORGROUP SYSTEM
3 44 45 46
ATOM$RED        STATIC     ATOMS    COLORGROUP SYSTEM
3 28 43 33
