AV-unprocessed.smi:1574|AV-procd|sdf|6338|dock6
  -GOLD-   22720 6553D 1   1.00000     0.00000
 Structure written by MMmdl.
 40 41  0  0  0  0  0  0  0  0  1 V2000
  153.3692  141.0985  160.0206 C   0  0  0  0  0  0  0  0  0  0  0  0
  152.3156  142.1571  159.6571 C   0  0  1  0  0  0  0  0  0  0  0  0
  152.9743  143.5382  159.4626 C   0  0  0  0  0  0  0  0  0  0  0  0
  151.9442  144.6151  159.0882 C   0  0  0  0  0  0  0  0  0  0  0  0
  151.1560  144.2125  157.8343 C   0  0  0  0  0  0  0  0  0  0  0  0
  150.4880  142.8444  158.0249 C   0  0  0  0  0  0  0  0  0  0  0  0
  151.5126  141.7540  158.4001 C   0  0  2  0  0  0  0  0  0  0  0  0
  150.8033  140.5570  158.6887 O   0  0  0  0  0  0  0  0  0  0  0  0
  150.4584  139.7940  157.5416 C   0  0  0  0  0  0  0  0  0  0  0  0
  150.5007  138.3049  157.9115 C   0  0  0  0  0  0  0  0  0  0  0  0
  149.3405  137.9302  158.7130 N   0  0  0  0  0  0  0  0  0  0  0  0
  149.0129  136.6735  159.0525 C   0  0  0  0  0  0  0  0  0  0  0  0
  149.7032  135.6938  158.7729 O   0  0  0  0  0  0  0  0  0  0  0  0
  147.6984  136.4884  159.8103 C   0  0  0  0  0  0  0  0  0  0  0  0
  147.9368  136.0030  161.1571 N   0  0  0  0  0  0  0  0  0  0  0  0
  147.8503  134.7761  161.6748 C   0  0  0  0  0  0  0  0  0  0  0  0
  148.1539  134.7662  162.9640 N   0  0  0  0  0  0  0  0  0  0  0  0
  148.4478  136.0934  163.2281 N   0  0  0  0  0  0  0  0  0  0  0  0
  148.3189  136.8324  162.1605 N   0  0  0  0  0  0  0  0  0  0  0  0
  154.0899  140.9628  159.2136 H   0  0  0  0  0  0  0  0  0  0  0  0
  152.9071  140.1311  160.2191 H   0  0  0  0  0  0  0  0  0  0  0  0
  153.9220  141.3860  160.9153 H   0  0  0  0  0  0  0  0  0  0  0  0
  151.6200  142.2345  160.4942 H   0  0  0  0  0  0  0  0  0  0  0  0
  153.4942  143.8353  160.3742 H   0  0  0  0  0  0  0  0  0  0  0  0
  153.7337  143.4777  158.6817 H   0  0  0  0  0  0  0  0  0  0  0  0
  151.2553  144.7681  159.9199 H   0  0  0  0  0  0  0  0  0  0  0  0
  152.4459  145.5688  158.9217 H   0  0  0  0  0  0  0  0  0  0  0  0
  150.3998  144.9659  157.6117 H   0  0  0  0  0  0  0  0  0  0  0  0
  151.8244  144.1777  156.9732 H   0  0  0  0  0  0  0  0  0  0  0  0
  149.7421  142.9182  158.8156 H   0  0  0  0  0  0  0  0  0  0  0  0
  149.9465  142.5740  157.1185 H   0  0  0  0  0  0  0  0  0  0  0  0
  152.2104  141.5965  157.5748 H   0  0  0  0  0  0  0  0  0  0  0  0
  149.4689  140.0555  157.1646 H   0  0  0  0  0  0  0  0  0  0  0  0
  151.1694  140.0097  156.7433 H   0  0  0  0  0  0  0  0  0  0  0  0
  150.5441  137.6922  157.0097 H   0  0  0  0  0  0  0  0  0  0  0  0
  151.4045  138.0864  158.4811 H   0  0  0  0  0  0  0  0  0  0  0  0
  148.7168  138.6762  158.9849 H   0  0  0  0  0  0  0  0  0  0  0  0
  147.1585  137.4351  159.8627 H   0  0  0  0  0  0  0  0  0  0  0  0
  147.0569  135.7795  159.2849 H   0  0  0  0  0  0  0  0  0  0  0  0
  147.5683  133.8983  161.1127 H   0  0  0  0  0  0  0  0  0  0  0  0
  1  2  1  0  0  0  0
  1 20  1  0  0  0  0
  1 21  1  0  0  0  0
  1 22  1  0  0  0  0
  2  7  1  0  0  0  0
  2  3  1  0  0  0  0
  2 23  1  0  0  0  0
  3  4  1  0  0  0  0
  3 24  1  0  0  0  0
  3 25  1  0  0  0  0
  4  5  1  0  0  0  0
  4 26  1  0  0  0  0
  4 27  1  0  0  0  0
  5  6  1  0  0  0  0
  5 28  1  0  0  0  0
  5 29  1  0  0  0  0
  6  7  1  0  0  0  0
  6 30  1  0  0  0  0
  6 31  1  0  0  0  0
  7  8  1  0  0  0  0
  7 32  1  0  0  0  0
  8  9  1  0  0  0  0
  9 10  1  0  0  0  0
  9 33  1  0  0  0  0
  9 34  1  0  0  0  0
 10 11  1  0  0  0  0
 10 35  1  0  0  0  0
 10 36  1  0  0  0  0
 11 12  1  0  0  0  0
 11 37  1  0  0  0  0
 12 13  2  0  0  0  0
 12 14  1  0  0  0  0
 14 15  1  0  0  0  0
 14 38  1  0  0  0  0
 14 39  1  0  0  0  0
 15 19  1  0  0  0  0
 15 16  1  0  0  0  0
 16 17  2  0  0  0  0
 16 40  1  0  0  0  0
 17 18  1  0  0  0  0
 18 19  2  0  0  0  0
M  END
> <s_m_source_file>
AV-unprocessed.smi

> <i_m_source_file_index>
1574

> <i_lp_mmshare_version>
43012

> <i_f3d_flags>
0

> <s_epik_input>
W0NIM11bQ0BASF0xW0NIMl1bQ0gyXVtDSDJdW0NIMl1bQ0BIXTFPW0NIMl1bQ0gyXVtOSF1DKD1PKVtDSDJdbjJbY0hdbm5uMg==

> <s_epik_cmdline>
J2VwaWtfcHl0aG9uJywgJy1waCcsICc3LjAnLCAnLXRuJywgJzgnLCAnLW1hJywgJzIwMCcsICctbWV0YWxfYmluZGluZycsICctaW1hZScsICc8aW5maWxlLm1hZT4nLCAnLW9tYWUnLCAnPG91dGZpbGUubWFlPic=

> <r_lp_tautomer_probability>
1

> <r_epik_Ionization_Penalty>
1.44269e-06

> <r_epik_Ionization_Penalty_Charging>
0

> <r_epik_Ionization_Penalty_Neutral>
1.44269e-06

> <r_epik_State_Penalty>
-0

> <r_epik_Charging_Adjusted_Penalty>
0

> <i_epik_Tot_Q>
0

> <i_epik_Tot_abs_Q>
0

> <r_epik_Metal_State_Penalty>
-0

> <b_epik_Metal_Only>
0

> <s_lp_Force_Field>
OPLS_2005

> <r_lp_Energy>
11.2802

> <b_lp_Chiralities_Consistent>
1

> <s_lp_Variant>
AV-unprocessed.smi:1574-4

> <Gold.Version>
5.8.1

> <Gold.Id.Protein>
6NUR|6NUR_protein|mol2

> <Gold.PLP.Fitness>
45.3428

> <Gold.PLP.PLP>
-39.6796

> <Gold.PLP.part.hbond>
-3.1153

> <Gold.PLP.part.metal>
0.0000

> <Gold.PLP.part.buried>
-6.6419

> <Gold.PLP.part.nonpolar>
-30.7041

> <Gold.PLP.part.repulsive>
0.2017

> <Gold.PLP.ligand.clash>
0.0000

> <Gold.PLP.ligand.torsion>
0.8661

> <Gold.PLP.Chemscore.Hbond>
2.4347

> <Gold.PLP.Chemscore.CHOScore>
0.0000

> <Gold.PLP.Chemscore.Metal>
0.0000

> <Gold.Chemscore.Hbonds>
donor molecule, donor type, donor heavy atom, donor atom, acceptor molecule, acceptor atom, score
      P1  H  6896  6907       L1    13  1.00
      P1  H  6931  6943       L1    19  1.00

> <Gold.PLP.Chemscore.Internal.Correction>
0.0913

> <Gold.Rescore>
     Score         DG    S(hbond)    S(metal)    S(lipo)     H(rot)  DE(clash)    DE(int)     intcor
     14.98     -15.79       2.31        0.00      85.72       2.90       0.00       0.80       ----

> <Gold.Chemscore.Fitness>
14.9845

> <Gold.Chemscore.DG>
-15.7874

> <Gold.Chemscore.ZeroCoef>
-5.4800

> <Gold.Chemscore.Hbond>
2.3100

> <Gold.Chemscore.Metal>
0.0000

> <Gold.Chemscore.Lipo>
85.7155

> <Gold.Chemscore.Internal_Hbond>
0.0000

> <Gold.Chemscore.DEClash>
0.0000

> <Gold.Chemscore.DEInternal>
0.8030

> <Gold.Chemscore.Rot>
2.9050

> <Gold.Chemscore.Internal.Correction>
   9.000000E+99

> <Gold.Chemscore.Hbonds>
donor molecule, donor type, donor heavy atom, donor atom, acceptor molecule, acceptor atom, score
      P1  H  6896  6907       L1    13  0.98
      P1  H  6931  6943       L1    19  0.98

> <Gold.Chemscore.Hbond.Weighted>
-7.7154

> <Gold.Chemscore.Metal.Weighted>
-0.0000

> <Gold.Chemscore.Lipo.Weighted>
-10.0287

> <Gold.Chemscore.Internal_Hbond.Weighted>
0.0000

> <Gold.Chemscore.DEClash.Weighted>
0.0000

> <Gold.Chemscore.DEInternal.Weighted>
0.8030

> <Gold.Chemscore.Rot.Weighted>
7.4367

> <Gold.Chemscore.Internal.Correction.Weighted>
   9.000000E+99

> <Gold.Protein.RotatedTorsions>
[ 6907 6896 6895 6894 ] final  -77.53 input  -60.11 | X-H torsion
[ 7974 7965 7964 7962 ] final  124.23 input  175.53 | X-H torsion
[ 8008 7997 7996 7995 ] final  -42.63 input   59.86 | X-H torsion
[ 10167 10162 10161 10158 ] final   40.38 input  -65.29 | X-H torsion
[ 10718 10713 10712 10709 ] final   67.79 input   66.30 | X-H torsion
[ 10763 10752 10751 10750 ] final -137.09 input  -60.55 | X-H torsion
[ 11005 11000 10999 10996 ] final  -92.16 input  -57.11 | X-H torsion

> <Gold.Protein.ActiveResidues>
 VAL166  LYS551  ARG553  GLY616  TRP617  ASP618  TYR619  PRO620  LYS621  CYS622 
 ASP623  PHE694  ASN695  SER759  ASP760  ASP761  ALA762  ILE779  LEU786  VAL792 
 PHE793  MET794  SER795  GLU796  ALA797  LYS798  CYS799  TRP800  GLU811  SER814 

> <Gold.Protein.RotatedAtoms>
  150.6996  134.4408  159.5291 H   0  0  0  0  0  0  0  0  0  0  0  0  # atno 6907 bound_to 6896
  152.2118  134.8491  160.0505 H   0  0  0  0  0  0  0  0  0  0  0  0  # atno 6908 bound_to 6896
  151.9374  133.3593  159.3989 H   0  0  0  0  0  0  0  0  0  0  0  0  # atno 6909 bound_to 6896
  145.0868  139.3616  143.4881 H   0  0  0  0  0  0  0  0  0  0  0  0  # atno 7974 bound_to 7965
  154.3998  140.1468  156.3386 H   0  0  0  0  0  0  0  0  0  0  0  0  # atno 8008 bound_to 7997
  155.8377  140.3463  155.5591 H   0  0  0  0  0  0  0  0  0  0  0  0  # atno 8009 bound_to 7997
  155.8121  140.0885  157.1888 H   0  0  0  0  0  0  0  0  0  0  0  0  # atno 8010 bound_to 7997
  140.3747  144.2058  150.6132 H   0  0  0  0  0  0  0  0  0  0  0  0  # atno 10167 bound_to 10162
  157.6251  130.9339  150.0289 H   0  0  0  0  0  0  0  0  0  0  0  0  # atno 10718 bound_to 10713
  154.8670  135.3653  154.5166 H   0  0  0  0  0  0  0  0  0  0  0  0  # atno 10763 bound_to 10752
  153.5799  135.7018  153.5473 H   0  0  0  0  0  0  0  0  0  0  0  0  # atno 10764 bound_to 10752
  153.3467  135.4083  155.1576 H   0  0  0  0  0  0  0  0  0  0  0  0  # atno 10765 bound_to 10752
  141.1528  133.7802  156.9980 H   0  0  0  0  0  0  0  0  0  0  0  0  # atno 11005 bound_to 11000
  146.3531  140.0684  142.8625 LP  0  0  0  0  0  0  0  0  0  0  0  0  # atno 17320 bound_to 7965
  145.1113  140.9407  143.4655 LP  0  0  0  0  0  0  0  0  0  0  0  0  # atno 17321 bound_to 7965
  140.4997  143.2321  151.8696 LP  0  0  0  0  0  0  0  0  0  0  0  0  # atno 17342 bound_to 10162
  139.4800  144.5073  151.8980 LP  0  0  0  0  0  0  0  0  0  0  0  0  # atno 17343 bound_to 10162
  156.1418  130.3642  149.9570 LP  0  0  0  0  0  0  0  0  0  0  0  0  # atno 17370 bound_to 10713
  156.7609  130.9151  151.3641 LP  0  0  0  0  0  0  0  0  0  0  0  0  # atno 17371 bound_to 10713
  140.0959  134.9565  157.1848 LP  0  0  0  0  0  0  0  0  0  0  0  0  # atno 17394 bound_to 11000
  140.3384  134.2732  155.7216 LP  0  0  0  0  0  0  0  0  0  0  0  0  # atno 17395 bound_to 11000

$$$$
