#       Name:                AV-unprocessed.smi:575
#       Creating user name   scv26
#       Creation time:       Thu Mar 26 23:48:46 2020


#       File generated by GOLD software.
#

@<TRIPOS>MOLECULE
AV-unprocessed.smi:575
    38    39     1
SMALL
NO_CHARGES


@<TRIPOS>ATOM
      1 ****        -6.3589  -2.2176  -0.7689 C.3            1 S1                 0.0000
      2 ****        -5.0555  -1.5169  -0.5939 C.2            1 S1                 0.0000
      3 ****        -3.7939  -1.9569  -0.3065 C.2            1 S1                 0.0000
      4 ****        -3.0337  -0.7573  -0.2861 C.2            1 S1                 0.0000
      5 ****        -1.6416  -0.7815  -0.0144 N.am           1 S1                 0.0000
      6 ****        -0.7973   0.2635   0.0256 C.2            1 S1                 0.0000
      7 ****        -1.1087   1.4351  -0.1910 O.2            1 S1                 0.0000
      8 ****         0.4487  -0.1275   0.3314 N.am           1 S1                 0.0000
      9 ****         1.6015   0.7597   0.4586 C.3            1 S1                 0.0000
     10 ****         2.2163   1.0591  -0.9244 C.3            1 S1                 0.0000
     11 ****         3.4715   1.9380  -0.8014 C.3            1 S1                 0.0000
     12 ****         4.5098   1.3021   0.1366 C.3            1 S1                 0.0000
     13 ****         3.9015   1.0024   1.5158 C.3            1 S1                 0.0000
     14 ****         2.6469   0.1222   1.3933 C.3            1 S1                 0.0000
     15 ****        -3.7654   0.3176  -0.5373 N.2            1 S1                 0.0000
     16 ****        -5.0649  -0.1637  -0.7356 O.3            1 S1                 0.0000
     17 ****        -6.2138  -3.2944  -0.8569 H              1 S1                 0.0000
     18 ****        -6.8682  -1.8711  -1.6682 H              1 S1                 0.0000
     19 ****        -7.0125  -2.0326   0.0835 H              1 S1                 0.0000
     20 ****        -3.4709  -2.9737  -0.1385 H              1 S1                 0.0000
     21 ****        -1.2479  -1.6914   0.1742 H              1 S1                 0.0000
     22 ****         0.6129  -1.1101   0.4936 H              1 S1                 0.0000
     23 ****         1.2763   1.6996   0.9094 H              1 S1                 0.0000
     24 ****         2.4767   0.1249  -1.4240 H              1 S1                 0.0000
     25 ****         1.4856   1.5570  -1.5630 H              1 S1                 0.0000
     26 ****         3.9100   2.0995  -1.7865 H              1 S1                 0.0000
     27 ****         3.1907   2.9215  -0.4227 H              1 S1                 0.0000
     28 ****         4.8854   0.3787  -0.3060 H              1 S1                 0.0000
     29 ****         5.3689   1.9649   0.2450 H              1 S1                 0.0000
     30 ****         4.6402   0.5104   2.1492 H              1 S1                 0.0000
     31 ****         3.6432   1.9385   2.0127 H              1 S1                 0.0000
     32 ****         2.2153  -0.0392   2.3820 H              1 S1                 0.0000
     33 ****         2.9318  -0.8610   1.0158 H              1 S1                 0.0000
     34 ****        -2.0546   1.6673  -0.4177 LP             1 S1                 0.0000
     35 ****        -0.4157   2.1542  -0.1402 LP             1 S1                 0.0000
     36 ****        -3.4564   1.2678  -0.5768 LP             1 S1                 0.0000
     37 ****        -5.6805   0.2411  -0.0595 LP             1 S1                 0.0000
     38 ****        -5.3759   0.0762  -1.6553 LP             1 S1                 0.0000
@<TRIPOS>BOND
    1    1    2 1     
    2    1   17 1     
    3    1   18 1     
    4    1   19 1     
    5    2   16 1     
    6    2    3 2     
    7    3    4 1     
    8    3   20 1     
    9    4    5 1     
   10    4   15 2     
   11    5    6 am    
   12    5   21 1     
   13    6    7 2     
   14    6    8 am    
   15    8    9 1     
   16    8   22 1     
   17    9   14 1     
   18    9   10 1     
   19    9   23 1     
   20   10   11 1     
   21   10   24 1     
   22   10   25 1     
   23   11   12 1     
   24   11   26 1     
   25   11   27 1     
   26   12   13 1     
   27   12   28 1     
   28   12   29 1     
   29   13   14 1     
   30   13   30 1     
   31   13   31 1     
   32   14   32 1     
   33   14   33 1     
   34   15   16 1     
   35    7   34 1     
   36    7   35 1     
   37   15   36 1     
   38   16   37 1     
   39   16   38 1     
@<TRIPOS>SUBSTRUCTURE
      1 S1             1
@<TRIPOS>SET
LONE_PAIRS      STATIC     ATOMS    <user>   **** ""
5 34 35 36 37 38
DONOR_HYDROGENS      STATIC     ATOMS    <user>   **** ""
2 21 22
ATOM$BLUE        STATIC     ATOMS    COLORGROUP SYSTEM
5 34 35 36 37 38
ATOM$RED        STATIC     ATOMS    COLORGROUP SYSTEM
2 21 22
