AV-unprocessed.smi:1539|AV-procd|sdf|6197|dock3
  -GOLD-   22720 6363D 1   1.00000     0.00000
 Structure written by MMmdl.
 41 42  0  0  0  0  0  0  0  0  1 V2000
  147.3740  137.7479  156.6932 C   0  0  0  0  0  0  0  0  0  0  0  0
  147.0543  139.2321  156.8871 C   0  0  0  0  0  0  0  0  0  0  0  0
  147.3095  139.7433  157.9779 O   0  0  0  0  0  0  0  0  0  0  0  0
  146.4942  139.9288  155.8676 N   0  0  0  0  0  0  0  0  0  0  0  0
  146.2460  139.3087  154.5574 C   0  0  0  0  0  0  0  0  0  0  0  0
  147.4917  139.3917  153.6495 C   0  0  0  0  0  0  0  0  0  0  0  0
  147.9804  140.8364  153.4019 C   0  0  0  0  0  0  0  0  0  0  0  0
  148.3789  141.4987  154.6590 N   0  0  0  0  0  0  0  0  0  0  0  0
  149.5999  141.3868  155.2449 C   0  0  0  0  0  0  0  0  0  0  0  0
  150.3929  140.4795  154.9886 O   0  0  0  0  0  0  0  0  0  0  0  0
  149.8954  142.3650  156.1186 N   0  0  0  0  0  0  0  0  0  0  0  0
  151.1483  142.4831  156.8541 C   0  0  0  0  0  0  0  0  0  0  0  0
  151.3360  143.9010  157.4168 C   0  0  0  0  0  0  0  0  0  0  0  0
  151.7482  143.8708  158.8051 N   0  0  0  0  0  0  0  0  0  0  0  0
  151.6717  144.9094  159.7233 C   0  0  0  0  0  0  0  0  0  0  0  0
  152.1739  144.4230  160.9091 C   0  0  0  0  0  0  0  0  0  0  0  0
  152.5615  143.0950  160.7448 N   0  0  0  0  0  0  0  0  0  0  0  0
  152.2792  142.8382  159.4739 C   0  0  0  0  0  0  0  0  0  0  0  0
  147.2873  142.2637  155.2896 C   0  0  0  0  0  0  0  0  0  0  0  0
  146.1833  141.3686  155.9158 C   0  0  0  0  0  0  0  0  0  0  0  0
  146.4957  137.1990  156.3534 H   0  0  0  0  0  0  0  0  0  0  0  0
  147.7010  137.3002  157.6323 H   0  0  0  0  0  0  0  0  0  0  0  0
  148.1750  137.6196  155.9650 H   0  0  0  0  0  0  0  0  0  0  0  0
  145.9426  138.2669  154.6747 H   0  0  0  0  0  0  0  0  0  0  0  0
  145.4043  139.7921  154.0605 H   0  0  0  0  0  0  0  0  0  0  0  0
  148.2975  138.7952  154.0788 H   0  0  0  0  0  0  0  0  0  0  0  0
  147.2586  138.9282  152.6907 H   0  0  0  0  0  0  0  0  0  0  0  0
  148.7991  140.8394  152.6809 H   0  0  0  0  0  0  0  0  0  0  0  0
  147.1843  141.4023  152.9166 H   0  0  0  0  0  0  0  0  0  0  0  0
  149.2044  143.0848  156.2734 H   0  0  0  0  0  0  0  0  0  0  0  0
  151.1840  141.7434  157.6561 H   0  0  0  0  0  0  0  0  0  0  0  0
  151.9649  142.2406  156.1734 H   0  0  0  0  0  0  0  0  0  0  0  0
  152.0874  144.4446  156.8424 H   0  0  0  0  0  0  0  0  0  0  0  0
  150.4084  144.4709  157.3462 H   0  0  0  0  0  0  0  0  0  0  0  0
  151.2769  145.8808  159.4637 H   0  0  0  0  0  0  0  0  0  0  0  0
  152.2844  144.9223  161.8606 H   0  0  0  0  0  0  0  0  0  0  0  0
  152.4612  141.8752  159.0194 H   0  0  0  0  0  0  0  0  0  0  0  0
  147.6641  142.9417  156.0567 H   0  0  0  0  0  0  0  0  0  0  0  0
  146.8409  142.9270  154.5473 H   0  0  0  0  0  0  0  0  0  0  0  0
  145.2477  141.5449  155.3837 H   0  0  0  0  0  0  0  0  0  0  0  0
  145.9662  141.7054  156.9293 H   0  0  0  0  0  0  0  0  0  0  0  0
  1  2  1  0  0  0  0
  1 21  1  0  0  0  0
  1 22  1  0  0  0  0
  1 23  1  0  0  0  0
  2  3  2  0  0  0  0
  2  4  1  0  0  0  0
  4 20  1  0  0  0  0
  4  5  1  0  0  0  0
  5  6  1  0  0  0  0
  5 24  1  0  0  0  0
  5 25  1  0  0  0  0
  6  7  1  0  0  0  0
  6 26  1  0  0  0  0
  6 27  1  0  0  0  0
  7  8  1  0  0  0  0
  7 28  1  0  0  0  0
  7 29  1  0  0  0  0
  8  9  1  0  0  0  0
  8 19  1  0  0  0  0
  9 10  2  0  0  0  0
  9 11  1  0  0  0  0
 11 12  1  0  0  0  0
 11 30  1  0  0  0  0
 12 13  1  0  0  0  0
 12 31  1  0  0  0  0
 12 32  1  0  0  0  0
 13 14  1  0  0  0  0
 13 33  1  0  0  0  0
 13 34  1  0  0  0  0
 14 18  1  0  0  0  0
 14 15  1  0  0  0  0
 15 16  2  0  0  0  0
 15 35  1  0  0  0  0
 16 17  1  0  0  0  0
 16 36  1  0  0  0  0
 17 18  2  0  0  0  0
 18 37  1  0  0  0  0
 19 20  1  0  0  0  0
 19 38  1  0  0  0  0
 19 39  1  0  0  0  0
 20 40  1  0  0  0  0
 20 41  1  0  0  0  0
M  END
> <s_m_source_file>
AV-unprocessed.smi

> <i_m_source_file_index>
1539

> <i_lp_mmshare_version>
43012

> <i_f3d_flags>
0

> <s_epik_input>
W0NIM11DKD1PKU4xW0NIMl1bQ0gyXVtDSDJdTihbQ0gyXVtDSDJdMSlDKD1PKVtOSF1bQ0gyXVtDSDJdbjJbY0hdW2NIXW5bY0hdMg==

> <s_epik_cmdline>
J2VwaWtfcHl0aG9uJywgJy1waCcsICc3LjAnLCAnLXRuJywgJzgnLCAnLW1hJywgJzIwMCcsICctbWV0YWxfYmluZGluZycsICctaW1hZScsICc8aW5maWxlLm1hZT4nLCAnLW9tYWUnLCAnPG91dGZpbGUubWFlPic=

> <r_lp_tautomer_probability>
1

> <r_epik_Ionization_Penalty>
0.624284

> <r_epik_Ionization_Penalty_Charging>
0.624238

> <r_epik_Ionization_Penalty_Neutral>
4.66445e-05

> <r_epik_State_Penalty>
0.64053

> <r_epik_Charging_Adjusted_Penalty>
1.26477

> <i_epik_Tot_Q>
0

> <i_epik_Tot_abs_Q>
0

> <r_epik_Metal_State_Penalty>
0.307534

> <b_epik_Metal_Only>
0

> <s_lp_Force_Field>
OPLS_2005

> <r_lp_Energy>
41.7081

> <b_lp_Chiralities_Consistent>
1

> <s_lp_Variant>
AV-unprocessed.smi:1539-2

> <Gold.Version>
5.8.1

> <Gold.Id.Protein>
6NUR|6NUR_protein|mol2

> <Gold.PLP.Fitness>
38.7040

> <Gold.PLP.PLP>
-35.5432

> <Gold.PLP.part.hbond>
-3.0000

> <Gold.PLP.part.metal>
0.0000

> <Gold.PLP.part.buried>
-1.0236

> <Gold.PLP.part.nonpolar>
-32.4379

> <Gold.PLP.part.repulsive>
0.2358

> <Gold.PLP.ligand.clash>
0.4147

> <Gold.PLP.ligand.torsion>
0.8992

> <Gold.PLP.Chemscore.Hbond>
1.7840

> <Gold.PLP.Chemscore.CHOScore>
0.0000

> <Gold.PLP.Chemscore.Metal>
0.0000

> <Gold.Chemscore.Hbonds>
donor molecule, donor type, donor heavy atom, donor atom, acceptor molecule, acceptor atom, score
      L1  H    11    30       P1  8028  0.74
      P1  H  7989  7998       L1    10  1.00

> <Gold.PLP.Chemscore.Internal.Correction>
0.0219

> <Gold.Rescore>
     Score         DG    S(hbond)    S(metal)    S(lipo)     H(rot)  DE(clash)    DE(int)     intcor
     12.64     -14.23       1.54        0.00      67.04       1.65       0.81       0.79       ----

> <Gold.Chemscore.Fitness>
12.6364

> <Gold.Chemscore.DG>
-14.2349

> <Gold.Chemscore.ZeroCoef>
-5.4800

> <Gold.Chemscore.Hbond>
1.5387

> <Gold.Chemscore.Metal>
0.0000

> <Gold.Chemscore.Lipo>
67.0405

> <Gold.Chemscore.Internal_Hbond>
0.0000

> <Gold.Chemscore.DEClash>
0.8130

> <Gold.Chemscore.DEInternal>
0.7855

> <Gold.Chemscore.Rot>
1.6516

> <Gold.Chemscore.Internal.Correction>
   9.000000E+99

> <Gold.Chemscore.Hbonds>
donor molecule, donor type, donor heavy atom, donor atom, acceptor molecule, acceptor atom, score
      L1  H    11    30       P1  8028  0.74
      P1  H  7989  7998       L1    10  0.81

> <Gold.Chemscore.Hbond.Weighted>
-5.1392

> <Gold.Chemscore.Metal.Weighted>
-0.0000

> <Gold.Chemscore.Lipo.Weighted>
-7.8437

> <Gold.Chemscore.Internal_Hbond.Weighted>
0.0000

> <Gold.Chemscore.DEClash.Weighted>
0.8130

> <Gold.Chemscore.DEInternal.Weighted>
0.7855

> <Gold.Chemscore.Rot.Weighted>
4.2280

> <Gold.Chemscore.Internal.Correction.Weighted>
   9.000000E+99

> <Gold.Protein.RotatedTorsions>
[ 6907 6896 6895 6894 ] final  159.98 input  -60.11 | X-H torsion
[ 7974 7965 7964 7962 ] final  119.03 input  175.53 | X-H torsion
[ 8008 7997 7996 7995 ] final    1.03 input   59.86 | X-H torsion
[ 10167 10162 10161 10158 ] final  179.55 input  -65.29 | X-H torsion
[ 10718 10713 10712 10709 ] final  154.00 input   66.30 | X-H torsion
[ 10763 10752 10751 10750 ] final -119.25 input  -60.55 | X-H torsion
[ 11005 11000 10999 10996 ] final -119.34 input  -57.11 | X-H torsion

> <Gold.Protein.ActiveResidues>
 VAL166  LYS551  ARG553  GLY616  TRP617  ASP618  TYR619  PRO620  LYS621  CYS622 
 ASP623  PHE694  ASN695  SER759  ASP760  ASP761  ALA762  ILE779  LEU786  VAL792 
 PHE793  MET794  SER795  GLU796  ALA797  LYS798  CYS799  TRP800  GLU811  SER814 

> <Gold.Protein.RotatedAtoms>
  151.9774  133.3746  159.4094 H   0  0  0  0  0  0  0  0  0  0  0  0  # atno 6907 bound_to 6896
  150.6939  134.4075  159.5156 H   0  0  0  0  0  0  0  0  0  0  0  0  # atno 6908 bound_to 6896
  152.1788  134.8771  160.0579 H   0  0  0  0  0  0  0  0  0  0  0  0  # atno 6909 bound_to 6896
  145.1481  139.3227  143.4581 H   0  0  0  0  0  0  0  0  0  0  0  0  # atno 7974 bound_to 7965
  154.6749  140.2620  155.6968 H   0  0  0  0  0  0  0  0  0  0  0  0  # atno 8008 bound_to 7997
  156.2674  140.2822  156.1194 H   0  0  0  0  0  0  0  0  0  0  0  0  # atno 8009 bound_to 7997
  155.1115  140.0375  157.2715 H   0  0  0  0  0  0  0  0  0  0  0  0  # atno 8010 bound_to 7997
  139.5341  144.2548  152.0755 H   0  0  0  0  0  0  0  0  0  0  0  0  # atno 10167 bound_to 10162
  157.2373  131.0752  151.1815 H   0  0  0  0  0  0  0  0  0  0  0  0  # atno 10718 bound_to 10713
  154.8612  135.4245  154.2269 H   0  0  0  0  0  0  0  0  0  0  0  0  # atno 10763 bound_to 10752
  153.3262  135.6985  153.6993 H   0  0  0  0  0  0  0  0  0  0  0  0  # atno 10764 bound_to 10752
  153.6027  135.3534  155.2925 H   0  0  0  0  0  0  0  0  0  0  0  0  # atno 10765 bound_to 10752
  141.0222  134.0107  157.3266 H   0  0  0  0  0  0  0  0  0  0  0  0  # atno 11005 bound_to 11000
  146.3498  140.1544  142.8592 LP  0  0  0  0  0  0  0  0  0  0  0  0  # atno 17320 bound_to 7965
  145.0460  140.8982  143.5024 LP  0  0  0  0  0  0  0  0  0  0  0  0  # atno 17321 bound_to 7965
  140.2016  144.4653  150.6429 LP  0  0  0  0  0  0  0  0  0  0  0  0  # atno 17342 bound_to 10162
  140.6537  143.2232  151.6017 LP  0  0  0  0  0  0  0  0  0  0  0  0  # atno 17343 bound_to 10162
  157.3415  130.7036  149.6384 LP  0  0  0  0  0  0  0  0  0  0  0  0  # atno 17370 bound_to 10713
  155.9672  130.4278  150.4762 LP  0  0  0  0  0  0  0  0  0  0  0  0  # atno 17371 bound_to 10713
  139.9153  135.0196  156.7857 LP  0  0  0  0  0  0  0  0  0  0  0  0  # atno 17394 bound_to 11000
  140.6553  133.9694  155.7776 LP  0  0  0  0  0  0  0  0  0  0  0  0  # atno 17395 bound_to 11000

$$$$
