#       Name:                AV-unprocessed.smi:255
#       Creating user name   scv26
#       Creation time:       Thu Mar 26 21:09:05 2020


#       File generated by GOLD software.
#

@<TRIPOS>MOLECULE
AV-unprocessed.smi:255
    54    57     1
SMALL
NO_CHARGES


@<TRIPOS>ATOM
      1 ****        -3.2825  -1.5457   3.7445 O.3            1 S1                 0.0000
      2 ****        -2.5029  -0.9936   2.7060 C.3            1 S1                 0.0000
      3 ****        -3.1823   0.2776   2.1509 C.3            1 S1                 0.0000
      4 ****        -3.2932   1.4360   3.1440 C.3            1 S1                 0.0000
      5 ****        -3.6136   2.6233   2.2337 C.3            1 S1                 0.0000
      6 ****        -2.9982   3.7300   2.6504 F              1 S1                 0.0000
      7 ****        -3.1439   2.1969   0.8314 C.3            1 S1                 0.0000
      8 ****        -2.5631   0.8606   0.9583 N.3            1 S1                 0.0000
      9 ****        -1.2087   0.8028   0.8876 C.ar           1 S1                 0.0000
     10 ****        -0.4386   1.7123   1.5433 N.ar           1 S1                 0.0000
     11 ****         0.8934   1.6195   1.4978 C.ar           1 S1                 0.0000
     12 ****         1.6459   0.7128   0.8709 N.ar           1 S1                 0.0000
     13 ****         0.8771  -0.1963   0.2049 C.ar           1 S1                 0.0000
     14 ****        -0.5448  -0.2243   0.1653 C.ar           1 S1                 0.0000
     15 ****        -0.9798  -1.3042  -0.5912 N.2            1 S1                 0.0000
     16 ****         0.1241  -1.8875  -0.9713 C.2            1 S1                 0.0000
     17 ****         1.2880  -1.2787  -0.5555 N.pl3          1 S1                 0.0000
     18 ****         2.6494  -1.7230  -0.8210 C.3            1 S1                 0.0000
     19 ****         3.2662  -1.2110  -2.1488 C.3            1 S1                 0.0000
     20 ****         4.5924  -1.7056  -2.1936 O.3            1 S1                 0.0000
     21 ****         2.5529  -1.6711  -3.4203 C.3            1 S1                 0.0000
     22 ****         2.8276  -0.5348  -4.3957 C.3            1 S1                 0.0000
     23 ****         2.7061   0.6095  -3.5698 O.3            1 S1                 0.0000
     24 ****         3.3219   0.3237  -2.3188 C.3            1 S1                 0.0000
     25 ****        -4.1918  -0.0034   1.8459 H              1 S1                 0.0000
     26 ****        -4.6838   2.8321   2.2261 H              1 S1                 0.0000
     27 ****        -3.3331  -0.9169   4.4483 H              1 S1                 0.0000
     28 ****        -1.5043  -0.7815   3.0900 H              1 S1                 0.0000
     29 ****        -2.4019  -1.7455   1.9228 H              1 S1                 0.0000
     30 ****        -4.0554   1.2720   3.9060 H              1 S1                 0.0000
     31 ****        -2.3396   1.5912   3.6508 H              1 S1                 0.0000
     32 ****        -3.9943   2.1413   0.1514 H              1 S1                 0.0000
     33 ****        -2.4467   2.9187   0.4030 H              1 S1                 0.0000
     34 ****         1.4331   2.3782   2.0450 H              1 S1                 0.0000
     35 ****         0.1179  -2.7868  -1.5698 H              1 S1                 0.0000
     36 ****         3.2725  -1.4121   0.0189 H              1 S1                 0.0000
     37 ****         2.6522  -2.8138  -0.8082 H              1 S1                 0.0000
     38 ****         5.0046  -1.3860  -2.9817 H              1 S1                 0.0000
     39 ****         2.8894  -2.6417  -3.7872 H              1 S1                 0.0000
     40 ****         1.4768  -1.7332  -3.2721 H              1 S1                 0.0000
     41 ****         3.8394  -0.5956  -4.7996 H              1 S1                 0.0000
     42 ****         2.1222  -0.5097  -5.2265 H              1 S1                 0.0000
     43 ****         2.7994   0.8668  -1.5350 H              1 S1                 0.0000
     44 ****         4.3479   0.6948  -2.3317 H              1 S1                 0.0000
     45 ****        -2.8566  -2.3880   4.0747 LP             1 S1                 0.0000
     46 ****        -4.2014  -1.7474   3.4057 LP             1 S1                 0.0000
     47 ****        -2.7740   0.2998   0.1577 LP             1 S1                 0.0000
     48 ****        -0.8701   2.4516   2.0603 LP             1 S1                 0.0000
     49 ****         2.6457   0.7014   0.8873 LP             1 S1                 0.0000
     50 ****        -1.9207  -1.5727  -0.7971 LP             1 S1                 0.0000
     51 ****         4.5796  -2.7054  -2.2011 LP             1 S1                 0.0000
     52 ****         5.0995  -1.3847  -1.3936 LP             1 S1                 0.0000
     53 ****         1.7397   0.8247  -3.4298 LP             1 S1                 0.0000
     54 ****         3.1619   1.3881  -4.0012 LP             1 S1                 0.0000
@<TRIPOS>BOND
    1    1    2 1     
    2    1   27 1     
    3    2    3 1     
    4    2   28 1     
    5    2   29 1     
    6    3   25 1     
    7    3    8 1     
    8    3    4 1     
    9    4    5 1     
   10    4   30 1     
   11    4   31 1     
   12    5   26 1     
   13    5    6 1     
   14    5    7 1     
   15    7    8 1     
   16    7   32 1     
   17    7   33 1     
   18    8    9 1     
   19    9   14 ar    
   20    9   10 ar    
   21   10   11 ar    
   22   11   12 ar    
   23   11   34 1     
   24   12   13 ar    
   25   13   17 1     
   26   13   14 ar    
   27   14   15 1     
   28   15   16 2     
   29   16   17 1     
   30   16   35 1     
   31   17   18 1     
   32   18   19 1     
   33   18   36 1     
   34   18   37 1     
   35   19   24 1     
   36   19   20 1     
   37   19   21 1     
   38   20   38 1     
   39   21   22 1     
   40   21   39 1     
   41   21   40 1     
   42   22   23 1     
   43   22   41 1     
   44   22   42 1     
   45   23   24 1     
   46   24   43 1     
   47   24   44 1     
   48    1   45 1     
   49    1   46 1     
   50    8   47 1     
   51   10   48 1     
   52   12   49 1     
   53   15   50 1     
   54   20   51 1     
   55   20   52 1     
   56   23   53 1     
   57   23   54 1     
@<TRIPOS>SUBSTRUCTURE
      1 S1             1
@<TRIPOS>SET
LONE_PAIRS      STATIC     ATOMS    <user>   **** ""
10 45 46 47 48 49 50 51 52 53 54
DONOR_HYDROGENS      STATIC     ATOMS    <user>   **** ""
2 27 38
ATOM$BLUE        STATIC     ATOMS    COLORGROUP SYSTEM
10 45 46 47 48 49 50 51 52 53 54
ATOM$RED        STATIC     ATOMS    COLORGROUP SYSTEM
2 27 38
