AV-unprocessed.smi:740|AV-procd|sdf|3549|dock5
  -GOLD-   22720 0543D 1   1.00000     0.00000
 Structure written by MMmdl.
 44 46  0  0  0  0  0  0  0  0  1 V2000
  153.7635  142.6996  163.5228 C   0  0  0  0  0  0  0  0  0  0  0  0
  153.1648  142.9122  162.1436 C   0  0  0  0  0  0  0  0  0  0  0  0
  152.3831  144.0646  161.9043 C   0  0  0  0  0  0  0  0  0  0  0  0
  151.8122  144.3022  160.6350 C   0  0  0  0  0  0  0  0  0  0  0  0
  151.0263  145.3496  160.1857 N   0  0  0  0  0  0  0  0  0  0  0  0
  150.8181  145.0032  158.9188 C   0  0  0  0  0  0  0  0  0  0  0  0
  151.3756  143.8533  158.4939 N   0  0  0  0  0  0  0  0  0  0  0  0
  151.2892  143.2852  157.1607 C   0  0  0  0  0  0  0  0  0  0  0  0
  150.7384  141.8463  157.1712 C   0  0  1  0  0  0  0  0  0  0  0  0
  149.5187  141.8344  157.8883 O   0  0  0  0  0  0  0  0  0  0  0  0
  150.4801  141.3241  155.7427 C   0  0  0  0  0  0  0  0  0  0  0  0
  150.7351  139.8832  155.6306 N   0  0  0  0  0  0  0  0  0  0  0  0
  149.9780  139.0406  154.9147 C   0  0  0  0  0  0  0  0  0  0  0  0
  148.9737  139.3348  154.2672 O   0  0  0  0  0  0  0  0  0  0  0  0
  150.5237  137.6213  154.9854 C   0  0  0  0  0  0  0  0  0  0  0  0
  151.7584  137.7624  155.8883 C   0  0  2  0  0  0  0  0  0  0  0  0
  151.6998  136.8954  157.1569 C   0  0  0  0  0  0  0  0  0  0  0  0
  151.7625  139.2538  156.2184 C   0  0  0  0  0  0  0  0  0  0  0  0
  152.6181  139.7736  156.9349 O   0  0  0  0  0  0  0  0  0  0  0  0
  152.0467  143.3476  159.6023 C   0  0  0  0  0  0  0  0  0  0  0  0
  152.8211  142.1959  159.8286 C   0  0  0  0  0  0  0  0  0  0  0  0
  153.3841  141.9740  161.1029 C   0  0  0  0  0  0  0  0  0  0  0  0
  154.2205  140.7285  161.3368 C   0  0  0  0  0  0  0  0  0  0  0  0
  153.4686  143.4920  164.2115 H   0  0  0  0  0  0  0  0  0  0  0  0
  154.8522  142.6915  163.4681 H   0  0  0  0  0  0  0  0  0  0  0  0
  153.4301  141.7507  163.9438 H   0  0  0  0  0  0  0  0  0  0  0  0
  152.2161  144.7803  162.6958 H   0  0  0  0  0  0  0  0  0  0  0  0
  150.2284  145.6224  158.2586 H   0  0  0  0  0  0  0  0  0  0  0  0
  150.6678  143.9328  156.5407 H   0  0  0  0  0  0  0  0  0  0  0  0
  152.2882  143.3017  156.7227 H   0  0  0  0  0  0  0  0  0  0  0  0
  151.4516  141.2006  157.6855 H   0  0  0  0  0  0  0  0  0  0  0  0
  149.4792  142.6084  158.4290 H   0  0  0  0  0  0  0  0  0  0  0  0
  149.4699  141.5776  155.4155 H   0  0  0  0  0  0  0  0  0  0  0  0
  151.1419  141.8377  155.0432 H   0  0  0  0  0  0  0  0  0  0  0  0
  149.7729  136.9501  155.4039 H   0  0  0  0  0  0  0  0  0  0  0  0
  150.7899  137.2669  153.9890 H   0  0  0  0  0  0  0  0  0  0  0  0
  152.6617  137.5281  155.3236 H   0  0  0  0  0  0  0  0  0  0  0  0
  152.5958  137.0245  157.7652 H   0  0  0  0  0  0  0  0  0  0  0  0
  151.6276  135.8382  156.9007 H   0  0  0  0  0  0  0  0  0  0  0  0
  150.8369  137.1459  157.7754 H   0  0  0  0  0  0  0  0  0  0  0  0
  152.9831  141.4914  159.0264 H   0  0  0  0  0  0  0  0  0  0  0  0
  154.2977  140.1249  160.4320 H   0  0  0  0  0  0  0  0  0  0  0  0
  153.7734  140.1093  162.1148 H   0  0  0  0  0  0  0  0  0  0  0  0
  155.2303  140.9986  161.6460 H   0  0  0  0  0  0  0  0  0  0  0  0
  1  2  1  0  0  0  0
  1 24  1  0  0  0  0
  1 25  1  0  0  0  0
  1 26  1  0  0  0  0
  2 22  1  0  0  0  0
  2  3  2  0  0  0  0
  3  4  1  0  0  0  0
  3 27  1  0  0  0  0
  4 20  2  0  0  0  0
  4  5  1  0  0  0  0
  5  6  2  0  0  0  0
  6  7  1  0  0  0  0
  6 28  1  0  0  0  0
  7  8  1  0  0  0  0
  7 20  1  0  0  0  0
  8  9  1  0  0  0  0
  8 29  1  0  0  0  0
  8 30  1  0  0  0  0
  9 10  1  0  0  0  0
  9 11  1  0  0  0  0
  9 31  1  0  0  0  0
 10 32  1  0  0  0  0
 11 12  1  0  0  0  0
 11 33  1  0  0  0  0
 11 34  1  0  0  0  0
 12 18  1  0  0  0  0
 12 13  1  0  0  0  0
 13 14  2  0  0  0  0
 13 15  1  0  0  0  0
 15 16  1  0  0  0  0
 15 35  1  0  0  0  0
 15 36  1  0  0  0  0
 16 17  1  0  0  0  0
 16 18  1  0  0  0  0
 16 37  1  0  0  0  0
 17 38  1  0  0  0  0
 17 39  1  0  0  0  0
 17 40  1  0  0  0  0
 18 19  2  0  0  0  0
 20 21  1  0  0  0  0
 21 22  2  0  0  0  0
 21 41  1  0  0  0  0
 22 23  1  0  0  0  0
 23 42  1  0  0  0  0
 23 43  1  0  0  0  0
 23 44  1  0  0  0  0
M  END
> <s_m_source_file>
AV-unprocessed.smi

> <i_m_source_file_index>
740

> <i_lp_mmshare_version>
43012

> <i_f3d_flags>
0

> <s_epik_input>
W0NIM11jKFtjSF0xKWMoW0NIM10pW2NIXWMoYzEyKW4oW2NIXW4yKVtDSDJdW0NASF0oW09IXSlbQ0gyXU4zQyg9TylbQ0gyXVtDQEBIXShbQ0gzXSlDMz1P

> <s_epik_cmdline>
J2VwaWtfcHl0aG9uJywgJy1waCcsICc3LjAnLCAnLXRuJywgJzgnLCAnLW1hJywgJzIwMCcsICctbWV0YWxfYmluZGluZycsICctaW1hZScsICc8aW5maWxlLm1hZT4nLCAnLW9tYWUnLCAnPG91dGZpbGUubWFlPic=

> <r_lp_tautomer_probability>
1

> <r_epik_Ionization_Penalty>
0.104021

> <r_epik_Ionization_Penalty_Charging>
0

> <r_epik_Ionization_Penalty_Neutral>
0.104021

> <r_epik_State_Penalty>
0.0939354

> <r_epik_Charging_Adjusted_Penalty>
0.0939354

> <i_epik_Tot_Q>
0

> <i_epik_Tot_abs_Q>
0

> <r_epik_Metal_State_Penalty>
0.000101783

> <b_epik_Metal_Only>
0

> <s_lp_Force_Field>
OPLS_2005

> <r_lp_Energy>
16.4677

> <b_lp_Chiralities_Consistent>
1

> <s_lp_Variant>
AV-unprocessed.smi:740-4

> <Gold.Version>
5.8.1

> <Gold.Id.Protein>
6NUR|6NUR_protein|mol2

> <Gold.PLP.Fitness>
60.4436

> <Gold.PLP.PLP>
-55.9715

> <Gold.PLP.part.hbond>
-1.0000

> <Gold.PLP.part.metal>
0.0000

> <Gold.PLP.part.buried>
-4.6461

> <Gold.PLP.part.nonpolar>
-49.3348

> <Gold.PLP.part.repulsive>
0.9519

> <Gold.PLP.ligand.clash>
0.0000

> <Gold.PLP.ligand.torsion>
0.7773

> <Gold.PLP.Chemscore.Hbond>
1.0000

> <Gold.PLP.Chemscore.CHOScore>
0.9999

> <Gold.PLP.Chemscore.Metal>
0.0000

> <Gold.Chemscore.Hbonds>
donor molecule, donor type, donor heavy atom, donor atom, acceptor molecule, acceptor atom, score
      P1  H  7997  8010       L1    19  1.00
      L1  C     6    28       P1  8029  1.00

> <Gold.PLP.Chemscore.Internal.Correction>
0.0269

> <Gold.Rescore>
     Score         DG    S(hbond)    S(metal)    S(lipo)     H(rot)  DE(clash)    DE(int)     intcor
     16.47     -18.18       0.98        0.00     131.20       2.31       0.06       1.65       ----

> <Gold.Chemscore.Fitness>
16.4682

> <Gold.Chemscore.DG>
-18.1762

> <Gold.Chemscore.ZeroCoef>
-5.4800

> <Gold.Chemscore.Hbond>
0.9796

> <Gold.Chemscore.Metal>
0.0000

> <Gold.Chemscore.Lipo>
131.1955

> <Gold.Chemscore.Internal_Hbond>
0.0000

> <Gold.Chemscore.DEClash>
0.0564

> <Gold.Chemscore.DEInternal>
1.6516

> <Gold.Chemscore.Rot>
2.3147

> <Gold.Chemscore.Internal.Correction>
   9.000000E+99

> <Gold.Chemscore.Hbonds>
donor molecule, donor type, donor heavy atom, donor atom, acceptor molecule, acceptor atom, score
      P1  H  7997  8010       L1    19  0.96

> <Gold.Chemscore.Hbond.Weighted>
-3.2719

> <Gold.Chemscore.Metal.Weighted>
-0.0000

> <Gold.Chemscore.Lipo.Weighted>
-15.3499

> <Gold.Chemscore.Internal_Hbond.Weighted>
0.0000

> <Gold.Chemscore.DEClash.Weighted>
0.0564

> <Gold.Chemscore.DEInternal.Weighted>
1.6516

> <Gold.Chemscore.Rot.Weighted>
5.9256

> <Gold.Chemscore.Internal.Correction.Weighted>
   9.000000E+99

> <Gold.Protein.RotatedTorsions>
[ 6907 6896 6895 6894 ] final  149.04 input  -60.11 | X-H torsion
[ 7974 7965 7964 7962 ] final   97.66 input  175.53 | X-H torsion
[ 8008 7997 7996 7995 ] final   79.11 input   59.86 | X-H torsion
[ 10167 10162 10161 10158 ] final -111.24 input  -65.29 | X-H torsion
[ 10718 10713 10712 10709 ] final   27.80 input   66.30 | X-H torsion
[ 10763 10752 10751 10750 ] final -107.78 input  -60.55 | X-H torsion
[ 11005 11000 10999 10996 ] final  177.28 input  -57.11 | X-H torsion

> <Gold.Protein.ActiveResidues>
 VAL166  LYS551  ARG553  GLY616  TRP617  ASP618  TYR619  PRO620  LYS621  CYS622 
 ASP623  PHE694  ASN695  SER759  ASP760  ASP761  ALA762  ILE779  LEU786  VAL792 
 PHE793  MET794  SER795  GLU796  ALA797  LYS798  CYS799  TRP800  GLU811  SER814 

> <Gold.Protein.RotatedAtoms>
  152.1334  133.4421  159.4731 H   0  0  0  0  0  0  0  0  0  0  0  0  # atno 6907 bound_to 6896
  150.6880  134.2393  159.4475 H   0  0  0  0  0  0  0  0  0  0  0  0  # atno 6908 bound_to 6896
  152.0279  134.9784  160.0622 H   0  0  0  0  0  0  0  0  0  0  0  0  # atno 6909 bound_to 6896
  145.4225  139.2320  143.3188 H   0  0  0  0  0  0  0  0  0  0  0  0  # atno 7974 bound_to 7965
  155.8651  140.3452  155.5782 H   0  0  0  0  0  0  0  0  0  0  0  0  # atno 8008 bound_to 7997
  155.7890  140.0869  157.2038 H   0  0  0  0  0  0  0  0  0  0  0  0  # atno 8009 bound_to 7997
  154.4014  140.1486  156.3128 H   0  0  0  0  0  0  0  0  0  0  0  0  # atno 8010 bound_to 7997
  140.1357  143.4322  152.1597 H   0  0  0  0  0  0  0  0  0  0  0  0  # atno 10167 bound_to 10162
  157.2250  130.6996  149.6287 H   0  0  0  0  0  0  0  0  0  0  0  0  # atno 10718 bound_to 10713
  154.8096  135.4662  154.0481 H   0  0  0  0  0  0  0  0  0  0  0  0  # atno 10763 bound_to 10752
  153.1923  135.6857  153.8344 H   0  0  0  0  0  0  0  0  0  0  0  0  # atno 10764 bound_to 10752
  153.7857  135.3250  155.3349 H   0  0  0  0  0  0  0  0  0  0  0  0  # atno 10765 bound_to 10752
  140.3824  134.6934  157.4459 H   0  0  0  0  0  0  0  0  0  0  0  0  # atno 11005 bound_to 11000
  146.2649  140.4951  142.8838 LP  0  0  0  0  0  0  0  0  0  0  0  0  # atno 17320 bound_to 7965
  144.8236  140.6591  143.6337 LP  0  0  0  0  0  0  0  0  0  0  0  0  # atno 17321 bound_to 7965
  139.5497  144.7327  151.4473 LP  0  0  0  0  0  0  0  0  0  0  0  0  # atno 17342 bound_to 10162
  140.6790  143.8124  150.7096 LP  0  0  0  0  0  0  0  0  0  0  0  0  # atno 17343 bound_to 10162
  155.9679  130.4507  150.5709 LP  0  0  0  0  0  0  0  0  0  0  0  0  # atno 17370 bound_to 10713
  157.3537  131.0738  151.1693 LP  0  0  0  0  0  0  0  0  0  0  0  0  # atno 17371 bound_to 10713
  140.0468  134.6187  155.8911 LP  0  0  0  0  0  0  0  0  0  0  0  0  # atno 17394 bound_to 11000
  141.1919  133.6573  156.5477 LP  0  0  0  0  0  0  0  0  0  0  0  0  # atno 17395 bound_to 11000

$$$$
