#       Name:                AV-unprocessed.smi:1520
#       Creating user name   scv26
#       Creation time:       Fri Mar 27 06:27:08 2020


#       File generated by GOLD software.
#

@<TRIPOS>MOLECULE
AV-unprocessed.smi:1520
    43    44     1
SMALL
NO_CHARGES


@<TRIPOS>ATOM
      1 ****        -1.6389   3.8904   1.0238 O.2            1 S1                 0.0000
      2 ****        -2.1099   2.8851   1.5559 C.2            1 S1                 0.0000
      3 ****        -3.6254   2.7113   1.7154 C.3            1 S1                 0.0000
      4 ****        -4.4780   3.8196   1.0647 C.3            1 S1                 0.0000
      5 ****        -5.7679   3.5444   1.2543 F              1 S1                 0.0000
      6 ****        -4.2124   5.0068   1.6117 F              1 S1                 0.0000
      7 ****        -4.2463   3.8864  -0.2472 F              1 S1                 0.0000
      8 ****        -1.3530   1.8814   2.0262 N.am           1 S1                 0.0000
      9 ****         0.1020   1.8203   1.9520 C.3            1 S1                 0.0000
     10 ****         0.5878   1.2057   0.6526 C.ar           1 S1                 0.0000
     11 ****         0.7784   2.0015  -0.4950 C.ar           1 S1                 0.0000
     12 ****         1.2152   1.3772  -1.6792 C.ar           1 S1                 0.0000
     13 ****         1.4638   0.0533  -1.7701 N.ar           1 S1                 0.0000
     14 ****         1.2811  -0.7111  -0.6665 C.ar           1 S1                 0.0000
     15 ****         1.5467  -2.0850  -0.7549 N.3            1 S1                 0.0000
     16 ****         0.6581  -2.7949  -1.6670 C.3            1 S1                 0.0000
     17 ****         0.9428  -4.3061  -1.6089 C.3            1 S1                 0.0000
     18 ****         2.3179  -4.5457  -1.8951 O.3            1 S1                 0.0000
     19 ****         3.1792  -3.9073  -0.9564 C.3            1 S1                 0.0000
     20 ****         2.9518  -2.3865  -0.9988 C.3            1 S1                 0.0000
     21 ****         0.8415  -0.1783   0.5636 C.ar           1 S1                 0.0000
     22 ****        -3.9046   1.7468   1.2892 H              1 S1                 0.0000
     23 ****        -3.8528   2.6569   2.7808 H              1 S1                 0.0000
     24 ****        -1.8196   1.0920   2.4490 H              1 S1                 0.0000
     25 ****         0.5395   2.8124   2.0769 H              1 S1                 0.0000
     26 ****         0.4630   1.2230   2.7896 H              1 S1                 0.0000
     27 ****         0.5913   3.0650  -0.4723 H              1 S1                 0.0000
     28 ****         1.3694   1.9568  -2.5773 H              1 S1                 0.0000
     29 ****        -0.3809  -2.5985  -1.3993 H              1 S1                 0.0000
     30 ****         0.8040  -2.4305  -2.6849 H              1 S1                 0.0000
     31 ****         0.6886  -4.7126  -0.6287 H              1 S1                 0.0000
     32 ****         0.3307  -4.8329  -2.3410 H              1 S1                 0.0000
     33 ****         2.9982  -4.3002   0.0454 H              1 S1                 0.0000
     34 ****         4.2140  -4.1396  -1.2082 H              1 S1                 0.0000
     35 ****         3.2501  -1.9956  -1.9726 H              1 S1                 0.0000
     36 ****         3.5713  -1.8933  -0.2488 H              1 S1                 0.0000
     37 ****         0.7037  -0.8196   1.4222 H              1 S1                 0.0000
     38 ****        -2.2469   4.6097   0.6876 LP             1 S1                 0.0000
     39 ****        -0.6483   3.9878   0.9278 LP             1 S1                 0.0000
     40 ****         1.7747  -0.3525  -2.6296 LP             1 S1                 0.0000
     41 ****         1.3407  -2.4421   0.1561 LP             1 S1                 0.0000
     42 ****         2.5225  -4.1970  -2.8097 LP             1 S1                 0.0000
     43 ****         2.4859  -5.5311  -1.8688 LP             1 S1                 0.0000
@<TRIPOS>BOND
    1    1    2 2     
    2    2    3 1     
    3    2    8 am    
    4    3    4 1     
    5    3   22 1     
    6    3   23 1     
    7    4    5 1     
    8    4    6 1     
    9    4    7 1     
   10    8    9 1     
   11    8   24 1     
   12    9   10 1     
   13    9   25 1     
   14    9   26 1     
   15   10   21 ar    
   16   10   11 ar    
   17   11   12 ar    
   18   11   27 1     
   19   12   13 ar    
   20   12   28 1     
   21   13   14 ar    
   22   14   15 1     
   23   14   21 ar    
   24   15   20 1     
   25   15   16 1     
   26   16   17 1     
   27   16   29 1     
   28   16   30 1     
   29   17   18 1     
   30   17   31 1     
   31   17   32 1     
   32   18   19 1     
   33   19   20 1     
   34   19   33 1     
   35   19   34 1     
   36   20   35 1     
   37   20   36 1     
   38   21   37 1     
   39    1   38 1     
   40    1   39 1     
   41   13   40 1     
   42   15   41 1     
   43   18   42 1     
   44   18   43 1     
@<TRIPOS>SUBSTRUCTURE
      1 S1             1
@<TRIPOS>SET
LONE_PAIRS      STATIC     ATOMS    <user>   **** ""
6 38 39 40 41 42 43
DONOR_HYDROGENS      STATIC     ATOMS    <user>   **** ""
1 24
ATOM$BLUE        STATIC     ATOMS    COLORGROUP SYSTEM
6 38 39 40 41 42 43
ATOM$RED        STATIC     ATOMS    COLORGROUP SYSTEM
1 24
