AV-unprocessed.smi:2146|AV-procd|sdf|8738|dock9
  -GOLD-   2272011513D 1   1.00000     0.00000
 Structure written by MMmdl.
 44 45  0  0  0  0  0  0  0  0  1 V2000
  145.9443  137.7208  153.7238 C   0  0  0  0  0  0  0  0  0  0  0  0
  147.4531  137.9681  153.9779 C   0  0  2  0  0  0  0  0  0  0  0  0
  147.9780  136.8935  154.9749 C   0  0  0  0  0  0  0  0  0  0  0  0
  148.5436  135.7164  154.3214 N   0  0  0  0  0  0  0  0  0  0  0  0
  148.6699  134.5057  154.8853 C   0  0  0  0  0  0  0  0  0  0  0  0
  148.3206  134.2611  156.0412 O   0  0  0  0  0  0  0  0  0  0  0  0
  149.3072  133.4206  154.0056 C   0  0  0  0  0  0  0  0  0  0  0  0
  148.3228  132.5308  153.3672 N   0  0  0  0  0  0  0  0  0  0  0  0
  147.4645  133.1056  152.4092 C   0  0  0  0  0  0  0  0  0  0  0  0
  146.5327  132.3986  151.7419 C   0  0  0  0  0  0  0  0  0  0  0  0
  145.5902  133.0606  150.7490 C   0  0  0  0  0  0  0  0  0  0  0  0
  145.6715  132.4471  149.5693 F   0  0  0  0  0  0  0  0  0  0  0  0
  144.3257  132.9953  151.1661 F   0  0  0  0  0  0  0  0  0  0  0  0
  145.9068  134.3438  150.5714 F   0  0  0  0  0  0  0  0  0  0  0  0
  146.4232  130.9933  152.0811 C   0  0  0  0  0  0  0  0  0  0  0  0
  147.2327  130.4292  152.9986 C   0  0  0  0  0  0  0  0  0  0  0  0
  148.2579  131.2064  153.6984 C   0  0  0  0  0  0  0  0  0  0  0  0
  149.0102  130.6993  154.5309 O   0  0  0  0  0  0  0  0  0  0  0  0
  147.7415  139.3563  154.4086 N   0  0  0  0  0  0  0  0  0  0  0  0
  149.1794  139.6311  154.5138 C   0  0  0  0  0  0  0  0  0  0  0  0
  149.4826  141.0808  154.9301 C   0  0  0  0  0  0  0  0  0  0  0  0
  148.8802  141.9805  154.0102 O   0  0  0  0  0  0  0  0  0  0  0  0
  147.4729  141.8018  153.9343 C   0  0  0  0  0  0  0  0  0  0  0  0
  147.1564  140.3576  153.5093 C   0  0  0  0  0  0  0  0  0  0  0  0
  145.7316  136.6876  153.4523 H   0  0  0  0  0  0  0  0  0  0  0  0
  145.5617  138.3139  152.8945 H   0  0  0  0  0  0  0  0  0  0  0  0
  145.3520  137.9553  154.6090 H   0  0  0  0  0  0  0  0  0  0  0  0
  147.9644  137.8028  153.0283 H   0  0  0  0  0  0  0  0  0  0  0  0
  148.7527  137.2873  155.6311 H   0  0  0  0  0  0  0  0  0  0  0  0
  147.1660  136.5622  155.6229 H   0  0  0  0  0  0  0  0  0  0  0  0
  148.8612  135.8324  153.3699 H   0  0  0  0  0  0  0  0  0  0  0  0
  149.9326  133.8943  153.2467 H   0  0  0  0  0  0  0  0  0  0  0  0
  149.9978  132.8459  154.6239 H   0  0  0  0  0  0  0  0  0  0  0  0
  147.6157  134.1629  152.2464 H   0  0  0  0  0  0  0  0  0  0  0  0
  145.6832  130.3800  151.5885 H   0  0  0  0  0  0  0  0  0  0  0  0
  147.1250  129.3783  153.2239 H   0  0  0  0  0  0  0  0  0  0  0  0
  149.6425  138.9882  155.2591 H   0  0  0  0  0  0  0  0  0  0  0  0
  149.6672  139.4177  153.5615 H   0  0  0  0  0  0  0  0  0  0  0  0
  149.1152  141.2781  155.9385 H   0  0  0  0  0  0  0  0  0  0  0  0
  150.5586  141.2533  154.9430 H   0  0  0  0  0  0  0  0  0  0  0  0
  147.0155  142.0309  154.8982 H   0  0  0  0  0  0  0  0  0  0  0  0
  147.0639  142.5069  153.2107 H   0  0  0  0  0  0  0  0  0  0  0  0
  147.5136  140.1941  152.4912 H   0  0  0  0  0  0  0  0  0  0  0  0
  146.0724  140.2648  153.4832 H   0  0  0  0  0  0  0  0  0  0  0  0
  1  2  1  0  0  0  0
  1 25  1  0  0  0  0
  1 26  1  0  0  0  0
  1 27  1  0  0  0  0
  2  3  1  0  0  0  0
  2 19  1  0  0  0  0
  2 28  1  0  0  0  0
  3  4  1  0  0  0  0
  3 29  1  0  0  0  0
  3 30  1  0  0  0  0
  4  5  1  0  0  0  0
  4 31  1  0  0  0  0
  5  6  2  0  0  0  0
  5  7  1  0  0  0  0
  7  8  1  0  0  0  0
  7 32  1  0  0  0  0
  7 33  1  0  0  0  0
  8 17  1  0  0  0  0
  8  9  1  0  0  0  0
  9 10  2  0  0  0  0
  9 34  1  0  0  0  0
 10 11  1  0  0  0  0
 10 15  1  0  0  0  0
 11 12  1  0  0  0  0
 11 13  1  0  0  0  0
 11 14  1  0  0  0  0
 15 16  2  0  0  0  0
 15 35  1  0  0  0  0
 16 17  1  0  0  0  0
 16 36  1  0  0  0  0
 17 18  2  0  0  0  0
 19 24  1  0  0  0  0
 19 20  1  0  0  0  0
 20 21  1  0  0  0  0
 20 37  1  0  0  0  0
 20 38  1  0  0  0  0
 21 22  1  0  0  0  0
 21 39  1  0  0  0  0
 21 40  1  0  0  0  0
 22 23  1  0  0  0  0
 23 24  1  0  0  0  0
 23 41  1  0  0  0  0
 23 42  1  0  0  0  0
 24 43  1  0  0  0  0
 24 44  1  0  0  0  0
M  END
> <s_m_source_file>
AV-unprocessed.smi

> <i_m_source_file_index>
2146

> <i_lp_mmshare_version>
43012

> <i_f3d_flags>
0

> <s_epik_input>
W0NIMl0xW0NIMl1PW0NIMl1bQ0gyXU4xW0NASF0oW0NIM10pW0NIMl1bTkhdQyg9TylbQ0gyXW4yW2NIXWMoQyhGKShGKUYpW2NIXVtjSF1jMj1P

> <s_epik_cmdline>
J2VwaWtfcHl0aG9uJywgJy1waCcsICc3LjAnLCAnLXRuJywgJzgnLCAnLW1hJywgJzIwMCcsICctbWV0YWxfYmluZGluZycsICctaW1hZScsICc8aW5maWxlLm1hZT4nLCAnLW9tYWUnLCAnPG91dGZpbGUubWFlPic=

> <r_lp_tautomer_probability>
1

> <r_epik_Ionization_Penalty>
0.237382

> <r_epik_Ionization_Penalty_Charging>
1.80451e-08

> <r_epik_Ionization_Penalty_Neutral>
0.237382

> <r_epik_State_Penalty>
0.228245

> <r_epik_Charging_Adjusted_Penalty>
0.228245

> <i_epik_Tot_Q>
0

> <i_epik_Tot_abs_Q>
0

> <r_epik_Metal_State_Penalty>
0.22822

> <b_epik_Metal_Only>
0

> <s_lp_Force_Field>
OPLS_2005

> <r_lp_Energy>
40.571

> <b_lp_Chiralities_Consistent>
1

> <s_lp_Variant>
AV-unprocessed.smi:2146-1

> <Gold.Version>
5.8.1

> <Gold.Id.Protein>
6NUR|6NUR_protein|mol2

> <Gold.PLP.Fitness>
46.2367

> <Gold.PLP.PLP>
-42.4154

> <Gold.PLP.part.hbond>
-1.9863

> <Gold.PLP.part.metal>
0.0000

> <Gold.PLP.part.buried>
-3.5006

> <Gold.PLP.part.nonpolar>
-36.3821

> <Gold.PLP.part.repulsive>
0.3797

> <Gold.PLP.ligand.clash>
1.4926

> <Gold.PLP.ligand.torsion>
1.0664

> <Gold.PLP.Chemscore.Hbond>
1.4480

> <Gold.PLP.Chemscore.CHOScore>
1.0000

> <Gold.PLP.Chemscore.Metal>
0.0000

> <Gold.Chemscore.Hbonds>
donor molecule, donor type, donor heavy atom, donor atom, acceptor molecule, acceptor atom, score
      L1  H     4    31       P1  7948  1.00
      P1  H  8011  8017       L1    22  0.43
      L1  C     9    34       P1  7948  1.00

> <Gold.PLP.Chemscore.Internal.Correction>
0.1026

> <Gold.Rescore>
     Score         DG    S(hbond)    S(metal)    S(lipo)     H(rot)  DE(clash)    DE(int)     intcor
     12.30     -13.42       1.40        0.00      73.83       2.10       0.07       1.05       ----

> <Gold.Chemscore.Fitness>
12.3041

> <Gold.Chemscore.DG>
-13.4237

> <Gold.Chemscore.ZeroCoef>
-5.4800

> <Gold.Chemscore.Hbond>
1.4048

> <Gold.Chemscore.Metal>
0.0000

> <Gold.Chemscore.Lipo>
73.8261

> <Gold.Chemscore.Internal_Hbond>
0.0000

> <Gold.Chemscore.DEClash>
0.0702

> <Gold.Chemscore.DEInternal>
1.0494

> <Gold.Chemscore.Rot>
2.1039

> <Gold.Chemscore.Internal.Correction>
   9.000000E+99

> <Gold.Chemscore.Hbonds>
donor molecule, donor type, donor heavy atom, donor atom, acceptor molecule, acceptor atom, score
      L1  H     4    31       P1  7948  0.91
      P1  H  8011  8017       L1    22  0.39

> <Gold.Chemscore.Hbond.Weighted>
-4.6920

> <Gold.Chemscore.Metal.Weighted>
-0.0000

> <Gold.Chemscore.Lipo.Weighted>
-8.6377

> <Gold.Chemscore.Internal_Hbond.Weighted>
0.0000

> <Gold.Chemscore.DEClash.Weighted>
0.0702

> <Gold.Chemscore.DEInternal.Weighted>
1.0494

> <Gold.Chemscore.Rot.Weighted>
5.3860

> <Gold.Chemscore.Internal.Correction.Weighted>
   9.000000E+99

> <Gold.Protein.RotatedTorsions>
[ 6907 6896 6895 6894 ] final  -24.24 input  -60.11 | X-H torsion
[ 7974 7965 7964 7962 ] final  173.04 input  175.53 | X-H torsion
[ 8008 7997 7996 7995 ] final -176.71 input   59.86 | X-H torsion
[ 10167 10162 10161 10158 ] final  -46.76 input  -65.29 | X-H torsion
[ 10718 10713 10712 10709 ] final   20.76 input   66.30 | X-H torsion
[ 10763 10752 10751 10750 ] final   16.37 input  -60.55 | X-H torsion
[ 11005 11000 10999 10996 ] final  -56.56 input  -57.11 | X-H torsion

> <Gold.Protein.ActiveResidues>
 VAL166  LYS551  ARG553  GLY616  TRP617  ASP618  TYR619  PRO620  LYS621  CYS622 
 ASP623  PHE694  ASN695  SER759  ASP760  ASP761  ALA762  ILE779  LEU786  VAL792 
 PHE793  MET794  SER795  GLU796  ALA797  LYS798  CYS799  TRP800  GLU811  SER814 

> <Gold.Protein.RotatedAtoms>
  151.1924  135.0408  159.8837 H   0  0  0  0  0  0  0  0  0  0  0  0  # atno 6907 bound_to 6896
  152.5438  134.0941  159.8300 H   0  0  0  0  0  0  0  0  0  0  0  0  # atno 6908 bound_to 6896
  151.1072  133.5153  159.2639 H   0  0  0  0  0  0  0  0  0  0  0  0  # atno 6909 bound_to 6896
  144.7253  139.9588  143.6434 H   0  0  0  0  0  0  0  0  0  0  0  0  # atno 7974 bound_to 7965
  155.9981  140.1215  157.0574 H   0  0  0  0  0  0  0  0  0  0  0  0  # atno 8008 bound_to 7997
  154.4233  140.1112  156.5727 H   0  0  0  0  0  0  0  0  0  0  0  0  # atno 8009 bound_to 7997
  155.6250  140.3472  155.4666 H   0  0  0  0  0  0  0  0  0  0  0  0  # atno 8010 bound_to 7997
  140.6804  143.2815  151.3830 H   0  0  0  0  0  0  0  0  0  0  0  0  # atno 10167 bound_to 10162
  157.1290  130.6582  149.5946 H   0  0  0  0  0  0  0  0  0  0  0  0  # atno 10718 bound_to 10713
  153.1437  135.6765  153.8988 H   0  0  0  0  0  0  0  0  0  0  0  0  # atno 10763 bound_to 10752
  153.8436  135.3102  155.3429 H   0  0  0  0  0  0  0  0  0  0  0  0  # atno 10764 bound_to 10752
  154.7808  135.4889  153.9925 H   0  0  0  0  0  0  0  0  0  0  0  0  # atno 10765 bound_to 10752
  141.1126  133.6610  156.4638 H   0  0  0  0  0  0  0  0  0  0  0  0  # atno 11005 bound_to 11000
  146.0653  139.3644  143.0556 LP  0  0  0  0  0  0  0  0  0  0  0  0  # atno 17320 bound_to 7965
  145.8039  140.9758  143.0984 LP  0  0  0  0  0  0  0  0  0  0  0  0  # atno 17321 bound_to 7965
  139.6122  144.1075  152.2310 LP  0  0  0  0  0  0  0  0  0  0  0  0  # atno 17342 bound_to 10162
  140.0493  144.5946  150.7349 LP  0  0  0  0  0  0  0  0  0  0  0  0  # atno 17343 bound_to 10162
  155.9812  130.4818  150.6814 LP  0  0  0  0  0  0  0  0  0  0  0  0  # atno 17370 bound_to 10713
  157.4409  131.0861  151.0944 LP  0  0  0  0  0  0  0  0  0  0  0  0  # atno 17371 bound_to 10713
  140.4734  134.6732  157.5139 LP  0  0  0  0  0  0  0  0  0  0  0  0  # atno 17394 bound_to 11000
  140.0028  134.6810  155.9503 LP  0  0  0  0  0  0  0  0  0  0  0  0  # atno 17395 bound_to 11000

$$$$
