AV-unprocessed.smi:2237|AV-procd|sdf|9047|dock3
  -GOLD-   2272012253D 1   1.00000     0.00000
 Structure written by MMmdl.
 55 57  0  0  0  0  0  0  0  0  3 V2000
  151.6631  144.8114  160.2489 C   0  0  0  0  0  0  0  0  0  0  0  0
  152.0680  143.3825  159.9533 C   0  0  0  0  0  0  0  0  0  0  0  0
  152.8945  142.6645  160.8398 C   0  0  0  0  0  0  0  0  0  0  0  0
  153.2339  141.3416  160.5050 C   0  0  0  0  0  0  0  0  0  0  0  0
  152.7362  140.7944  159.3066 C   0  0  0  0  0  0  0  0  0  0  0  0
  151.9115  141.5825  158.4725 C   0  0  0  0  0  0  0  0  0  0  0  0
  151.4575  140.9382  157.2907 N   0  0  0  0  0  0  0  0  0  0  0  0
  150.2852  141.1043  156.6528 C   0  0  0  0  0  0  0  0  0  0  0  0
  149.3936  141.8838  156.9900 O   0  0  0  0  0  0  0  0  0  0  0  0
  150.1959  140.3044  155.5795 N   0  0  0  0  0  0  0  0  0  0  0  0
  149.0403  140.2246  154.6903 C   0  0  2  0  0  0  0  0  0  0  0  0
  148.5017  141.6357  154.4001 C   0  0  0  0  0  0  0  0  0  0  0  0
  147.2282  141.5634  153.5373 C   0  0  0  0  0  0  0  0  0  0  0  0
  146.1578  140.7614  154.1973 N   0  3  2  0  0  0  0  0  0  0  0  0
  145.4843  141.3968  155.3816 C   0  0  2  0  0  0  0  0  0  0  0  0
  144.8614  142.7644  155.0052 C   0  0  0  0  0  0  0  0  0  0  0  0
  144.2054  143.4620  156.2091 C   0  0  0  0  0  0  0  0  0  0  0  0
  145.1754  143.6460  157.3132 N   0  3  1  0  0  0  0  0  0  0  0  0
  144.6094  144.4198  158.4394 C   0  0  0  0  0  0  0  0  0  0  0  0
  145.7510  142.3528  157.7485 C   0  0  0  0  0  0  0  0  0  0  0  0
  146.4405  141.6289  156.5794 C   0  0  0  0  0  0  0  0  0  0  0  0
  146.6530  139.3738  154.4342 C   0  0  0  0  0  0  0  0  0  0  0  0
  147.9289  139.3476  155.3004 C   0  0  0  0  0  0  0  0  0  0  0  0
  151.5909  142.8583  158.8039 N   0  0  0  0  0  0  0  0  0  0  0  0
  152.0156  145.1275  161.2310 H   0  0  0  0  0  0  0  0  0  0  0  0
  150.5774  144.9107  160.2302 H   0  0  0  0  0  0  0  0  0  0  0  0
  152.0832  145.4859  159.5023 H   0  0  0  0  0  0  0  0  0  0  0  0
  153.2597  143.1127  161.7522 H   0  0  0  0  0  0  0  0  0  0  0  0
  153.8650  140.7550  161.1561 H   0  0  0  0  0  0  0  0  0  0  0  0
  152.9870  139.7792  159.0357 H   0  0  0  0  0  0  0  0  0  0  0  0
  152.0957  140.2654  156.8929 H   0  0  0  0  0  0  0  0  0  0  0  0
  150.9741  139.6943  155.3762 H   0  0  0  0  0  0  0  0  0  0  0  0
  149.3545  139.7838  153.7418 H   0  0  0  0  0  0  0  0  0  0  0  0
  148.2931  142.1617  155.3326 H   0  0  0  0  0  0  0  0  0  0  0  0
  149.2617  142.2210  153.8810 H   0  0  0  0  0  0  0  0  0  0  0  0
  146.8845  142.5562  153.2527 H   0  0  0  0  0  0  0  0  0  0  0  0
  147.4741  141.0808  152.5901 H   0  0  0  0  0  0  0  0  0  0  0  0
  144.6882  140.7370  155.7268 H   0  0  0  0  0  0  0  0  0  0  0  0
  145.6294  143.4152  154.5842 H   0  0  0  0  0  0  0  0  0  0  0  0
  144.0972  142.6555  154.2379 H   0  0  0  0  0  0  0  0  0  0  0  0
  143.8186  144.4339  155.8993 H   0  0  0  0  0  0  0  0  0  0  0  0
  143.3528  142.8798  156.5626 H   0  0  0  0  0  0  0  0  0  0  0  0
  143.7727  143.8912  158.8981 H   0  0  0  0  0  0  0  0  0  0  0  0
  144.2539  145.3927  158.0982 H   0  0  0  0  0  0  0  0  0  0  0  0
  145.3658  144.5938  159.2057 H   0  0  0  0  0  0  0  0  0  0  0  0
  146.4755  142.5264  158.5453 H   0  0  0  0  0  0  0  0  0  0  0  0
  144.9636  141.7238  158.1677 H   0  0  0  0  0  0  0  0  0  0  0  0
  146.8141  140.6817  156.9675 H   0  0  0  0  0  0  0  0  0  0  0  0
  147.3095  142.2042  156.2567 H   0  0  0  0  0  0  0  0  0  0  0  0
  145.8881  138.7341  154.8684 H   0  0  0  0  0  0  0  0  0  0  0  0
  146.8770  138.9262  153.4649 H   0  0  0  0  0  0  0  0  0  0  0  0
  148.2778  138.3183  155.3949 H   0  0  0  0  0  0  0  0  0  0  0  0
  147.7023  139.6798  156.3136 H   0  0  0  0  0  0  0  0  0  0  0  0
  145.4297  140.6776  153.5018 H   0  0  0  0  0  0  0  0  0  0  0  0
  145.9377  144.1971  156.9447 H   0  0  0  0  0  0  0  0  0  0  0  0
  1  2  1  0  0  0  0
  1 25  1  0  0  0  0
  1 26  1  0  0  0  0
  1 27  1  0  0  0  0
  2 24  1  0  0  0  0
  2  3  2  0  0  0  0
  3  4  1  0  0  0  0
  3 28  1  0  0  0  0
  4  5  2  0  0  0  0
  4 29  1  0  0  0  0
  5  6  1  0  0  0  0
  5 30  1  0  0  0  0
  6  7  1  0  0  0  0
  6 24  2  0  0  0  0
  7  8  1  0  0  0  0
  7 31  1  0  0  0  0
  8  9  2  0  0  0  0
  8 10  1  0  0  0  0
 10 11  1  0  0  0  0
 10 32  1  0  0  0  0
 11 23  1  0  0  0  0
 11 12  1  0  0  0  0
 11 33  1  0  0  0  0
 12 13  1  0  0  0  0
 12 34  1  0  0  0  0
 12 35  1  0  0  0  0
 13 14  1  0  0  0  0
 13 36  1  0  0  0  0
 13 37  1  0  0  0  0
 14 15  1  0  0  0  0
 14 22  1  0  0  0  0
 14 54  1  0  0  0  0
 15 21  1  0  0  0  0
 15 16  1  0  0  0  0
 15 38  1  0  0  0  0
 16 17  1  0  0  0  0
 16 39  1  0  0  0  0
 16 40  1  0  0  0  0
 17 18  1  0  0  0  0
 17 41  1  0  0  0  0
 17 42  1  0  0  0  0
 18 19  1  0  0  0  0
 18 20  1  0  0  0  0
 18 55  1  0  0  0  0
 19 43  1  0  0  0  0
 19 44  1  0  0  0  0
 19 45  1  0  0  0  0
 20 21  1  0  0  0  0
 20 46  1  0  0  0  0
 20 47  1  0  0  0  0
 21 48  1  0  0  0  0
 21 49  1  0  0  0  0
 22 23  1  0  0  0  0
 22 50  1  0  0  0  0
 22 51  1  0  0  0  0
 23 52  1  0  0  0  0
 23 53  1  0  0  0  0
M  CHG  1  14   1
M  CHG  1  18   1
M  END
> <s_m_source_file>
AV-unprocessed.smi

> <i_m_source_file_index>
2237

> <i_lp_mmshare_version>
43012

> <i_f3d_flags>
0

> <s_epik_input>
W0NIM11jMVtjSF1bY0hdW2NIXWMobjEpW05IXUMoPU8pW05IXVtDSF0yW0NIMl1bQ0gyXU4oW0NIMl1bQ0gyXTIpW0NIXTNbQ0gyXVtDSDJdTihbQ0gzXSlbQ0gyXVtDSDJdMw==

> <s_epik_cmdline>
J2VwaWtfcHl0aG9uJywgJy1waCcsICc3LjAnLCAnLXRuJywgJzgnLCAnLW1hJywgJzIwMCcsICctbWV0YWxfYmluZGluZycsICctaW1hZScsICc8aW5maWxlLm1hZT4nLCAnLW9tYWUnLCAnPG91dGZpbGUubWFlPic=

> <r_epik_Ionization_Penalty>
0.180851

> <r_epik_Ionization_Penalty_Charging>
0.180787

> <r_epik_Ionization_Penalty_Neutral>
6.38624e-05

> <r_epik_State_Penalty>
0.153592

> <r_epik_Charging_Adjusted_Penalty>
0.334379

> <i_epik_Tot_Q>
2

> <i_epik_Tot_abs_Q>
2

> <r_epik_Metal_State_Penalty>
0.153595

> <b_epik_Metal_Only>
0

> <s_lp_Force_Field>
OPLS_2005

> <r_lp_Energy>
43.8269

> <b_lp_Chiralities_Consistent>
1

> <s_lp_Variant>
AV-unprocessed.smi:2237-2

> <Gold.Version>
5.8.1

> <Gold.Id.Protein>
6NUR|6NUR_protein|mol2

> <Gold.PLP.Fitness>
45.7003

> <Gold.PLP.PLP>
-40.6708

> <Gold.PLP.part.hbond>
-1.5789

> <Gold.PLP.part.metal>
0.0000

> <Gold.PLP.part.buried>
-6.9976

> <Gold.PLP.part.nonpolar>
-33.2187

> <Gold.PLP.part.repulsive>
0.9292

> <Gold.PLP.ligand.clash>
0.0120

> <Gold.PLP.ligand.torsion>
0.5035

> <Gold.PLP.Chemscore.Hbond>
2.0000

> <Gold.PLP.Chemscore.CHOScore>
0.0000

> <Gold.PLP.Chemscore.Metal>
0.0000

> <Gold.Chemscore.Hbonds>
donor molecule, donor type, donor heavy atom, donor atom, acceptor molecule, acceptor atom, score
      L1  H    14    54       P1 10175  1.98

> <Gold.PLP.Chemscore.Internal.Correction>
0.0486

> <Gold.Rescore>
     Score         DG    S(hbond)    S(metal)    S(lipo)     H(rot)  DE(clash)    DE(int)     intcor
     11.93     -17.20       0.99        0.00      98.89       1.23       0.06       5.20       ----

> <Gold.Chemscore.Fitness>
11.9334

> <Gold.Chemscore.DG>
-17.1956

> <Gold.Chemscore.ZeroCoef>
-5.4800

> <Gold.Chemscore.Hbond>
0.9860

> <Gold.Chemscore.Metal>
0.0000

> <Gold.Chemscore.Lipo>
98.8859

> <Gold.Chemscore.Internal_Hbond>
0.0000

> <Gold.Chemscore.DEClash>
0.0646

> <Gold.Chemscore.DEInternal>
5.1975

> <Gold.Chemscore.Rot>
1.2295

> <Gold.Chemscore.Internal.Correction>
   9.000000E+99

> <Gold.Chemscore.Hbonds>
donor molecule, donor type, donor heavy atom, donor atom, acceptor molecule, acceptor atom, score
      L1  H    14    54       P1 10175  0.87

> <Gold.Chemscore.Hbond.Weighted>
-3.2934

> <Gold.Chemscore.Metal.Weighted>
-0.0000

> <Gold.Chemscore.Lipo.Weighted>
-11.5696

> <Gold.Chemscore.Internal_Hbond.Weighted>
0.0000

> <Gold.Chemscore.DEClash.Weighted>
0.0646

> <Gold.Chemscore.DEInternal.Weighted>
5.1975

> <Gold.Chemscore.Rot.Weighted>
3.1474

> <Gold.Chemscore.Internal.Correction.Weighted>
   9.000000E+99

> <Gold.Protein.RotatedTorsions>
[ 6907 6896 6895 6894 ] final  -22.47 input  -60.11 | X-H torsion
[ 7974 7965 7964 7962 ] final   96.03 input  175.53 | X-H torsion
[ 8008 7997 7996 7995 ] final  -86.10 input   59.86 | X-H torsion
[ 10167 10162 10161 10158 ] final  -67.79 input  -65.29 | X-H torsion
[ 10718 10713 10712 10709 ] final -167.67 input   66.30 | X-H torsion
[ 10763 10752 10751 10750 ] final -150.10 input  -60.55 | X-H torsion
[ 11005 11000 10999 10996 ] final  -67.24 input  -57.11 | X-H torsion

> <Gold.Protein.ActiveResidues>
 VAL166  LYS551  ARG553  GLY616  TRP617  ASP618  TYR619  PRO620  LYS621  CYS622 
 ASP623  PHE694  ASN695  SER759  ASP760  ASP761  ALA762  ILE779  LEU786  VAL792 
 PHE793  MET794  SER795  GLU796  ALA797  LYS798  CYS799  TRP800  GLU811  SER814 

> <Gold.Protein.RotatedAtoms>
  151.2181  135.0508  159.8938 H   0  0  0  0  0  0  0  0  0  0  0  0  # atno 6907 bound_to 6896
  152.5418  134.0670  159.8187 H   0  0  0  0  0  0  0  0  0  0  0  0  # atno 6908 bound_to 6896
  151.0833  133.5325  159.2651 H   0  0  0  0  0  0  0  0  0  0  0  0  # atno 6909 bound_to 6896
  145.4443  139.2298  143.3075 H   0  0  0  0  0  0  0  0  0  0  0  0  # atno 7974 bound_to 7965
  154.6481  140.0583  156.9924 H   0  0  0  0  0  0  0  0  0  0  0  0  # atno 8008 bound_to 7997
  155.1413  140.3265  155.4433 H   0  0  0  0  0  0  0  0  0  0  0  0  # atno 8009 bound_to 7997
  156.2563  140.1963  156.6528 H   0  0  0  0  0  0  0  0  0  0  0  0  # atno 8010 bound_to 7997
  140.5556  143.2312  151.6827 H   0  0  0  0  0  0  0  0  0  0  0  0  # atno 10167 bound_to 10162
  156.6858  130.9140  151.3063 H   0  0  0  0  0  0  0  0  0  0  0  0  # atno 10718 bound_to 10713
  154.8139  135.3292  154.7231 H   0  0  0  0  0  0  0  0  0  0  0  0  # atno 10763 bound_to 10752
  153.7875  135.6913  153.4882 H   0  0  0  0  0  0  0  0  0  0  0  0  # atno 10764 bound_to 10752
  153.1939  135.4541  155.0130 H   0  0  0  0  0  0  0  0  0  0  0  0  # atno 10765 bound_to 10752
  141.1503  133.6715  156.6262 H   0  0  0  0  0  0  0  0  0  0  0  0  # atno 11005 bound_to 11000
  146.2539  140.5195  142.8882 LP  0  0  0  0  0  0  0  0  0  0  0  0  # atno 17320 bound_to 7965
  144.8102  140.6371  143.6420 LP  0  0  0  0  0  0  0  0  0  0  0  0  # atno 17321 bound_to 7965
  139.5047  144.3746  152.0436 LP  0  0  0  0  0  0  0  0  0  0  0  0  # atno 17342 bound_to 10162
  140.2867  144.3799  150.6101 LP  0  0  0  0  0  0  0  0  0  0  0  0  # atno 17343 bound_to 10162
  157.7027  130.9351  150.0834 LP  0  0  0  0  0  0  0  0  0  0  0  0  # atno 17370 bound_to 10713
  156.1834  130.3651  149.9005 LP  0  0  0  0  0  0  0  0  0  0  0  0  # atno 17371 bound_to 10713
  140.3502  134.7775  157.4461 LP  0  0  0  0  0  0  0  0  0  0  0  0  # atno 17394 bound_to 11000
  140.0867  134.5657  155.8485 LP  0  0  0  0  0  0  0  0  0  0  0  0  # atno 17395 bound_to 11000

$$$$
