AV-unprocessed.smi:2521|AV-procd|sdf|9918|dock5
  -GOLD-   2272013553D 1   1.00000     0.00000
 Structure written by MMmdl.
 35 36  0  0  0  0  0  0  0  0  2 V2000
  143.7252  144.2617  155.8874 C   0  0  0  0  0  0  0  0  0  0  0  0
  143.9839  143.0455  154.9864 C   0  0  0  0  0  0  0  0  0  0  0  0
  143.0579  141.8596  155.2933 C   0  0  0  0  0  0  0  0  0  0  0  0
  145.4266  142.6468  154.9776 C   0  0  0  0  0  0  0  0  0  0  0  0
  146.0569  142.1597  156.0508 N   0  0  0  0  0  0  0  0  0  0  0  0
  147.3867  141.8650  155.7899 N   0  0  0  0  0  0  0  0  0  0  0  0
  147.7485  142.1405  154.5292 C   0  0  0  0  0  0  0  0  0  0  0  0
  148.9931  141.9244  154.0727 N   0  5  0  0  0  0  0  0  0  0  0  0
  149.9894  141.6305  154.9391 C   0  0  0  0  0  0  0  0  0  0  0  0
  150.6973  140.6209  154.9246 O   0  0  0  0  0  0  0  0  0  0  0  0
  150.1758  142.5618  155.8836 N   0  0  0  0  0  0  0  0  0  0  0  0
  151.1758  142.4966  156.9418 C   0  0  0  0  0  0  0  0  0  0  0  0
  151.1427  143.7651  157.8096 C   0  0  1  0  0  0  0  0  0  0  0  0
  150.0967  143.7355  158.9044 C   0  0  0  0  0  0  0  0  0  0  0  0
  150.5920  144.8351  159.8380 C   0  0  0  0  0  0  0  0  0  0  0  0
  152.0126  144.8213  159.7322 O   0  0  0  0  0  0  0  0  0  0  0  0
  152.4134  144.0212  158.6227 C   0  0  0  0  0  0  0  0  0  0  0  0
  146.4332  142.7797  153.5444 S   0  0  0  0  0  0  0  0  0  0  0  0
  144.3388  145.1108  155.5847 H   0  0  0  0  0  0  0  0  0  0  0  0
  143.9553  144.0394  156.9299 H   0  0  0  0  0  0  0  0  0  0  0  0
  142.6818  144.5736  155.8367 H   0  0  0  0  0  0  0  0  0  0  0  0
  143.7473  143.3626  153.9700 H   0  0  0  0  0  0  0  0  0  0  0  0
  143.2113  141.0482  154.5812 H   0  0  0  0  0  0  0  0  0  0  0  0
  142.0098  142.1545  155.2373 H   0  0  0  0  0  0  0  0  0  0  0  0
  143.2386  141.4634  156.2931 H   0  0  0  0  0  0  0  0  0  0  0  0
  149.5786  143.3751  155.8624 H   0  0  0  0  0  0  0  0  0  0  0  0
  150.9863  141.6208  157.5644 H   0  0  0  0  0  0  0  0  0  0  0  0
  152.1627  142.3656  156.4955 H   0  0  0  0  0  0  0  0  0  0  0  0
  150.9521  144.6326  157.1752 H   0  0  0  0  0  0  0  0  0  0  0  0
  149.0859  143.9138  158.5368 H   0  0  0  0  0  0  0  0  0  0  0  0
  150.1097  142.7737  159.4195 H   0  0  0  0  0  0  0  0  0  0  0  0
  150.2288  145.8083  159.5052 H   0  0  0  0  0  0  0  0  0  0  0  0
  150.2666  144.6862  160.8677 H   0  0  0  0  0  0  0  0  0  0  0  0
  152.8224  143.0852  159.0052 H   0  0  0  0  0  0  0  0  0  0  0  0
  153.1905  144.5141  158.0382 H   0  0  0  0  0  0  0  0  0  0  0  0
  1  2  1  0  0  0  0
  1 19  1  0  0  0  0
  1 20  1  0  0  0  0
  1 21  1  0  0  0  0
  2  3  1  0  0  0  0
  2  4  1  0  0  0  0
  2 22  1  0  0  0  0
  3 23  1  0  0  0  0
  3 24  1  0  0  0  0
  3 25  1  0  0  0  0
  4 18  1  0  0  0  0
  4  5  2  0  0  0  0
  5  6  1  0  0  0  0
  6  7  2  0  0  0  0
  7  8  1  0  0  0  0
  7 18  1  0  0  0  0
  8  9  1  0  0  0  0
  9 10  2  0  0  0  0
  9 11  1  0  0  0  0
 11 12  1  0  0  0  0
 11 26  1  0  0  0  0
 12 13  1  0  0  0  0
 12 27  1  0  0  0  0
 12 28  1  0  0  0  0
 13 17  1  0  0  0  0
 13 14  1  0  0  0  0
 13 29  1  0  0  0  0
 14 15  1  0  0  0  0
 14 30  1  0  0  0  0
 14 31  1  0  0  0  0
 15 16  1  0  0  0  0
 15 32  1  0  0  0  0
 15 33  1  0  0  0  0
 16 17  1  0  0  0  0
 17 34  1  0  0  0  0
 17 35  1  0  0  0  0
M  CHG  1   8  -1
M  END
> <s_m_source_file>
AV-unprocessed.smi

> <i_m_source_file_index>
2521

> <i_lp_mmshare_version>
43012

> <i_f3d_flags>
0

> <s_epik_input>
W0NIM11bQ0hdKFtDSDNdKWMxbm5jKHMxKVtOSF1DKD1PKVtOSF1bQ0gyXVtDQEBIXTJbQ0gyXVtDSDJdT1tDSDJdMg==

> <s_epik_cmdline>
J2VwaWtfcHl0aG9uJywgJy1waCcsICc3LjAnLCAnLXRuJywgJzgnLCAnLW1hJywgJzIwMCcsICctbWV0YWxfYmluZGluZycsICctaW1hZScsICc8aW5maWxlLm1hZT4nLCAnLW9tYWUnLCAnPG91dGZpbGUubWFlPic=

> <r_lp_tautomer_probability>
1

> <r_epik_Ionization_Penalty>
4.4451

> <r_epik_Ionization_Penalty_Charging>
4.28522

> <r_epik_Ionization_Penalty_Neutral>
0.159875

> <r_epik_State_Penalty>
4.28479

> <r_epik_Charging_Adjusted_Penalty>
8.57002

> <i_epik_Tot_Q>
-1

> <i_epik_Tot_abs_Q>
1

> <r_epik_Metal_State_Penalty>
0.721771

> <b_epik_Metal_Only>
1

> <s_lp_Force_Field>
OPLS_2005

> <r_lp_Energy>
10.1938

> <b_lp_Chiralities_Consistent>
1

> <s_lp_Variant>
AV-unprocessed.smi:2521-4

> <Gold.Version>
5.8.1

> <Gold.Id.Protein>
6NUR|6NUR_protein|mol2

> <Gold.PLP.Fitness>
37.5188

> <Gold.PLP.PLP>
-32.7598

> <Gold.PLP.part.hbond>
-3.0000

> <Gold.PLP.part.metal>
0.0000

> <Gold.PLP.part.buried>
-4.4860

> <Gold.PLP.part.nonpolar>
-25.9301

> <Gold.PLP.part.repulsive>
0.6902

> <Gold.PLP.ligand.clash>
0.0000

> <Gold.PLP.ligand.torsion>
0.8276

> <Gold.PLP.Chemscore.Hbond>
2.0999

> <Gold.PLP.Chemscore.CHOScore>
0.0000

> <Gold.PLP.Chemscore.Metal>
0.0000

> <Gold.Chemscore.Hbonds>
donor molecule, donor type, donor heavy atom, donor atom, acceptor molecule, acceptor atom, score
      L1  H    11    26       P1  8028  0.99
      P1  H  7989  7998       L1    10  0.96
      P1  H  8011  8017       L1     8  0.45

> <Gold.PLP.Chemscore.Internal.Correction>
0.1145

> <Gold.Rescore>
     Score         DG    S(hbond)    S(metal)    S(lipo)     H(rot)  DE(clash)    DE(int)     intcor
     13.06     -14.17       1.17        0.00      71.96       1.42       0.10       1.01       ----

> <Gold.Chemscore.Fitness>
13.0593

> <Gold.Chemscore.DG>
-14.1708

> <Gold.Chemscore.ZeroCoef>
-5.4800

> <Gold.Chemscore.Hbond>
1.1690

> <Gold.Chemscore.Metal>
0.0000

> <Gold.Chemscore.Lipo>
71.9620

> <Gold.Chemscore.Internal_Hbond>
0.0000

> <Gold.Chemscore.DEClash>
0.0985

> <Gold.Chemscore.DEInternal>
1.0131

> <Gold.Chemscore.Rot>
1.4193

> <Gold.Chemscore.Internal.Correction>
   9.000000E+99

> <Gold.Chemscore.Hbonds>
donor molecule, donor type, donor heavy atom, donor atom, acceptor molecule, acceptor atom, score
      L1  H    11    26       P1  8028  0.92
      P1  H  7989  7998       L1    10  0.28
      P1  H  8011  8017       L1     8  0.32

> <Gold.Chemscore.Hbond.Weighted>
-3.9046

> <Gold.Chemscore.Metal.Weighted>
-0.0000

> <Gold.Chemscore.Lipo.Weighted>
-8.4195

> <Gold.Chemscore.Internal_Hbond.Weighted>
0.0000

> <Gold.Chemscore.DEClash.Weighted>
0.0985

> <Gold.Chemscore.DEInternal.Weighted>
1.0131

> <Gold.Chemscore.Rot.Weighted>
3.6333

> <Gold.Chemscore.Internal.Correction.Weighted>
   9.000000E+99

> <Gold.Protein.RotatedTorsions>
[ 6907 6896 6895 6894 ] final -101.45 input  -60.11 | X-H torsion
[ 7974 7965 7964 7962 ] final   13.84 input  175.53 | X-H torsion
[ 8008 7997 7996 7995 ] final  -97.79 input   59.86 | X-H torsion
[ 10167 10162 10161 10158 ] final  -94.41 input  -65.29 | X-H torsion
[ 10718 10713 10712 10709 ] final  152.99 input   66.30 | X-H torsion
[ 10763 10752 10751 10750 ] final -106.35 input  -60.55 | X-H torsion
[ 11005 11000 10999 10996 ] final  -61.48 input  -57.11 | X-H torsion

> <Gold.Protein.ActiveResidues>
 VAL166  LYS551  ARG553  GLY616  TRP617  ASP618  TYR619  PRO620  LYS621  CYS622 
 ASP623  PHE694  ASN695  SER759  ASP760  ASP761  ALA762  ILE779  LEU786  VAL792 
 PHE793  MET794  SER795  GLU796  ALA797  LYS798  CYS799  TRP800  GLU811  SER814 

> <Gold.Protein.RotatedAtoms>
  150.7155  134.0733  159.3871 H   0  0  0  0  0  0  0  0  0  0  0  0  # atno 6907 bound_to 6896
  151.8715  135.0485  160.0489 H   0  0  0  0  0  0  0  0  0  0  0  0  # atno 6908 bound_to 6896
  152.2639  133.5286  159.5435 H   0  0  0  0  0  0  0  0  0  0  0  0  # atno 6909 bound_to 6896
  146.2320  139.9129  142.8521 H   0  0  0  0  0  0  0  0  0  0  0  0  # atno 7974 bound_to 7965
  154.7925  140.0460  157.1212 H   0  0  0  0  0  0  0  0  0  0  0  0  # atno 8008 bound_to 7997
  154.9574  140.3073  155.5027 H   0  0  0  0  0  0  0  0  0  0  0  0  # atno 8009 bound_to 7997
  156.2951  140.2277  156.4657 H   0  0  0  0  0  0  0  0  0  0  0  0  # atno 8010 bound_to 7997
  140.3147  143.3084  152.0111 H   0  0  0  0  0  0  0  0  0  0  0  0  # atno 10167 bound_to 10162
  157.2506  131.0778  151.1732 H   0  0  0  0  0  0  0  0  0  0  0  0  # atno 10718 bound_to 10713
  154.8006  135.4715  154.0268 H   0  0  0  0  0  0  0  0  0  0  0  0  # atno 10763 bound_to 10752
  153.1776  135.6835  153.8529 H   0  0  0  0  0  0  0  0  0  0  0  0  # atno 10764 bound_to 10752
  153.8090  135.3219  155.3376 H   0  0  0  0  0  0  0  0  0  0  0  0  # atno 10765 bound_to 10752
  141.1326  133.6630  156.5382 H   0  0  0  0  0  0  0  0  0  0  0  0  # atno 11005 bound_to 11000
  145.2212  140.9936  143.4044 LP  0  0  0  0  0  0  0  0  0  0  0  0  # atno 17320 bound_to 7965
  144.9609  139.3981  143.6356 LP  0  0  0  0  0  0  0  0  0  0  0  0  # atno 17321 bound_to 7965
  139.4886  144.6357  151.6979 LP  0  0  0  0  0  0  0  0  0  0  0  0  # atno 17342 bound_to 10162
  140.5537  144.0383  150.6138 LP  0  0  0  0  0  0  0  0  0  0  0  0  # atno 17343 bound_to 10162
  157.3282  130.6971  149.6308 LP  0  0  0  0  0  0  0  0  0  0  0  0  # atno 17370 bound_to 10713
  155.9666  130.4315  150.4924 LP  0  0  0  0  0  0  0  0  0  0  0  0  # atno 17371 bound_to 10713
  140.4161  134.7229  157.4863 LP  0  0  0  0  0  0  0  0  0  0  0  0  # atno 17394 bound_to 11000
  140.0393  134.6291  155.9002 LP  0  0  0  0  0  0  0  0  0  0  0  0  # atno 17395 bound_to 11000

$$$$
