#       Name:                AV-unprocessed.smi:1754
#       Creating user name   scv26
#       Creation time:       Fri Mar 27 08:28:20 2020


#       File generated by GOLD software.
#

@<TRIPOS>MOLECULE
AV-unprocessed.smi:1754
    47    48     1
SMALL
NO_CHARGES


@<TRIPOS>ATOM
      1 ****        -5.0154  -1.9912   0.5582 C.3            1 S1                 0.0000
      2 ****        -4.8148  -0.6856  -0.2226 C.3            1 S1                 0.0000
      3 ****        -4.1085   0.3255   0.5630 N.pl3          1 S1                 0.0000
      4 ****        -4.8779   1.2100   1.4345 C.3            1 S1                 0.0000
      5 ****        -5.3283   2.4864   0.7118 C.3            1 S1                 0.0000
      6 ****        -2.6974   0.4118   0.5188 C.ar           1 S1                 0.0000
      7 ****        -1.9639   1.4804   1.0913 C.ar           1 S1                 0.0000
      8 ****        -0.5563   1.4960   1.0090 C.ar           1 S1                 0.0000
      9 ****         0.1177   0.4336   0.3596 C.ar           1 S1                 0.0000
     10 ****         1.5281   0.3621   0.2048 N.am           1 S1                 0.0000
     11 ****         2.4850   0.9692   0.9346 C.2            1 S1                 0.0000
     12 ****         2.2709   1.6633   1.9259 O.2            1 S1                 0.0000
     13 ****         3.7396   0.7277   0.5138 N.am           1 S1                 0.0000
     14 ****         4.9970   1.2255   1.0744 C.3            1 S1                 0.0000
     15 ****         6.1760   0.3198   0.6721 C.3            1 S1                 0.0000
     16 ****         7.4887   1.0562   0.9691 C.3            1 S1                 0.0000
     17 ****         7.1258   2.8432   0.7783 S.o2           1 S1                 0.0000
     18 ****         7.4098   3.5241   2.0506 O.2            1 S1                 0.0000
     19 ****         7.6937   3.3325  -0.4870 O.2            1 S1                 0.0000
     20 ****         5.3142   2.6488   0.5880 C.3            1 S1                 0.0000
     21 ****        -0.6570  -0.5972  -0.2078 C.ar           1 S1                 0.0000
     22 ****        -2.0031  -0.5712  -0.1056 N.pl3          1 S1                 1.0000
     23 ****        -5.5601  -2.7199  -0.0424 H              1 S1                 0.0000
     24 ****        -5.5862  -1.8234   1.4718 H              1 S1                 0.0000
     25 ****        -4.0611  -2.4389   0.8369 H              1 S1                 0.0000
     26 ****        -4.2963  -0.8787  -1.1620 H              1 S1                 0.0000
     27 ****        -5.7895  -0.2858  -0.5043 H              1 S1                 0.0000
     28 ****        -5.7599   0.6713   1.7824 H              1 S1                 0.0000
     29 ****        -4.3152   1.4536   2.3355 H              1 S1                 0.0000
     30 ****        -5.9096   3.1225   1.3795 H              1 S1                 0.0000
     31 ****        -5.9534   2.2533  -0.1506 H              1 S1                 0.0000
     32 ****        -4.4763   3.0680   0.3593 H              1 S1                 0.0000
     33 ****        -2.4570   2.3038   1.5851 H              1 S1                 0.0000
     34 ****        -0.0243   2.3330   1.4336 H              1 S1                 0.0000
     35 ****         1.8543  -0.2598  -0.5206 H              1 S1                 0.0000
     36 ****         3.8328   0.0915  -0.2651 H              1 S1                 0.0000
     37 ****         4.9477   1.2274   2.1651 H              1 S1                 0.0000
     38 ****         6.1373  -0.6460   1.1770 H              1 S1                 0.0000
     39 ****         6.1254   0.1198  -0.3995 H              1 S1                 0.0000
     40 ****         7.8041   0.8857   1.9988 H              1 S1                 0.0000
     41 ****         8.3006   0.7625   0.3035 H              1 S1                 0.0000
     42 ****         5.0773   2.7660  -0.4703 H              1 S1                 0.0000
     43 ****         4.7942   3.4251   1.1493 H              1 S1                 0.0000
     44 ****        -0.2436  -1.4449  -0.7350 H              1 S1                 0.0000
     45 ****        -2.5296  -1.3393  -0.5224 H              1 S1                 0.0000
     46 ****         1.3332   1.8091   2.2412 LP             1 S1                 0.0000
     47 ****         3.0345   2.0824   2.4173 LP             1 S1                 0.0000
@<TRIPOS>BOND
    1    1    2 1     
    2    1   23 1     
    3    1   24 1     
    4    1   25 1     
    5    2    3 1     
    6    2   26 1     
    7    2   27 1     
    8    3    4 1     
    9    3    6 1     
   10    4    5 1     
   11    4   28 1     
   12    4   29 1     
   13    5   30 1     
   14    5   31 1     
   15    5   32 1     
   16    6   22 ar    
   17    6    7 ar    
   18    7    8 ar    
   19    7   33 1     
   20    8    9 ar    
   21    8   34 1     
   22    9   10 1     
   23    9   21 ar    
   24   10   11 am    
   25   10   35 1     
   26   11   12 2     
   27   11   13 am    
   28   13   14 1     
   29   13   36 1     
   30   14   20 1     
   31   14   15 1     
   32   14   37 1     
   33   15   16 1     
   34   15   38 1     
   35   15   39 1     
   36   16   17 1     
   37   16   40 1     
   38   16   41 1     
   39   17   18 2     
   40   17   19 2     
   41   17   20 1     
   42   20   42 1     
   43   20   43 1     
   44   21   22 ar    
   45   21   44 1     
   46   22   45 1     
   47   12   46 1     
   48   12   47 1     
@<TRIPOS>SUBSTRUCTURE
      1 S1             1
@<TRIPOS>SET
LONE_PAIRS      STATIC     ATOMS    <user>   **** ""
4 46 47 18 19
DONOR_HYDROGENS      STATIC     ATOMS    <user>   **** ""
3 35 36 45
ATOM$BLUE        STATIC     ATOMS    COLORGROUP SYSTEM
4 46 47 18 19
ATOM$RED        STATIC     ATOMS    COLORGROUP SYSTEM
3 35 36 45
