AV-unprocessed.smi:1949|AV-procd|sdf|7878|dock4
  -GOLD-   2272010 33D 1   1.00000     0.00000
 Structure written by MMmdl.
 28 29  0  0  0  0  0  0  0  0  2 V2000
  149.2147  141.0180  154.9588 C   0  0  0  0  0  0  0  0  0  0  0  0
  150.4365  140.5661  155.6824 C   0  0  0  0  0  0  0  0  0  0  0  0
  151.4270  139.9022  155.0815 N   0  0  0  0  0  0  0  0  0  0  0  0
  152.4548  139.5897  155.9596 N   0  0  0  0  0  0  0  0  0  0  0  0
  152.2345  140.0325  157.2058 C   0  0  0  0  0  0  0  0  0  0  0  0
  153.1121  139.8423  158.2086 N   0  5  0  0  0  0  0  0  0  0  0  0
  153.3486  140.7821  159.1617 C   0  0  0  0  0  0  0  0  0  0  0  0
  153.8389  140.5209  160.2596 O   0  0  0  0  0  0  0  0  0  0  0  0
  153.0293  142.0601  158.8783 N   0  0  0  0  0  0  0  0  0  0  0  0
  153.1983  143.2112  159.7616 C   0  0  0  0  0  0  0  0  0  0  0  0
  152.5635  142.9343  161.1388 C   0  0  0  0  0  0  0  0  0  0  0  0
  151.6579  144.1301  161.4413 C   0  0  0  0  0  0  0  0  0  0  0  0
  151.2376  144.6461  160.0691 C   0  0  0  0  0  0  0  0  0  0  0  0
  152.4844  144.4592  159.2054 C   0  0  0  0  0  0  0  0  0  0  0  0
  150.6920  140.8662  157.3931 S   0  0  0  0  0  0  0  0  0  0  0  0
  149.4593  141.8494  154.2975 H   0  0  0  0  0  0  0  0  0  0  0  0
  148.4539  141.3463  155.6672 H   0  0  0  0  0  0  0  0  0  0  0  0
  148.8066  140.2019  154.3623 H   0  0  0  0  0  0  0  0  0  0  0  0
  152.6381  142.2456  157.9664 H   0  0  0  0  0  0  0  0  0  0  0  0
  154.2623  143.4212  159.8853 H   0  0  0  0  0  0  0  0  0  0  0  0
  151.9568  142.0274  161.1089 H   0  0  0  0  0  0  0  0  0  0  0  0
  153.3157  142.7898  161.9152 H   0  0  0  0  0  0  0  0  0  0  0  0
  150.8066  143.8636  162.0685 H   0  0  0  0  0  0  0  0  0  0  0  0
  152.2283  144.9002  161.9625 H   0  0  0  0  0  0  0  0  0  0  0  0
  150.4247  144.0329  159.6780 H   0  0  0  0  0  0  0  0  0  0  0  0
  150.8950  145.6809  160.0943 H   0  0  0  0  0  0  0  0  0  0  0  0
  153.1358  145.3257  159.3252 H   0  0  0  0  0  0  0  0  0  0  0  0
  152.2413  144.3872  158.1444 H   0  0  0  0  0  0  0  0  0  0  0  0
  1  2  1  0  0  0  0
  1 16  1  0  0  0  0
  1 17  1  0  0  0  0
  1 18  1  0  0  0  0
  2 15  1  0  0  0  0
  2  3  2  0  0  0  0
  3  4  1  0  0  0  0
  4  5  2  0  0  0  0
  5  6  1  0  0  0  0
  5 15  1  0  0  0  0
  6  7  1  0  0  0  0
  7  8  2  0  0  0  0
  7  9  1  0  0  0  0
  9 10  1  0  0  0  0
  9 19  1  0  0  0  0
 10 14  1  0  0  0  0
 10 11  1  0  0  0  0
 10 20  1  0  0  0  0
 11 12  1  0  0  0  0
 11 21  1  0  0  0  0
 11 22  1  0  0  0  0
 12 13  1  0  0  0  0
 12 23  1  0  0  0  0
 12 24  1  0  0  0  0
 13 14  1  0  0  0  0
 13 25  1  0  0  0  0
 13 26  1  0  0  0  0
 14 27  1  0  0  0  0
 14 28  1  0  0  0  0
M  CHG  1   6  -1
M  END
> <s_m_source_file>
AV-unprocessed.smi

> <i_m_source_file_index>
1949

> <i_lp_mmshare_version>
43012

> <i_f3d_flags>
0

> <s_epik_input>
W0NIM11jMW5uYyhzMSlbTkhdQyg9TylbTkhdW0NIXTJbQ0gyXVtDSDJdW0NIMl1bQ0gyXTI=

> <s_epik_cmdline>
J2VwaWtfcHl0aG9uJywgJy1waCcsICc3LjAnLCAnLXRuJywgJzgnLCAnLW1hJywgJzIwMCcsICctbWV0YWxfYmluZGluZycsICctaW1hZScsICc8aW5maWxlLm1hZT4nLCAnLW9tYWUnLCAnPG91dGZpbGUubWFlPic=

> <r_lp_tautomer_probability>
1

> <r_epik_Ionization_Penalty>
4.54091

> <r_epik_Ionization_Penalty_Charging>
4.38642

> <r_epik_Ionization_Penalty_Neutral>
0.154484

> <r_epik_State_Penalty>
4.38606

> <r_epik_Charging_Adjusted_Penalty>
8.77248

> <i_epik_Tot_Q>
-1

> <i_epik_Tot_abs_Q>
1

> <r_epik_Metal_State_Penalty>
0.765318

> <b_epik_Metal_Only>
1

> <s_lp_Force_Field>
OPLS_2005

> <r_lp_Energy>
17.692

> <b_lp_Chiralities_Consistent>
1

> <s_lp_Variant>
AV-unprocessed.smi:1949-2

> <Gold.Version>
5.8.1

> <Gold.Id.Protein>
6NUR|6NUR_protein|mol2

> <Gold.PLP.Fitness>
39.9157

> <Gold.PLP.PLP>
-32.5697

> <Gold.PLP.part.hbond>
-2.5850

> <Gold.PLP.part.metal>
0.0000

> <Gold.PLP.part.buried>
-2.0351

> <Gold.PLP.part.nonpolar>
-27.5344

> <Gold.PLP.part.repulsive>
0.1385

> <Gold.PLP.ligand.clash>
0.1488

> <Gold.PLP.ligand.torsion>
0.4639

> <Gold.PLP.Chemscore.Hbond>
2.8050

> <Gold.PLP.Chemscore.CHOScore>
0.0000

> <Gold.PLP.Chemscore.Metal>
0.0000

> <Gold.Chemscore.Hbonds>
donor molecule, donor type, donor heavy atom, donor atom, acceptor molecule, acceptor atom, score
      P1  H  7989  7998       L1     3  1.00
      P1  H  7997  8008       L1     6  1.20

> <Gold.PLP.Chemscore.Internal.Correction>
0.0075

> <Gold.Rescore>
     Score         DG    S(hbond)    S(metal)    S(lipo)     H(rot)  DE(clash)    DE(int)     intcor
     13.55     -15.36       0.96        0.00      78.74       1.00       0.01       1.79       ----

> <Gold.Chemscore.Fitness>
13.5516

> <Gold.Chemscore.DG>
-15.3550

> <Gold.Chemscore.ZeroCoef>
-5.4800

> <Gold.Chemscore.Hbond>
0.9648

> <Gold.Chemscore.Metal>
0.0000

> <Gold.Chemscore.Lipo>
78.7392

> <Gold.Chemscore.Internal_Hbond>
0.0000

> <Gold.Chemscore.DEClash>
0.0089

> <Gold.Chemscore.DEInternal>
1.7945

> <Gold.Chemscore.Rot>
1.0000

> <Gold.Chemscore.Internal.Correction>
   9.000000E+99

> <Gold.Chemscore.Hbonds>
donor molecule, donor type, donor heavy atom, donor atom, acceptor molecule, acceptor atom, score
      P1  H  7989  7998       L1     3  0.34
      P1  H  7997  8008       L1     6  0.02

> <Gold.Chemscore.Hbond.Weighted>
-3.2225

> <Gold.Chemscore.Metal.Weighted>
-0.0000

> <Gold.Chemscore.Lipo.Weighted>
-9.2125

> <Gold.Chemscore.Internal_Hbond.Weighted>
0.0000

> <Gold.Chemscore.DEClash.Weighted>
0.0089

> <Gold.Chemscore.DEInternal.Weighted>
1.7945

> <Gold.Chemscore.Rot.Weighted>
2.5600

> <Gold.Chemscore.Internal.Correction.Weighted>
   9.000000E+99

> <Gold.Protein.RotatedTorsions>
[ 6907 6896 6895 6894 ] final   37.78 input  -60.11 | X-H torsion
[ 7974 7965 7964 7962 ] final -139.55 input  175.53 | X-H torsion
[ 8008 7997 7996 7995 ] final  -85.70 input   59.86 | X-H torsion
[ 10167 10162 10161 10158 ] final  -23.20 input  -65.29 | X-H torsion
[ 10718 10713 10712 10709 ] final  135.04 input   66.30 | X-H torsion
[ 10763 10752 10751 10750 ] final  114.57 input  -60.55 | X-H torsion
[ 11005 11000 10999 10996 ] final   34.86 input  -57.11 | X-H torsion

> <Gold.Protein.ActiveResidues>
 VAL166  LYS551  ARG553  GLY616  TRP617  ASP618  TYR619  PRO620  LYS621  CYS622 
 ASP623  PHE694  ASN695  SER759  ASP760  ASP761  ALA762  ILE779  LEU786  VAL792 
 PHE793  MET794  SER795  GLU796  ALA797  LYS798  CYS799  TRP800  GLU811  SER814 

> <Gold.Protein.RotatedAtoms>
  152.1477  134.9013  160.0549 H   0  0  0  0  0  0  0  0  0  0  0  0  # atno 6907 bound_to 6896
  152.0056  133.3837  159.4207 H   0  0  0  0  0  0  0  0  0  0  0  0  # atno 6908 bound_to 6896
  150.6872  134.3708  159.5035 H   0  0  0  0  0  0  0  0  0  0  0  0  # atno 6909 bound_to 6896
  144.8668  140.6305  143.5293 H   0  0  0  0  0  0  0  0  0  0  0  0  # atno 7974 bound_to 7965
  154.6436  140.0588  156.9875 H   0  0  0  0  0  0  0  0  0  0  0  0  # atno 8008 bound_to 7997
  155.1478  140.3271  155.4419 H   0  0  0  0  0  0  0  0  0  0  0  0  # atno 8009 bound_to 7997
  156.2543  140.1952  156.6591 H   0  0  0  0  0  0  0  0  0  0  0  0  # atno 8010 bound_to 7997
  140.7287  143.4464  151.0580 H   0  0  0  0  0  0  0  0  0  0  0  0  # atno 10167 bound_to 10162
  157.4612  131.1073  150.9918 H   0  0  0  0  0  0  0  0  0  0  0  0  # atno 10718 bound_to 10713
  153.5092  135.3621  155.2578 H   0  0  0  0  0  0  0  0  0  0  0  0  # atno 10763 bound_to 10752
  154.8743  135.4018  154.3388 H   0  0  0  0  0  0  0  0  0  0  0  0  # atno 10764 bound_to 10752
  153.4038  135.7076  153.6474 H   0  0  0  0  0  0  0  0  0  0  0  0  # atno 10765 bound_to 10752
  140.2485  134.3330  155.7899 H   0  0  0  0  0  0  0  0  0  0  0  0  # atno 11005 bound_to 11000
  145.4206  139.1564  143.4076 LP  0  0  0  0  0  0  0  0  0  0  0  0  # atno 17320 bound_to 7965
  146.2901  140.4316  142.8742 LP  0  0  0  0  0  0  0  0  0  0  0  0  # atno 17321 bound_to 7965
  139.8136  143.7916  152.3173 LP  0  0  0  0  0  0  0  0  0  0  0  0  # atno 17342 bound_to 10162
  139.7974  144.7387  150.9871 LP  0  0  0  0  0  0  0  0  0  0  0  0  # atno 17343 bound_to 10162
  157.0715  130.5866  149.5403 LP  0  0  0  0  0  0  0  0  0  0  0  0  # atno 17370 bound_to 10713
  156.0029  130.5111  150.7728 LP  0  0  0  0  0  0  0  0  0  0  0  0  # atno 17371 bound_to 10713
  141.2204  133.7340  156.9000 LP  0  0  0  0  0  0  0  0  0  0  0  0  # atno 17394 bound_to 11000
  140.1581  134.9184  157.2680 LP  0  0  0  0  0  0  0  0  0  0  0  0  # atno 17395 bound_to 11000

$$$$
