AV-unprocessed.smi:1758|AV-procd|sdf|7079|dock1
  -GOLD-   22720 8303D 1   1.00000     0.00000
 Structure written by MMmdl.
 44 46  0  0  0  0  0  0  0  0  2 V2000
  151.1668  140.9494  158.1373 C   0  0  0  0  0  0  0  0  0  0  0  0
  151.8583  139.6442  157.7238 C   0  0  0  0  0  0  0  0  0  0  0  0
  151.3051  139.1024  156.4974 N   0  0  0  0  0  0  0  0  0  0  0  0
  150.7245  137.8660  156.2946 C   0  0  0  0  0  0  0  0  0  0  0  0
  150.3571  137.8382  154.9828 C   0  0  0  0  0  0  0  0  0  0  0  0
  149.7168  136.7467  154.3445 N   0  0  0  0  0  0  0  0  0  0  0  0
  149.4380  135.5456  154.8759 C   0  0  0  0  0  0  0  0  0  0  0  0
  149.6794  135.2107  156.0353 O   0  0  0  0  0  0  0  0  0  0  0  0
  148.8545  134.7388  153.9784 N   0  0  0  0  0  0  0  0  0  0  0  0
  148.4473  133.3588  154.2272 C   0  0  2  0  0  0  0  0  0  0  0  0
  149.5972  132.4706  154.6869 C   0  0  0  0  0  0  0  0  0  0  0  0
  149.0571  131.0687  154.3997 C   0  0  0  0  0  0  0  0  0  0  0  0
  148.2145  131.1967  153.1885 N   0  3  1  0  0  0  0  0  0  0  0  0
  147.0207  130.3162  153.1733 C   0  0  0  0  0  0  0  0  0  0  0  0
  146.2211  130.5035  151.8706 C   0  0  0  0  0  0  0  0  0  0  0  0
  145.9368  131.9843  151.5420 C   0  0  0  0  0  0  0  0  0  0  0  0
  146.4647  132.9367  152.6258 C   0  0  0  0  0  0  0  0  0  0  0  0
  147.9456  132.6455  152.9600 C   0  0  1  0  0  0  0  0  0  0  0  0
  150.7458  139.0973  154.4436 C   0  0  0  0  0  0  0  0  0  0  0  0
  151.3149  139.8547  155.3690 N   0  0  0  0  0  0  0  0  0  0  0  0
  151.6046  141.3470  159.0530 H   0  0  0  0  0  0  0  0  0  0  0  0
  150.1029  140.7936  158.3191 H   0  0  0  0  0  0  0  0  0  0  0  0
  151.2669  141.7096  157.3621 H   0  0  0  0  0  0  0  0  0  0  0  0
  152.9259  139.8153  157.5803 H   0  0  0  0  0  0  0  0  0  0  0  0
  151.7600  138.8958  158.5114 H   0  0  0  0  0  0  0  0  0  0  0  0
  150.6254  137.1343  157.0830 H   0  0  0  0  0  0  0  0  0  0  0  0
  149.4614  136.8899  153.3783 H   0  0  0  0  0  0  0  0  0  0  0  0
  148.6952  135.1011  153.0494 H   0  0  0  0  0  0  0  0  0  0  0  0
  147.6749  133.3265  154.9991 H   0  0  0  0  0  0  0  0  0  0  0  0
  150.4894  132.6570  154.0867 H   0  0  0  0  0  0  0  0  0  0  0  0
  149.8561  132.6174  155.7360 H   0  0  0  0  0  0  0  0  0  0  0  0
  149.8518  130.3361  154.2564 H   0  0  0  0  0  0  0  0  0  0  0  0
  148.4488  130.7399  155.2442 H   0  0  0  0  0  0  0  0  0  0  0  0
  147.3342  129.2764  153.2724 H   0  0  0  0  0  0  0  0  0  0  0  0
  146.3898  130.5372  154.0359 H   0  0  0  0  0  0  0  0  0  0  0  0
  146.7713  130.0552  151.0422 H   0  0  0  0  0  0  0  0  0  0  0  0
  145.2828  129.9519  151.9400 H   0  0  0  0  0  0  0  0  0  0  0  0
  146.4056  132.2349  150.5894 H   0  0  0  0  0  0  0  0  0  0  0  0
  144.8666  132.1399  151.4008 H   0  0  0  0  0  0  0  0  0  0  0  0
  146.3493  133.9700  152.2972 H   0  0  0  0  0  0  0  0  0  0  0  0
  145.8509  132.8363  153.5222 H   0  0  0  0  0  0  0  0  0  0  0  0
  148.5660  132.9359  152.1104 H   0  0  0  0  0  0  0  0  0  0  0  0
  150.6401  139.4877  153.4423 H   0  0  0  0  0  0  0  0  0  0  0  0
  148.7870  130.9052  152.4091 H   0  0  0  0  0  0  0  0  0  0  0  0
  1  2  1  0  0  0  0
  1 21  1  0  0  0  0
  1 22  1  0  0  0  0
  1 23  1  0  0  0  0
  2  3  1  0  0  0  0
  2 24  1  0  0  0  0
  2 25  1  0  0  0  0
  3 20  1  0  0  0  0
  3  4  1  0  0  0  0
  4  5  2  0  0  0  0
  4 26  1  0  0  0  0
  5  6  1  0  0  0  0
  5 19  1  0  0  0  0
  6  7  1  0  0  0  0
  6 27  1  0  0  0  0
  7  8  2  0  0  0  0
  7  9  1  0  0  0  0
  9 10  1  0  0  0  0
  9 28  1  0  0  0  0
 10 18  1  0  0  0  0
 10 11  1  0  0  0  0
 10 29  1  0  0  0  0
 11 12  1  0  0  0  0
 11 30  1  0  0  0  0
 11 31  1  0  0  0  0
 12 13  1  0  0  0  0
 12 32  1  0  0  0  0
 12 33  1  0  0  0  0
 13 18  1  0  0  0  0
 13 14  1  0  0  0  0
 13 44  1  0  0  0  0
 14 15  1  0  0  0  0
 14 34  1  0  0  0  0
 14 35  1  0  0  0  0
 15 16  1  0  0  0  0
 15 36  1  0  0  0  0
 15 37  1  0  0  0  0
 16 17  1  0  0  0  0
 16 38  1  0  0  0  0
 16 39  1  0  0  0  0
 17 18  1  0  0  0  0
 17 40  1  0  0  0  0
 17 41  1  0  0  0  0
 18 42  1  0  0  0  0
 19 20  2  0  0  0  0
 19 43  1  0  0  0  0
M  CHG  1  13   1
M  END
> <s_m_source_file>
AV-unprocessed.smi

> <i_m_source_file_index>
1758

> <i_lp_mmshare_version>
43012

> <i_f3d_flags>
0

> <s_epik_input>
W0NIM11bQ0gyXW4xW2NIXWMoW2NIXW4xKVtOSF1DKD1PKVtOSF1bQ0BIXShbQ0gyXVtDSDJdMilbQ0BASF0oTjIzKVtDSDJdW0NIMl1bQ0gyXVtDSDJdMw==

> <s_epik_cmdline>
J2VwaWtfcHl0aG9uJywgJy1waCcsICc3LjAnLCAnLXRuJywgJzgnLCAnLW1hJywgJzIwMCcsICctbWV0YWxfYmluZGluZycsICctaW1hZScsICc8aW5maWxlLm1hZT4nLCAnLW9tYWUnLCAnPG91dGZpbGUubWFlPic=

> <r_lp_tautomer_probability>
1

> <r_epik_Ionization_Penalty>
0.00111541

> <r_epik_Ionization_Penalty_Charging>
0.000974069

> <r_epik_Ionization_Penalty_Neutral>
0.000141346

> <r_epik_State_Penalty>
0.000633842

> <r_epik_Charging_Adjusted_Penalty>
0.00160791

> <i_epik_Tot_Q>
1

> <i_epik_Tot_abs_Q>
1

> <r_epik_Metal_State_Penalty>
-0

> <b_epik_Metal_Only>
0

> <s_lp_Force_Field>
OPLS_2005

> <r_lp_Energy>
44.0828

> <b_lp_Chiralities_Consistent>
1

> <s_lp_Variant>
AV-unprocessed.smi:1758-1

> <Gold.Version>
5.8.1

> <Gold.Id.Protein>
6NUR|6NUR_protein|mol2

> <Gold.PLP.Fitness>
44.1315

> <Gold.PLP.PLP>
-32.2572

> <Gold.PLP.part.hbond>
-4.4016

> <Gold.PLP.part.metal>
0.0000

> <Gold.PLP.part.buried>
-2.1360

> <Gold.PLP.part.nonpolar>
-26.0973

> <Gold.PLP.part.repulsive>
0.1073

> <Gold.PLP.ligand.clash>
0.0000

> <Gold.PLP.ligand.torsion>
0.0307

> <Gold.PLP.Chemscore.Hbond>
2.9760

> <Gold.PLP.Chemscore.CHOScore>
1.0000

> <Gold.PLP.Chemscore.Metal>
0.0000

> <Gold.Chemscore.Hbonds>
donor molecule, donor type, donor heavy atom, donor atom, acceptor molecule, acceptor atom, score
      L1  H     6    27       P1  7948  0.99
      L1  H     9    28       P1  7948  1.00
      L1  H    13    44       P1 10747  0.75
      L1  C    19    43       P1  7957  0.95

> <Gold.PLP.Chemscore.Internal.Correction>
0.0077

> <Gold.Rescore>
     Score         DG    S(hbond)    S(metal)    S(lipo)     H(rot)  DE(clash)    DE(int)     intcor
     18.39     -19.82       2.59        0.00      74.74       1.19       0.06       1.37       ----

> <Gold.Chemscore.Fitness>
18.3859

> <Gold.Chemscore.DG>
-19.8191

> <Gold.Chemscore.ZeroCoef>
-5.4800

> <Gold.Chemscore.Hbond>
2.5857

> <Gold.Chemscore.Metal>
0.0000

> <Gold.Chemscore.Lipo>
74.7446

> <Gold.Chemscore.Internal_Hbond>
0.0000

> <Gold.Chemscore.DEClash>
0.0605

> <Gold.Chemscore.DEInternal>
1.3728

> <Gold.Chemscore.Rot>
1.1884

> <Gold.Chemscore.Internal.Correction>
   9.000000E+99

> <Gold.Chemscore.Hbonds>
donor molecule, donor type, donor heavy atom, donor atom, acceptor molecule, acceptor atom, score
      L1  H     6    27       P1  7948  0.80
      L1  H     9    28       P1  7948  0.53
      L1  H    13    44       P1 10747  0.50

> <Gold.Chemscore.Hbond.Weighted>
-8.6363

> <Gold.Chemscore.Metal.Weighted>
-0.0000

> <Gold.Chemscore.Lipo.Weighted>
-8.7451

> <Gold.Chemscore.Internal_Hbond.Weighted>
0.0000

> <Gold.Chemscore.DEClash.Weighted>
0.0605

> <Gold.Chemscore.DEInternal.Weighted>
1.3728

> <Gold.Chemscore.Rot.Weighted>
3.0423

> <Gold.Chemscore.Internal.Correction.Weighted>
   9.000000E+99

> <Gold.Protein.RotatedTorsions>
[ 6907 6896 6895 6894 ] final  -32.68 input  -60.11 | X-H torsion
[ 7974 7965 7964 7962 ] final  -63.93 input  175.53 | X-H torsion
[ 8008 7997 7996 7995 ] final   57.14 input   59.86 | X-H torsion
[ 10167 10162 10161 10158 ] final  149.09 input  -65.29 | X-H torsion
[ 10718 10713 10712 10709 ] final  -91.71 input   66.30 | X-H torsion
[ 10763 10752 10751 10750 ] final   30.16 input  -60.55 | X-H torsion
[ 11005 11000 10999 10996 ] final   22.13 input  -57.11 | X-H torsion

> <Gold.Protein.ActiveResidues>
 VAL166  LYS551  ARG553  GLY616  TRP617  ASP618  TYR619  PRO620  LYS621  CYS622 
 ASP623  PHE694  ASN695  SER759  ASP760  ASP761  ALA762  ILE779  LEU786  VAL792 
 PHE793  MET794  SER795  GLU796  ALA797  LYS798  CYS799  TRP800  GLU811  SER814 

> <Gold.Protein.RotatedAtoms>
  151.0755  134.9825  159.8329 H   0  0  0  0  0  0  0  0  0  0  0  0  # atno 6907 bound_to 6896
  152.5413  134.2246  159.8811 H   0  0  0  0  0  0  0  0  0  0  0  0  # atno 6908 bound_to 6896
  151.2273  133.4426  159.2636 H   0  0  0  0  0  0  0  0  0  0  0  0  # atno 6909 bound_to 6896
  145.7730  140.8803  143.0370 H   0  0  0  0  0  0  0  0  0  0  0  0  # atno 7974 bound_to 7965
  155.5289  140.3481  155.4422 H   0  0  0  0  0  0  0  0  0  0  0  0  # atno 8008 bound_to 7997
  156.0732  140.1368  156.9830 H   0  0  0  0  0  0  0  0  0  0  0  0  # atno 8009 bound_to 7997
  154.4539  140.0961  156.6676 H   0  0  0  0  0  0  0  0  0  0  0  0  # atno 8010 bound_to 7997
  139.4866  144.5629  151.7198 H   0  0  0  0  0  0  0  0  0  0  0  0  # atno 10167 bound_to 10162
  155.9996  130.4958  150.5515 H   0  0  0  0  0  0  0  0  0  0  0  0  # atno 10718 bound_to 10713
  153.0388  135.6471  154.1002 H   0  0  0  0  0  0  0  0  0  0  0  0  # atno 10763 bound_to 10752
  154.0712  135.2880  155.3309 H   0  0  0  0  0  0  0  0  0  0  0  0  # atno 10764 bound_to 10752
  154.6593  135.5397  153.8062 H   0  0  0  0  0  0  0  0  0  0  0  0  # atno 10765 bound_to 10752
  140.3840  134.1890  155.7663 H   0  0  0  0  0  0  0  0  0  0  0  0  # atno 11005 bound_to 11000
  144.6809  139.9881  143.7484 LP  0  0  0  0  0  0  0  0  0  0  0  0  # atno 17320 bound_to 7965
  146.0151  139.3203  143.0847 LP  0  0  0  0  0  0  0  0  0  0  0  0  # atno 17321 bound_to 7965
  140.5202  144.0891  150.6020 LP  0  0  0  0  0  0  0  0  0  0  0  0  # atno 17342 bound_to 10162
  140.3846  143.2784  152.0130 LP  0  0  0  0  0  0  0  0  0  0  0  0  # atno 17343 bound_to 10162
  157.3438  131.0721  151.1767 LP  0  0  0  0  0  0  0  0  0  0  0  0  # atno 17370 bound_to 10713
  157.2607  130.6657  149.5973 LP  0  0  0  0  0  0  0  0  0  0  0  0  # atno 17371 bound_to 10713
  141.1914  133.8196  157.0882 LP  0  0  0  0  0  0  0  0  0  0  0  0  # atno 17394 bound_to 11000
  140.0457  134.9832  157.1044 LP  0  0  0  0  0  0  0  0  0  0  0  0  # atno 17395 bound_to 11000

$$$$
