AV-unprocessed.smi:557|AV-procd|sdf|2917|dock7
  -GOLD-   2262023413D 1   1.00000     0.00000
 Structure written by MMmdl.
 47 49  0  0  0  0  0  0  0  0  2 V2000
  152.2493  138.3859  155.0479 C   0  0  0  0  0  0  0  0  0  0  0  0
  150.9584  138.9660  154.7462 N   0  0  0  0  0  0  0  0  0  0  0  0
  149.8374  138.3507  154.2322 C   0  0  0  0  0  0  0  0  0  0  0  0
  148.8627  139.3018  154.1207 C   0  0  0  0  0  0  0  0  0  0  0  0
  147.4534  139.1497  153.6211 C   0  0  0  0  0  0  0  0  0  0  0  0
  146.7600  137.9388  154.2590 C   0  0  0  0  0  0  0  0  0  0  0  0
  146.9958  136.7343  153.4678 N   0  0  0  0  0  0  0  0  0  0  0  0
  146.2451  135.6203  153.4418 C   0  0  0  0  0  0  0  0  0  0  0  0
  145.2307  135.5026  154.1260 O   0  0  0  0  0  0  0  0  0  0  0  0
  146.6992  134.6609  152.6177 N   0  0  0  0  0  0  0  0  0  0  0  0
  146.0741  133.3581  152.4124 C   0  0  1  0  0  0  0  0  0  0  0  0
  145.5093  133.1817  151.0078 C   0  0  0  0  0  0  0  0  0  0  0  0
  145.3930  131.6610  150.8959 C   0  0  0  0  0  0  0  0  0  0  0  0
  146.5305  131.1105  151.6671 N   0  3  2  0  0  0  0  0  0  0  0  0
  146.2510  129.8224  152.3472 C   0  0  0  0  0  0  0  0  0  0  0  0
  147.4940  129.3340  153.1124 C   0  0  0  0  0  0  0  0  0  0  0  0
  148.0864  130.4080  154.0485 C   0  0  0  0  0  0  0  0  0  0  0  0
  147.3094  131.7330  153.9922 C   0  0  0  0  0  0  0  0  0  0  0  0
  147.0729  132.1941  152.5360 C   0  0  2  0  0  0  0  0  0  0  0  0
  149.4992  140.4840  154.5954 C   0  0  0  0  0  0  0  0  0  0  0  0
  150.7514  140.2798  154.9700 N   0  0  0  0  0  0  0  0  0  0  0  0
  152.2143  137.3044  154.9133 H   0  0  0  0  0  0  0  0  0  0  0  0
  152.5221  138.6051  156.0807 H   0  0  0  0  0  0  0  0  0  0  0  0
  153.0043  138.8026  154.3809 H   0  0  0  0  0  0  0  0  0  0  0  0
  149.8247  137.2975  153.9924 H   0  0  0  0  0  0  0  0  0  0  0  0
  146.8752  140.0496  153.8339 H   0  0  0  0  0  0  0  0  0  0  0  0
  147.4446  139.0413  152.5359 H   0  0  0  0  0  0  0  0  0  0  0  0
  147.1362  137.7862  155.2721 H   0  0  0  0  0  0  0  0  0  0  0  0
  145.6868  138.1234  154.3324 H   0  0  0  0  0  0  0  0  0  0  0  0
  147.8184  136.7428  152.8818 H   0  0  0  0  0  0  0  0  0  0  0  0
  147.5410  134.8513  152.0934 H   0  0  0  0  0  0  0  0  0  0  0  0
  145.2538  133.2185  153.1196 H   0  0  0  0  0  0  0  0  0  0  0  0
  144.5556  133.6905  150.8645 H   0  0  0  0  0  0  0  0  0  0  0  0
  146.2112  133.5579  150.2619 H   0  0  0  0  0  0  0  0  0  0  0  0
  144.4506  131.3398  151.3429 H   0  0  0  0  0  0  0  0  0  0  0  0
  145.4067  131.3148  149.8623 H   0  0  0  0  0  0  0  0  0  0  0  0
  145.4097  129.9397  153.0325 H   0  0  0  0  0  0  0  0  0  0  0  0
  145.9522  129.0792  151.6072 H   0  0  0  0  0  0  0  0  0  0  0  0
  147.2430  128.4397  153.6837 H   0  0  0  0  0  0  0  0  0  0  0  0
  148.2569  129.0267  152.3961 H   0  0  0  0  0  0  0  0  0  0  0  0
  148.1089  130.0398  155.0747 H   0  0  0  0  0  0  0  0  0  0  0  0
  149.1254  130.5893  153.7708 H   0  0  0  0  0  0  0  0  0  0  0  0
  146.3540  131.6098  154.5041 H   0  0  0  0  0  0  0  0  0  0  0  0
  147.8497  132.5000  154.5472 H   0  0  0  0  0  0  0  0  0  0  0  0
  148.0278  132.4850  152.0948 H   0  0  0  0  0  0  0  0  0  0  0  0
  149.0890  141.4794  154.6803 H   0  0  0  0  0  0  0  0  0  0  0  0
  147.2615  130.9194  150.9968 H   0  0  0  0  0  0  0  0  0  0  0  0
  1  2  1  0  0  0  0
  1 22  1  0  0  0  0
  1 23  1  0  0  0  0
  1 24  1  0  0  0  0
  2 21  1  0  0  0  0
  2  3  1  0  0  0  0
  3  4  2  0  0  0  0
  3 25  1  0  0  0  0
  4  5  1  0  0  0  0
  4 20  1  0  0  0  0
  5  6  1  0  0  0  0
  5 26  1  0  0  0  0
  5 27  1  0  0  0  0
  6  7  1  0  0  0  0
  6 28  1  0  0  0  0
  6 29  1  0  0  0  0
  7  8  1  0  0  0  0
  7 30  1  0  0  0  0
  8  9  2  0  0  0  0
  8 10  1  0  0  0  0
 10 11  1  0  0  0  0
 10 31  1  0  0  0  0
 11 19  1  0  0  0  0
 11 12  1  0  0  0  0
 11 32  1  0  0  0  0
 12 13  1  0  0  0  0
 12 33  1  0  0  0  0
 12 34  1  0  0  0  0
 13 14  1  0  0  0  0
 13 35  1  0  0  0  0
 13 36  1  0  0  0  0
 14 19  1  0  0  0  0
 14 15  1  0  0  0  0
 14 47  1  0  0  0  0
 15 16  1  0  0  0  0
 15 37  1  0  0  0  0
 15 38  1  0  0  0  0
 16 17  1  0  0  0  0
 16 39  1  0  0  0  0
 16 40  1  0  0  0  0
 17 18  1  0  0  0  0
 17 41  1  0  0  0  0
 17 42  1  0  0  0  0
 18 19  1  0  0  0  0
 18 43  1  0  0  0  0
 18 44  1  0  0  0  0
 19 45  1  0  0  0  0
 20 21  2  0  0  0  0
 20 46  1  0  0  0  0
M  CHG  1  14   1
M  END
> <s_m_source_file>
AV-unprocessed.smi

> <i_m_source_file_index>
557

> <i_lp_mmshare_version>
43012

> <i_f3d_flags>
0

> <s_epik_input>
W0NIM11uMVtjSF1jKFtjSF1uMSlbQ0gyXVtDSDJdW05IXUMoPU8pW05IXVtDQEhdKFtDSDJdW0NIMl0yKVtDQEhdKE4yMylbQ0gyXVtDSDJdW0NIMl1bQ0gyXTM=

> <s_epik_cmdline>
J2VwaWtfcHl0aG9uJywgJy1waCcsICc3LjAnLCAnLXRuJywgJzgnLCAnLW1hJywgJzIwMCcsICctbWV0YWxfYmluZGluZycsICctaW1hZScsICc8aW5maWxlLm1hZT4nLCAnLW9tYWUnLCAnPG91dGZpbGUubWFlPic=

> <r_lp_tautomer_probability>
1

> <r_epik_Ionization_Penalty>
0.000956547

> <r_epik_Ionization_Penalty_Charging>
0.000435796

> <r_epik_Ionization_Penalty_Neutral>
0.000520752

> <r_epik_State_Penalty>
-0

> <r_epik_Charging_Adjusted_Penalty>
0.000435796

> <i_epik_Tot_Q>
1

> <i_epik_Tot_abs_Q>
1

> <r_epik_Metal_State_Penalty>
-0

> <b_epik_Metal_Only>
0

> <s_lp_Force_Field>
OPLS_2005

> <r_lp_Energy>
44.9241

> <b_lp_Chiralities_Consistent>
1

> <s_lp_Variant>
AV-unprocessed.smi:557-4

> <Gold.Version>
5.8.1

> <Gold.Id.Protein>
6NUR|6NUR_protein|mol2

> <Gold.PLP.Fitness>
48.4078

> <Gold.PLP.PLP>
-35.4479

> <Gold.PLP.part.hbond>
-4.0000

> <Gold.PLP.part.metal>
0.0000

> <Gold.PLP.part.buried>
-2.1799

> <Gold.PLP.part.nonpolar>
-29.4049

> <Gold.PLP.part.repulsive>
0.1278

> <Gold.PLP.ligand.clash>
0.0000

> <Gold.PLP.ligand.torsion>
0.5479

> <Gold.PLP.Chemscore.Hbond>
3.6980

> <Gold.PLP.Chemscore.CHOScore>
0.9823

> <Gold.PLP.Chemscore.Metal>
0.0000

> <Gold.Chemscore.Hbonds>
donor molecule, donor type, donor heavy atom, donor atom, acceptor molecule, acceptor atom, score
      L1  H     7    30       P1  7948  1.00
      L1  H    10    31       P1  7948  0.86
      L1  H    14    47       P1 10747  1.00
      P1  H  7989  7998       L1    21  0.85
      L1  C     3    25       P1  7948  0.94

> <Gold.PLP.Chemscore.Internal.Correction>
0.0147

> <Gold.Rescore>
     Score         DG    S(hbond)    S(metal)    S(lipo)     H(rot)  DE(clash)    DE(int)     intcor
     20.54     -21.02       2.80        0.00      87.84       1.60       0.04       0.43       ----

> <Gold.Chemscore.Fitness>
20.5442

> <Gold.Chemscore.DG>
-21.0211

> <Gold.Chemscore.ZeroCoef>
-5.4800

> <Gold.Chemscore.Hbond>
2.8038

> <Gold.Chemscore.Metal>
0.0000

> <Gold.Chemscore.Lipo>
87.8378

> <Gold.Chemscore.Internal_Hbond>
0.0000

> <Gold.Chemscore.DEClash>
0.0423

> <Gold.Chemscore.DEInternal>
0.4346

> <Gold.Chemscore.Rot>
1.6018

> <Gold.Chemscore.Internal.Correction>
   9.000000E+99

> <Gold.Chemscore.Hbonds>
donor molecule, donor type, donor heavy atom, donor atom, acceptor molecule, acceptor atom, score
      L1  H     7    30       P1  7948  0.98
      L1  H    10    31       P1  7948  0.72
      L1  H    14    47       P1 10747  0.99
      P1  H  7989  7998       L1    21  0.04

> <Gold.Chemscore.Hbond.Weighted>
-9.3647

> <Gold.Chemscore.Metal.Weighted>
-0.0000

> <Gold.Chemscore.Lipo.Weighted>
-10.2770

> <Gold.Chemscore.Internal_Hbond.Weighted>
0.0000

> <Gold.Chemscore.DEClash.Weighted>
0.0423

> <Gold.Chemscore.DEInternal.Weighted>
0.4346

> <Gold.Chemscore.Rot.Weighted>
4.1006

> <Gold.Chemscore.Internal.Correction.Weighted>
   9.000000E+99

> <Gold.Protein.RotatedTorsions>
[ 6907 6896 6895 6894 ] final  -53.30 input  -60.11 | X-H torsion
[ 7974 7965 7964 7962 ] final -160.23 input  175.53 | X-H torsion
[ 8008 7997 7996 7995 ] final -144.60 input   59.86 | X-H torsion
[ 10167 10162 10161 10158 ] final   -8.47 input  -65.29 | X-H torsion
[ 10718 10713 10712 10709 ] final   94.04 input   66.30 | X-H torsion
[ 10763 10752 10751 10750 ] final  -86.32 input  -60.55 | X-H torsion
[ 11005 11000 10999 10996 ] final -116.88 input  -57.11 | X-H torsion

> <Gold.Protein.ActiveResidues>
 VAL166  LYS551  ARG553  GLY616  TRP617  ASP618  TYR619  PRO620  LYS621  CYS622 
 ASP623  PHE694  ASN695  SER759  ASP760  ASP761  ALA762  ILE779  LEU786  VAL792 
 PHE793  MET794  SER795  GLU796  ALA797  LYS798  CYS799  TRP800  GLU811  SER814 

> <Gold.Protein.RotatedAtoms>
  150.8439  134.7741  159.6954 H   0  0  0  0  0  0  0  0  0  0  0  0  # atno 6907 bound_to 6896
  152.4520  134.5369  159.9837 H   0  0  0  0  0  0  0  0  0  0  0  0  # atno 6908 bound_to 6896
  151.5503  133.3380  159.2987 H   0  0  0  0  0  0  0  0  0  0  0  0  # atno 6909 bound_to 6896
  144.7435  140.3571  143.6104 H   0  0  0  0  0  0  0  0  0  0  0  0  # atno 7974 bound_to 7965
  155.5295  140.0598  157.2891 H   0  0  0  0  0  0  0  0  0  0  0  0  # atno 8008 bound_to 7997
  154.4489  140.1938  156.0525 H   0  0  0  0  0  0  0  0  0  0  0  0  # atno 8009 bound_to 7997
  156.0662  140.3266  155.7525 H   0  0  0  0  0  0  0  0  0  0  0  0  # atno 8010 bound_to 7997
  140.7060  143.5965  150.8841 H   0  0  0  0  0  0  0  0  0  0  0  0  # atno 10167 bound_to 10162
  157.6951  131.0499  150.4126 H   0  0  0  0  0  0  0  0  0  0  0  0  # atno 10718 bound_to 10713
  154.6211  135.5453  153.7577 H   0  0  0  0  0  0  0  0  0  0  0  0  # atno 10763 bound_to 10752
  153.0239  135.6413  154.1439 H   0  0  0  0  0  0  0  0  0  0  0  0  # atno 10764 bound_to 10752
  154.1373  135.2910  155.3150 H   0  0  0  0  0  0  0  0  0  0  0  0  # atno 10765 bound_to 10752
  141.0392  133.9862  157.3022 H   0  0  0  0  0  0  0  0  0  0  0  0  # atno 11005 bound_to 11000
  145.7216  139.1711  143.2481 LP  0  0  0  0  0  0  0  0  0  0  0  0  # atno 17320 bound_to 7965
  146.1273  140.7231  142.9429 LP  0  0  0  0  0  0  0  0  0  0  0  0  # atno 17321 bound_to 7965
  139.9690  143.6078  152.2979 LP  0  0  0  0  0  0  0  0  0  0  0  0  # atno 17342 bound_to 10162
  139.6658  144.7662  151.1876 LP  0  0  0  0  0  0  0  0  0  0  0  0  # atno 17343 bound_to 10162
  156.4509  130.4011  149.6637 LP  0  0  0  0  0  0  0  0  0  0  0  0  # atno 17370 bound_to 10713
  156.3786  130.7567  151.2558 LP  0  0  0  0  0  0  0  0  0  0  0  0  # atno 17371 bound_to 10713
  139.9263  135.0201  156.8246 LP  0  0  0  0  0  0  0  0  0  0  0  0  # atno 17394 bound_to 11000
  140.6265  133.9945  155.7642 LP  0  0  0  0  0  0  0  0  0  0  0  0  # atno 17395 bound_to 11000

$$$$
