AV-unprocessed.smi:1610|AV-procd|sdf|6470|dock2
  -GOLD-   22720 7123D 1   1.00000     0.00000
 Structure written by MMmdl.
 44 45  0  0  0  0  0  0  0  0  1 V2000
  156.5698  135.7649  159.8003 C   0  0  0  0  0  0  0  0  0  0  0  0
  156.0125  134.1249  160.4197 S   0  0  0  0  0  0  0  0  0  0  0  0
  154.5738  133.9801  160.1495 O   0  0  0  0  0  0  0  0  0  0  0  0
  156.9637  133.1064  159.9505 O   0  0  0  0  0  0  0  0  0  0  0  0
  156.2168  134.2705  162.1265 N   0  0  0  0  0  0  0  0  0  0  0  0
  155.5595  135.3405  162.8790 C   0  0  0  0  0  0  0  0  0  0  0  0
  154.5113  136.0484  161.9962 C   0  0  0  0  0  0  0  0  0  0  0  0
  153.9341  137.2823  162.7139 C   0  0  0  0  0  0  0  0  0  0  0  0
  155.0420  138.1796  163.0881 N   0  0  0  0  0  0  0  0  0  0  0  0
  155.3592  139.3568  162.4916 C   0  0  0  0  0  0  0  0  0  0  0  0
  156.3928  139.9806  162.7372 O   0  0  0  0  0  0  0  0  0  0  0  0
  154.4393  139.8165  161.6260 N   0  0  0  0  0  0  0  0  0  0  0  0
  154.5424  141.0606  160.8727 C   0  0  0  0  0  0  0  0  0  0  0  0
  153.4100  141.1910  159.8414 C   0  0  0  0  0  0  0  0  0  0  0  0
  152.9202  142.6191  159.7097 C   0  0  0  0  0  0  0  0  0  0  0  0
  152.8548  143.2466  158.4486 C   0  0  0  0  0  0  0  0  0  0  0  0
  152.3949  144.5755  158.3756 C   0  0  0  0  0  0  0  0  0  0  0  0
  152.0198  145.2218  159.5703 C   0  0  0  0  0  0  0  0  0  0  0  0
  152.0796  144.6313  160.7835 N   0  0  0  0  0  0  0  0  0  0  0  0
  152.5216  143.3566  160.8448 C   0  0  0  0  0  0  0  0  0  0  0  0
  155.9307  137.5461  164.0714 C   0  0  0  0  0  0  0  0  0  0  0  0
  156.6113  136.3285  163.4206 C   0  0  0  0  0  0  0  0  0  0  0  0
  156.5062  135.7800  158.7124 H   0  0  0  0  0  0  0  0  0  0  0  0
  157.6017  135.9389  160.1043 H   0  0  0  0  0  0  0  0  0  0  0  0
  155.9324  136.5489  160.2080 H   0  0  0  0  0  0  0  0  0  0  0  0
  157.1294  133.9781  162.4751 H   0  0  0  0  0  0  0  0  0  0  0  0
  155.0433  134.9018  163.7340 H   0  0  0  0  0  0  0  0  0  0  0  0
  154.9666  136.3612  161.0552 H   0  0  0  0  0  0  0  0  0  0  0  0
  153.7081  135.3574  161.7384 H   0  0  0  0  0  0  0  0  0  0  0  0
  153.1763  137.7504  162.0859 H   0  0  0  0  0  0  0  0  0  0  0  0
  153.4070  136.9719  163.6171 H   0  0  0  0  0  0  0  0  0  0  0  0
  153.6082  139.2621  161.4804 H   0  0  0  0  0  0  0  0  0  0  0  0
  154.4988  141.8890  161.5804 H   0  0  0  0  0  0  0  0  0  0  0  0
  155.5160  141.1211  160.3834 H   0  0  0  0  0  0  0  0  0  0  0  0
  153.7458  140.8450  158.8629 H   0  0  0  0  0  0  0  0  0  0  0  0
  152.5721  140.5516  160.1223 H   0  0  0  0  0  0  0  0  0  0  0  0
  153.1525  142.7209  157.5532 H   0  0  0  0  0  0  0  0  0  0  0  0
  152.3318  145.0877  157.4270 H   0  0  0  0  0  0  0  0  0  0  0  0
  151.6630  146.2408  159.5507 H   0  0  0  0  0  0  0  0  0  0  0  0
  152.5600  142.9135  161.8290 H   0  0  0  0  0  0  0  0  0  0  0  0
  156.6852  138.2305  164.4617 H   0  0  0  0  0  0  0  0  0  0  0  0
  155.3464  137.2298  164.9366 H   0  0  0  0  0  0  0  0  0  0  0  0
  157.2568  135.8298  164.1445 H   0  0  0  0  0  0  0  0  0  0  0  0
  157.2577  136.6680  162.6096 H   0  0  0  0  0  0  0  0  0  0  0  0
  1  2  1  0  0  0  0
  1 23  1  0  0  0  0
  1 24  1  0  0  0  0
  1 25  1  0  0  0  0
  2  3  2  0  0  0  0
  2  4  2  0  0  0  0
  2  5  1  0  0  0  0
  5  6  1  0  0  0  0
  5 26  1  0  0  0  0
  6 22  1  0  0  0  0
  6  7  1  0  0  0  0
  6 27  1  0  0  0  0
  7  8  1  0  0  0  0
  7 28  1  0  0  0  0
  7 29  1  0  0  0  0
  8  9  1  0  0  0  0
  8 30  1  0  0  0  0
  8 31  1  0  0  0  0
  9 10  1  0  0  0  0
  9 21  1  0  0  0  0
 10 11  2  0  0  0  0
 10 12  1  0  0  0  0
 12 13  1  0  0  0  0
 12 32  1  0  0  0  0
 13 14  1  0  0  0  0
 13 33  1  0  0  0  0
 13 34  1  0  0  0  0
 14 15  1  0  0  0  0
 14 35  1  0  0  0  0
 14 36  1  0  0  0  0
 15 20  1  0  0  0  0
 15 16  2  0  0  0  0
 16 17  1  0  0  0  0
 16 37  1  0  0  0  0
 17 18  2  0  0  0  0
 17 38  1  0  0  0  0
 18 19  1  0  0  0  0
 18 39  1  0  0  0  0
 19 20  2  0  0  0  0
 20 40  1  0  0  0  0
 21 22  1  0  0  0  0
 21 41  1  0  0  0  0
 21 42  1  0  0  0  0
 22 43  1  0  0  0  0
 22 44  1  0  0  0  0
M  END
> <s_m_source_file>
AV-unprocessed.smi

> <i_m_source_file_index>
1610

> <i_lp_mmshare_version>
43012

> <i_f3d_flags>
0

> <s_epik_input>
W0NIM11TKD1PKSg9TylbTkhdW0NIXTFbQ0gyXVtDSDJdTihbQ0gyXVtDSDJdMSlDKD1PKVtOSF1bQ0gyXVtDSDJdYzJbY0hdW2NIXVtjSF1uW2NIXTI=

> <s_epik_cmdline>
J2VwaWtfcHl0aG9uJywgJy1waCcsICc3LjAnLCAnLXRuJywgJzgnLCAnLW1hJywgJzIwMCcsICctbWV0YWxfYmluZGluZycsICctaW1hZScsICc8aW5maWxlLm1hZT4nLCAnLW9tYWUnLCAnPG91dGZpbGUubWFlPic=

> <r_epik_Ionization_Penalty>
0.0145188

> <r_epik_Ionization_Penalty_Charging>
0

> <r_epik_Ionization_Penalty_Neutral>
0.0145188

> <r_epik_State_Penalty>
0.0113046

> <r_epik_Charging_Adjusted_Penalty>
0.0113046

> <i_epik_Tot_Q>
0

> <i_epik_Tot_abs_Q>
0

> <r_epik_Metal_State_Penalty>
0.0179141

> <b_epik_Metal_Only>
0

> <s_lp_Force_Field>
OPLS_2005

> <r_lp_Energy>
22.3117

> <b_lp_Chiralities_Consistent>
1

> <s_lp_Variant>
AV-unprocessed.smi:1610-1

> <Gold.Version>
5.8.1

> <Gold.Id.Protein>
6NUR|6NUR_protein|mol2

> <Gold.PLP.Fitness>
43.7810

> <Gold.PLP.PLP>
-41.6612

> <Gold.PLP.part.hbond>
-1.1451

> <Gold.PLP.part.metal>
0.0000

> <Gold.PLP.part.buried>
-4.8649

> <Gold.PLP.part.nonpolar>
-36.6216

> <Gold.PLP.part.repulsive>
0.2574

> <Gold.PLP.ligand.clash>
0.0000

> <Gold.PLP.ligand.torsion>
0.9865

> <Gold.PLP.Chemscore.Hbond>
1.0000

> <Gold.PLP.Chemscore.CHOScore>
0.0000

> <Gold.PLP.Chemscore.Metal>
0.0000

> <Gold.Chemscore.Hbonds>
donor molecule, donor type, donor heavy atom, donor atom, acceptor molecule, acceptor atom, score
      P1  H  6896  6909       L1     3  1.00

> <Gold.PLP.Chemscore.Internal.Correction>
1.0928

> <Gold.Rescore>
     Score         DG    S(hbond)    S(metal)    S(lipo)     H(rot)  DE(clash)    DE(int)     intcor
     15.01     -17.55       0.99        0.00     112.67       1.73       0.00       2.54       ----

> <Gold.Chemscore.Fitness>
15.0072

> <Gold.Chemscore.DG>
-17.5517

> <Gold.Chemscore.ZeroCoef>
-5.4800

> <Gold.Chemscore.Hbond>
0.9915

> <Gold.Chemscore.Metal>
0.0000

> <Gold.Chemscore.Lipo>
112.6739

> <Gold.Chemscore.Internal_Hbond>
0.0000

> <Gold.Chemscore.DEClash>
0.0000

> <Gold.Chemscore.DEInternal>
2.5445

> <Gold.Chemscore.Rot>
1.7276

> <Gold.Chemscore.Internal.Correction>
   9.000000E+99

> <Gold.Chemscore.Hbonds>
donor molecule, donor type, donor heavy atom, donor atom, acceptor molecule, acceptor atom, score
      P1  H  6896  6909       L1     3  0.93

> <Gold.Chemscore.Hbond.Weighted>
-3.3115

> <Gold.Chemscore.Metal.Weighted>
-0.0000

> <Gold.Chemscore.Lipo.Weighted>
-13.1828

> <Gold.Chemscore.Internal_Hbond.Weighted>
0.0000

> <Gold.Chemscore.DEClash.Weighted>
0.0000

> <Gold.Chemscore.DEInternal.Weighted>
2.5445

> <Gold.Chemscore.Rot.Weighted>
4.4226

> <Gold.Chemscore.Internal.Correction.Weighted>
   9.000000E+99

> <Gold.Protein.RotatedTorsions>
[ 6907 6896 6895 6894 ] final -159.17 input  -60.11 | X-H torsion
[ 7974 7965 7964 7962 ] final   -3.76 input  175.53 | X-H torsion
[ 8008 7997 7996 7995 ] final  -19.97 input   59.86 | X-H torsion
[ 10167 10162 10161 10158 ] final -102.72 input  -65.29 | X-H torsion
[ 10718 10713 10712 10709 ] final  173.04 input   66.30 | X-H torsion
[ 10763 10752 10751 10750 ] final   -8.67 input  -60.55 | X-H torsion
[ 11005 11000 10999 10996 ] final -145.76 input  -57.11 | X-H torsion

> <Gold.Protein.ActiveResidues>
 VAL166  LYS551  ARG553  GLY616  TRP617  ASP618  TYR619  PRO620  LYS621  CYS622 
 ASP623  PHE694  ASN695  SER759  ASP760  ASP761  ALA762  ILE779  LEU786  VAL792 
 PHE793  MET794  SER795  GLU796  ALA797  LYS798  CYS799  TRP800  GLU811  SER814 

> <Gold.Protein.RotatedAtoms>
  151.3294  133.4007  159.2661 H   0  0  0  0  0  0  0  0  0  0  0  0  # atno 6907 bound_to 6896
  150.9968  134.9290  159.7941 H   0  0  0  0  0  0  0  0  0  0  0  0  # atno 6908 bound_to 6896
  152.5263  134.3259  159.9218 H   0  0  0  0  0  0  0  0  0  0  0  0  # atno 6909 bound_to 6896
  146.2384  140.1770  142.8332 H   0  0  0  0  0  0  0  0  0  0  0  0  # atno 7974 bound_to 7965
  154.4801  140.2074  155.9785 H   0  0  0  0  0  0  0  0  0  0  0  0  # atno 8008 bound_to 7997
  156.1151  140.3222  155.8097 H   0  0  0  0  0  0  0  0  0  0  0  0  # atno 8009 bound_to 7997
  155.4567  140.0521  157.2986 H   0  0  0  0  0  0  0  0  0  0  0  0  # atno 8010 bound_to 7997
  140.2277  143.3629  152.0914 H   0  0  0  0  0  0  0  0  0  0  0  0  # atno 10167 bound_to 10162
  156.9702  131.0087  151.2907 H   0  0  0  0  0  0  0  0  0  0  0  0  # atno 10718 bound_to 10713
  153.4438  135.7014  153.6152 H   0  0  0  0  0  0  0  0  0  0  0  0  # atno 10763 bound_to 10752
  153.4515  135.3757  155.2287 H   0  0  0  0  0  0  0  0  0  0  0  0  # atno 10764 bound_to 10752
  154.8728  135.3998  154.3841 H   0  0  0  0  0  0  0  0  0  0  0  0  # atno 10765 bound_to 10752
  140.7890  134.2991  157.5020 H   0  0  0  0  0  0  0  0  0  0  0  0  # atno 11005 bound_to 11000
  144.9965  140.8594  143.5307 LP  0  0  0  0  0  0  0  0  0  0  0  0  # atno 17320 bound_to 7965
  145.1783  139.2366  143.5306 LP  0  0  0  0  0  0  0  0  0  0  0  0  # atno 17321 bound_to 7965
  139.5121  144.6911  151.5756 LP  0  0  0  0  0  0  0  0  0  0  0  0  # atno 17342 bound_to 10162
  140.6208  143.9261  150.6525 LP  0  0  0  0  0  0  0  0  0  0  0  0  # atno 17343 bound_to 10162
  157.5598  130.8238  149.8251 LP  0  0  0  0  0  0  0  0  0  0  0  0  # atno 17370 bound_to 10713
  156.0286  130.3771  150.1752 LP  0  0  0  0  0  0  0  0  0  0  0  0  # atno 17371 bound_to 10713
  139.8733  134.9363  156.3657 LP  0  0  0  0  0  0  0  0  0  0  0  0  # atno 17394 bound_to 11000
  140.9408  133.7515  156.0144 LP  0  0  0  0  0  0  0  0  0  0  0  0  # atno 17395 bound_to 11000

$$$$
