AV-unprocessed.smi:1247|AV-procd|sdf|5249|dock4
  -GOLD-   22720 4363D 1   1.00000     0.00000
 Structure written by MMmdl.
 47 48  0  0  0  0  0  0  0  0  2 V2000
  145.8919  129.1602  152.2426 C   0  0  0  0  0  0  0  0  0  0  0  0
  146.1266  130.6329  152.0782 C   0  0  0  0  0  0  0  0  0  0  0  0
  146.6551  131.5498  153.0330 C   0  0  0  0  0  0  0  0  0  0  0  0
  146.6449  132.7348  152.3493 C   0  0  0  0  0  0  0  0  0  0  0  0
  147.0312  133.9671  152.7740 N   0  0  0  0  0  0  0  0  0  0  0  0
  146.8184  134.5429  153.9699 C   0  0  0  0  0  0  0  0  0  0  0  0
  146.2312  134.0226  154.9190 O   0  0  0  0  0  0  0  0  0  0  0  0
  147.3475  135.7741  154.0193 N   0  0  0  0  0  0  0  0  0  0  0  0
  147.3099  136.6491  155.1859 C   0  0  0  0  0  0  0  0  0  0  0  0
  148.7210  137.1390  155.5632 C   0  0  0  0  0  0  0  0  0  0  0  0
  149.4404  137.7481  154.4130 N   0  3  1  0  0  0  0  0  0  0  0  0
  148.9248  139.0873  154.0361 C   0  0  0  0  0  0  0  0  0  0  0  0
  149.4244  140.1735  155.0103 C   0  0  2  0  0  0  0  0  0  0  0  0
  148.9695  141.5767  154.5950 C   0  0  0  0  0  0  0  0  0  0  0  0
  150.8478  140.1566  155.0254 O   0  0  0  0  0  0  0  0  0  0  0  0
  151.3827  138.9191  155.4835 C   0  0  2  0  0  0  0  0  0  0  0  0
  152.9095  139.0486  155.5196 C   0  0  0  0  0  0  0  0  0  0  0  0
  150.9198  137.7838  154.5447 C   0  0  0  0  0  0  0  0  0  0  0  0
  146.1352  132.5178  151.0887 N   0  0  0  0  0  0  0  0  0  0  0  0
  145.9237  133.4587  150.0063 C   0  0  0  0  0  0  0  0  0  0  0  0
  145.8200  131.2148  150.9240 N   0  0  0  0  0  0  0  0  0  0  0  0
  146.2213  128.8154  153.2228 H   0  0  0  0  0  0  0  0  0  0  0  0
  146.4363  128.5888  151.4904 H   0  0  0  0  0  0  0  0  0  0  0  0
  144.8331  128.9185  152.1449 H   0  0  0  0  0  0  0  0  0  0  0  0
  146.9763  131.3519  154.0446 H   0  0  0  0  0  0  0  0  0  0  0  0
  147.5700  134.5020  152.1088 H   0  0  0  0  0  0  0  0  0  0  0  0
  147.8115  136.1284  153.1954 H   0  0  0  0  0  0  0  0  0  0  0  0
  146.6597  137.4874  154.9392 H   0  0  0  0  0  0  0  0  0  0  0  0
  146.8450  136.1322  156.0274 H   0  0  0  0  0  0  0  0  0  0  0  0
  148.6214  137.8914  156.3467 H   0  0  0  0  0  0  0  0  0  0  0  0
  149.3028  136.3258  155.9969 H   0  0  0  0  0  0  0  0  0  0  0  0
  149.2730  139.3150  153.0274 H   0  0  0  0  0  0  0  0  0  0  0  0
  147.8352  139.0784  153.9866 H   0  0  0  0  0  0  0  0  0  0  0  0
  149.0504  139.9774  156.0164 H   0  0  0  0  0  0  0  0  0  0  0  0
  147.8817  141.6482  154.5787 H   0  0  0  0  0  0  0  0  0  0  0  0
  149.3377  141.8350  153.6016 H   0  0  0  0  0  0  0  0  0  0  0  0
  149.3401  142.3276  155.2932 H   0  0  0  0  0  0  0  0  0  0  0  0
  151.0343  138.7333  156.5002 H   0  0  0  0  0  0  0  0  0  0  0  0
  153.3738  138.1271  155.8714 H   0  0  0  0  0  0  0  0  0  0  0  0
  153.2160  139.8514  156.1903 H   0  0  0  0  0  0  0  0  0  0  0  0
  153.3117  139.2699  154.5306 H   0  0  0  0  0  0  0  0  0  0  0  0
  151.3090  136.8232  154.8798 H   0  0  0  0  0  0  0  0  0  0  0  0
  151.3382  137.9465  153.5503 H   0  0  0  0  0  0  0  0  0  0  0  0
  146.8716  133.9251  149.7368 H   0  0  0  0  0  0  0  0  0  0  0  0
  145.2231  134.2310  150.3240 H   0  0  0  0  0  0  0  0  0  0  0  0
  145.5177  132.9521  149.1297 H   0  0  0  0  0  0  0  0  0  0  0  0
  149.2352  137.1459  153.6281 H   0  0  0  0  0  0  0  0  0  0  0  0
  1  2  1  0  0  0  0
  1 22  1  0  0  0  0
  1 23  1  0  0  0  0
  1 24  1  0  0  0  0
  2 21  2  0  0  0  0
  2  3  1  0  0  0  0
  3  4  2  0  0  0  0
  3 25  1  0  0  0  0
  4  5  1  0  0  0  0
  4 19  1  0  0  0  0
  5  6  1  0  0  0  0
  5 26  1  0  0  0  0
  6  7  2  0  0  0  0
  6  8  1  0  0  0  0
  8  9  1  0  0  0  0
  8 27  1  0  0  0  0
  9 10  1  0  0  0  0
  9 28  1  0  0  0  0
  9 29  1  0  0  0  0
 10 11  1  0  0  0  0
 10 30  1  0  0  0  0
 10 31  1  0  0  0  0
 11 18  1  0  0  0  0
 11 12  1  0  0  0  0
 11 47  1  0  0  0  0
 12 13  1  0  0  0  0
 12 32  1  0  0  0  0
 12 33  1  0  0  0  0
 13 14  1  0  0  0  0
 13 15  1  0  0  0  0
 13 34  1  0  0  0  0
 14 35  1  0  0  0  0
 14 36  1  0  0  0  0
 14 37  1  0  0  0  0
 15 16  1  0  0  0  0
 16 17  1  0  0  0  0
 16 18  1  0  0  0  0
 16 38  1  0  0  0  0
 17 39  1  0  0  0  0
 17 40  1  0  0  0  0
 17 41  1  0  0  0  0
 18 42  1  0  0  0  0
 18 43  1  0  0  0  0
 19 20  1  0  0  0  0
 19 21  1  0  0  0  0
 20 44  1  0  0  0  0
 20 45  1  0  0  0  0
 20 46  1  0  0  0  0
M  CHG  1  11   1
M  END
> <s_m_source_file>
AV-unprocessed.smi

> <i_m_source_file_index>
1247

> <i_lp_mmshare_version>
43012

> <i_f3d_flags>
0

> <s_epik_input>
W0NIM11jMVtjSF1jKG4objEpW0NIM10pW05IXUMoPU8pW05IXVtDSDJdW0NIMl1OMltDSDJdW0NAQEhdKFtDSDNdKU9bQ0BASF0oW0NIM10pW0NIMl0y

> <s_epik_cmdline>
J2VwaWtfcHl0aG9uJywgJy1waCcsICc3LjAnLCAnLXRuJywgJzgnLCAnLW1hJywgJzIwMCcsICctbWV0YWxfYmluZGluZycsICctaW1hZScsICc8aW5maWxlLm1hZT4nLCAnLW9tYWUnLCAnPG91dGZpbGUubWFlPic=

> <r_lp_tautomer_probability>
1

> <r_epik_Ionization_Penalty>
0.663902

> <r_epik_Ionization_Penalty_Charging>
0.663826

> <r_epik_Ionization_Penalty_Neutral>
7.65444e-05

> <r_epik_State_Penalty>
0.683414

> <r_epik_Charging_Adjusted_Penalty>
1.34724

> <i_epik_Tot_Q>
1

> <i_epik_Tot_abs_Q>
1

> <r_epik_Metal_State_Penalty>
0.683419

> <b_epik_Metal_Only>
0

> <s_lp_Force_Field>
OPLS_2005

> <r_lp_Energy>
18.7227

> <b_lp_Chiralities_Consistent>
1

> <s_lp_Variant>
AV-unprocessed.smi:1247-7

> <Gold.Version>
5.8.1

> <Gold.Id.Protein>
6NUR|6NUR_protein|mol2

> <Gold.PLP.Fitness>
47.8556

> <Gold.PLP.PLP>
-34.8702

> <Gold.PLP.part.hbond>
-4.1956

> <Gold.PLP.part.metal>
0.0000

> <Gold.PLP.part.buried>
0.8753

> <Gold.PLP.part.nonpolar>
-29.7146

> <Gold.PLP.part.repulsive>
0.2499

> <Gold.PLP.ligand.clash>
0.0000

> <Gold.PLP.ligand.torsion>
0.5124

> <Gold.PLP.Chemscore.Hbond>
4.6614

> <Gold.PLP.Chemscore.CHOScore>
0.0000

> <Gold.PLP.Chemscore.Metal>
0.0000

> <Gold.Chemscore.Hbonds>
donor molecule, donor type, donor heavy atom, donor atom, acceptor molecule, acceptor atom, score
      L1  H     5    26       P1  7948  0.59
      L1  H     8    27       P1  7948  1.00
      L1  H    11    47       P1  7948  2.00
      P1  H  7989  7998       L1    15  1.00

> <Gold.PLP.Chemscore.Internal.Correction>
0.0259

> <Gold.Rescore>
     Score         DG    S(hbond)    S(metal)    S(lipo)     H(rot)  DE(clash)    DE(int)     intcor
     18.30     -20.69       2.87        0.00      81.36       1.52       1.19       1.19       ----

> <Gold.Chemscore.Fitness>
18.2994

> <Gold.Chemscore.DG>
-20.6869

> <Gold.Chemscore.ZeroCoef>
-5.4800

> <Gold.Chemscore.Hbond>
2.8697

> <Gold.Chemscore.Metal>
0.0000

> <Gold.Chemscore.Lipo>
81.3564

> <Gold.Chemscore.Internal_Hbond>
0.0000

> <Gold.Chemscore.DEClash>
1.1941

> <Gold.Chemscore.DEInternal>
1.1934

> <Gold.Chemscore.Rot>
1.5221

> <Gold.Chemscore.Internal.Correction>
   9.000000E+99

> <Gold.Chemscore.Hbonds>
donor molecule, donor type, donor heavy atom, donor atom, acceptor molecule, acceptor atom, score
      L1  H     5    26       P1  7948  0.31
      L1  H     8    27       P1  7948  0.99
      L1  H    11    47       P1  7948  0.96
      P1  H  7989  7998       L1    15  0.81

> <Gold.Chemscore.Hbond.Weighted>
-9.5849

> <Gold.Chemscore.Metal.Weighted>
-0.0000

> <Gold.Chemscore.Lipo.Weighted>
-9.5187

> <Gold.Chemscore.Internal_Hbond.Weighted>
0.0000

> <Gold.Chemscore.DEClash.Weighted>
1.1941

> <Gold.Chemscore.DEInternal.Weighted>
1.1934

> <Gold.Chemscore.Rot.Weighted>
3.8967

> <Gold.Chemscore.Internal.Correction.Weighted>
   9.000000E+99

> <Gold.Protein.RotatedTorsions>
[ 6907 6896 6895 6894 ] final  -83.04 input  -60.11 | X-H torsion
[ 7974 7965 7964 7962 ] final    6.43 input  175.53 | X-H torsion
[ 8008 7997 7996 7995 ] final  -55.34 input   59.86 | X-H torsion
[ 10167 10162 10161 10158 ] final  -37.36 input  -65.29 | X-H torsion
[ 10718 10713 10712 10709 ] final -102.65 input   66.30 | X-H torsion
[ 10763 10752 10751 10750 ] final -160.36 input  -60.55 | X-H torsion
[ 11005 11000 10999 10996 ] final   78.20 input  -57.11 | X-H torsion

> <Gold.Protein.ActiveResidues>
 VAL166  LYS551  ARG553  GLY616  TRP617  ASP618  TYR619  PRO620  LYS621  CYS622 
 ASP623  PHE694  ASN695  SER759  ASP760  ASP761  ALA762  ILE779  LEU786  VAL792 
 PHE793  MET794  SER795  GLU796  ALA797  LYS798  CYS799  TRP800  GLU811  SER814 

> <Gold.Protein.RotatedAtoms>
  150.6890  134.3573  159.4934 H   0  0  0  0  0  0  0  0  0  0  0  0  # atno 6907 bound_to 6896
  152.1406  134.9063  160.0563 H   0  0  0  0  0  0  0  0  0  0  0  0  # atno 6908 bound_to 6896
  152.0198  133.3859  159.4290 H   0  0  0  0  0  0  0  0  0  0  0  0  # atno 6909 bound_to 6896
  146.2435  140.0235  142.8396 H   0  0  0  0  0  0  0  0  0  0  0  0  # atno 7974 bound_to 7965
  154.4191  140.1155  156.5460 H   0  0  0  0  0  0  0  0  0  0  0  0  # atno 8008 bound_to 7997
  155.6459  140.3496  155.4712 H   0  0  0  0  0  0  0  0  0  0  0  0  # atno 8009 bound_to 7997
  155.9833  140.1164  157.0696 H   0  0  0  0  0  0  0  0  0  0  0  0  # atno 8010 bound_to 7997
  140.7120  143.3347  151.2489 H   0  0  0  0  0  0  0  0  0  0  0  0  # atno 10167 bound_to 10162
  156.0236  130.5430  150.7139 H   0  0  0  0  0  0  0  0  0  0  0  0  # atno 10718 bound_to 10713
  154.7397  135.3065  154.8750 H   0  0  0  0  0  0  0  0  0  0  0  0  # atno 10763 bound_to 10752
  153.9568  135.6757  153.4749 H   0  0  0  0  0  0  0  0  0  0  0  0  # atno 10764 bound_to 10752
  153.0996  135.4918  154.8767 H   0  0  0  0  0  0  0  0  0  0  0  0  # atno 10765 bound_to 10752
  139.9222  134.7744  156.1619 H   0  0  0  0  0  0  0  0  0  0  0  0  # atno 11005 bound_to 11000
  145.1219  140.9467  143.4595 LP  0  0  0  0  0  0  0  0  0  0  0  0  # atno 17320 bound_to 7965
  145.0472  139.3211  143.5946 LP  0  0  0  0  0  0  0  0  0  0  0  0  # atno 17321 bound_to 7965
  139.6839  143.9807  152.2823 LP  0  0  0  0  0  0  0  0  0  0  0  0  # atno 17342 bound_to 10162
  139.9446  144.6659  150.8232 LP  0  0  0  0  0  0  0  0  0  0  0  0  # atno 17343 bound_to 10162
  157.4771  131.0899  151.0578 LP  0  0  0  0  0  0  0  0  0  0  0  0  # atno 17370 bound_to 10713
  157.1022  130.5986  149.5463 LP  0  0  0  0  0  0  0  0  0  0  0  0  # atno 17371 bound_to 10713
  141.0753  133.6778  156.2223 LP  0  0  0  0  0  0  0  0  0  0  0  0  # atno 17394 bound_to 11000
  140.6439  134.5137  157.5572 LP  0  0  0  0  0  0  0  0  0  0  0  0  # atno 17395 bound_to 11000

$$$$
