AV-unprocessed.smi:166|AV-procd|sdf|1390|dock2
  -GOLD-   2262019123D 1   1.00000     0.00000
 Structure written by MMmdl.
 54 58  0  0  0  0  0  0  0  0  1 V2000
  144.2032  134.7437  149.8198 O   0  0  0  0  0  0  0  0  0  0  0  0
  144.5228  133.7962  150.8221 C   0  0  1  0  0  0  0  0  0  0  0  0
  144.0834  134.3529  152.1989 C   0  0  0  0  0  0  0  0  0  0  0  0
  144.7672  135.5783  152.5860 N   0  0  0  0  0  0  0  0  0  0  0  0
  144.5805  136.8320  152.0473 C   0  0  0  0  0  0  0  0  0  0  0  0
  145.3193  137.7762  152.5627 N   0  0  0  0  0  0  0  0  0  0  0  0
  146.0885  137.1216  153.5168 C   0  0  0  0  0  0  0  0  0  0  0  0
  147.0971  137.5297  154.4348 C   0  0  0  0  0  0  0  0  0  0  0  0
  147.5537  138.7926  154.5658 N   0  0  0  0  0  0  0  0  0  0  0  0
  146.9049  139.7313  153.6558 C   0  0  0  0  0  0  0  0  0  0  0  0
  147.2769  141.1791  154.0157 C   0  0  0  0  0  0  0  0  0  0  0  0
  148.8026  141.3557  154.0735 C   0  0  0  0  0  0  0  0  0  0  0  0
  149.4305  140.3329  155.0365 C   0  0  2  0  0  0  0  0  0  0  0  0
  150.8417  140.4893  154.9659 O   0  0  0  0  0  0  0  0  0  0  0  0
  151.5389  140.0710  156.1294 C   0  0  0  0  0  0  0  0  0  0  0  0
  152.2337  138.7590  155.8349 C   0  0  0  0  0  0  0  0  0  0  0  0
  153.1944  138.6497  154.6725 C   0  0  0  0  0  0  0  0  0  0  0  0
  151.8638  137.9434  154.6167 C   0  0  0  0  0  0  0  0  0  0  0  0
  149.0088  138.9036  154.6367 C   0  0  0  0  0  0  0  0  0  0  0  0
  147.6373  136.5895  155.2479 N   0  0  0  0  0  0  0  0  0  0  0  0
  147.2280  135.3199  155.1636 C   0  0  0  0  0  0  0  0  0  0  0  0
  146.3061  134.7913  154.3555 N   0  0  0  0  0  0  0  0  0  0  0  0
  145.7538  135.7384  153.5439 C   0  0  0  0  0  0  0  0  0  0  0  0
  143.8347  132.4717  150.4876 C   0  0  0  0  0  0  0  0  0  0  0  0
  144.9370  131.4393  150.6848 C   0  0  0  0  0  0  0  0  0  0  0  0
  146.0849  132.1266  150.2215 O   0  0  0  0  0  0  0  0  0  0  0  0
  146.0239  133.4467  150.7434 C   0  0  0  0  0  0  0  0  0  0  0  0
  144.8631  134.7019  149.1447 H   0  0  0  0  0  0  0  0  0  0  0  0
  143.0093  134.5442  152.2045 H   0  0  0  0  0  0  0  0  0  0  0  0
  144.2625  133.6074  152.9749 H   0  0  0  0  0  0  0  0  0  0  0  0
  143.8726  137.0279  151.2552 H   0  0  0  0  0  0  0  0  0  0  0  0
  147.2089  139.5122  152.6312 H   0  0  0  0  0  0  0  0  0  0  0  0
  145.8220  139.6061  153.7026 H   0  0  0  0  0  0  0  0  0  0  0  0
  146.8462  141.8673  153.2880 H   0  0  0  0  0  0  0  0  0  0  0  0
  146.8437  141.4379  154.9827 H   0  0  0  0  0  0  0  0  0  0  0  0
  149.2218  141.2261  153.0747 H   0  0  0  0  0  0  0  0  0  0  0  0
  149.0513  142.3699  154.3876 H   0  0  0  0  0  0  0  0  0  0  0  0
  149.0836  140.5529  156.0481 H   0  0  0  0  0  0  0  0  0  0  0  0
  152.2741  140.8196  156.4291 H   0  0  0  0  0  0  0  0  0  0  0  0
  150.8541  139.9202  156.9635 H   0  0  0  0  0  0  0  0  0  0  0  0
  152.5101  138.1992  156.7266 H   0  0  0  0  0  0  0  0  0  0  0  0
  153.3257  139.5242  154.0382 H   0  0  0  0  0  0  0  0  0  0  0  0
  154.0833  138.0378  154.8121 H   0  0  0  0  0  0  0  0  0  0  0  0
  151.8635  136.8603  154.7198 H   0  0  0  0  0  0  0  0  0  0  0  0
  151.1077  138.3472  153.9463 H   0  0  0  0  0  0  0  0  0  0  0  0
  149.3876  138.1758  155.3546 H   0  0  0  0  0  0  0  0  0  0  0  0
  149.4448  138.6573  153.6684 H   0  0  0  0  0  0  0  0  0  0  0  0
  147.7084  134.6283  155.8400 H   0  0  0  0  0  0  0  0  0  0  0  0
  142.9567  132.2680  151.1013 H   0  0  0  0  0  0  0  0  0  0  0  0
  143.5161  132.4498  149.4440 H   0  0  0  0  0  0  0  0  0  0  0  0
  145.0562  131.1863  151.7397 H   0  0  0  0  0  0  0  0  0  0  0  0
  144.7612  130.5208  150.1247 H   0  0  0  0  0  0  0  0  0  0  0  0
  146.6026  134.1398  150.1316 H   0  0  0  0  0  0  0  0  0  0  0  0
  146.4782  133.4250  151.7339 H   0  0  0  0  0  0  0  0  0  0  0  0
  1  2  1  0  0  0  0
  1 28  1  0  0  0  0
  2 27  1  0  0  0  0
  2  3  1  0  0  0  0
  2 24  1  0  0  0  0
  3  4  1  0  0  0  0
  3 29  1  0  0  0  0
  3 30  1  0  0  0  0
  4 23  1  0  0  0  0
  4  5  1  0  0  0  0
  5  6  2  0  0  0  0
  5 31  1  0  0  0  0
  6  7  1  0  0  0  0
  7 23  2  0  0  0  0
  7  8  1  0  0  0  0
  8  9  1  0  0  0  0
  8 20  2  0  0  0  0
  9 19  1  0  0  0  0
  9 10  1  0  0  0  0
 10 11  1  0  0  0  0
 10 32  1  0  0  0  0
 10 33  1  0  0  0  0
 11 12  1  0  0  0  0
 11 34  1  0  0  0  0
 11 35  1  0  0  0  0
 12 13  1  0  0  0  0
 12 36  1  0  0  0  0
 12 37  1  0  0  0  0
 13 14  1  0  0  0  0
 13 19  1  0  0  0  0
 13 38  1  0  0  0  0
 14 15  1  0  0  0  0
 15 16  1  0  0  0  0
 15 39  1  0  0  0  0
 15 40  1  0  0  0  0
 16 18  1  0  0  0  0
 16 17  1  0  0  0  0
 16 41  1  0  0  0  0
 17 18  1  0  0  0  0
 17 42  1  0  0  0  0
 17 43  1  0  0  0  0
 18 44  1  0  0  0  0
 18 45  1  0  0  0  0
 19 46  1  0  0  0  0
 19 47  1  0  0  0  0
 20 21  1  0  0  0  0
 21 22  2  0  0  0  0
 21 48  1  0  0  0  0
 22 23  1  0  0  0  0
 24 25  1  0  0  0  0
 24 49  1  0  0  0  0
 24 50  1  0  0  0  0
 25 26  1  0  0  0  0
 25 51  1  0  0  0  0
 25 52  1  0  0  0  0
 26 27  1  0  0  0  0
 27 53  1  0  0  0  0
 27 54  1  0  0  0  0
M  END
> <s_m_source_file>
AV-unprocessed.smi

> <i_m_source_file_index>
166

> <i_lp_mmshare_version>
43012

> <i_f3d_flags>
0

> <s_epik_input>
W0NIMl0xT1tDSDJdW0NIMl1bQ0BAXTEoW09IXSlbQ0gyXW4oW2NIXW4yKWMoYzIzKW5bY0hdbmMzTjRbQ0gyXVtDSDJdW0NIMl1bQ0BIXShbQ0gyXTQpT1tDSDJdW0NIXTVbQ0gyXVtDSDJdNQ==

> <s_epik_cmdline>
J2VwaWtfcHl0aG9uJywgJy1waCcsICc3LjAnLCAnLXRuJywgJzgnLCAnLW1hJywgJzIwMCcsICctbWV0YWxfYmluZGluZycsICctaW1hZScsICc8aW5maWxlLm1hZT4nLCAnLW9tYWUnLCAnPG91dGZpbGUubWFlPic=

> <r_lp_tautomer_probability>
1

> <r_epik_Ionization_Penalty>
0.00342552

> <r_epik_Ionization_Penalty_Charging>
0

> <r_epik_Ionization_Penalty_Neutral>
0.00342552

> <r_epik_State_Penalty>
0.0022204

> <r_epik_Charging_Adjusted_Penalty>
0.0022204

> <i_epik_Tot_Q>
0

> <i_epik_Tot_abs_Q>
0

> <r_epik_Metal_State_Penalty>
-0

> <b_epik_Metal_Only>
0

> <s_lp_Force_Field>
OPLS_2005

> <r_lp_Energy>
47.3104

> <b_lp_Chiralities_Consistent>
1

> <s_lp_Variant>
AV-unprocessed.smi:166-3

> <Gold.Version>
5.8.1

> <Gold.Id.Protein>
6NUR|6NUR_protein|mol2

> <Gold.PLP.Fitness>
49.1574

> <Gold.PLP.PLP>
-42.4989

> <Gold.PLP.part.hbond>
-2.6645

> <Gold.PLP.part.metal>
0.0000

> <Gold.PLP.part.buried>
-4.7759

> <Gold.PLP.part.nonpolar>
-35.9430

> <Gold.PLP.part.repulsive>
0.8375

> <Gold.PLP.ligand.clash>
0.6381

> <Gold.PLP.ligand.torsion>
1.2529

> <Gold.PLP.Chemscore.Hbond>
2.0000

> <Gold.PLP.Chemscore.CHOScore>
0.9747

> <Gold.PLP.Chemscore.Metal>
0.0000

> <Gold.Chemscore.Hbonds>
donor molecule, donor type, donor heavy atom, donor atom, acceptor molecule, acceptor atom, score
      L1  H     1    28       P1  7921  1.00
      P1  H  7989  7998       L1    14  1.00
      L1  C     5    31       P1 10171  1.00

> <Gold.PLP.Chemscore.Internal.Correction>
0.8780

> <Gold.Rescore>
     Score         DG    S(hbond)    S(metal)    S(lipo)     H(rot)  DE(clash)    DE(int)     intcor
     14.24     -17.20       1.95        0.00     103.29       2.68       0.21       2.76       ----

> <Gold.Chemscore.Fitness>
14.2397

> <Gold.Chemscore.DG>
-17.2050

> <Gold.Chemscore.ZeroCoef>
-5.4800

> <Gold.Chemscore.Hbond>
1.9478

> <Gold.Chemscore.Metal>
0.0000

> <Gold.Chemscore.Lipo>
103.2853

> <Gold.Chemscore.Internal_Hbond>
0.0000

> <Gold.Chemscore.DEClash>
0.2093

> <Gold.Chemscore.DEInternal>
2.7560

> <Gold.Chemscore.Rot>
2.6817

> <Gold.Chemscore.Internal.Correction>
   9.000000E+99

> <Gold.Chemscore.Hbonds>
donor molecule, donor type, donor heavy atom, donor atom, acceptor molecule, acceptor atom, score
      L1  H     1    28       P1  7921  0.98
      P1  H  7989  7998       L1    14  0.94

> <Gold.Chemscore.Hbond.Weighted>
-6.5057

> <Gold.Chemscore.Metal.Weighted>
-0.0000

> <Gold.Chemscore.Lipo.Weighted>
-12.0844

> <Gold.Chemscore.Internal_Hbond.Weighted>
0.0000

> <Gold.Chemscore.DEClash.Weighted>
0.2093

> <Gold.Chemscore.DEInternal.Weighted>
2.7560

> <Gold.Chemscore.Rot.Weighted>
6.8651

> <Gold.Chemscore.Internal.Correction.Weighted>
   9.000000E+99

> <Gold.Protein.RotatedTorsions>
[ 6907 6896 6895 6894 ] final  103.71 input  -60.11 | X-H torsion
[ 7974 7965 7964 7962 ] final   -3.78 input  175.53 | X-H torsion
[ 8008 7997 7996 7995 ] final   41.99 input   59.86 | X-H torsion
[ 10167 10162 10161 10158 ] final -116.88 input  -65.29 | X-H torsion
[ 10718 10713 10712 10709 ] final   70.53 input   66.30 | X-H torsion
[ 10763 10752 10751 10750 ] final  148.24 input  -60.55 | X-H torsion
[ 11005 11000 10999 10996 ] final  -41.72 input  -57.11 | X-H torsion

> <Gold.Protein.ActiveResidues>
 VAL166  LYS551  ARG553  GLY616  TRP617  ASP618  TYR619  PRO620  LYS621  CYS622 
 ASP623  PHE694  ASN695  SER759  ASP760  ASP761  ALA762  ILE779  LEU786  VAL792 
 PHE793  MET794  SER795  GLU796  ALA797  LYS798  CYS799  TRP800  GLU811  SER814 

> <Gold.Protein.RotatedAtoms>
  152.5287  133.9785  159.7794 H   0  0  0  0  0  0  0  0  0  0  0  0  # atno 6907 bound_to 6896
  151.0043  133.6018  159.2698 H   0  0  0  0  0  0  0  0  0  0  0  0  # atno 6908 bound_to 6896
  151.3116  135.0802  159.9327 H   0  0  0  0  0  0  0  0  0  0  0  0  # atno 6909 bound_to 6896
  146.2384  140.1773  142.8332 H   0  0  0  0  0  0  0  0  0  0  0  0  # atno 7974 bound_to 7965
  155.2788  140.3371  155.4260 H   0  0  0  0  0  0  0  0  0  0  0  0  # atno 8008 bound_to 7997
  156.2099  140.1766  156.7758 H   0  0  0  0  0  0  0  0  0  0  0  0  # atno 8009 bound_to 7997
  154.5672  140.0676  156.8894 H   0  0  0  0  0  0  0  0  0  0  0  0  # atno 8010 bound_to 7997
  140.0744  143.4847  152.1962 H   0  0  0  0  0  0  0  0  0  0  0  0  # atno 10167 bound_to 10162
  157.6405  130.9482  150.0664 H   0  0  0  0  0  0  0  0  0  0  0  0  # atno 10718 bound_to 10713
  154.0515  135.2881  155.3339 H   0  0  0  0  0  0  0  0  0  0  0  0  # atno 10763 bound_to 10752
  154.6866  135.5243  153.8338 H   0  0  0  0  0  0  0  0  0  0  0  0  # atno 10764 bound_to 10752
  153.0559  135.6595  154.0711 H   0  0  0  0  0  0  0  0  0  0  0  0  # atno 10765 bound_to 10752
  141.0265  133.6839  156.2496 H   0  0  0  0  0  0  0  0  0  0  0  0  # atno 11005 bound_to 11000
  144.9963  140.8592  143.5309 LP  0  0  0  0  0  0  0  0  0  0  0  0  # atno 17320 bound_to 7965
  145.1786  139.2364  143.5304 LP  0  0  0  0  0  0  0  0  0  0  0  0  # atno 17321 bound_to 7965
  139.5817  144.7513  151.3623 LP  0  0  0  0  0  0  0  0  0  0  0  0  # atno 17342 bound_to 10162
  140.7109  143.7392  150.7566 LP  0  0  0  0  0  0  0  0  0  0  0  0  # atno 17343 bound_to 10162
  156.1681  130.3645  149.9203 LP  0  0  0  0  0  0  0  0  0  0  0  0  # atno 17370 bound_to 10713
  156.7185  130.8998  151.3616 LP  0  0  0  0  0  0  0  0  0  0  0  0  # atno 17371 bound_to 10713
  140.6481  134.5095  157.5575 LP  0  0  0  0  0  0  0  0  0  0  0  0  # atno 17394 bound_to 11000
  139.9180  134.8207  156.1304 LP  0  0  0  0  0  0  0  0  0  0  0  0  # atno 17395 bound_to 11000

$$$$
