AV-unprocessed.smi:2525|AV-procd|sdf|9933|dock7
  -GOLD-   2272013573D 1   1.00000     0.00000
 Structure written by MMmdl.
 44 45  0  0  0  0  0  0  0  0  1 V2000
  147.6450  141.6048  155.2759 C   0  0  0  0  0  0  0  0  0  0  0  0
  148.9416  141.0395  154.6715 C   0  0  0  0  0  0  0  0  0  0  0  0
  149.8051  140.1906  155.6363 C   0  0  0  0  0  0  0  0  0  0  0  0
  150.1970  141.0715  156.8518 C   0  0  0  0  0  0  0  0  0  0  0  0
  150.9358  142.3734  156.5011 C   0  0  0  0  0  0  0  0  0  0  0  0
  149.2155  138.7770  155.9181 C   0  0  2  0  0  0  0  0  0  0  0  0
  149.6003  138.2185  157.2130 N   0  0  0  0  0  0  0  0  0  0  0  0
  148.7555  137.6932  158.1123 C   0  0  0  0  0  0  0  0  0  0  0  0
  147.5364  137.6479  157.9509 O   0  0  0  0  0  0  0  0  0  0  0  0
  149.3792  137.1468  159.3990 C   0  0  0  0  0  0  0  0  0  0  0  0
  148.3718  136.6009  160.2940 N   0  0  0  0  0  0  0  0  0  0  0  0
  148.0835  135.2777  160.5595 C   0  0  0  0  0  0  0  0  0  0  0  0
  147.0756  135.3502  161.4780 C   0  0  0  0  0  0  0  0  0  0  0  0
  146.7963  136.6924  161.7300 N   0  0  0  0  0  0  0  0  0  0  0  0
  147.5789  137.4341  161.0111 N   0  0  0  0  0  0  0  0  0  0  0  0
  150.0779  138.2065  154.7797 C   0  0  2  0  0  0  0  0  0  0  0  0
  150.6564  136.7940  154.8583 C   0  0  0  0  0  0  0  0  0  0  0  0
  150.9749  139.4489  154.9325 C   0  0  2  0  0  0  0  0  0  0  0  0
  152.0706  139.2247  155.8133 O   0  0  0  0  0  0  0  0  0  0  0  0
  153.1188  138.4768  155.2210 C   0  0  0  0  0  0  0  0  0  0  0  0
  147.0372  142.0746  154.5027 H   0  0  0  0  0  0  0  0  0  0  0  0
  147.8454  142.3660  156.0291 H   0  0  0  0  0  0  0  0  0  0  0  0
  147.0408  140.8242  155.7376 H   0  0  0  0  0  0  0  0  0  0  0  0
  148.6550  140.4375  153.8091 H   0  0  0  0  0  0  0  0  0  0  0  0
  149.5241  141.8549  154.2437 H   0  0  0  0  0  0  0  0  0  0  0  0
  149.3248  141.3009  157.4629 H   0  0  0  0  0  0  0  0  0  0  0  0
  150.8538  140.5188  157.5231 H   0  0  0  0  0  0  0  0  0  0  0  0
  151.2932  142.8642  157.4064 H   0  0  0  0  0  0  0  0  0  0  0  0
  150.2891  143.0838  155.9872 H   0  0  0  0  0  0  0  0  0  0  0  0
  151.8020  142.1817  155.8676 H   0  0  0  0  0  0  0  0  0  0  0  0
  148.1499  138.6872  155.7026 H   0  0  0  0  0  0  0  0  0  0  0  0
  150.5858  138.2253  157.4343 H   0  0  0  0  0  0  0  0  0  0  0  0
  150.1082  136.3732  159.1518 H   0  0  0  0  0  0  0  0  0  0  0  0
  149.9158  137.9405  159.9210 H   0  0  0  0  0  0  0  0  0  0  0  0
  148.5976  134.4467  160.0995 H   0  0  0  0  0  0  0  0  0  0  0  0
  146.5354  134.5575  161.9743 H   0  0  0  0  0  0  0  0  0  0  0  0
  149.5144  138.3068  153.8508 H   0  0  0  0  0  0  0  0  0  0  0  0
  151.3045  136.6624  155.7253 H   0  0  0  0  0  0  0  0  0  0  0  0
  151.2448  136.5611  153.9712 H   0  0  0  0  0  0  0  0  0  0  0  0
  149.8635  136.0495  154.9293 H   0  0  0  0  0  0  0  0  0  0  0  0
  151.2655  139.9140  153.9884 H   0  0  0  0  0  0  0  0  0  0  0  0
  153.9078  138.3105  155.9542 H   0  0  0  0  0  0  0  0  0  0  0  0
  153.5530  139.0147  154.3771 H   0  0  0  0  0  0  0  0  0  0  0  0
  152.7727  137.5039  154.8720 H   0  0  0  0  0  0  0  0  0  0  0  0
  1  2  1  0  0  0  0
  1 21  1  0  0  0  0
  1 22  1  0  0  0  0
  1 23  1  0  0  0  0
  2  3  1  0  0  0  0
  2 24  1  0  0  0  0
  2 25  1  0  0  0  0
  3 18  1  0  0  0  0
  3  4  1  0  0  0  0
  3  6  1  0  0  0  0
  4  5  1  0  0  0  0
  4 26  1  0  0  0  0
  4 27  1  0  0  0  0
  5 28  1  0  0  0  0
  5 29  1  0  0  0  0
  5 30  1  0  0  0  0
  6  7  1  0  0  0  0
  6 16  1  0  0  0  0
  6 31  1  0  0  0  0
  7  8  1  0  0  0  0
  7 32  1  0  0  0  0
  8  9  2  0  0  0  0
  8 10  1  0  0  0  0
 10 11  1  0  0  0  0
 10 33  1  0  0  0  0
 10 34  1  0  0  0  0
 11 15  1  0  0  0  0
 11 12  1  0  0  0  0
 12 13  2  0  0  0  0
 12 35  1  0  0  0  0
 13 14  1  0  0  0  0
 13 36  1  0  0  0  0
 14 15  2  0  0  0  0
 16 17  1  0  0  0  0
 16 18  1  0  0  0  0
 16 37  1  0  0  0  0
 17 38  1  0  0  0  0
 17 39  1  0  0  0  0
 17 40  1  0  0  0  0
 18 19  1  0  0  0  0
 18 41  1  0  0  0  0
 19 20  1  0  0  0  0
 20 42  1  0  0  0  0
 20 43  1  0  0  0  0
 20 44  1  0  0  0  0
M  END
> <s_m_source_file>
AV-unprocessed.smi

> <i_m_source_file_index>
2525

> <i_lp_mmshare_version>
43012

> <i_f3d_flags>
0

> <s_epik_input>
W0NIM11PW0NAQEhdMVtDQEhdKFtDSDNdKVtDQEBIXShDMShbQ0gyXVtDSDNdKVtDSDJdW0NIM10pW05IXUMoPU8pW0NIMl1uMltjSF1bY0hdbm4y

> <s_epik_cmdline>
J2VwaWtfcHl0aG9uJywgJy1waCcsICc3LjAnLCAnLXRuJywgJzgnLCAnLW1hJywgJzIwMCcsICctbWV0YWxfYmluZGluZycsICctaW1hZScsICc8aW5maWxlLm1hZT4nLCAnLW9tYWUnLCAnPG91dGZpbGUubWFlPic=

> <r_lp_tautomer_probability>
1

> <r_epik_Ionization_Penalty>
1.18045e-06

> <r_epik_Ionization_Penalty_Charging>
0

> <r_epik_Ionization_Penalty_Neutral>
1.18045e-06

> <r_epik_State_Penalty>
-0

> <r_epik_Charging_Adjusted_Penalty>
0

> <i_epik_Tot_Q>
0

> <i_epik_Tot_abs_Q>
0

> <r_epik_Metal_State_Penalty>
-0

> <b_epik_Metal_Only>
0

> <s_lp_Force_Field>
OPLS_2005

> <r_lp_Energy>
29.0326

> <b_lp_Chiralities_Consistent>
1

> <s_lp_Variant>
AV-unprocessed.smi:2525-8

> <Gold.Version>
5.8.1

> <Gold.Id.Protein>
6NUR|6NUR_protein|mol2

> <Gold.PLP.Fitness>
36.1170

> <Gold.PLP.PLP>
-31.0475

> <Gold.PLP.part.hbond>
-2.0000

> <Gold.PLP.part.metal>
0.0000

> <Gold.PLP.part.buried>
-3.9967

> <Gold.PLP.part.nonpolar>
-25.9931

> <Gold.PLP.part.repulsive>
0.0080

> <Gold.PLP.ligand.clash>
0.0000

> <Gold.PLP.ligand.torsion>
0.4957

> <Gold.PLP.Chemscore.Hbond>
1.8080

> <Gold.PLP.Chemscore.CHOScore>
0.0000

> <Gold.PLP.Chemscore.Metal>
0.0000

> <Gold.Chemscore.Hbonds>
donor molecule, donor type, donor heavy atom, donor atom, acceptor molecule, acceptor atom, score
      P1  H  6931  6943       L1    15  0.53
      P1  H  6934  6947       L1    15  0.91

> <Gold.PLP.Chemscore.Internal.Correction>
0.6369

> <Gold.Rescore>
     Score         DG    S(hbond)    S(metal)    S(lipo)     H(rot)  DE(clash)    DE(int)     intcor
     13.33     -14.14       1.43        0.00      76.55       1.98       0.08       0.73       ----

> <Gold.Chemscore.Fitness>
13.3271

> <Gold.Chemscore.DG>
-14.1424

> <Gold.Chemscore.ZeroCoef>
-5.4800

> <Gold.Chemscore.Hbond>
1.4309

> <Gold.Chemscore.Metal>
0.0000

> <Gold.Chemscore.Lipo>
76.5479

> <Gold.Chemscore.Internal_Hbond>
0.0000

> <Gold.Chemscore.DEClash>
0.0825

> <Gold.Chemscore.DEInternal>
0.7328

> <Gold.Chemscore.Rot>
1.9817

> <Gold.Chemscore.Internal.Correction>
   9.000000E+99

> <Gold.Chemscore.Hbonds>
donor molecule, donor type, donor heavy atom, donor atom, acceptor molecule, acceptor atom, score
      P1  H  6931  6943       L1    15  0.05
      P1  H  6934  6947       L1    15  0.83

> <Gold.Chemscore.Hbond.Weighted>
-4.7793

> <Gold.Chemscore.Metal.Weighted>
-0.0000

> <Gold.Chemscore.Lipo.Weighted>
-8.9561

> <Gold.Chemscore.Internal_Hbond.Weighted>
0.0000

> <Gold.Chemscore.DEClash.Weighted>
0.0825

> <Gold.Chemscore.DEInternal.Weighted>
0.7328

> <Gold.Chemscore.Rot.Weighted>
5.0731

> <Gold.Chemscore.Internal.Correction.Weighted>
   9.000000E+99

> <Gold.Protein.RotatedTorsions>
[ 6907 6896 6895 6894 ] final  121.63 input  -60.11 | X-H torsion
[ 7974 7965 7964 7962 ] final  -35.96 input  175.53 | X-H torsion
[ 8008 7997 7996 7995 ] final -176.59 input   59.86 | X-H torsion
[ 10167 10162 10161 10158 ] final   -9.16 input  -65.29 | X-H torsion
[ 10718 10713 10712 10709 ] final   28.48 input   66.30 | X-H torsion
[ 10763 10752 10751 10750 ] final   19.42 input  -60.55 | X-H torsion
[ 11005 11000 10999 10996 ] final   61.48 input  -57.11 | X-H torsion

> <Gold.Protein.ActiveResidues>
 VAL166  LYS551  ARG553  GLY616  TRP617  ASP618  TYR619  PRO620  LYS621  CYS622 
 ASP623  PHE694  ASN695  SER759  ASP760  ASP761  ALA762  ILE779  LEU786  VAL792 
 PHE793  MET794  SER795  GLU796  ALA797  LYS798  CYS799  TRP800  GLU811  SER814 

> <Gold.Protein.RotatedAtoms>
  152.4307  133.7272  159.6566 H   0  0  0  0  0  0  0  0  0  0  0  0  # atno 6907 bound_to 6896
  150.8186  133.8282  159.3155 H   0  0  0  0  0  0  0  0  0  0  0  0  # atno 6908 bound_to 6896
  151.5971  135.1052  160.0103 H   0  0  0  0  0  0  0  0  0  0  0  0  # atno 6909 bound_to 6896
  146.0702  140.6222  142.8956 H   0  0  0  0  0  0  0  0  0  0  0  0  # atno 7974 bound_to 7965
  155.9966  140.1212  157.0587 H   0  0  0  0  0  0  0  0  0  0  0  0  # atno 8008 bound_to 7997
  154.4229  140.1115  156.5708 H   0  0  0  0  0  0  0  0  0  0  0  0  # atno 8009 bound_to 7997
  155.6269  140.3472  155.4672 H   0  0  0  0  0  0  0  0  0  0  0  0  # atno 8010 bound_to 7997
  140.7080  143.5888  150.8915 H   0  0  0  0  0  0  0  0  0  0  0  0  # atno 10167 bound_to 10162
  157.2340  130.7037  149.6326 H   0  0  0  0  0  0  0  0  0  0  0  0  # atno 10718 bound_to 10713
  153.1164  135.6709  153.9411 H   0  0  0  0  0  0  0  0  0  0  0  0  # atno 10763 bound_to 10752
  153.8939  135.3043  155.3449 H   0  0  0  0  0  0  0  0  0  0  0  0  # atno 10764 bound_to 10752
  154.7580  135.5002  153.9488 H   0  0  0  0  0  0  0  0  0  0  0  0  # atno 10765 bound_to 10752
  140.0158  134.6226  155.9711 H   0  0  0  0  0  0  0  0  0  0  0  0  # atno 11005 bound_to 11000
  144.7227  140.4425  143.6996 LP  0  0  0  0  0  0  0  0  0  0  0  0  # atno 17320 bound_to 7965
  145.6405  139.1549  143.2918 LP  0  0  0  0  0  0  0  0  0  0  0  0  # atno 17321 bound_to 7965
  139.9614  143.6160  152.3001 LP  0  0  0  0  0  0  0  0  0  0  0  0  # atno 17342 bound_to 10162
  139.6714  144.7660  151.1777 LP  0  0  0  0  0  0  0  0  0  0  0  0  # atno 17343 bound_to 10162
  155.9674  130.4480  150.5601 LP  0  0  0  0  0  0  0  0  0  0  0  0  # atno 17370 bound_to 10713
  157.3449  131.0723  151.1759 LP  0  0  0  0  0  0  0  0  0  0  0  0  # atno 17371 bound_to 10713
  141.1742  133.6539  156.4765 LP  0  0  0  0  0  0  0  0  0  0  0  0  # atno 17394 bound_to 11000
  140.4473  134.6961  157.5022 LP  0  0  0  0  0  0  0  0  0  0  0  0  # atno 17395 bound_to 11000

$$$$
