#       Name:                AV-unprocessed.smi:2247
#       Creating user name   scv26
#       Creation time:       Fri Mar 27 12:29:00 2020


#       File generated by GOLD software.
#

@<TRIPOS>MOLECULE
AV-unprocessed.smi:2247
    41    42     1
SMALL
NO_CHARGES


@<TRIPOS>ATOM
      1 ****        -3.9014  -2.4439   1.3374 C.3            1 S1                 0.0000
      2 ****        -3.2160  -1.2232   0.6981 C.3            1 S1                 0.0000
      3 ****        -3.6991  -0.9800  -0.7405 C.3            1 S1                 0.0000
      4 ****        -1.7504  -1.3160   0.7347 N.am           1 S1                 0.0000
      5 ****        -1.0459  -2.5837   0.6296 C.3            1 S1                 0.0000
      6 ****         0.4083  -2.1935   0.3483 C.3            1 S1                 0.0000
      7 ****         0.5543  -0.7385   0.8226 C.3            1 S1                 0.0000
      8 ****         1.3512   0.0269  -0.1344 N.am           1 S1                 0.0000
      9 ****         2.0319   1.1471   0.1503 C.2            1 S1                 0.0000
     10 ****         2.0924   1.6378   1.2781 O.2            1 S1                 0.0000
     11 ****         2.6224   1.6514  -0.9461 N.am           1 S1                 0.0000
     12 ****         3.3979   2.8343  -1.0416 C.2            1 S1                 0.0000
     13 ****         3.7049   3.6665  -0.0453 N.2            1 S1                 0.0000
     14 ****         4.4671   4.6602  -0.6421 C.2            1 S1                 0.0000
     15 ****         4.5802   4.3689  -1.9773 C.2            1 S1                 0.0000
     16 ****         3.9045   3.2088  -2.2462 O.3            1 S1                 0.0000
     17 ****        -0.9046  -0.2797   0.8164 C.2            1 S1                 0.0000
     18 ****        -1.2303   0.9052   0.8909 O.2            1 S1                 0.0000
     19 ****        -4.9811  -2.2989   1.3861 H              1 S1                 0.0000
     20 ****        -3.5481  -2.6061   2.3562 H              1 S1                 0.0000
     21 ****        -3.7219  -3.3562   0.7682 H              1 S1                 0.0000
     22 ****        -3.5093  -0.3572   1.2945 H              1 S1                 0.0000
     23 ****        -4.7819  -0.8584  -0.7755 H              1 S1                 0.0000
     24 ****        -3.4371  -1.8144  -1.3920 H              1 S1                 0.0000
     25 ****        -3.2551  -0.0769  -1.1606 H              1 S1                 0.0000
     26 ****        -1.1243  -3.1224   1.5749 H              1 S1                 0.0000
     27 ****        -1.4539  -3.2124  -0.1627 H              1 S1                 0.0000
     28 ****         1.1129  -2.8595   0.8476 H              1 S1                 0.0000
     29 ****         0.5957  -2.2726  -0.7243 H              1 S1                 0.0000
     30 ****         0.9532  -0.6917   1.8375 H              1 S1                 0.0000
     31 ****         1.3552  -0.3037  -1.0879 H              1 S1                 0.0000
     32 ****         2.4914   1.1444  -1.8086 H              1 S1                 0.0000
     33 ****         4.8661   5.4887  -0.0756 H              1 S1                 0.0000
     34 ****         5.0706   4.8498  -2.8107 H              1 S1                 0.0000
     35 ****         1.6180   1.1981   2.0408 LP             1 S1                 0.0000
     36 ****         2.6159   2.4759   1.4313 LP             1 S1                 0.0000
     37 ****         3.4439   3.5909   0.9171 LP             1 S1                 0.0000
     38 ****         3.1702   3.3701  -2.9056 LP             1 S1                 0.0000
     39 ****         4.5254   2.5107  -2.6029 LP             1 S1                 0.0000
     40 ****        -2.1976   1.1586   0.8937 LP             1 S1                 0.0000
     41 ****        -0.5275   1.6142   0.9486 LP             1 S1                 0.0000
@<TRIPOS>BOND
    1    1    2 1     
    2    1   19 1     
    3    1   20 1     
    4    1   21 1     
    5    2    3 1     
    6    2    4 1     
    7    2   22 1     
    8    3   23 1     
    9    3   24 1     
   10    3   25 1     
   11    4   17 am    
   12    4    5 1     
   13    5    6 1     
   14    5   26 1     
   15    5   27 1     
   16    6    7 1     
   17    6   28 1     
   18    6   29 1     
   19    7    8 1     
   20    7   17 1     
   21    7   30 1     
   22    8    9 am    
   23    8   31 1     
   24    9   10 2     
   25    9   11 am    
   26   11   12 1     
   27   11   32 1     
   28   12   16 1     
   29   12   13 2     
   30   13   14 1     
   31   14   15 2     
   32   14   33 1     
   33   15   16 1     
   34   15   34 1     
   35   17   18 2     
   36   10   35 1     
   37   10   36 1     
   38   13   37 1     
   39   16   38 1     
   40   16   39 1     
   41   18   40 1     
   42   18   41 1     
@<TRIPOS>SUBSTRUCTURE
      1 S1             1
@<TRIPOS>SET
LONE_PAIRS      STATIC     ATOMS    <user>   **** ""
7 35 36 37 38 39 40 41
DONOR_HYDROGENS      STATIC     ATOMS    <user>   **** ""
2 31 32
ATOM$BLUE        STATIC     ATOMS    COLORGROUP SYSTEM
7 35 36 37 38 39 40 41
ATOM$RED        STATIC     ATOMS    COLORGROUP SYSTEM
2 31 32
