AV-unprocessed.smi:2904|AV-procd|sdf|11160|dock3
  -GOLD-   2272016 43D 1   1.00000     0.00000
 Structure written by MMmdl.
 39 40  0  0  0  0  0  0  0  0  1 V2000
  141.2686  135.2226  153.6032 C   0  0  0  0  0  0  0  0  0  0  0  0
  142.4568  134.8708  152.7548 C   0  0  0  0  0  0  0  0  0  0  0  0
  142.5867  133.6349  152.3036 N   0  0  0  0  0  0  0  0  0  0  0  0
  143.7213  133.6495  151.5732 N   0  0  0  0  0  0  0  0  0  0  0  0
  144.1843  132.4229  150.9469 C   0  0  0  0  0  0  0  0  0  0  0  0
  144.2218  132.5775  149.6240 F   0  0  0  0  0  0  0  0  0  0  0  0
  145.3947  132.0925  151.4002 F   0  0  0  0  0  0  0  0  0  0  0  0
  144.3270  134.8915  151.5956 C   0  0  0  0  0  0  0  0  0  0  0  0
  145.6130  135.1628  150.8850 C   0  0  0  0  0  0  0  0  0  0  0  0
  143.5301  135.7150  152.3457 C   0  0  0  0  0  0  0  0  0  0  0  0
  143.7239  137.1760  152.6759 C   0  0  0  0  0  0  0  0  0  0  0  0
  145.0220  137.4177  153.4568 C   0  0  0  0  0  0  0  0  0  0  0  0
  145.6546  136.4835  153.9525 O   0  0  0  0  0  0  0  0  0  0  0  0
  145.4090  138.6983  153.5583 N   0  0  0  0  0  0  0  0  0  0  0  0
  146.6077  139.1628  154.2504 C   0  0  0  0  0  0  0  0  0  0  0  0
  146.6827  140.6956  154.1954 C   0  0  0  0  0  0  0  0  0  0  0  0
  148.0087  141.1952  154.7917 C   0  0  0  0  0  0  0  0  0  0  0  0
  149.1053  140.5990  154.1068 O   0  0  0  0  0  0  0  0  0  0  0  0
  149.1370  139.1817  154.2376 C   0  0  0  0  0  0  0  0  0  0  0  0
  147.8742  138.5663  153.6131 C   0  0  0  0  0  0  0  0  0  0  0  0
  140.9394  136.2446  153.4135 H   0  0  0  0  0  0  0  0  0  0  0  0
  141.5100  135.1422  154.6631 H   0  0  0  0  0  0  0  0  0  0  0  0
  140.4233  134.5635  153.4020 H   0  0  0  0  0  0  0  0  0  0  0  0
  143.5105  131.5975  151.1753 H   0  0  0  0  0  0  0  0  0  0  0  0
  145.9776  136.1684  151.0933 H   0  0  0  0  0  0  0  0  0  0  0  0
  145.4838  135.0729  149.8064 H   0  0  0  0  0  0  0  0  0  0  0  0
  146.3841  134.4573  151.1955 H   0  0  0  0  0  0  0  0  0  0  0  0
  143.7504  137.7779  151.7668 H   0  0  0  0  0  0  0  0  0  0  0  0
  142.8913  137.5618  153.2644 H   0  0  0  0  0  0  0  0  0  0  0  0
  144.8324  139.4037  153.1228 H   0  0  0  0  0  0  0  0  0  0  0  0
  146.5608  138.8617  155.2990 H   0  0  0  0  0  0  0  0  0  0  0  0
  146.6057  141.0352  153.1614 H   0  0  0  0  0  0  0  0  0  0  0  0
  145.8421  141.1353  154.7332 H   0  0  0  0  0  0  0  0  0  0  0  0
  148.0785  142.2784  154.6926 H   0  0  0  0  0  0  0  0  0  0  0  0
  148.0657  140.9691  155.8576 H   0  0  0  0  0  0  0  0  0  0  0  0
  150.0264  138.8021  153.7341 H   0  0  0  0  0  0  0  0  0  0  0  0
  149.2249  138.9047  155.2892 H   0  0  0  0  0  0  0  0  0  0  0  0
  147.8892  137.4827  153.7349 H   0  0  0  0  0  0  0  0  0  0  0  0
  147.8757  138.7599  152.5395 H   0  0  0  0  0  0  0  0  0  0  0  0
  1  2  1  0  0  0  0
  1 21  1  0  0  0  0
  1 22  1  0  0  0  0
  1 23  1  0  0  0  0
  2 10  1  0  0  0  0
  2  3  2  0  0  0  0
  3  4  1  0  0  0  0
  4  5  1  0  0  0  0
  4  8  1  0  0  0  0
  5  6  1  0  0  0  0
  5  7  1  0  0  0  0
  5 24  1  0  0  0  0
  8  9  1  0  0  0  0
  8 10  2  0  0  0  0
  9 25  1  0  0  0  0
  9 26  1  0  0  0  0
  9 27  1  0  0  0  0
 10 11  1  0  0  0  0
 11 12  1  0  0  0  0
 11 28  1  0  0  0  0
 11 29  1  0  0  0  0
 12 13  2  0  0  0  0
 12 14  1  0  0  0  0
 14 15  1  0  0  0  0
 14 30  1  0  0  0  0
 15 20  1  0  0  0  0
 15 16  1  0  0  0  0
 15 31  1  0  0  0  0
 16 17  1  0  0  0  0
 16 32  1  0  0  0  0
 16 33  1  0  0  0  0
 17 18  1  0  0  0  0
 17 34  1  0  0  0  0
 17 35  1  0  0  0  0
 18 19  1  0  0  0  0
 19 20  1  0  0  0  0
 19 36  1  0  0  0  0
 19 37  1  0  0  0  0
 20 38  1  0  0  0  0
 20 39  1  0  0  0  0
M  END
> <s_m_source_file>
AV-unprocessed.smi

> <i_m_source_file_index>
2904

> <i_lp_mmshare_version>
43012

> <i_f3d_flags>
0

> <s_epik_input>
W0NIM11jMW5uKFtDSF0oRilGKWMoW0NIM10pYzFbQ0gyXUMoPU8pW05IXVtDSF0yW0NIMl1bQ0gyXU9bQ0gyXVtDSDJdMg==

> <s_epik_cmdline>
J2VwaWtfcHl0aG9uJywgJy1waCcsICc3LjAnLCAnLXRuJywgJzgnLCAnLW1hJywgJzIwMCcsICctbWV0YWxfYmluZGluZycsICctaW1hZScsICc8aW5maWxlLm1hZT4nLCAnLW9tYWUnLCAnPG91dGZpbGUubWFlPic=

> <r_lp_tautomer_probability>
1

> <r_epik_Ionization_Penalty>
3.9362e-07

> <r_epik_Ionization_Penalty_Charging>
0

> <r_epik_Ionization_Penalty_Neutral>
3.9362e-07

> <r_epik_State_Penalty>
-0

> <r_epik_Charging_Adjusted_Penalty>
0

> <i_epik_Tot_Q>
0

> <i_epik_Tot_abs_Q>
0

> <r_epik_Metal_State_Penalty>
-0

> <b_epik_Metal_Only>
0

> <s_lp_Force_Field>
OPLS_2005

> <r_lp_Energy>
7.93396

> <b_lp_Chiralities_Consistent>
1

> <s_lp_Variant>
AV-unprocessed.smi:2904-1

> <Gold.Version>
5.8.1

> <Gold.Id.Protein>
6NUR|6NUR_protein|mol2

> <Gold.PLP.Fitness>
37.3613

> <Gold.PLP.PLP>
-34.6716

> <Gold.PLP.part.hbond>
-1.0000

> <Gold.PLP.part.metal>
0.0000

> <Gold.PLP.part.buried>
-5.0744

> <Gold.PLP.part.nonpolar>
-29.2440

> <Gold.PLP.part.repulsive>
0.4798

> <Gold.PLP.ligand.clash>
0.0000

> <Gold.PLP.ligand.torsion>
0.1662

> <Gold.PLP.Chemscore.Hbond>
1.0000

> <Gold.PLP.Chemscore.CHOScore>
0.0000

> <Gold.PLP.Chemscore.Metal>
0.0000

> <Gold.Chemscore.Hbonds>
donor molecule, donor type, donor heavy atom, donor atom, acceptor molecule, acceptor atom, score
      L1  H    14    30       P1 10175  1.00

> <Gold.PLP.Chemscore.Internal.Correction>
0.0222

> <Gold.Rescore>
     Score         DG    S(hbond)    S(metal)    S(lipo)     H(rot)  DE(clash)    DE(int)     intcor
     12.45     -12.84       1.00        0.00      65.94       1.44       0.21       0.18       ----

> <Gold.Chemscore.Fitness>
12.4461

> <Gold.Chemscore.DG>
-12.8412

> <Gold.Chemscore.ZeroCoef>
-5.4800

> <Gold.Chemscore.Hbond>
0.9992

> <Gold.Chemscore.Metal>
0.0000

> <Gold.Chemscore.Lipo>
65.9420

> <Gold.Chemscore.Internal_Hbond>
0.0000

> <Gold.Chemscore.DEClash>
0.2125

> <Gold.Chemscore.DEInternal>
0.1825

> <Gold.Chemscore.Rot>
1.4419

> <Gold.Chemscore.Internal.Correction>
   9.000000E+99

> <Gold.Chemscore.Hbonds>
donor molecule, donor type, donor heavy atom, donor atom, acceptor molecule, acceptor atom, score
      L1  H    14    30       P1 10175  1.00

> <Gold.Chemscore.Hbond.Weighted>
-3.3372

> <Gold.Chemscore.Metal.Weighted>
-0.0000

> <Gold.Chemscore.Lipo.Weighted>
-7.7152

> <Gold.Chemscore.Internal_Hbond.Weighted>
0.0000

> <Gold.Chemscore.DEClash.Weighted>
0.2125

> <Gold.Chemscore.DEInternal.Weighted>
0.1825

> <Gold.Chemscore.Rot.Weighted>
3.6913

> <Gold.Chemscore.Internal.Correction.Weighted>
   9.000000E+99

> <Gold.Protein.RotatedTorsions>
[ 6907 6896 6895 6894 ] final  109.41 input  -60.11 | X-H torsion
[ 7974 7965 7964 7962 ] final  178.30 input  175.53 | X-H torsion
[ 8008 7997 7996 7995 ] final  -10.21 input   59.86 | X-H torsion
[ 10167 10162 10161 10158 ] final   88.12 input  -65.29 | X-H torsion
[ 10718 10713 10712 10709 ] final  -17.53 input   66.30 | X-H torsion
[ 10763 10752 10751 10750 ] final   -7.37 input  -60.55 | X-H torsion
[ 11005 11000 10999 10996 ] final  144.61 input  -57.11 | X-H torsion

> <Gold.Protein.ActiveResidues>
 VAL166  LYS551  ARG553  GLY616  TRP617  ASP618  TYR619  PRO620  LYS621  CYS622 
 ASP623  PHE694  ASN695  SER759  ASP760  ASP761  ALA762  ILE779  LEU786  VAL792 
 PHE793  MET794  SER795  GLU796  ALA797  LYS798  CYS799  TRP800  GLU811  SER814 

> <Gold.Protein.RotatedAtoms>
  152.5068  133.8947  159.7411 H   0  0  0  0  0  0  0  0  0  0  0  0  # atno 6907 bound_to 6896
  150.9378  133.6683  159.2804 H   0  0  0  0  0  0  0  0  0  0  0  0  # atno 6908 bound_to 6896
  151.4005  135.0975  159.9607 H   0  0  0  0  0  0  0  0  0  0  0  0  # atno 6909 bound_to 6896
  144.7158  140.0376  143.6438 H   0  0  0  0  0  0  0  0  0  0  0  0  # atno 7974 bound_to 7965
  154.5576  140.2335  155.8386 H   0  0  0  0  0  0  0  0  0  0  0  0  # atno 8008 bound_to 7997
  156.2001  140.3054  155.9469 H   0  0  0  0  0  0  0  0  0  0  0  0  # atno 8009 bound_to 7997
  155.2951  140.0428  157.3016 H   0  0  0  0  0  0  0  0  0  0  0  0  # atno 8010 bound_to 7997
  139.8705  144.6495  150.8955 H   0  0  0  0  0  0  0  0  0  0  0  0  # atno 10167 bound_to 10162
  156.5723  130.4753  149.6357 H   0  0  0  0  0  0  0  0  0  0  0  0  # atno 10718 bound_to 10713
  153.4253  135.7011  153.6266 H   0  0  0  0  0  0  0  0  0  0  0  0  # atno 10763 bound_to 10752
  153.4704  135.3716  155.2388 H   0  0  0  0  0  0  0  0  0  0  0  0  # atno 10764 bound_to 10752
  154.8723  135.4041  154.3629 H   0  0  0  0  0  0  0  0  0  0  0  0  # atno 10765 bound_to 10752
  140.0646  134.9186  157.1242 H   0  0  0  0  0  0  0  0  0  0  0  0  # atno 11005 bound_to 11000
  146.0050  139.3122  143.0905 LP  0  0  0  0  0  0  0  0  0  0  0  0  # atno 17320 bound_to 7965
  145.8749  140.9398  143.0631 LP  0  0  0  0  0  0  0  0  0  0  0  0  # atno 17321 bound_to 7965
  140.7761  143.3668  151.1724 LP  0  0  0  0  0  0  0  0  0  0  0  0  # atno 17342 bound_to 10162
  139.7289  143.9105  152.3012 LP  0  0  0  0  0  0  0  0  0  0  0  0  # atno 17343 bound_to 10162
  156.2704  130.7013  151.1809 LP  0  0  0  0  0  0  0  0  0  0  0  0  # atno 17370 bound_to 10713
  157.7345  131.0581  150.5519 LP  0  0  0  0  0  0  0  0  0  0  0  0  # atno 17371 bound_to 10713
  140.3718  134.2382  155.7177 LP  0  0  0  0  0  0  0  0  0  0  0  0  # atno 17394 bound_to 11000
  141.1987  133.8028  157.0569 LP  0  0  0  0  0  0  0  0  0  0  0  0  # atno 17395 bound_to 11000

$$$$
