AV-unprocessed.smi:1013|AV-procd|sdf|4428|dock3
  -GOLD-   22720 2383D 1   1.00000     0.00000
 Structure written by MMmdl.
 29 30  0  0  0  0  0  0  0  0  2 V2000
  153.6111  138.9599  154.5833 O   0  0  0  0  0  0  0  0  0  0  0  0
  152.4882  138.5782  154.9798 C   0  0  0  0  0  0  0  0  0  0  0  0
  152.0783  137.3960  154.9699 O   0  5  0  0  0  0  0  0  0  0  0  0
  151.5437  139.6594  155.5366 C   0  0  2  0  0  0  0  0  0  0  0  0
  151.1576  139.3654  157.0026 C   0  0  0  0  0  0  0  0  0  0  0  0
  151.7084  140.3369  157.9330 N   0  0  0  0  0  0  0  0  0  0  0  0
  152.5860  140.1219  158.9734 C   0  0  0  0  0  0  0  0  0  0  0  0
  152.8181  141.3302  159.5647 C   0  0  0  0  0  0  0  0  0  0  0  0
  152.0309  142.2441  158.8053 C   0  0  0  0  0  0  0  0  0  0  0  0
  151.8829  143.7308  158.9943 C   0  0  0  0  0  0  0  0  0  0  0  0
  152.5274  144.1234  160.0934 F   0  0  0  0  0  0  0  0  0  0  0  0
  152.3943  144.3758  157.9456 F   0  0  0  0  0  0  0  0  0  0  0  0
  150.5947  144.0508  159.1159 F   0  0  0  0  0  0  0  0  0  0  0  0
  151.3765  141.6408  157.8224 N   0  0  0  0  0  0  0  0  0  0  0  0
  150.3233  139.8489  154.7303 N   0  0  0  0  0  0  0  0  0  0  0  0
  149.8557  141.2264  154.7499 C   0  0  0  0  0  0  0  0  0  0  0  0
  148.7161  141.5436  155.6916 C   0  0  0  0  0  0  0  0  0  0  0  0
  148.4743  141.5178  154.2047 C   0  0  0  0  0  0  0  0  0  0  0  0
  152.0868  140.6057  155.5214 H   0  0  0  0  0  0  0  0  0  0  0  0
  150.0729  139.3888  157.1145 H   0  0  0  0  0  0  0  0  0  0  0  0
  151.4744  138.3619  157.2938 H   0  0  0  0  0  0  0  0  0  0  0  0
  152.9629  139.1369  159.2063 H   0  0  0  0  0  0  0  0  0  0  0  0
  153.4527  141.5313  160.4148 H   0  0  0  0  0  0  0  0  0  0  0  0
  149.5871  139.2384  155.0525 H   0  0  0  0  0  0  0  0  0  0  0  0
  150.5890  142.0249  154.6492 H   0  0  0  0  0  0  0  0  0  0  0  0
  148.2967  140.7297  156.2800 H   0  0  0  0  0  0  0  0  0  0  0  0
  148.7252  142.5152  156.1812 H   0  0  0  0  0  0  0  0  0  0  0  0
  148.3283  142.4699  153.6991 H   0  0  0  0  0  0  0  0  0  0  0  0
  147.8976  140.6857  153.8050 H   0  0  0  0  0  0  0  0  0  0  0  0
  1  2  2  0  0  0  0
  2  3  1  0  0  0  0
  2  4  1  0  0  0  0
  4  5  1  0  0  0  0
  4 15  1  0  0  0  0
  4 19  1  0  0  0  0
  5  6  1  0  0  0  0
  5 20  1  0  0  0  0
  5 21  1  0  0  0  0
  6 14  1  0  0  0  0
  6  7  1  0  0  0  0
  7  8  2  0  0  0  0
  7 22  1  0  0  0  0
  8  9  1  0  0  0  0
  8 23  1  0  0  0  0
  9 10  1  0  0  0  0
  9 14  2  0  0  0  0
 10 11  1  0  0  0  0
 10 12  1  0  0  0  0
 10 13  1  0  0  0  0
 15 16  1  0  0  0  0
 15 24  1  0  0  0  0
 16 18  1  0  0  0  0
 16 17  1  0  0  0  0
 16 25  1  0  0  0  0
 17 18  1  0  0  0  0
 17 26  1  0  0  0  0
 17 27  1  0  0  0  0
 18 28  1  0  0  0  0
 18 29  1  0  0  0  0
M  CHG  1   3  -1
M  END
> <s_m_source_file>
AV-unprocessed.smi

> <i_m_source_file_index>
1013

> <i_lp_mmshare_version>
43012

> <i_f3d_flags>
0

> <s_epik_input>
W0NIMl0xW0NIMl1bQ0hdMVtOSF1bQ0BIXShDKD1PKVtPSF0pW0NIMl1uMltjSF1bY0hdYyhuMilDKEYpKEYpRg==

> <s_epik_cmdline>
J2VwaWtfcHl0aG9uJywgJy1waCcsICc3LjAnLCAnLXRuJywgJzgnLCAnLW1hJywgJzIwMCcsICctbWV0YWxfYmluZGluZycsICctaW1hZScsICc8aW5maWxlLm1hZT4nLCAnLW9tYWUnLCAnPG91dGZpbGUubWFlPic=

> <r_lp_tautomer_probability>
1

> <r_epik_Ionization_Penalty>
0.786284

> <r_epik_Ionization_Penalty_Charging>
0.00153368

> <r_epik_Ionization_Penalty_Neutral>
0.78475

> <r_epik_State_Penalty>
0.814638

> <r_epik_Charging_Adjusted_Penalty>
0.816172

> <i_epik_Tot_Q>
-1

> <i_epik_Tot_abs_Q>
1

> <r_epik_Metal_State_Penalty>
0.814638

> <b_epik_Metal_Only>
0

> <s_lp_Force_Field>
OPLS_2005

> <r_lp_Energy>
15.2289

> <b_lp_Chiralities_Consistent>
1

> <s_lp_Variant>
AV-unprocessed.smi:1013-3

> <Gold.Version>
5.8.1

> <Gold.Id.Protein>
6NUR|6NUR_protein|mol2

> <Gold.PLP.Fitness>
49.4911

> <Gold.PLP.PLP>
-41.0515

> <Gold.PLP.part.hbond>
-2.4248

> <Gold.PLP.part.metal>
0.0000

> <Gold.PLP.part.buried>
-5.5175

> <Gold.PLP.part.nonpolar>
-33.9643

> <Gold.PLP.part.repulsive>
0.0859

> <Gold.PLP.ligand.clash>
0.0000

> <Gold.PLP.ligand.torsion>
1.5327

> <Gold.PLP.Chemscore.Hbond>
3.5680

> <Gold.PLP.Chemscore.CHOScore>
0.0000

> <Gold.PLP.Chemscore.Metal>
0.0000

> <Gold.Chemscore.Hbonds>
donor molecule, donor type, donor heavy atom, donor atom, acceptor molecule, acceptor atom, score
      P1  H  7997  8008       L1     1  2.00
      P1  H 10752 10764       L1     3  1.50

> <Gold.PLP.Chemscore.Internal.Correction>
0.8010

> <Gold.Rescore>
     Score         DG    S(hbond)    S(metal)    S(lipo)     H(rot)  DE(clash)    DE(int)     intcor
     11.26     -13.16       1.76        0.00      70.53       2.52       0.39       1.51       ----

> <Gold.Chemscore.Fitness>
11.2618

> <Gold.Chemscore.DG>
-13.1625

> <Gold.Chemscore.ZeroCoef>
-5.4800

> <Gold.Chemscore.Hbond>
1.7578

> <Gold.Chemscore.Metal>
0.0000

> <Gold.Chemscore.Lipo>
70.5270

> <Gold.Chemscore.Internal_Hbond>
0.0000

> <Gold.Chemscore.DEClash>
0.3874

> <Gold.Chemscore.DEInternal>
1.5133

> <Gold.Chemscore.Rot>
2.5157

> <Gold.Chemscore.Internal.Correction>
   9.000000E+99

> <Gold.Chemscore.Hbonds>
donor molecule, donor type, donor heavy atom, donor atom, acceptor molecule, acceptor atom, score
      P1  H  7997  8008       L1     1  0.92
      P1  H 10752 10764       L1     3  0.72

> <Gold.Chemscore.Hbond.Weighted>
-5.8710

> <Gold.Chemscore.Metal.Weighted>
-0.0000

> <Gold.Chemscore.Lipo.Weighted>
-8.2517

> <Gold.Chemscore.Internal_Hbond.Weighted>
0.0000

> <Gold.Chemscore.DEClash.Weighted>
0.3874

> <Gold.Chemscore.DEInternal.Weighted>
1.5133

> <Gold.Chemscore.Rot.Weighted>
6.4402

> <Gold.Chemscore.Internal.Correction.Weighted>
   9.000000E+99

> <Gold.Protein.RotatedTorsions>
[ 6907 6896 6895 6894 ] final    6.32 input  -60.11 | X-H torsion
[ 7974 7965 7964 7962 ] final  -41.44 input  175.53 | X-H torsion
[ 8008 7997 7996 7995 ] final   -4.02 input   59.86 | X-H torsion
[ 10167 10162 10161 10158 ] final   82.16 input  -65.29 | X-H torsion
[ 10718 10713 10712 10709 ] final   25.58 input   66.30 | X-H torsion
[ 10763 10752 10751 10750 ] final  -51.54 input  -60.55 | X-H torsion
[ 11005 11000 10999 10996 ] final    7.35 input  -57.11 | X-H torsion

> <Gold.Protein.ActiveResidues>
 VAL166  LYS551  ARG553  GLY616  TRP617  ASP618  TYR619  PRO620  LYS621  CYS622 
 ASP623  PHE694  ASN695  SER759  ASP760  ASP761  ALA762  ILE779  LEU786  VAL792 
 PHE793  MET794  SER795  GLU796  ALA797  LYS798  CYS799  TRP800  GLU811  SER814 

> <Gold.Protein.RotatedAtoms>
  151.6718  135.0975  160.0199 H   0  0  0  0  0  0  0  0  0  0  0  0  # atno 6907 bound_to 6896
  152.3887  133.6643  159.6228 H   0  0  0  0  0  0  0  0  0  0  0  0  # atno 6908 bound_to 6896
  150.7807  133.8908  159.3354 H   0  0  0  0  0  0  0  0  0  0  0  0  # atno 6909 bound_to 6896
  146.0210  140.6849  142.9178 H   0  0  0  0  0  0  0  0  0  0  0  0  # atno 7974 bound_to 7965
  154.6187  140.2494  155.7577 H   0  0  0  0  0  0  0  0  0  0  0  0  # atno 8008 bound_to 7997
  156.2414  140.2931  156.0403 H   0  0  0  0  0  0  0  0  0  0  0  0  # atno 8009 bound_to 7997
  155.1933  140.0392  157.2894 H   0  0  0  0  0  0  0  0  0  0  0  0  # atno 8010 bound_to 7997
  139.9317  144.6148  150.8338 H   0  0  0  0  0  0  0  0  0  0  0  0  # atno 10167 bound_to 10162
  157.1952  130.6865  149.6166 H   0  0  0  0  0  0  0  0  0  0  0  0  # atno 10718 bound_to 10713
  154.1283  135.6524  153.4917 H   0  0  0  0  0  0  0  0  0  0  0  0  # atno 10763 bound_to 10752
  153.0203  135.5287  154.7027 H   0  0  0  0  0  0  0  0  0  0  0  0  # atno 10764 bound_to 10752
  154.6254  135.2969  155.0248 H   0  0  0  0  0  0  0  0  0  0  0  0  # atno 10765 bound_to 10752
  140.5492  134.0300  155.7931 H   0  0  0  0  0  0  0  0  0  0  0  0  # atno 11005 bound_to 11000
  144.6990  140.3567  143.7171 LP  0  0  0  0  0  0  0  0  0  0  0  0  # atno 17320 bound_to 7965
  145.7192  139.1705  143.2494 LP  0  0  0  0  0  0  0  0  0  0  0  0  # atno 17321 bound_to 7965
  140.7635  143.3226  151.2588 LP  0  0  0  0  0  0  0  0  0  0  0  0  # atno 17342 bound_to 10162
  139.6777  143.9909  152.2790 LP  0  0  0  0  0  0  0  0  0  0  0  0  # atno 17343 bound_to 10162
  155.9707  130.4601  150.6060 LP  0  0  0  0  0  0  0  0  0  0  0  0  # atno 17370 bound_to 10713
  157.3821  131.0782  151.1468 LP  0  0  0  0  0  0  0  0  0  0  0  0  # atno 17371 bound_to 10713
  141.1182  133.9505  157.2782 LP  0  0  0  0  0  0  0  0  0  0  0  0  # atno 17394 bound_to 11000
  139.9464  135.0183  156.8864 LP  0  0  0  0  0  0  0  0  0  0  0  0  # atno 17395 bound_to 11000

$$$$
