AV-unprocessed.smi:2999|AV-procd|sdf|11423|dock5
  -GOLD-   2272016343D 1   1.00000     0.00000
 Structure written by MMmdl.
 36 38  0  0  0  0  0  0  0  0  2 V2000
  149.4388  135.8433  158.9857 O   0  0  0  0  0  0  0  0  0  0  0  0
  149.1621  136.9458  159.4640 C   0  0  0  0  0  0  0  0  0  0  0  0
  149.8021  138.0394  159.0308 N   0  0  0  0  0  0  0  0  0  0  0  0
  150.8303  138.0566  157.9975 C   0  0  0  0  0  0  0  0  0  0  0  0
  151.1643  139.4926  157.5647 C   0  0  2  0  0  0  0  0  0  0  0  0
  151.5024  140.4176  158.7542 C   0  0  0  0  0  0  0  0  0  0  0  0
  151.7328  141.7928  158.3286 N   0  0  0  0  0  0  0  0  0  0  0  0
  152.0293  142.6473  159.4684 C   0  0  0  0  0  0  0  0  0  0  0  0
  153.0751  143.7242  159.3368 C   0  0  0  0  0  0  0  0  0  0  0  0
  153.3473  142.4936  160.1824 C   0  0  0  0  0  0  0  0  0  0  0  0
  150.5563  142.2638  157.6102 C   0  0  0  0  0  0  0  0  0  0  0  0
  150.2197  141.3531  156.4179 C   0  0  0  0  0  0  0  0  0  0  0  0
  150.0299  140.0189  156.8785 O   0  0  0  0  0  0  0  0  0  0  0  0
  148.2426  137.1966  160.4237 N   0  5  0  0  0  0  0  0  0  0  0  0
  147.7307  136.1859  161.1449 C   0  0  0  0  0  0  0  0  0  0  0  0
  147.3942  135.0060  160.6107 N   0  0  0  0  0  0  0  0  0  0  0  0
  146.8760  134.1029  161.5406 C   0  0  0  0  0  0  0  0  0  0  0  0
  146.8096  134.6096  162.8114 C   0  0  0  0  0  0  0  0  0  0  0  0
  147.3960  136.2470  162.8779 S   0  0  0  0  0  0  0  0  0  0  0  0
  149.5502  138.9242  159.4464 H   0  0  0  0  0  0  0  0  0  0  0  0
  151.7266  137.5679  158.3825 H   0  0  0  0  0  0  0  0  0  0  0  0
  150.4940  137.4766  157.1366 H   0  0  0  0  0  0  0  0  0  0  0  0
  152.0083  139.4664  156.8728 H   0  0  0  0  0  0  0  0  0  0  0  0
  150.6875  140.3865  159.4797 H   0  0  0  0  0  0  0  0  0  0  0  0
  152.3888  140.0452  159.2686 H   0  0  0  0  0  0  0  0  0  0  0  0
  151.1453  142.8629  160.0667 H   0  0  0  0  0  0  0  0  0  0  0  0
  153.6026  143.8085  158.3886 H   0  0  0  0  0  0  0  0  0  0  0  0
  152.8967  144.6626  159.8576 H   0  0  0  0  0  0  0  0  0  0  0  0
  153.3488  142.6148  161.2636 H   0  0  0  0  0  0  0  0  0  0  0  0
  154.0556  141.7646  159.7928 H   0  0  0  0  0  0  0  0  0  0  0  0
  149.7002  142.3060  158.2855 H   0  0  0  0  0  0  0  0  0  0  0  0
  150.7234  143.2810  157.2547 H   0  0  0  0  0  0  0  0  0  0  0  0
  149.3088  141.6932  155.9253 H   0  0  0  0  0  0  0  0  0  0  0  0
  151.0171  141.3787  155.6736 H   0  0  0  0  0  0  0  0  0  0  0  0
  146.5792  133.1188  161.2096 H   0  0  0  0  0  0  0  0  0  0  0  0
  146.4524  134.1241  163.7068 H   0  0  0  0  0  0  0  0  0  0  0  0
  1  2  2  0  0  0  0
  2  3  1  0  0  0  0
  2 14  1  0  0  0  0
  3  4  1  0  0  0  0
  3 20  1  0  0  0  0
  4  5  1  0  0  0  0
  4 21  1  0  0  0  0
  4 22  1  0  0  0  0
  5 13  1  0  0  0  0
  5  6  1  0  0  0  0
  5 23  1  0  0  0  0
  6  7  1  0  0  0  0
  6 24  1  0  0  0  0
  6 25  1  0  0  0  0
  7  8  1  0  0  0  0
  7 11  1  0  0  0  0
  8 10  1  0  0  0  0
  8  9  1  0  0  0  0
  8 26  1  0  0  0  0
  9 10  1  0  0  0  0
  9 27  1  0  0  0  0
  9 28  1  0  0  0  0
 10 29  1  0  0  0  0
 10 30  1  0  0  0  0
 11 12  1  0  0  0  0
 11 31  1  0  0  0  0
 11 32  1  0  0  0  0
 12 13  1  0  0  0  0
 12 33  1  0  0  0  0
 12 34  1  0  0  0  0
 14 15  1  0  0  0  0
 15 19  1  0  0  0  0
 15 16  2  0  0  0  0
 16 17  1  0  0  0  0
 17 18  2  0  0  0  0
 17 35  1  0  0  0  0
 18 19  1  0  0  0  0
 18 36  1  0  0  0  0
M  CHG  1  14  -1
M  END
> <s_m_source_file>
AV-unprocessed.smi

> <i_m_source_file_index>
2999

> <i_lp_mmshare_version>
43012

> <i_f3d_flags>
0

> <s_epik_input>
czFbY0hdW2NIXW5jMVtOSF1DKD1PKVtOSF1bQ0gyXVtDQEBIXTJbQ0gyXU4oW0NIMl1bQ0gyXU8yKVtDSF0zW0NIMl1bQ0gyXTM=

> <s_epik_cmdline>
J2VwaWtfcHl0aG9uJywgJy1waCcsICc3LjAnLCAnLXRuJywgJzgnLCAnLW1hJywgJzIwMCcsICctbWV0YWxfYmluZGluZycsICctaW1hZScsICc8aW5maWxlLm1hZT4nLCAnLW9tYWUnLCAnPG91dGZpbGUubWFlPic=

> <r_lp_tautomer_probability>
0.999

> <r_epik_Ionization_Penalty>
6.67591

> <r_epik_Ionization_Penalty_Charging>
5.6519

> <r_epik_Ionization_Penalty_Neutral>
1.024

> <r_epik_State_Penalty>
5.68985

> <r_epik_Charging_Adjusted_Penalty>
11.3418

> <i_epik_Tot_Q>
-1

> <i_epik_Tot_abs_Q>
1

> <r_epik_Metal_State_Penalty>
1.67789

> <b_epik_Metal_Only>
1

> <s_lp_Force_Field>
OPLS_2005

> <r_lp_Energy>
28.4873

> <b_lp_Chiralities_Consistent>
1

> <s_lp_Variant>
AV-unprocessed.smi:2999-7

> <Gold.Version>
5.8.1

> <Gold.Id.Protein>
6NUR|6NUR_protein|mol2

> <Gold.PLP.Fitness>
47.4980

> <Gold.PLP.PLP>
-38.3529

> <Gold.PLP.part.hbond>
-3.0000

> <Gold.PLP.part.metal>
0.0000

> <Gold.PLP.part.buried>
-5.3768

> <Gold.PLP.part.nonpolar>
-31.4179

> <Gold.PLP.part.repulsive>
0.2342

> <Gold.PLP.ligand.clash>
0.0000

> <Gold.PLP.ligand.torsion>
1.0367

> <Gold.PLP.Chemscore.Hbond>
3.3568

> <Gold.PLP.Chemscore.CHOScore>
0.0000

> <Gold.PLP.Chemscore.Metal>
0.0000

> <Gold.Chemscore.Hbonds>
donor molecule, donor type, donor heavy atom, donor atom, acceptor molecule, acceptor atom, score
      P1  H  6896  6909       L1     1  1.00
      P1  H  6931  6943       L1    14  1.44
      P1  H  6934  6947       L1    14  0.85

> <Gold.PLP.Chemscore.Internal.Correction>
1.1483

> <Gold.Rescore>
     Score         DG    S(hbond)    S(metal)    S(lipo)     H(rot)  DE(clash)    DE(int)     intcor
     14.82     -17.25       1.69        0.00      85.56       1.52       0.01       2.43       ----

> <Gold.Chemscore.Fitness>
14.8203

> <Gold.Chemscore.DG>
-17.2528

> <Gold.Chemscore.ZeroCoef>
-5.4800

> <Gold.Chemscore.Hbond>
1.6902

> <Gold.Chemscore.Metal>
0.0000

> <Gold.Chemscore.Lipo>
85.5576

> <Gold.Chemscore.Internal_Hbond>
0.0000

> <Gold.Chemscore.DEClash>
0.0050

> <Gold.Chemscore.DEInternal>
2.4275

> <Gold.Chemscore.Rot>
1.5167

> <Gold.Chemscore.Internal.Correction>
   9.000000E+99

> <Gold.Chemscore.Hbonds>
donor molecule, donor type, donor heavy atom, donor atom, acceptor molecule, acceptor atom, score
      P1  H  6896  6909       L1     1  0.94
      P1  H  6931  6943       L1    14  0.13
      P1  H  6934  6947       L1    14  0.32

> <Gold.Chemscore.Hbond.Weighted>
-5.6453

> <Gold.Chemscore.Metal.Weighted>
-0.0000

> <Gold.Chemscore.Lipo.Weighted>
-10.0102

> <Gold.Chemscore.Internal_Hbond.Weighted>
0.0000

> <Gold.Chemscore.DEClash.Weighted>
0.0050

> <Gold.Chemscore.DEInternal.Weighted>
2.4275

> <Gold.Chemscore.Rot.Weighted>
3.8827

> <Gold.Chemscore.Internal.Correction.Weighted>
   9.000000E+99

> <Gold.Protein.RotatedTorsions>
[ 6907 6896 6895 6894 ] final   39.66 input  -60.11 | X-H torsion
[ 7974 7965 7964 7962 ] final  110.25 input  175.53 | X-H torsion
[ 8008 7997 7996 7995 ] final  122.89 input   59.86 | X-H torsion
[ 10167 10162 10161 10158 ] final  169.13 input  -65.29 | X-H torsion
[ 10718 10713 10712 10709 ] final  -80.57 input   66.30 | X-H torsion
[ 10763 10752 10751 10750 ] final   79.19 input  -60.55 | X-H torsion
[ 11005 11000 10999 10996 ] final   72.68 input  -57.11 | X-H torsion

> <Gold.Protein.ActiveResidues>
 VAL166  LYS551  ARG553  GLY616  TRP617  ASP618  TYR619  PRO620  LYS621  CYS622 
 ASP623  PHE694  ASN695  SER759  ASP760  ASP761  ALA762  ILE779  LEU786  VAL792 
 PHE793  MET794  SER795  GLU796  ALA797  LYS798  CYS799  TRP800  GLU811  SER814 

> <Gold.Protein.RotatedAtoms>
  152.1724  134.8823  160.0533 H   0  0  0  0  0  0  0  0  0  0  0  0  # atno 6907 bound_to 6896
  151.9777  133.3742  159.4104 H   0  0  0  0  0  0  0  0  0  0  0  0  # atno 6908 bound_to 6896
  150.6904  134.3995  159.5156 H   0  0  0  0  0  0  0  0  0  0  0  0  # atno 6909 bound_to 6896
  145.2574  139.2716  143.4035 H   0  0  0  0  0  0  0  0  0  0  0  0  # atno 7974 bound_to 7965
  156.2745  140.2775  156.1540 H   0  0  0  0  0  0  0  0  0  0  0  0  # atno 8008 bound_to 7997
  155.0824  140.0388  157.2661 H   0  0  0  0  0  0  0  0  0  0  0  0  # atno 8009 bound_to 7997
  154.6954  140.2638  155.6777 H   0  0  0  0  0  0  0  0  0  0  0  0  # atno 8010 bound_to 7997
  139.4984  144.3740  151.9694 H   0  0  0  0  0  0  0  0  0  0  0  0  # atno 10167 bound_to 10162
  156.0067  130.4578  150.3821 H   0  0  0  0  0  0  0  0  0  0  0  0  # atno 10718 bound_to 10713
  153.0933  135.4849  154.8731 H   0  0  0  0  0  0  0  0  0  0  0  0  # atno 10763 bound_to 10752
  154.7295  135.3057  154.8918 H   0  0  0  0  0  0  0  0  0  0  0  0  # atno 10764 bound_to 10752
  153.9558  135.6818  153.4798 H   0  0  0  0  0  0  0  0  0  0  0  0  # atno 10765 bound_to 10752
  139.9478  134.7281  156.0936 H   0  0  0  0  0  0  0  0  0  0  0  0  # atno 11005 bound_to 11000
  146.3285  140.2981  142.8619 LP  0  0  0  0  0  0  0  0  0  0  0  0  # atno 17320 bound_to 7965
  144.9449  140.8117  143.5608 LP  0  0  0  0  0  0  0  0  0  0  0  0  # atno 17321 bound_to 7965
  140.3176  144.3465  150.6018 LP  0  0  0  0  0  0  0  0  0  0  0  0  # atno 17342 bound_to 10162
  140.5749  143.2177  151.7533 LP  0  0  0  0  0  0  0  0  0  0  0  0  # atno 17343 bound_to 10162
  157.1900  131.0413  151.2705 LP  0  0  0  0  0  0  0  0  0  0  0  0  # atno 17370 bound_to 10713
  157.4069  130.7364  149.6809 LP  0  0  0  0  0  0  0  0  0  0  0  0  # atno 17371 bound_to 10713
  141.1133  133.6636  156.3033 LP  0  0  0  0  0  0  0  0  0  0  0  0  # atno 17394 bound_to 11000
  140.5792  134.5763  157.5475 LP  0  0  0  0  0  0  0  0  0  0  0  0  # atno 17395 bound_to 11000

$$$$
