AV-unprocessed.smi:1521|AV-procd|sdf|6132|dock3
  -GOLD-   22720 6273D 1   1.00000     0.00000
 Structure written by MMmdl.
 35 36  0  0  0  0  0  0  0  0  2 V2000
  154.5579  141.3784  162.5080 O   0  0  0  0  0  0  0  0  0  0  0  0
  154.7677  140.4601  161.7153 C   0  0  0  0  0  0  0  0  0  0  0  0
  155.5941  139.4382  161.9781 N   0  0  0  0  0  0  0  0  0  0  0  0
  156.3396  139.2591  163.2188 C   0  0  0  0  0  0  0  0  0  0  0  0
  155.9296  137.9654  163.9418 C   0  0  2  0  0  0  0  0  0  0  0  0
  156.8106  136.7708  163.5250 C   0  0  0  0  0  0  0  0  0  0  0  0
  156.3501  135.5940  164.1763 O   0  0  0  0  0  0  0  0  0  0  0  0
  155.0016  135.3078  163.8317 C   0  0  0  0  0  0  0  0  0  0  0  0
  154.1175  136.4930  164.2524 C   0  0  0  0  0  0  0  0  0  0  0  0
  154.5801  137.6666  163.5978 O   0  0  0  0  0  0  0  0  0  0  0  0
  154.2066  140.3202  160.5010 N   0  0  0  0  0  0  0  0  0  0  0  0
  153.3136  141.1723  159.8298 C   0  0  0  0  0  0  0  0  0  0  0  0
  152.9442  142.4084  160.2664 C   0  0  0  0  0  0  0  0  0  0  0  0
  152.0255  143.2574  159.5182 C   0  0  0  0  0  0  0  0  0  0  0  0
  151.5201  144.5993  160.0167 C   0  0  0  0  0  0  0  0  0  0  0  0
  151.9331  145.5905  159.2267 F   0  0  0  0  0  0  0  0  0  0  0  0
  150.1879  144.6232  160.0606 F   0  0  0  0  0  0  0  0  0  0  0  0
  151.9809  144.8288  161.2455 F   0  0  0  0  0  0  0  0  0  0  0  0
  151.5869  142.6565  158.3542 C   0  0  0  0  0  0  0  0  0  0  0  0
  151.9238  141.4543  157.8378 N   0  5  0  0  0  0  0  0  0  0  0  0
  152.7879  140.6710  158.5432 C   0  0  0  0  0  0  0  0  0  0  0  0
  153.1366  139.5639  158.1312 O   0  0  0  0  0  0  0  0  0  0  0  0
  155.7005  138.7208  161.2760 H   0  0  0  0  0  0  0  0  0  0  0  0
  157.4033  139.2342  162.9805 H   0  0  0  0  0  0  0  0  0  0  0  0
  156.1899  140.1217  163.8702 H   0  0  0  0  0  0  0  0  0  0  0  0
  156.0078  138.1116  165.0209 H   0  0  0  0  0  0  0  0  0  0  0  0
  156.7948  136.6304  162.4430 H   0  0  0  0  0  0  0  0  0  0  0  0
  157.8477  136.9469  163.8109 H   0  0  0  0  0  0  0  0  0  0  0  0
  154.9172  135.1205  162.7601 H   0  0  0  0  0  0  0  0  0  0  0  0
  154.6871  134.3981  164.3434 H   0  0  0  0  0  0  0  0  0  0  0  0
  153.0804  136.3127  163.9691 H   0  0  0  0  0  0  0  0  0  0  0  0
  154.1375  136.6302  165.3346 H   0  0  0  0  0  0  0  0  0  0  0  0
  154.4199  139.4684  160.0031 H   0  0  0  0  0  0  0  0  0  0  0  0
  153.3436  142.8125  161.1821 H   0  0  0  0  0  0  0  0  0  0  0  0
  150.8536  143.2282  157.7464 H   0  0  0  0  0  0  0  0  0  0  0  0
  1  2  2  0  0  0  0
  2  3  1  0  0  0  0
  2 11  1  0  0  0  0
  3  4  1  0  0  0  0
  3 23  1  0  0  0  0
  4  5  1  0  0  0  0
  4 24  1  0  0  0  0
  4 25  1  0  0  0  0
  5 10  1  0  0  0  0
  5  6  1  0  0  0  0
  5 26  1  0  0  0  0
  6  7  1  0  0  0  0
  6 27  1  0  0  0  0
  6 28  1  0  0  0  0
  7  8  1  0  0  0  0
  8  9  1  0  0  0  0
  8 29  1  0  0  0  0
  8 30  1  0  0  0  0
  9 10  1  0  0  0  0
  9 31  1  0  0  0  0
  9 32  1  0  0  0  0
 11 12  1  0  0  0  0
 11 33  1  0  0  0  0
 12 21  1  0  0  0  0
 12 13  2  0  0  0  0
 13 14  1  0  0  0  0
 13 34  1  0  0  0  0
 14 15  1  0  0  0  0
 14 19  2  0  0  0  0
 15 16  1  0  0  0  0
 15 17  1  0  0  0  0
 15 18  1  0  0  0  0
 19 20  1  0  0  0  0
 19 35  1  0  0  0  0
 20 21  1  0  0  0  0
 21 22  2  0  0  0  0
M  CHG  1  20  -1
M  END
> <s_m_source_file>
AV-unprocessed.smi

> <i_m_source_file_index>
1521

> <i_lp_mmshare_version>
43012

> <i_f3d_flags>
0

> <s_epik_input>
Tz1jMVtuSF1bY0hdYyhDKEYpKEYpRilbY0hdYzFbTkhdQyg9TylbTkhdW0NIMl1bQ0BASF0yW0NIMl1PW0NIMl1bQ0gyXU8y

> <s_epik_cmdline>
J2VwaWtfcHl0aG9uJywgJy1waCcsICc3LjAnLCAnLXRuJywgJzgnLCAnLW1hJywgJzIwMCcsICctbWV0YWxfYmluZGluZycsICctaW1hZScsICc8aW5maWxlLm1hZT4nLCAnLW9tYWUnLCAnPG91dGZpbGUubWFlPic=

> <r_lp_tautomer_probability>
1

> <r_epik_Ionization_Penalty>
3.1412

> <r_epik_Ionization_Penalty_Charging>
0.17015

> <r_epik_Ionization_Penalty_Neutral>
2.97105

> <r_epik_State_Penalty>
2.96707

> <r_epik_Charging_Adjusted_Penalty>
3.13722

> <i_epik_Tot_Q>
-1

> <i_epik_Tot_abs_Q>
1

> <r_epik_Metal_State_Penalty>
0.451298

> <b_epik_Metal_Only>
1

> <s_lp_Force_Field>
OPLS_2005

> <r_lp_Energy>
20.4323

> <b_lp_Chiralities_Consistent>
1

> <s_lp_Variant>
AV-unprocessed.smi:1521-3

> <Gold.Version>
5.8.1

> <Gold.Id.Protein>
6NUR|6NUR_protein|mol2

> <Gold.PLP.Fitness>
43.2040

> <Gold.PLP.PLP>
-41.2425

> <Gold.PLP.part.hbond>
-2.0000

> <Gold.PLP.part.metal>
0.0000

> <Gold.PLP.part.buried>
-3.2110

> <Gold.PLP.part.nonpolar>
-35.0572

> <Gold.PLP.part.repulsive>
0.1170

> <Gold.PLP.ligand.clash>
0.0000

> <Gold.PLP.ligand.torsion>
0.5467

> <Gold.PLP.Chemscore.Hbond>
1.0000

> <Gold.PLP.Chemscore.CHOScore>
0.0000

> <Gold.PLP.Chemscore.Metal>
0.0000

> <Gold.Chemscore.Hbonds>
donor molecule, donor type, donor heavy atom, donor atom, acceptor molecule, acceptor atom, score
      P1  H  7997  8009       L1    22  1.00

> <Gold.PLP.Chemscore.Internal.Correction>
0.0549

> <Gold.Rescore>
     Score         DG    S(hbond)    S(metal)    S(lipo)     H(rot)  DE(clash)    DE(int)     intcor
     10.59     -14.30       0.92        0.00      78.95       1.36       2.09       1.63       ----

> <Gold.Chemscore.Fitness>
10.5884

> <Gold.Chemscore.DG>
-14.3031

> <Gold.Chemscore.ZeroCoef>
-5.4800

> <Gold.Chemscore.Hbond>
0.9213

> <Gold.Chemscore.Metal>
0.0000

> <Gold.Chemscore.Lipo>
78.9549

> <Gold.Chemscore.Internal_Hbond>
0.0000

> <Gold.Chemscore.DEClash>
2.0852

> <Gold.Chemscore.DEInternal>
1.6294

> <Gold.Chemscore.Rot>
1.3640

> <Gold.Chemscore.Internal.Correction>
   9.000000E+99

> <Gold.Chemscore.Hbonds>
donor molecule, donor type, donor heavy atom, donor atom, acceptor molecule, acceptor atom, score
      P1  H  7997  8009       L1    22  0.30

> <Gold.Chemscore.Hbond.Weighted>
-3.0771

> <Gold.Chemscore.Metal.Weighted>
-0.0000

> <Gold.Chemscore.Lipo.Weighted>
-9.2377

> <Gold.Chemscore.Internal_Hbond.Weighted>
0.0000

> <Gold.Chemscore.DEClash.Weighted>
2.0852

> <Gold.Chemscore.DEInternal.Weighted>
1.6294

> <Gold.Chemscore.Rot.Weighted>
3.4918

> <Gold.Chemscore.Internal.Correction.Weighted>
   9.000000E+99

> <Gold.Protein.RotatedTorsions>
[ 6907 6896 6895 6894 ] final  -14.22 input  -60.11 | X-H torsion
[ 7974 7965 7964 7962 ] final   20.24 input  175.53 | X-H torsion
[ 8008 7997 7996 7995 ] final  150.01 input   59.86 | X-H torsion
[ 10167 10162 10161 10158 ] final  120.41 input  -65.29 | X-H torsion
[ 10718 10713 10712 10709 ] final -112.09 input   66.30 | X-H torsion
[ 10763 10752 10751 10750 ] final  -10.61 input  -60.55 | X-H torsion
[ 11005 11000 10999 10996 ] final   33.36 input  -57.11 | X-H torsion

> <Gold.Protein.ActiveResidues>
 VAL166  LYS551  ARG553  GLY616  TRP617  ASP618  TYR619  PRO620  LYS621  CYS622 
 ASP623  PHE694  ASN695  SER759  ASP760  ASP761  ALA762  ILE779  LEU786  VAL792 
 PHE793  MET794  SER795  GLU796  ALA797  LYS798  CYS799  TRP800  GLU811  SER814 

> <Gold.Protein.RotatedAtoms>
  151.3428  135.0867  159.9376 H   0  0  0  0  0  0  0  0  0  0  0  0  # atno 6907 bound_to 6896
  152.5207  133.9430  159.7646 H   0  0  0  0  0  0  0  0  0  0  0  0  # atno 6908 bound_to 6896
  150.9790  133.6212  159.2755 H   0  0  0  0  0  0  0  0  0  0  0  0  # atno 6909 bound_to 6896
  146.2119  139.8198  142.8682 H   0  0  0  0  0  0  0  0  0  0  0  0  # atno 7974 bound_to 7965
  156.2733  140.2086  156.5949 H   0  0  0  0  0  0  0  0  0  0  0  0  # atno 8008 bound_to 7997
  154.6953  140.0526  157.0427 H   0  0  0  0  0  0  0  0  0  0  0  0  # atno 8009 bound_to 7997
  155.0810  140.3186  155.4604 H   0  0  0  0  0  0  0  0  0  0  0  0  # atno 8010 bound_to 7997
  139.5983  144.7049  151.3122 H   0  0  0  0  0  0  0  0  0  0  0  0  # atno 10167 bound_to 10162
  156.0685  130.5902  150.8462 H   0  0  0  0  0  0  0  0  0  0  0  0  # atno 10718 bound_to 10713
  153.4716  135.7017  153.5990 H   0  0  0  0  0  0  0  0  0  0  0  0  # atno 10763 bound_to 10752
  153.4241  135.3818  155.2130 H   0  0  0  0  0  0  0  0  0  0  0  0  # atno 10764 bound_to 10752
  154.8725  135.3935  154.4155 H   0  0  0  0  0  0  0  0  0  0  0  0  # atno 10765 bound_to 10752
  140.2639  134.3160  155.7849 H   0  0  0  0  0  0  0  0  0  0  0  0  # atno 11005 bound_to 11000
  145.3108  141.0219  143.3555 LP  0  0  0  0  0  0  0  0  0  0  0  0  # atno 17320 bound_to 7965
  144.8937  139.4741  143.6666 LP  0  0  0  0  0  0  0  0  0  0  0  0  # atno 17321 bound_to 7965
  140.7230  143.7083  150.7790 LP  0  0  0  0  0  0  0  0  0  0  0  0  # atno 17342 bound_to 10162
  140.0654  143.5113  152.2607 LP  0  0  0  0  0  0  0  0  0  0  0  0  # atno 17343 bound_to 10162
  157.5742  131.0946  150.9371 LP  0  0  0  0  0  0  0  0  0  0  0  0  # atno 17370 bound_to 10713
  156.9581  130.5445  149.5285 LP  0  0  0  0  0  0  0  0  0  0  0  0  # atno 17371 bound_to 10713
  141.2186  133.7426  156.9230 LP  0  0  0  0  0  0  0  0  0  0  0  0  # atno 17394 bound_to 11000
  140.1438  134.9276  157.2502 LP  0  0  0  0  0  0  0  0  0  0  0  0  # atno 17395 bound_to 11000

$$$$
