#       Name:                AV-unprocessed.smi:1352
#       Creating user name   scv26
#       Creation time:       Fri Mar 27 05:11:47 2020


#       File generated by GOLD software.
#

@<TRIPOS>MOLECULE
AV-unprocessed.smi:1352
    51    52     1
SMALL
NO_CHARGES


@<TRIPOS>ATOM
      1 ****         0.5134   4.4473   3.3722 C.3            1 S1                 0.0000
      2 ****        -0.3425   3.6139   2.4078 C.3            1 S1                 0.0000
      3 ****        -1.8073   3.5454   2.8761 C.3            1 S1                 0.0000
      4 ****        -2.6601   2.6593   1.9498 C.3            1 S1                 0.0000
      5 ****        -2.9771   3.3312   0.6020 C.3            1 S1                 0.0000
      6 ****        -2.0047   1.2752   1.7721 C.3            1 S1                 0.0000
      7 ****        -0.6002   1.3865   1.2980 N.4            1 S1                 1.0000
      8 ****        -0.0078   0.0617   0.9841 C.3            1 S1                 0.0000
      9 ****         1.1633   0.1634  -0.0123 C.3            1 S1                 0.0000
     10 ****         1.7000  -1.1507  -0.3456 N.am           1 S1                 0.0000
     11 ****         1.1524  -2.0041  -1.2242 C.2            1 S1                 0.0000
     12 ****         0.1064  -1.7653  -1.8295 O.2            1 S1                 0.0000
     13 ****         1.8950  -3.3329  -1.4254 C.3            1 S1                 0.0000
     14 ****         1.5732  -3.9945  -2.7010 N.am           1 S1                 0.0000
     15 ****         0.6176  -5.0296  -2.6648 C.2            1 S1                 0.0000
     16 ****         0.2517  -5.6969  -3.7707 C.2            1 S1                 0.0000
     17 ****         0.8665  -5.3298  -5.0241 C.2            1 S1                 0.0000
     18 ****         1.7792  -4.3389  -5.0707 C.2            1 S1                 0.0000
     19 ****         2.1794  -3.6045  -3.8649 C.2            1 S1                 0.0000
     20 ****         3.0080  -2.6941  -3.8983 O.2            1 S1                 0.0000
     21 ****         0.2291   2.1939   2.2318 C.3            1 S1                 0.0000
     22 ****         0.5339   4.0053   4.3689 H              1 S1                 0.0000
     23 ****         0.1242   5.4614   3.4666 H              1 S1                 0.0000
     24 ****         1.5427   4.5223   3.0202 H              1 S1                 0.0000
     25 ****        -0.3128   4.1131   1.4387 H              1 S1                 0.0000
     26 ****        -1.8421   3.1375   3.8876 H              1 S1                 0.0000
     27 ****        -2.2347   4.5471   2.9382 H              1 S1                 0.0000
     28 ****        -3.6193   2.5041   2.4455 H              1 S1                 0.0000
     29 ****        -2.0799   3.4976   0.0062 H              1 S1                 0.0000
     30 ****        -3.4607   4.2971   0.7499 H              1 S1                 0.0000
     31 ****        -3.6540   2.7153   0.0095 H              1 S1                 0.0000
     32 ****        -2.0174   0.7335   2.7194 H              1 S1                 0.0000
     33 ****        -2.5925   0.6844   1.0679 H              1 S1                 0.0000
     34 ****         0.3062  -0.4321   1.9050 H              1 S1                 0.0000
     35 ****        -0.7770  -0.5736   0.5429 H              1 S1                 0.0000
     36 ****         0.8481   0.6780  -0.9219 H              1 S1                 0.0000
     37 ****         1.9818   0.7478   0.4059 H              1 S1                 0.0000
     38 ****         2.5584  -1.4250   0.1107 H              1 S1                 0.0000
     39 ****         2.9710  -3.1616  -1.3564 H              1 S1                 0.0000
     40 ****         1.6558  -3.9853  -0.5846 H              1 S1                 0.0000
     41 ****         0.2006  -5.2388  -1.6904 H              1 S1                 0.0000
     42 ****        -0.4853  -6.4850  -3.7247 H              1 S1                 0.0000
     43 ****         0.5928  -5.8515  -5.9294 H              1 S1                 0.0000
     44 ****         2.2277  -4.0775  -6.0179 H              1 S1                 0.0000
     45 ****         1.2489   2.2703   1.8567 H              1 S1                 0.0000
     46 ****         0.2870   1.6870   3.1967 H              1 S1                 0.0000
     47 ****        -0.6410   1.8931   0.4250 H              1 S1                 0.0000
     48 ****        -0.3746  -0.9022  -1.6754 LP             1 S1                 0.0000
     49 ****        -0.2617  -2.4345  -2.4749 LP             1 S1                 0.0000
     50 ****         3.2575  -2.2139  -3.0573 LP             1 S1                 0.0000
     51 ****         3.4315  -2.4350  -4.7664 LP             1 S1                 0.0000
@<TRIPOS>BOND
    1    1    2 1     
    2    1   22 1     
    3    1   23 1     
    4    1   24 1     
    5    2   21 1     
    6    2    3 1     
    7    2   25 1     
    8    3    4 1     
    9    3   26 1     
   10    3   27 1     
   11    4    5 1     
   12    4    6 1     
   13    4   28 1     
   14    5   29 1     
   15    5   30 1     
   16    5   31 1     
   17    6    7 1     
   18    6   32 1     
   19    6   33 1     
   20    7    8 1     
   21    7   21 1     
   22    7   47 1     
   23    8    9 1     
   24    8   34 1     
   25    8   35 1     
   26    9   10 1     
   27    9   36 1     
   28    9   37 1     
   29   10   11 am    
   30   10   38 1     
   31   11   12 2     
   32   11   13 1     
   33   13   14 1     
   34   13   39 1     
   35   13   40 1     
   36   14   19 am    
   37   14   15 1     
   38   15   16 2     
   39   15   41 1     
   40   16   17 1     
   41   16   42 1     
   42   17   18 2     
   43   17   43 1     
   44   18   19 1     
   45   18   44 1     
   46   19   20 2     
   47   21   45 1     
   48   21   46 1     
   49   12   48 1     
   50   12   49 1     
   51   20   50 1     
   52   20   51 1     
@<TRIPOS>SUBSTRUCTURE
      1 S1             1
@<TRIPOS>SET
LONE_PAIRS      STATIC     ATOMS    <user>   **** ""
4 48 49 50 51
DONOR_HYDROGENS      STATIC     ATOMS    <user>   **** ""
2 47 38
ATOM$BLUE        STATIC     ATOMS    COLORGROUP SYSTEM
4 48 49 50 51
ATOM$RED        STATIC     ATOMS    COLORGROUP SYSTEM
2 47 38
