AV-unprocessed.smi:34|AV-procd|sdf|232|dock2
  -GOLD-   2262015563D 1   1.00000     0.00000
 Structure written by MMmdl.
 54 58  0  0  0  0  0  0  0  0  2 V2000
  150.7899  139.9122  158.4228 O   0  0  0  0  0  0  0  0  0  0  0  0
  151.5963  140.6540  157.8577 C   0  0  0  0  0  0  0  0  0  0  0  0
  152.3903  140.3655  156.7953 N   0  5  0  0  0  0  0  0  0  0  0  0
  152.1550  139.2670  156.0613 C   0  0  0  0  0  0  0  0  0  0  0  0
  152.2029  139.3256  154.7060 N   0  0  0  0  0  0  0  0  0  0  0  0
  151.9619  138.2321  153.9737 C   0  0  0  0  0  0  0  0  0  0  0  0
  151.6539  136.9989  154.3848 N   0  0  0  0  0  0  0  0  0  0  0  0
  151.5936  136.9256  155.7459 C   0  0  0  0  0  0  0  0  0  0  0  0
  151.8271  138.0103  156.6413 C   0  0  0  0  0  0  0  0  0  0  0  0
  151.6849  137.6009  157.9589 N   0  0  0  0  0  0  0  0  0  0  0  0
  151.3823  136.3137  157.8090 C   0  0  0  0  0  0  0  0  0  0  0  0
  151.3103  135.8324  156.5522 N   0  0  0  0  0  0  0  0  0  0  0  0
  150.9934  134.4250  156.1496 C   0  0  1  0  0  0  0  0  0  0  0  0
  150.3383  133.7672  157.1951 O   0  0  0  0  0  0  0  0  0  0  0  0
  149.2433  132.9852  156.7074 C   0  0  1  0  0  0  0  0  0  0  0  0
  147.9275  133.6094  157.1993 C   0  0  0  0  0  0  0  0  0  0  0  0
  148.0329  133.8754  158.5885 O   0  0  0  0  0  0  0  0  0  0  0  0
  146.9825  133.6493  159.4014 C   0  0  0  0  0  0  0  0  0  0  0  0
  146.1056  132.8144  159.1691 O   0  0  0  0  0  0  0  0  0  0  0  0
  146.9896  134.5193  160.6126 C   0  0  0  0  0  0  0  0  0  0  0  0
  146.0151  134.3163  161.6174 C   0  0  0  0  0  0  0  0  0  0  0  0
  145.9942  135.1255  162.7701 C   0  0  0  0  0  0  0  0  0  0  0  0
  146.9464  136.1489  162.9309 C   0  0  0  0  0  0  0  0  0  0  0  0
  147.9206  136.3614  161.9381 C   0  0  0  0  0  0  0  0  0  0  0  0
  147.9439  135.5524  160.7852 C   0  0  0  0  0  0  0  0  0  0  0  0
  149.4082  133.0114  155.1841 C   0  0  1  0  0  0  0  0  0  0  0  0
  148.2833  132.8318  154.4892 F   0  0  0  0  0  0  0  0  0  0  0  0
  150.0937  134.3368  154.9101 C   0  0  1  0  0  0  0  0  0  0  0  0
  149.1782  135.4126  154.7984 O   0  0  0  0  0  0  0  0  0  0  0  0
  151.8145  142.0395  158.4057 C   0  0  0  0  0  0  0  0  0  0  0  0
  152.2448  142.2043  159.7423 C   0  0  0  0  0  0  0  0  0  0  0  0
  152.4300  143.4920  160.2823 C   0  0  0  0  0  0  0  0  0  0  0  0
  152.1770  144.6302  159.4944 C   0  0  0  0  0  0  0  0  0  0  0  0
  151.7350  144.4796  158.1667 C   0  0  0  0  0  0  0  0  0  0  0  0
  151.5498  143.1923  157.6258 C   0  0  0  0  0  0  0  0  0  0  0  0
  152.0240  138.3633  152.9036 H   0  0  0  0  0  0  0  0  0  0  0  0
  151.2054  135.6804  158.6658 H   0  0  0  0  0  0  0  0  0  0  0  0
  151.9645  133.9531  155.9937 H   0  0  0  0  0  0  0  0  0  0  0  0
  149.3209  131.9621  157.0769 H   0  0  0  0  0  0  0  0  0  0  0  0
  147.7040  134.5230  156.6489 H   0  0  0  0  0  0  0  0  0  0  0  0
  147.0978  132.9209  157.0358 H   0  0  0  0  0  0  0  0  0  0  0  0
  145.2727  133.5381  161.5145 H   0  0  0  0  0  0  0  0  0  0  0  0
  145.2457  134.9609  163.5308 H   0  0  0  0  0  0  0  0  0  0  0  0
  146.9293  136.7705  163.8136 H   0  0  0  0  0  0  0  0  0  0  0  0
  148.6516  137.1471  162.0599 H   0  0  0  0  0  0  0  0  0  0  0  0
  148.7029  135.7442  160.0409 H   0  0  0  0  0  0  0  0  0  0  0  0
  150.0786  132.2025  154.8905 H   0  0  0  0  0  0  0  0  0  0  0  0
  150.7067  134.3060  154.0088 H   0  0  0  0  0  0  0  0  0  0  0  0
  149.1213  135.6674  153.8900 H   0  0  0  0  0  0  0  0  0  0  0  0
  152.4407  141.3411  160.3619 H   0  0  0  0  0  0  0  0  0  0  0  0
  152.7646  143.6059  161.3027 H   0  0  0  0  0  0  0  0  0  0  0  0
  152.3182  145.6175  159.9085 H   0  0  0  0  0  0  0  0  0  0  0  0
  151.5338  145.3517  157.5625 H   0  0  0  0  0  0  0  0  0  0  0  0
  151.1997  143.0997  156.6079 H   0  0  0  0  0  0  0  0  0  0  0  0
  1  2  2  0  0  0  0
  2  3  1  0  0  0  0
  2 30  1  0  0  0  0
  3  4  1  0  0  0  0
  4  9  1  0  0  0  0
  4  5  2  0  0  0  0
  5  6  1  0  0  0  0
  6  7  2  0  0  0  0
  6 36  1  0  0  0  0
  7  8  1  0  0  0  0
  8 12  1  0  0  0  0
  8  9  2  0  0  0  0
  9 10  1  0  0  0  0
 10 11  2  0  0  0  0
 11 12  1  0  0  0  0
 11 37  1  0  0  0  0
 12 13  1  0  0  0  0
 13 28  1  0  0  0  0
 13 14  1  0  0  0  0
 13 38  1  0  0  0  0
 14 15  1  0  0  0  0
 15 16  1  0  0  0  0
 15 26  1  0  0  0  0
 15 39  1  0  0  0  0
 16 17  1  0  0  0  0
 16 40  1  0  0  0  0
 16 41  1  0  0  0  0
 17 18  1  0  0  0  0
 18 19  2  0  0  0  0
 18 20  1  0  0  0  0
 20 25  1  0  0  0  0
 20 21  2  0  0  0  0
 21 22  1  0  0  0  0
 21 42  1  0  0  0  0
 22 23  2  0  0  0  0
 22 43  1  0  0  0  0
 23 24  1  0  0  0  0
 23 44  1  0  0  0  0
 24 25  2  0  0  0  0
 24 45  1  0  0  0  0
 25 46  1  0  0  0  0
 26 27  1  0  0  0  0
 26 28  1  0  0  0  0
 26 47  1  0  0  0  0
 28 29  1  0  0  0  0
 28 48  1  0  0  0  0
 29 49  1  0  0  0  0
 30 35  1  0  0  0  0
 30 31  2  0  0  0  0
 31 32  1  0  0  0  0
 31 50  1  0  0  0  0
 32 33  2  0  0  0  0
 32 51  1  0  0  0  0
 33 34  1  0  0  0  0
 33 52  1  0  0  0  0
 34 35  2  0  0  0  0
 34 53  1  0  0  0  0
 35 54  1  0  0  0  0
M  CHG  1   3  -1
M  END
> <s_m_source_file>
AV-unprocessed.smi

> <i_m_source_file_index>
34

> <i_lp_mmshare_version>
43012

> <i_f3d_flags>
0

> <s_epik_input>
W2NIXTFbY0hdW2NIXVtjSF1bY0hdYzFDKD1PKVtOSF1jKG5bY0hdbjIpYyhjMjMpbltjSF1uM1tDQEBIXTRPW0NASF0oW0NAQEhdKEYpW0NASF00W09IXSlbQ0gyXU9DKD1PKWM1W2NIXVtjSF1bY0hdW2NIXVtjSF01

> <s_epik_cmdline>
J2VwaWtfcHl0aG9uJywgJy1waCcsICc3LjAnLCAnLXRuJywgJzgnLCAnLW1hJywgJzIwMCcsICctbWV0YWxfYmluZGluZycsICctaW1hZScsICc8aW5maWxlLm1hZT4nLCAnLW9tYWUnLCAnPG91dGZpbGUubWFlPic=

> <r_lp_tautomer_probability>
1

> <r_epik_Ionization_Penalty>
4.33227

> <r_epik_Ionization_Penalty_Charging>
3.41027

> <r_epik_Ionization_Penalty_Neutral>
0.922001

> <r_epik_State_Penalty>
3.41358

> <r_epik_Charging_Adjusted_Penalty>
6.82385

> <i_epik_Tot_Q>
-1

> <i_epik_Tot_abs_Q>
1

> <r_epik_Metal_State_Penalty>
0.496292

> <b_epik_Metal_Only>
1

> <s_epik_Chemistry_Notes>
This compound has an ester and may undergo hydrolysis at high or low pH. This compound contains an acetal/aminal-like group ( X-CH(R)-Y where X, Y are N, S, or O) that may be acid/base labile, releasing an aldehyde.

> <s_lp_Force_Field>
OPLS_2005

> <r_lp_Energy>
54.2336

> <b_lp_Chiralities_Consistent>
1

> <s_lp_Variant>
AV-unprocessed.smi:34-18

> <Gold.Version>
5.8.1

> <Gold.Id.Protein>
6NUR|6NUR_protein|mol2

> <Gold.PLP.Fitness>
64.6859

> <Gold.PLP.PLP>
-55.0754

> <Gold.PLP.part.hbond>
-4.9461

> <Gold.PLP.part.metal>
0.0000

> <Gold.PLP.part.buried>
-3.2398

> <Gold.PLP.part.nonpolar>
-47.0511

> <Gold.PLP.part.repulsive>
0.4650

> <Gold.PLP.ligand.clash>
0.0000

> <Gold.PLP.ligand.torsion>
2.8583

> <Gold.PLP.Chemscore.Hbond>
4.5224

> <Gold.PLP.Chemscore.CHOScore>
0.0978

> <Gold.PLP.Chemscore.Metal>
0.0000

> <Gold.Chemscore.Hbonds>
donor molecule, donor type, donor heavy atom, donor atom, acceptor molecule, acceptor atom, score
      L1  H    29    49       P1  7948  0.86
      P1  H  6896  6909       L1    14  0.72
      P1  H  7989  7998       L1     5  0.82
      P1  H  7997  8009       L1     3  1.08
      P1  H 10752 10763       L1     7  0.96
      L1  C     6    36       P1  7949  0.08

> <Gold.PLP.Chemscore.Internal.Correction>
1.4665

> <Gold.Rescore>
     Score         DG    S(hbond)    S(metal)    S(lipo)     H(rot)  DE(clash)    DE(int)     intcor
     13.10     -21.32       2.06        0.00     135.49       2.69       1.62       6.60       ----

> <Gold.Chemscore.Fitness>
13.1015

> <Gold.Chemscore.DG>
-21.3222

> <Gold.Chemscore.ZeroCoef>
-5.4800

> <Gold.Chemscore.Hbond>
2.0622

> <Gold.Chemscore.Metal>
0.0000

> <Gold.Chemscore.Lipo>
135.4857

> <Gold.Chemscore.Internal_Hbond>
0.0000

> <Gold.Chemscore.DEClash>
1.6203

> <Gold.Chemscore.DEInternal>
6.6003

> <Gold.Chemscore.Rot>
2.6944

> <Gold.Chemscore.Internal.Correction>
   9.000000E+99

> <Gold.Chemscore.Hbonds>
donor molecule, donor type, donor heavy atom, donor atom, acceptor molecule, acceptor atom, score
      L1  H    29    49       P1  7948  0.66
      P1  H  6896  6909       L1    14  0.67
      P1  H  7989  7998       L1     5  0.34
      P1  H  7997  8009       L1     3  0.04
      P1  H 10752 10763       L1     7  0.21

> <Gold.Chemscore.Hbond.Weighted>
-6.8879

> <Gold.Chemscore.Metal.Weighted>
-0.0000

> <Gold.Chemscore.Lipo.Weighted>
-15.8518

> <Gold.Chemscore.Internal_Hbond.Weighted>
0.0000

> <Gold.Chemscore.DEClash.Weighted>
1.6203

> <Gold.Chemscore.DEInternal.Weighted>
6.6003

> <Gold.Chemscore.Rot.Weighted>
6.8975

> <Gold.Chemscore.Internal.Correction.Weighted>
   9.000000E+99

> <Gold.Protein.RotatedTorsions>
[ 6907 6896 6895 6894 ] final   -6.02 input  -60.11 | X-H torsion
[ 7974 7965 7964 7962 ] final  -15.96 input  175.53 | X-H torsion
[ 8008 7997 7996 7995 ] final  176.22 input   59.86 | X-H torsion
[ 10167 10162 10161 10158 ] final -118.44 input  -65.29 | X-H torsion
[ 10718 10713 10712 10709 ] final   90.26 input   66.30 | X-H torsion
[ 10763 10752 10751 10750 ] final   24.82 input  -60.55 | X-H torsion
[ 11005 11000 10999 10996 ] final  -64.15 input  -57.11 | X-H torsion

> <Gold.Protein.ActiveResidues>
 VAL166  LYS551  ARG553  GLY616  TRP617  ASP618  TYR619  PRO620  LYS621  CYS622 
 ASP623  PHE694  ASN695  SER759  ASP760  ASP761  ALA762  ILE779  LEU786  VAL792 
 PHE793  MET794  SER795  GLU796  ALA797  LYS798  CYS799  TRP800  GLU811  SER814 

> <Gold.Protein.RotatedAtoms>
  151.4722  135.1046  159.9754 H   0  0  0  0  0  0  0  0  0  0  0  0  # atno 6907 bound_to 6896
  152.4812  133.8255  159.7086 H   0  0  0  0  0  0  0  0  0  0  0  0  # atno 6908 bound_to 6896
  150.8885  133.7214  159.2938 H   0  0  0  0  0  0  0  0  0  0  0  0  # atno 6909 bound_to 6896
  146.2009  140.3567  142.8424 H   0  0  0  0  0  0  0  0  0  0  0  0  # atno 7974 bound_to 7965
  156.0787  140.1389  156.9739 H   0  0  0  0  0  0  0  0  0  0  0  0  # atno 8008 bound_to 7997
  154.4573  140.0956  156.6842 H   0  0  0  0  0  0  0  0  0  0  0  0  # atno 8009 bound_to 7997
  155.5110  140.3453  155.4390 H   0  0  0  0  0  0  0  0  0  0  0  0  # atno 8010 bound_to 7997
  140.0575  143.5000  152.2050 H   0  0  0  0  0  0  0  0  0  0  0  0  # atno 10167 bound_to 10162
  157.6958  131.0364  150.3550 H   0  0  0  0  0  0  0  0  0  0  0  0  # atno 10718 bound_to 10713
  153.0736  135.6597  154.0193 H   0  0  0  0  0  0  0  0  0  0  0  0  # atno 10763 bound_to 10752
  153.9832  135.2953  155.3420 H   0  0  0  0  0  0  0  0  0  0  0  0  # atno 10764 bound_to 10752
  154.7118  135.5202  153.8748 H   0  0  0  0  0  0  0  0  0  0  0  0  # atno 10765 bound_to 10752
  141.1415  133.6661  156.5789 H   0  0  0  0  0  0  0  0  0  0  0  0  # atno 11005 bound_to 11000
  144.8681  140.7235  143.6064 LP  0  0  0  0  0  0  0  0  0  0  0  0  # atno 17320 bound_to 7965
  145.3487  139.1712  143.4446 LP  0  0  0  0  0  0  0  0  0  0  0  0  # atno 17321 bound_to 7965
  139.5915  144.7551  151.3390 LP  0  0  0  0  0  0  0  0  0  0  0  0  # atno 17342 bound_to 10162
  140.7188  143.7193  150.7708 LP  0  0  0  0  0  0  0  0  0  0  0  0  # atno 17343 bound_to 10162
  156.3993  130.3913  149.6971 LP  0  0  0  0  0  0  0  0  0  0  0  0  # atno 17370 bound_to 10713
  156.4294  130.7807  151.2827 LP  0  0  0  0  0  0  0  0  0  0  0  0  # atno 17371 bound_to 10713
  140.3854  134.7487  157.4688 LP  0  0  0  0  0  0  0  0  0  0  0  0  # atno 17394 bound_to 11000
  140.0606  134.6001  155.8753 LP  0  0  0  0  0  0  0  0  0  0  0  0  # atno 17395 bound_to 11000

$$$$
