#       Name:                AV-unprocessed.smi:891
#       Creating user name   scv26
#       Creation time:       Fri Mar 27 01:55:26 2020


#       File generated by GOLD software.
#

@<TRIPOS>MOLECULE
AV-unprocessed.smi:891
    43    43     1
SMALL
NO_CHARGES


@<TRIPOS>ATOM
      1 ****        -4.3060   3.9426  -0.8449 C.3            1 S1                 0.0000
      2 ****        -3.5724   2.6806  -0.4956 C.2            1 S1                 0.0000
      3 ****        -2.9338   2.0063  -1.4396 N.2            1 S1                 0.0000
      4 ****        -2.3781   0.9402  -0.8092 N.pl3          1 S1                 0.0000
      5 ****        -1.5879  -0.0043  -1.5859 C.3            1 S1                 0.0000
      6 ****        -0.0799   0.2382  -1.4487 C.2            1 S1                 0.0000
      7 ****         0.3572   1.3493  -1.1453 O.2            1 S1                 0.0000
      8 ****         0.7068  -0.8256  -1.6738 N.am           1 S1                 0.0000
      9 ****         2.1660  -0.8373  -1.6047 C.3            1 S1                 0.0000
     10 ****         2.6931  -1.5522  -0.3409 C.3            1 S1                 0.0000
     11 ****         4.2171  -1.7388  -0.4491 C.3            1 S1                 0.0000
     12 ****         2.2954  -0.8109   0.9598 C.3            1 S1                 0.0000
     13 ****         2.6329  -1.5496   2.2664 C.3            1 S1                 0.0000
     14 ****         1.8950  -2.7494   2.3649 O.3            1 S1                 0.0000
     15 ****        -2.6660   0.9251   0.5467 C.2            1 S1                 0.0000
     16 ****        -2.1779  -0.1364   1.4785 C.3            1 S1                 0.0000
     17 ****        -3.4305   2.0338   0.7599 C.2            1 S1                 0.0000
     18 ****        -4.0950   2.5524   2.2666 Cl             1 S1                 0.0000
     19 ****        -4.7637   4.3940   0.0353 H              1 S1                 0.0000
     20 ****        -5.0992   3.7476  -1.5668 H              1 S1                 0.0000
     21 ****        -3.6315   4.6795  -1.2812 H              1 S1                 0.0000
     22 ****        -1.8374  -1.0154  -1.2614 H              1 S1                 0.0000
     23 ****        -1.8679   0.0687  -2.6379 H              1 S1                 0.0000
     24 ****         0.2596  -1.6980  -1.9162 H              1 S1                 0.0000
     25 ****         2.5188  -1.3594  -2.4947 H              1 S1                 0.0000
     26 ****         2.5756   0.1723  -1.6680 H              1 S1                 0.0000
     27 ****         2.2435  -2.5459  -0.3209 H              1 S1                 0.0000
     28 ****         4.7371  -0.7811  -0.4146 H              1 S1                 0.0000
     29 ****         4.4872  -2.2283  -1.3852 H              1 S1                 0.0000
     30 ****         4.6065  -2.3620   0.3554 H              1 S1                 0.0000
     31 ****         2.7752   0.1684   0.9715 H              1 S1                 0.0000
     32 ****         1.2246  -0.6127   0.9635 H              1 S1                 0.0000
     33 ****         3.6979  -1.7644   2.3465 H              1 S1                 0.0000
     34 ****         2.3765  -0.9217   3.1199 H              1 S1                 0.0000
     35 ****         2.1115  -3.1685   3.1838 H              1 S1                 0.0000
     36 ****        -2.5740   0.0101   2.4833 H              1 S1                 0.0000
     37 ****        -1.0902  -0.1232   1.5437 H              1 S1                 0.0000
     38 ****        -2.4863  -1.1254   1.1398 H              1 S1                 0.0000
     39 ****        -2.8736   2.2343  -2.4114 LP             1 S1                 0.0000
     40 ****        -0.2740   2.1082  -0.9848 LP             1 S1                 0.0000
     41 ****         1.3432   1.4924  -1.0595 LP             1 S1                 0.0000
     42 ****         2.1309  -3.3538   1.6040 LP             1 S1                 0.0000
     43 ****         0.9162  -2.5464   2.3383 LP             1 S1                 0.0000
@<TRIPOS>BOND
    1    1    2 1     
    2    1   19 1     
    3    1   20 1     
    4    1   21 1     
    5    2   17 1     
    6    2    3 2     
    7    3    4 1     
    8    4    5 1     
    9    4   15 1     
   10    5    6 1     
   11    5   22 1     
   12    5   23 1     
   13    6    7 2     
   14    6    8 am    
   15    8    9 1     
   16    8   24 1     
   17    9   10 1     
   18    9   25 1     
   19    9   26 1     
   20   10   11 1     
   21   10   12 1     
   22   10   27 1     
   23   11   28 1     
   24   11   29 1     
   25   11   30 1     
   26   12   13 1     
   27   12   31 1     
   28   12   32 1     
   29   13   14 1     
   30   13   33 1     
   31   13   34 1     
   32   14   35 1     
   33   15   16 1     
   34   15   17 2     
   35   16   36 1     
   36   16   37 1     
   37   16   38 1     
   38   17   18 1     
   39    3   39 1     
   40    7   40 1     
   41    7   41 1     
   42   14   42 1     
   43   14   43 1     
@<TRIPOS>SUBSTRUCTURE
      1 S1             1
@<TRIPOS>SET
LONE_PAIRS      STATIC     ATOMS    <user>   **** ""
5 39 40 41 42 43
DONOR_HYDROGENS      STATIC     ATOMS    <user>   **** ""
2 24 35
ATOM$BLUE        STATIC     ATOMS    COLORGROUP SYSTEM
5 39 40 41 42 43
ATOM$RED        STATIC     ATOMS    COLORGROUP SYSTEM
2 24 35
