AV-unprocessed.smi:2607|AV-procd|sdf|10202|dock4
  -GOLD-   2272014213D 1   1.00000     0.00000
 Structure written by MMmdl.
 21 22  0  0  0  0  0  0  0  0  2 V2000
  152.2300  139.5620  159.1925 C   0  0  0  0  0  0  0  0  0  0  0  0
  151.7580  140.5100  158.0708 C   0  0  1  0  0  0  0  0  0  0  0  0
  151.8873  141.9833  158.5076 C   0  0  0  0  0  0  0  0  0  0  0  0
  151.4820  143.0677  157.6855 C   0  0  0  0  0  0  0  0  0  0  0  0
  151.6109  144.3560  158.0756 N   0  0  0  0  0  0  0  0  0  0  0  0
  152.1514  144.5688  159.2943 C   0  0  0  0  0  0  0  0  0  0  0  0
  152.5636  143.5019  160.1177 C   0  0  0  0  0  0  0  0  0  0  0  0
  152.4359  142.2154  159.7279 N   0  0  0  0  0  0  0  0  0  0  0  0
  152.4929  140.1974  156.8497 N   0  5  0  0  0  0  0  0  0  0  0  0
  151.6186  139.8328  155.8833 C   0  0  0  0  0  0  0  0  0  0  0  0
  151.8677  139.5246  154.7201 O   0  0  0  0  0  0  0  0  0  0  0  0
  150.3698  139.8358  156.3551 N   0  0  0  0  0  0  0  0  0  0  0  0
  150.3286  140.1865  157.6366 C   0  0  0  0  0  0  0  0  0  0  0  0
  149.3303  140.2273  158.3558 O   0  0  0  0  0  0  0  0  0  0  0  0
  151.6566  139.7081  160.1085 H   0  0  0  0  0  0  0  0  0  0  0  0
  153.2795  139.7335  159.4341 H   0  0  0  0  0  0  0  0  0  0  0  0
  152.1251  138.5137  158.9083 H   0  0  0  0  0  0  0  0  0  0  0  0
  151.0535  142.9198  156.7057 H   0  0  0  0  0  0  0  0  0  0  0  0
  152.2579  145.5948  159.6136 H   0  0  0  0  0  0  0  0  0  0  0  0
  152.9975  143.6808  161.0902 H   0  0  0  0  0  0  0  0  0  0  0  0
  149.5598  139.5787  155.8111 H   0  0  0  0  0  0  0  0  0  0  0  0
  1  2  1  0  0  0  0
  1 15  1  0  0  0  0
  1 16  1  0  0  0  0
  1 17  1  0  0  0  0
  2 13  1  0  0  0  0
  2  3  1  0  0  0  0
  2  9  1  0  0  0  0
  3  8  1  0  0  0  0
  3  4  2  0  0  0  0
  4  5  1  0  0  0  0
  4 18  1  0  0  0  0
  5  6  2  0  0  0  0
  6  7  1  0  0  0  0
  6 19  1  0  0  0  0
  7  8  2  0  0  0  0
  7 20  1  0  0  0  0
  9 10  1  0  0  0  0
 10 11  2  0  0  0  0
 10 12  1  0  0  0  0
 12 13  1  0  0  0  0
 12 21  1  0  0  0  0
 13 14  2  0  0  0  0
M  CHG  1   9  -1
M  END
> <s_m_source_file>
AV-unprocessed.smi

> <i_m_source_file_index>
2607

> <i_lp_mmshare_version>
43012

> <i_f3d_flags>
0

> <s_epik_input>
Tz1DMVtOSF1DKD1PKVtOSF1bQ0BAXTEoW0NIM10pYzJbY0hdbltjSF1bY0hdbjI=

> <s_epik_cmdline>
J2VwaWtfcHl0aG9uJywgJy1waCcsICc3LjAnLCAnLXRuJywgJzgnLCAnLW1hJywgJzIwMCcsICctbWV0YWxfYmluZGluZycsICctaW1hZScsICc8aW5maWxlLm1hZT4nLCAnLW9tYWUnLCAnPG91dGZpbGUubWFlPic=

> <r_lp_tautomer_probability>
1

> <r_epik_Ionization_Penalty>
4.70687

> <r_epik_Ionization_Penalty_Charging>
4.70687

> <r_epik_Ionization_Penalty_Neutral>
2.29475e-06

> <r_epik_State_Penalty>
4.73416

> <r_epik_Charging_Adjusted_Penalty>
9.44103

> <i_epik_Tot_Q>
-1

> <i_epik_Tot_abs_Q>
1

> <r_epik_Metal_State_Penalty>
1.2389

> <b_epik_Metal_Only>
1

> <s_lp_Force_Field>
OPLS_2005

> <r_lp_Energy>
21.97

> <b_lp_Chiralities_Consistent>
1

> <s_lp_Variant>
AV-unprocessed.smi:2607-5

> <Gold.Version>
5.8.1

> <Gold.Id.Protein>
6NUR|6NUR_protein|mol2

> <Gold.PLP.Fitness>
33.7901

> <Gold.PLP.PLP>
-24.9166

> <Gold.PLP.part.hbond>
-2.2939

> <Gold.PLP.part.metal>
0.0000

> <Gold.PLP.part.buried>
-3.4819

> <Gold.PLP.part.nonpolar>
-18.3033

> <Gold.PLP.part.repulsive>
0.2183

> <Gold.PLP.ligand.clash>
0.0000

> <Gold.PLP.ligand.torsion>
0.0543

> <Gold.PLP.Chemscore.Hbond>
2.9760

> <Gold.PLP.Chemscore.CHOScore>
0.0000

> <Gold.PLP.Chemscore.Metal>
0.0000

> <Gold.Chemscore.Hbonds>
donor molecule, donor type, donor heavy atom, donor atom, acceptor molecule, acceptor atom, score
      P1  H  7989  7998       L1    11  0.99
      P1  H  7997  8008       L1     9  2.00

> <Gold.PLP.Chemscore.Internal.Correction>
0.0541

> <Gold.Rescore>
     Score         DG    S(hbond)    S(metal)    S(lipo)     H(rot)  DE(clash)    DE(int)     intcor
     15.41     -15.46       1.95        0.00      51.42       1.00       0.01       0.05       ----

> <Gold.Chemscore.Fitness>
15.4056

> <Gold.Chemscore.DG>
-15.4615

> <Gold.Chemscore.ZeroCoef>
-5.4800

> <Gold.Chemscore.Hbond>
1.9537

> <Gold.Chemscore.Metal>
0.0000

> <Gold.Chemscore.Lipo>
51.4204

> <Gold.Chemscore.Internal_Hbond>
0.0000

> <Gold.Chemscore.DEClash>
0.0050

> <Gold.Chemscore.DEInternal>
0.0509

> <Gold.Chemscore.Rot>
1.0000

> <Gold.Chemscore.Internal.Correction>
   9.000000E+99

> <Gold.Chemscore.Hbonds>
donor molecule, donor type, donor heavy atom, donor atom, acceptor molecule, acceptor atom, score
      P1  H  7989  7998       L1    11  0.88
      P1  H  7997  8008       L1     9  0.95

> <Gold.Chemscore.Hbond.Weighted>
-6.5253

> <Gold.Chemscore.Metal.Weighted>
-0.0000

> <Gold.Chemscore.Lipo.Weighted>
-6.0162

> <Gold.Chemscore.Internal_Hbond.Weighted>
0.0000

> <Gold.Chemscore.DEClash.Weighted>
0.0050

> <Gold.Chemscore.DEInternal.Weighted>
0.0509

> <Gold.Chemscore.Rot.Weighted>
2.5600

> <Gold.Chemscore.Internal.Correction.Weighted>
   9.000000E+99

> <Gold.Protein.RotatedTorsions>
[ 6907 6896 6895 6894 ] final  165.48 input  -60.11 | X-H torsion
[ 7974 7965 7964 7962 ] final  -55.38 input  175.53 | X-H torsion
[ 8008 7997 7996 7995 ] final  -52.56 input   59.86 | X-H torsion
[ 10167 10162 10161 10158 ] final -107.07 input  -65.29 | X-H torsion
[ 10718 10713 10712 10709 ] final  -35.77 input   66.30 | X-H torsion
[ 10763 10752 10751 10750 ] final -112.73 input  -60.55 | X-H torsion
[ 11005 11000 10999 10996 ] final -101.93 input  -57.11 | X-H torsion

> <Gold.Protein.ActiveResidues>
 VAL166  LYS551  ARG553  GLY616  TRP617  ASP618  TYR619  PRO620  LYS621  CYS622 
 ASP623  PHE694  ASN695  SER759  ASP760  ASP761  ALA762  ILE779  LEU786  VAL792 
 PHE793  MET794  SER795  GLU796  ALA797  LYS798  CYS799  TRP800  GLU811  SER814 

> <Gold.Protein.RotatedAtoms>
  151.8937  133.3522  159.3806 H   0  0  0  0  0  0  0  0  0  0  0  0  # atno 6907 bound_to 6896
  150.7097  134.4898  159.5519 H   0  0  0  0  0  0  0  0  0  0  0  0  # atno 6908 bound_to 6896
  152.2473  134.8169  160.0502 H   0  0  0  0  0  0  0  0  0  0  0  0  # atno 6909 bound_to 6896
  145.8749  140.8188  142.9869 H   0  0  0  0  0  0  0  0  0  0  0  0  # atno 7974 bound_to 7965
  154.4110  140.1221  156.5011 H   0  0  0  0  0  0  0  0  0  0  0  0  # atno 8008 bound_to 7997
  155.6894  140.3495  155.4868 H   0  0  0  0  0  0  0  0  0  0  0  0  # atno 8009 bound_to 7997
  155.9482  140.1100  157.0989 H   0  0  0  0  0  0  0  0  0  0  0  0  # atno 8010 bound_to 7997
  140.1809  143.3967  152.1282 H   0  0  0  0  0  0  0  0  0  0  0  0  # atno 10167 bound_to 10162
  156.3347  130.4284  149.7840 H   0  0  0  0  0  0  0  0  0  0  0  0  # atno 10718 bound_to 10713
  154.8363  135.4480  154.1240 H   0  0  0  0  0  0  0  0  0  0  0  0  # atno 10763 bound_to 10752
  153.2468  135.6922  153.7729 H   0  0  0  0  0  0  0  0  0  0  0  0  # atno 10764 bound_to 10752
  153.7056  135.3365  155.3210 H   0  0  0  0  0  0  0  0  0  0  0  0  # atno 10765 bound_to 10752
  141.1210  133.8517  157.1295 H   0  0  0  0  0  0  0  0  0  0  0  0  # atno 11005 bound_to 11000
  144.6726  140.1295  143.7444 LP  0  0  0  0  0  0  0  0  0  0  0  0  # atno 17320 bound_to 7965
  145.9093  139.2477  143.1447 LP  0  0  0  0  0  0  0  0  0  0  0  0  # atno 17321 bound_to 7965
  139.5296  144.7144  151.5103 LP  0  0  0  0  0  0  0  0  0  0  0  0  # atno 17342 bound_to 10162
  140.6520  143.8677  150.6795 LP  0  0  0  0  0  0  0  0  0  0  0  0  # atno 17343 bound_to 10162
  156.5099  130.8167  151.3165 LP  0  0  0  0  0  0  0  0  0  0  0  0  # atno 17370 bound_to 10713
  157.7436  130.9917  150.2610 LP  0  0  0  0  0  0  0  0  0  0  0  0  # atno 17371 bound_to 10713
  140.0168  134.9964  157.0510 LP  0  0  0  0  0  0  0  0  0  0  0  0  # atno 17394 bound_to 11000
  140.4506  134.1586  155.7181 LP  0  0  0  0  0  0  0  0  0  0  0  0  # atno 17395 bound_to 11000

$$$$
