AV-unprocessed.smi:1107|AV-procd|sdf|4785|dock8
  -GOLD-   22720 3333D 1   1.00000     0.00000
 Structure written by MMmdl.
 48 49  0  0  0  0  0  0  0  0  3 V2000
  147.2097  136.0555  162.7816 C   0  0  0  0  0  0  0  0  0  0  0  0
  147.6496  135.9530  161.3367 C   0  0  0  0  0  0  0  0  0  0  0  0
  147.7218  134.8006  160.7880 N   0  0  0  0  0  0  0  0  0  0  0  0
  148.1396  134.6951  159.4506 C   0  0  0  0  0  0  0  0  0  0  0  0
  148.2372  133.2847  158.8966 C   0  0  0  0  0  0  0  0  0  0  0  0
  148.4508  135.8046  158.7206 C   0  0  0  0  0  0  0  0  0  0  0  0
  148.9775  135.7570  157.2854 C   0  0  0  0  0  0  0  0  0  0  0  0
  147.9958  135.1805  156.2626 C   0  0  0  0  0  0  0  0  0  0  0  0
  146.9529  135.7790  156.0031 O   0  0  0  0  0  0  0  0  0  0  0  0
  148.3690  134.0407  155.6590 N   0  0  0  0  0  0  0  0  0  0  0  0
  147.7257  133.4203  154.5052 C   0  0  2  0  0  0  0  0  0  0  0  0
  148.7050  132.4452  153.8385 C   0  0  0  0  0  0  0  0  0  0  0  0
  147.2440  134.5100  153.5204 C   0  0  0  0  0  0  0  0  0  0  0  0
  146.0937  134.0871  152.6764 N   0  3  0  0  0  0  0  0  0  0  0  0
  145.6947  135.1410  151.7066 C   0  0  0  0  0  0  0  0  0  0  0  0
  144.4448  134.7347  150.9067 C   0  0  0  0  0  0  0  0  0  0  0  0
  144.6446  133.3835  150.2103 C   0  0  0  0  0  0  0  0  0  0  0  0
  145.0649  132.3247  151.2367 C   0  0  0  0  0  0  0  0  0  0  0  0
  146.3144  132.7762  152.0090 C   0  0  0  0  0  0  0  0  0  0  0  0
  148.3466  137.1138  159.3873 C   0  0  0  0  0  0  0  0  0  0  0  0
  148.6250  138.1433  158.7744 O   0  0  0  0  0  0  0  0  0  0  0  0
  147.9584  137.1302  160.6933 N   0  5  0  0  0  0  0  0  0  0  0  0
  146.5980  135.1977  163.0639 H   0  0  0  0  0  0  0  0  0  0  0  0
  146.6208  136.9591  162.9442 H   0  0  0  0  0  0  0  0  0  0  0  0
  148.0809  136.0878  163.4363 H   0  0  0  0  0  0  0  0  0  0  0  0
  149.2393  133.0865  158.5161 H   0  0  0  0  0  0  0  0  0  0  0  0
  147.5232  133.1459  158.0845 H   0  0  0  0  0  0  0  0  0  0  0  0
  148.0191  132.5421  159.6650 H   0  0  0  0  0  0  0  0  0  0  0  0
  149.2579  136.7556  156.9528 H   0  0  0  0  0  0  0  0  0  0  0  0
  149.9041  135.1814  157.2592 H   0  0  0  0  0  0  0  0  0  0  0  0
  149.2354  133.6220  155.9667 H   0  0  0  0  0  0  0  0  0  0  0  0
  146.8658  132.8326  154.8286 H   0  0  0  0  0  0  0  0  0  0  0  0
  148.2465  131.9560  152.9786 H   0  0  0  0  0  0  0  0  0  0  0  0
  149.0152  131.6644  154.5338 H   0  0  0  0  0  0  0  0  0  0  0  0
  149.6030  132.9569  153.4906 H   0  0  0  0  0  0  0  0  0  0  0  0
  146.9408  135.3793  154.1064 H   0  0  0  0  0  0  0  0  0  0  0  0
  148.0651  134.8447  152.8848 H   0  0  0  0  0  0  0  0  0  0  0  0
  145.4870  136.0694  152.2402 H   0  0  0  0  0  0  0  0  0  0  0  0
  146.5246  135.3422  151.0277 H   0  0  0  0  0  0  0  0  0  0  0  0
  143.5842  134.6769  151.5720 H   0  0  0  0  0  0  0  0  0  0  0  0
  144.2091  135.5028  150.1697 H   0  0  0  0  0  0  0  0  0  0  0  0
  143.7258  133.0791  149.7084 H   0  0  0  0  0  0  0  0  0  0  0  0
  145.4093  133.4743  149.4378 H   0  0  0  0  0  0  0  0  0  0  0  0
  144.2475  132.1427  151.9354 H   0  0  0  0  0  0  0  0  0  0  0  0
  145.2591  131.3762  150.7352 H   0  0  0  0  0  0  0  0  0  0  0  0
  147.1663  132.8504  151.3314 H   0  0  0  0  0  0  0  0  0  0  0  0
  146.5635  132.0137  152.7459 H   0  0  0  0  0  0  0  0  0  0  0  0
  145.3070  133.9694  153.3000 H   0  0  0  0  0  0  0  0  0  0  0  0
  1  2  1  0  0  0  0
  1 23  1  0  0  0  0
  1 24  1  0  0  0  0
  1 25  1  0  0  0  0
  2 22  1  0  0  0  0
  2  3  2  0  0  0  0
  3  4  1  0  0  0  0
  4  5  1  0  0  0  0
  4  6  2  0  0  0  0
  5 26  1  0  0  0  0
  5 27  1  0  0  0  0
  5 28  1  0  0  0  0
  6  7  1  0  0  0  0
  6 20  1  0  0  0  0
  7  8  1  0  0  0  0
  7 29  1  0  0  0  0
  7 30  1  0  0  0  0
  8  9  2  0  0  0  0
  8 10  1  0  0  0  0
 10 11  1  0  0  0  0
 10 31  1  0  0  0  0
 11 12  1  0  0  0  0
 11 13  1  0  0  0  0
 11 32  1  0  0  0  0
 12 33  1  0  0  0  0
 12 34  1  0  0  0  0
 12 35  1  0  0  0  0
 13 14  1  0  0  0  0
 13 36  1  0  0  0  0
 13 37  1  0  0  0  0
 14 19  1  0  0  0  0
 14 15  1  0  0  0  0
 14 48  1  0  0  0  0
 15 16  1  0  0  0  0
 15 38  1  0  0  0  0
 15 39  1  0  0  0  0
 16 17  1  0  0  0  0
 16 40  1  0  0  0  0
 16 41  1  0  0  0  0
 17 18  1  0  0  0  0
 17 42  1  0  0  0  0
 17 43  1  0  0  0  0
 18 19  1  0  0  0  0
 18 44  1  0  0  0  0
 18 45  1  0  0  0  0
 19 46  1  0  0  0  0
 19 47  1  0  0  0  0
 20 21  2  0  0  0  0
 20 22  1  0  0  0  0
M  CHG  1  14   1
M  CHG  1  22  -1
M  END
> <s_m_source_file>
AV-unprocessed.smi

> <i_m_source_file_index>
1107

> <i_lp_mmshare_version>
43012

> <i_f3d_flags>
0

> <s_epik_input>
W0NIM11jMW5jKFtDSDNdKWMoYyg9TylbbkhdMSlbQ0gyXUMoPU8pW05IXVtDQEhdKFtDSDNdKVtDSDJdTjJbQ0gyXVtDSDJdW0NIMl1bQ0gyXVtDSDJdMg==

> <s_epik_cmdline>
J2VwaWtfcHl0aG9uJywgJy1waCcsICc3LjAnLCAnLXRuJywgJzgnLCAnLW1hJywgJzIwMCcsICctbWV0YWxfYmluZGluZycsICctaW1hZScsICc8aW5maWxlLm1hZT4nLCAnLW9tYWUnLCAnPG91dGZpbGUubWFlPic=

> <r_lp_tautomer_probability>
0.839158

> <r_epik_Ionization_Penalty>
6.34615

> <r_epik_Ionization_Penalty_Charging>
0.00266072

> <r_epik_Ionization_Penalty_Neutral>
6.34348

> <r_epik_State_Penalty>
4.30851

> <r_epik_Charging_Adjusted_Penalty>
4.31117

> <i_epik_Tot_Q>
0

> <i_epik_Tot_abs_Q>
2

> <r_epik_Metal_State_Penalty>
0.75957

> <b_epik_Metal_Only>
1

> <s_lp_Force_Field>
OPLS_2005

> <r_lp_Energy>
18.3813

> <b_lp_Chiralities_Consistent>
1

> <s_lp_Variant>
AV-unprocessed.smi:1107-5

> <Gold.Version>
5.8.1

> <Gold.Id.Protein>
6NUR|6NUR_protein|mol2

> <Gold.PLP.Fitness>
38.8996

> <Gold.PLP.PLP>
-29.9749

> <Gold.PLP.part.hbond>
-3.0000

> <Gold.PLP.part.metal>
0.0000

> <Gold.PLP.part.buried>
-3.0140

> <Gold.PLP.part.nonpolar>
-24.6509

> <Gold.PLP.part.repulsive>
0.0151

> <Gold.PLP.ligand.clash>
0.0000

> <Gold.PLP.ligand.torsion>
0.6428

> <Gold.PLP.Chemscore.Hbond>
3.3920

> <Gold.PLP.Chemscore.CHOScore>
0.0000

> <Gold.PLP.Chemscore.Metal>
0.0000

> <Gold.Chemscore.Hbonds>
donor molecule, donor type, donor heavy atom, donor atom, acceptor molecule, acceptor atom, score
      P1  H  6931  6943       L1    22  1.70
      P1  H  6934  6947       L1    22  1.51

> <Gold.PLP.Chemscore.Internal.Correction>
0.0343

> <Gold.Rescore>
     Score         DG    S(hbond)    S(metal)    S(lipo)     H(rot)  DE(clash)    DE(int)     intcor
      8.66     -11.01       0.90        0.00      63.56       1.92       0.38       1.96       ----

> <Gold.Chemscore.Fitness>
8.6644

> <Gold.Chemscore.DG>
-11.0059

> <Gold.Chemscore.ZeroCoef>
-5.4800

> <Gold.Chemscore.Hbond>
0.9022

> <Gold.Chemscore.Metal>
0.0000

> <Gold.Chemscore.Lipo>
63.5593

> <Gold.Chemscore.Internal_Hbond>
0.0000

> <Gold.Chemscore.DEClash>
0.3773

> <Gold.Chemscore.DEInternal>
1.9642

> <Gold.Chemscore.Rot>
1.9233

> <Gold.Chemscore.Internal.Correction>
   9.000000E+99

> <Gold.Chemscore.Hbonds>
donor molecule, donor type, donor heavy atom, donor atom, acceptor molecule, acceptor atom, score
      P1  H  6931  6943       L1    22  0.54
      P1  H  6934  6947       L1    22  0.28

> <Gold.Chemscore.Hbond.Weighted>
-3.0132

> <Gold.Chemscore.Metal.Weighted>
-0.0000

> <Gold.Chemscore.Lipo.Weighted>
-7.4364

> <Gold.Chemscore.Internal_Hbond.Weighted>
0.0000

> <Gold.Chemscore.DEClash.Weighted>
0.3773

> <Gold.Chemscore.DEInternal.Weighted>
1.9642

> <Gold.Chemscore.Rot.Weighted>
4.9237

> <Gold.Chemscore.Internal.Correction.Weighted>
   9.000000E+99

> <Gold.Protein.RotatedTorsions>
[ 6907 6896 6895 6894 ] final   64.28 input  -60.11 | X-H torsion
[ 7974 7965 7964 7962 ] final   67.60 input  175.53 | X-H torsion
[ 8008 7997 7996 7995 ] final   77.60 input   59.86 | X-H torsion
[ 10167 10162 10161 10158 ] final -137.30 input  -65.29 | X-H torsion
[ 10718 10713 10712 10709 ] final -104.14 input   66.30 | X-H torsion
[ 10763 10752 10751 10750 ] final  166.00 input  -60.55 | X-H torsion
[ 11005 11000 10999 10996 ] final  -34.00 input  -57.11 | X-H torsion

> <Gold.Protein.ActiveResidues>
 VAL166  LYS551  ARG553  GLY616  TRP617  ASP618  TYR619  PRO620  LYS621  CYS622 
 ASP623  PHE694  ASN695  SER759  ASP760  ASP761  ALA762  ILE779  LEU786  VAL792 
 PHE793  MET794  SER795  GLU796  ALA797  LYS798  CYS799  TRP800  GLU811  SER814 

> <Gold.Protein.RotatedAtoms>
  152.4319  134.5761  159.9934 H   0  0  0  0  0  0  0  0  0  0  0  0  # atno 6907 bound_to 6896
  151.5882  133.3364  159.3030 H   0  0  0  0  0  0  0  0  0  0  0  0  # atno 6908 bound_to 6896
  150.8213  134.7457  159.6839 H   0  0  0  0  0  0  0  0  0  0  0  0  # atno 6909 bound_to 6896
  145.8127  139.3041  143.1090 H   0  0  0  0  0  0  0  0  0  0  0  0  # atno 7974 bound_to 7965
  155.8439  140.3461  155.5650 H   0  0  0  0  0  0  0  0  0  0  0  0  # atno 8008 bound_to 7997
  155.8111  140.0899  157.1923 H   0  0  0  0  0  0  0  0  0  0  0  0  # atno 8009 bound_to 7997
  154.4005  140.1447  156.3375 H   0  0  0  0  0  0  0  0  0  0  0  0  # atno 8010 bound_to 7997
  139.8591  143.7100  152.2651 H   0  0  0  0  0  0  0  0  0  0  0  0  # atno 10167 bound_to 10162
  156.0293  130.5501  150.7354 H   0  0  0  0  0  0  0  0  0  0  0  0  # atno 10718 bound_to 10713
  154.3325  135.2754  155.2464 H   0  0  0  0  0  0  0  0  0  0  0  0  # atno 10763 bound_to 10752
  154.4770  135.5868  153.6366 H   0  0  0  0  0  0  0  0  0  0  0  0  # atno 10764 bound_to 10752
  152.9865  135.6102  154.3518 H   0  0  0  0  0  0  0  0  0  0  0  0  # atno 10765 bound_to 10752
  140.9680  133.7126  156.1477 H   0  0  0  0  0  0  0  0  0  0  0  0  # atno 11005 bound_to 11000
  145.9760  140.8722  143.0138 LP  0  0  0  0  0  0  0  0  0  0  0  0  # atno 17320 bound_to 7965
  144.6755  140.2013  143.7387 LP  0  0  0  0  0  0  0  0  0  0  0  0  # atno 17321 bound_to 7965
  139.7391  144.7564  151.0681 LP  0  0  0  0  0  0  0  0  0  0  0  0  # atno 17342 bound_to 10162
  140.7777  143.4994  150.9790 LP  0  0  0  0  0  0  0  0  0  0  0  0  # atno 17343 bound_to 10162
  157.4936  131.0913  151.0398 LP  0  0  0  0  0  0  0  0  0  0  0  0  # atno 17370 bound_to 10713
  157.0798  130.5898  149.5418 LP  0  0  0  0  0  0  0  0  0  0  0  0  # atno 17371 bound_to 10713
  140.7370  134.4192  157.5559 LP  0  0  0  0  0  0  0  0  0  0  0  0  # atno 17394 bound_to 11000
  139.8902  134.8811  156.2383 LP  0  0  0  0  0  0  0  0  0  0  0  0  # atno 17395 bound_to 11000

$$$$
