AV-unprocessed.smi:1405|AV-procd|sdf|5707|dock5
  -GOLD-   22720 5343D 1   1.00000     0.00000
 Structure written by MMmdl.
 49 52  0  0  0  0  0  0  0  0  1 V2000
  149.8864  140.0643  154.1119 O   0  0  0  0  0  0  0  0  0  0  0  0
  148.9692  140.8327  154.3992 C   0  0  0  0  0  0  0  0  0  0  0  0
  147.7945  140.9936  153.4182 C   0  0  0  0  0  0  0  0  0  0  0  0
  147.0023  139.7725  153.1947 N   0  0  0  0  0  0  0  0  0  0  0  0
  146.8975  139.2308  151.9212 C   0  0  0  0  0  0  0  0  0  0  0  0
  146.1914  138.1091  151.6438 C   0  0  0  0  0  0  0  0  0  0  0  0
  145.4874  137.3979  152.7053 C   0  0  0  0  0  0  0  0  0  0  0  0
  144.8228  136.3752  152.5543 O   0  0  0  0  0  0  0  0  0  0  0  0
  145.6176  137.9729  153.9722 N   0  0  0  0  0  0  0  0  0  0  0  0
  146.3442  139.1279  154.2654 C   0  0  0  0  0  0  0  0  0  0  0  0
  146.4007  139.5462  155.4211 O   0  0  0  0  0  0  0  0  0  0  0  0
  148.9494  141.5457  155.5382 N   0  0  0  0  0  0  0  0  0  0  0  0
  149.9898  141.5343  156.5585 C   0  0  0  0  0  0  0  0  0  0  0  0
  149.5521  142.3301  157.8059 C   0  0  0  0  0  0  0  0  0  0  0  0
  150.6776  143.0514  158.5909 C   0  0  0  0  0  0  0  0  0  0  0  0
  151.5795  142.0446  159.3557 C   0  0  0  0  0  0  0  0  0  0  0  0
  152.7218  142.7884  160.0818 C   0  0  2  0  0  0  0  0  0  0  0  0
  152.1248  143.7938  161.0892 C   0  0  0  0  0  0  0  0  0  0  0  0
  151.2506  144.8157  160.3314 C   0  0  1  0  0  0  0  0  0  0  0  0
  152.1142  145.5729  159.3021 C   0  0  0  0  0  0  0  0  0  0  0  0
  152.7098  144.5620  158.3011 C   0  0  1  0  0  0  0  0  0  0  0  0
  153.5888  143.5409  159.0519 C   0  0  0  0  0  0  0  0  0  0  0  0
  151.5663  143.8215  157.5766 C   0  0  0  0  0  0  0  0  0  0  0  0
  150.1044  144.0775  159.6059 C   0  0  0  0  0  0  0  0  0  0  0  0
  145.1479  137.5142  154.7395 H   0  0  0  0  0  0  0  0  0  0  0  0
  147.1516  141.8011  153.7738 H   0  0  0  0  0  0  0  0  0  0  0  0
  148.1973  141.3527  152.4700 H   0  0  0  0  0  0  0  0  0  0  0  0
  147.4060  139.7228  151.1040 H   0  0  0  0  0  0  0  0  0  0  0  0
  146.1480  137.7355  150.6309 H   0  0  0  0  0  0  0  0  0  0  0  0
  148.1600  142.1545  155.6991 H   0  0  0  0  0  0  0  0  0  0  0  0
  150.1786  140.4925  156.8144 H   0  0  0  0  0  0  0  0  0  0  0  0
  150.9159  141.9273  156.1387 H   0  0  0  0  0  0  0  0  0  0  0  0
  148.8089  143.0702  157.5051 H   0  0  0  0  0  0  0  0  0  0  0  0
  149.0307  141.6501  158.4815 H   0  0  0  0  0  0  0  0  0  0  0  0
  150.9999  141.4858  160.0903 H   0  0  0  0  0  0  0  0  0  0  0  0
  151.9935  141.3069  158.6668 H   0  0  0  0  0  0  0  0  0  0  0  0
  153.3403  142.0664  160.6159 H   0  0  0  0  0  0  0  0  0  0  0  0
  151.5308  143.2703  161.8394 H   0  0  0  0  0  0  0  0  0  0  0  0
  152.9220  144.3055  161.6300 H   0  0  0  0  0  0  0  0  0  0  0  0
  150.8287  145.5276  161.0415 H   0  0  0  0  0  0  0  0  0  0  0  0
  151.5124  146.3161  158.7775 H   0  0  0  0  0  0  0  0  0  0  0  0
  152.9113  146.1209  159.8061 H   0  0  0  0  0  0  0  0  0  0  0  0
  153.3181  145.0939  157.5687 H   0  0  0  0  0  0  0  0  0  0  0  0
  154.4159  144.0476  159.5508 H   0  0  0  0  0  0  0  0  0  0  0  0
  154.0367  142.8376  158.3487 H   0  0  0  0  0  0  0  0  0  0  0  0
  151.9841  143.1333  156.8402 H   0  0  0  0  0  0  0  0  0  0  0  0
  150.9648  144.5372  157.0143 H   0  0  0  0  0  0  0  0  0  0  0  0
  149.4619  144.7964  159.0959 H   0  0  0  0  0  0  0  0  0  0  0  0
  149.4799  143.5802  160.3482 H   0  0  0  0  0  0  0  0  0  0  0  0
  1  2  2  0  0  0  0
  2  3  1  0  0  0  0
  2 12  1  0  0  0  0
  3  4  1  0  0  0  0
  3 26  1  0  0  0  0
  3 27  1  0  0  0  0
  4 10  1  0  0  0  0
  4  5  1  0  0  0  0
  5  6  2  0  0  0  0
  5 28  1  0  0  0  0
  6  7  1  0  0  0  0
  6 29  1  0  0  0  0
  7  8  2  0  0  0  0
  7  9  1  0  0  0  0
  9 25  1  0  0  0  0
  9 10  1  0  0  0  0
 10 11  2  0  0  0  0
 12 13  1  0  0  0  0
 12 30  1  0  0  0  0
 13 14  1  0  0  0  0
 13 31  1  0  0  0  0
 13 32  1  0  0  0  0
 14 15  1  0  0  0  0
 14 33  1  0  0  0  0
 14 34  1  0  0  0  0
 15 23  1  0  0  0  0
 15 24  1  0  0  0  0
 15 16  1  0  0  0  0
 16 17  1  0  0  0  0
 16 35  1  0  0  0  0
 16 36  1  0  0  0  0
 17 22  1  0  0  0  0
 17 18  1  0  0  0  0
 17 37  1  0  0  0  0
 18 19  1  0  0  0  0
 18 38  1  0  0  0  0
 18 39  1  0  0  0  0
 19 20  1  0  0  0  0
 19 24  1  0  0  0  0
 19 40  1  0  0  0  0
 20 21  1  0  0  0  0
 20 41  1  0  0  0  0
 20 42  1  0  0  0  0
 21 22  1  0  0  0  0
 21 23  1  0  0  0  0
 21 43  1  0  0  0  0
 22 44  1  0  0  0  0
 22 45  1  0  0  0  0
 23 46  1  0  0  0  0
 23 47  1  0  0  0  0
 24 48  1  0  0  0  0
 24 49  1  0  0  0  0
M  END
> <s_m_source_file>
AV-unprocessed.smi

> <i_m_source_file_index>
1405

> <i_lp_mmshare_version>
43012

> <i_f3d_flags>
0

> <s_epik_input>
Tz1jMVtuSF1jKD1PKVtjSF1bY0hdbjFbQ0gyXUMoPU8pW05IXVtDSDJdW0NIMl1DMjNbQ0gyXVtDQEBIXTRbQ0gyXVtDQEhdKFtDSDJdMylbQ0gyXVtDQEBIXShbQ0gyXTQpW0NIMl0y

> <s_epik_cmdline>
J2VwaWtfcHl0aG9uJywgJy1waCcsICc3LjAnLCAnLXRuJywgJzgnLCAnLW1hJywgJzIwMCcsICctbWV0YWxfYmluZGluZycsICctaW1hZScsICc8aW5maWxlLm1hZT4nLCAnLW9tYWUnLCAnPG91dGZpbGUubWFlPic=

> <r_lp_tautomer_probability>
0.999537

> <r_epik_Ionization_Penalty>
0.00301971

> <r_epik_Ionization_Penalty_Charging>
0.00301969

> <r_epik_Ionization_Penalty_Neutral>
2.18059e-08

> <r_epik_State_Penalty>
0.00212114

> <r_epik_Charging_Adjusted_Penalty>
0.00514083

> <i_epik_Tot_Q>
0

> <i_epik_Tot_abs_Q>
0

> <r_epik_Metal_State_Penalty>
0.361473

> <b_epik_Metal_Only>
0

> <s_lp_Force_Field>
OPLS_2005

> <r_lp_Energy>
33.2851

> <b_lp_Chiralities_Consistent>
1

> <s_lp_Variant>
AV-unprocessed.smi:1405-1

> <Gold.Version>
5.8.1

> <Gold.Id.Protein>
6NUR|6NUR_protein|mol2

> <Gold.PLP.Fitness>
54.3632

> <Gold.PLP.PLP>
-49.5631

> <Gold.PLP.part.hbond>
-1.4912

> <Gold.PLP.part.metal>
0.0000

> <Gold.PLP.part.buried>
-0.8512

> <Gold.PLP.part.nonpolar>
-47.5188

> <Gold.PLP.part.repulsive>
1.2207

> <Gold.PLP.ligand.clash>
0.0000

> <Gold.PLP.ligand.torsion>
0.3604

> <Gold.PLP.Chemscore.Hbond>
0.9440

> <Gold.PLP.Chemscore.CHOScore>
0.8905

> <Gold.PLP.Chemscore.Metal>
0.0000

> <Gold.Chemscore.Hbonds>
donor molecule, donor type, donor heavy atom, donor atom, acceptor molecule, acceptor atom, score
      P1  H  7989  7998       L1     1  0.90
      L1  C     5    28       P1  7957  0.85

> <Gold.PLP.Chemscore.Internal.Correction>
0.0174

> <Gold.Rescore>
     Score         DG    S(hbond)    S(metal)    S(lipo)     H(rot)  DE(clash)    DE(int)     intcor
     18.01     -20.51       0.89        0.00     150.81       2.18       0.86       1.64       ----

> <Gold.Chemscore.Fitness>
18.0107

> <Gold.Chemscore.DG>
-20.5070

> <Gold.Chemscore.ZeroCoef>
-5.4800

> <Gold.Chemscore.Hbond>
0.8870

> <Gold.Chemscore.Metal>
0.0000

> <Gold.Chemscore.Lipo>
150.8066

> <Gold.Chemscore.Internal_Hbond>
0.0000

> <Gold.Chemscore.DEClash>
0.8601

> <Gold.Chemscore.DEInternal>
1.6363

> <Gold.Chemscore.Rot>
2.1797

> <Gold.Chemscore.Internal.Correction>
   9.000000E+99

> <Gold.Chemscore.Hbonds>
donor molecule, donor type, donor heavy atom, donor atom, acceptor molecule, acceptor atom, score
      P1  H  7989  7998       L1     1  0.79

> <Gold.Chemscore.Hbond.Weighted>
-2.9626

> <Gold.Chemscore.Metal.Weighted>
-0.0000

> <Gold.Chemscore.Lipo.Weighted>
-17.6444

> <Gold.Chemscore.Internal_Hbond.Weighted>
0.0000

> <Gold.Chemscore.DEClash.Weighted>
0.8601

> <Gold.Chemscore.DEInternal.Weighted>
1.6363

> <Gold.Chemscore.Rot.Weighted>
5.5799

> <Gold.Chemscore.Internal.Correction.Weighted>
   9.000000E+99

> <Gold.Protein.RotatedTorsions>
[ 6907 6896 6895 6894 ] final   -9.51 input  -60.11 | X-H torsion
[ 7974 7965 7964 7962 ] final  -25.63 input  175.53 | X-H torsion
[ 8008 7997 7996 7995 ] final  104.19 input   59.86 | X-H torsion
[ 10167 10162 10161 10158 ] final  -21.23 input  -65.29 | X-H torsion
[ 10718 10713 10712 10709 ] final -130.00 input   66.30 | X-H torsion
[ 10763 10752 10751 10750 ] final   62.59 input  -60.55 | X-H torsion
[ 11005 11000 10999 10996 ] final -146.45 input  -57.11 | X-H torsion

> <Gold.Protein.ActiveResidues>
 VAL166  LYS551  ARG553  GLY616  TRP617  ASP618  TYR619  PRO620  LYS621  CYS622 
 ASP623  PHE694  ASN695  SER759  ASP760  ASP761  ALA762  ILE779  LEU786  VAL792 
 PHE793  MET794  SER795  GLU796  ALA797  LYS798  CYS799  TRP800  GLU811  SER814 

> <Gold.Protein.RotatedAtoms>
  151.4167  135.0992  159.9601 H   0  0  0  0  0  0  0  0  0  0  0  0  # atno 6907 bound_to 6896
  152.5002  133.8746  159.7326 H   0  0  0  0  0  0  0  0  0  0  0  0  # atno 6908 bound_to 6896
  150.9253  133.6774  159.2851 H   0  0  0  0  0  0  0  0  0  0  0  0  # atno 6909 bound_to 6896
  146.1479  140.4911  142.8624 H   0  0  0  0  0  0  0  0  0  0  0  0  # atno 7974 bound_to 7965
  156.1550  140.3152  155.8712 H   0  0  0  0  0  0  0  0  0  0  0  0  # atno 8008 bound_to 7997
  155.3895  140.0493  157.3058 H   0  0  0  0  0  0  0  0  0  0  0  0  # atno 8009 bound_to 7997
  154.5093  140.2159  155.9199 H   0  0  0  0  0  0  0  0  0  0  0  0  # atno 8010 bound_to 7997
  140.7281  143.4648  151.0329 H   0  0  0  0  0  0  0  0  0  0  0  0  # atno 10167 bound_to 10162
  156.2102  130.6913  151.0641 H   0  0  0  0  0  0  0  0  0  0  0  0  # atno 10718 bound_to 10713
  152.9988  135.5459  154.6217 H   0  0  0  0  0  0  0  0  0  0  0  0  # atno 10763 bound_to 10752
  154.5515  135.2827  155.1006 H   0  0  0  0  0  0  0  0  0  0  0  0  # atno 10764 bound_to 10752
  154.2244  135.6445  153.5208 H   0  0  0  0  0  0  0  0  0  0  0  0  # atno 10765 bound_to 10752
  140.7819  134.3069  157.5043 H   0  0  0  0  0  0  0  0  0  0  0  0  # atno 11005 bound_to 11000
  144.7868  140.5952  143.6568 LP  0  0  0  0  0  0  0  0  0  0  0  0  # atno 17320 bound_to 7965
  145.4894  139.1489  143.3718 LP  0  0  0  0  0  0  0  0  0  0  0  0  # atno 17321 bound_to 7965
  139.8335  143.7659  152.3180 LP  0  0  0  0  0  0  0  0  0  0  0  0  # atno 17342 bound_to 10162
  139.7783  144.7453  151.0125 LP  0  0  0  0  0  0  0  0  0  0  0  0  # atno 17343 bound_to 10162
  157.7034  131.0766  150.6746 LP  0  0  0  0  0  0  0  0  0  0  0  0  # atno 17370 bound_to 10713
  156.6806  130.4566  149.5629 LP  0  0  0  0  0  0  0  0  0  0  0  0  # atno 17371 bound_to 10713
  139.8741  134.9323  156.3551 LP  0  0  0  0  0  0  0  0  0  0  0  0  # atno 17394 bound_to 11000
  140.9474  133.7473  156.0227 LP  0  0  0  0  0  0  0  0  0  0  0  0  # atno 17395 bound_to 11000

$$$$
