AV-unprocessed.smi:2975|AV-procd|sdf|11355|dock9
  -GOLD-   2272016273D 1   1.00000     0.00000
 Structure written by MMmdl.
 39 41  0  0  0  0  0  0  0  0  1 V2000
  152.5910  139.5111  153.7235 C   0  0  0  0  0  0  0  0  0  0  0  0
  151.4471  138.5614  154.1026 C   0  0  2  0  0  0  0  0  0  0  0  0
  151.3328  137.5832  153.0884 O   0  0  0  0  0  0  0  0  0  0  0  0
  150.1575  139.3023  154.3320 C   0  0  0  0  0  0  0  0  0  0  0  0
  149.0435  139.0190  153.6530 N   0  0  0  0  0  0  0  0  0  0  0  0
  148.1334  139.9233  154.1630 C   0  0  0  0  0  0  0  0  0  0  0  0
  146.7680  140.1231  153.8583 C   0  0  0  0  0  0  0  0  0  0  0  0
  146.0276  141.1224  154.5231 C   0  0  0  0  0  0  0  0  0  0  0  0
  146.6406  141.9344  155.4991 C   0  0  0  0  0  0  0  0  0  0  0  0
  148.0005  141.7529  155.8161 C   0  0  0  0  0  0  0  0  0  0  0  0
  148.7350  140.7540  155.1495 C   0  0  0  0  0  0  0  0  0  0  0  0
  150.0561  140.3242  155.2208 N   0  0  0  0  0  0  0  0  0  0  0  0
  151.0867  140.8744  156.0872 C   0  0  0  0  0  0  0  0  0  0  0  0
  150.8352  140.5177  157.5571 C   0  0  0  0  0  0  0  0  0  0  0  0
  152.0034  140.8271  158.3030 O   0  0  0  0  0  0  0  0  0  0  0  0
  151.9920  141.9547  159.0964 C   0  0  0  0  0  0  0  0  0  0  0  0
  151.1254  143.0597  158.8956 C   0  0  0  0  0  0  0  0  0  0  0  0
  151.1803  144.1746  159.7544 C   0  0  0  0  0  0  0  0  0  0  0  0
  152.0974  144.2010  160.8211 C   0  0  0  0  0  0  0  0  0  0  0  0
  152.9611  143.1098  161.0282 C   0  0  0  0  0  0  0  0  0  0  0  0
  152.9077  141.9945  160.1699 C   0  0  0  0  0  0  0  0  0  0  0  0
  153.7445  140.9502  160.3804 F   0  0  0  0  0  0  0  0  0  0  0  0
  152.7546  140.2568  154.5018 H   0  0  0  0  0  0  0  0  0  0  0  0
  152.3743  140.0419  152.7956 H   0  0  0  0  0  0  0  0  0  0  0  0
  153.5263  138.9676  153.5862 H   0  0  0  0  0  0  0  0  0  0  0  0
  151.7189  138.0213  155.0086 H   0  0  0  0  0  0  0  0  0  0  0  0
  151.0611  138.0105  152.2907 H   0  0  0  0  0  0  0  0  0  0  0  0
  146.2893  139.5052  153.1130 H   0  0  0  0  0  0  0  0  0  0  0  0
  144.9842  141.2657  154.2833 H   0  0  0  0  0  0  0  0  0  0  0  0
  146.0659  142.6968  156.0045 H   0  0  0  0  0  0  0  0  0  0  0  0
  148.4725  142.3730  156.5636 H   0  0  0  0  0  0  0  0  0  0  0  0
  152.0638  140.5172  155.7620 H   0  0  0  0  0  0  0  0  0  0  0  0
  151.1049  141.9579  155.9637 H   0  0  0  0  0  0  0  0  0  0  0  0
  149.9834  141.0877  157.9320 H   0  0  0  0  0  0  0  0  0  0  0  0
  150.6023  139.4556  157.6484 H   0  0  0  0  0  0  0  0  0  0  0  0
  150.4092  143.0777  158.0885 H   0  0  0  0  0  0  0  0  0  0  0  0
  150.5167  145.0115  159.5931 H   0  0  0  0  0  0  0  0  0  0  0  0
  152.1384  145.0566  161.4790 H   0  0  0  0  0  0  0  0  0  0  0  0
  153.6662  143.1273  161.8464 H   0  0  0  0  0  0  0  0  0  0  0  0
  1  2  1  0  0  0  0
  1 23  1  0  0  0  0
  1 24  1  0  0  0  0
  1 25  1  0  0  0  0
  2  3  1  0  0  0  0
  2  4  1  0  0  0  0
  2 26  1  0  0  0  0
  3 27  1  0  0  0  0
  4 12  1  0  0  0  0
  4  5  2  0  0  0  0
  5  6  1  0  0  0  0
  6 11  2  0  0  0  0
  6  7  1  0  0  0  0
  7  8  2  0  0  0  0
  7 28  1  0  0  0  0
  8  9  1  0  0  0  0
  8 29  1  0  0  0  0
  9 10  2  0  0  0  0
  9 30  1  0  0  0  0
 10 11  1  0  0  0  0
 10 31  1  0  0  0  0
 11 12  1  0  0  0  0
 12 13  1  0  0  0  0
 13 14  1  0  0  0  0
 13 32  1  0  0  0  0
 13 33  1  0  0  0  0
 14 15  1  0  0  0  0
 14 34  1  0  0  0  0
 14 35  1  0  0  0  0
 15 16  1  0  0  0  0
 16 21  1  0  0  0  0
 16 17  2  0  0  0  0
 17 18  1  0  0  0  0
 17 36  1  0  0  0  0
 18 19  2  0  0  0  0
 18 37  1  0  0  0  0
 19 20  1  0  0  0  0
 19 38  1  0  0  0  0
 20 21  2  0  0  0  0
 20 39  1  0  0  0  0
 21 22  1  0  0  0  0
M  END
> <s_m_source_file>
AV-unprocessed.smi

> <i_m_source_file_index>
2975

> <i_lp_mmshare_version>
43012

> <i_f3d_flags>
0

> <s_epik_input>
W2NIXTFbY0hdW2NIXVtjSF1jKGMxMiluKGMobjIpW0NASF0oW0NIM10pW09IXSlbQ0gyXVtDSDJdT2MzW2NIXVtjSF1bY0hdW2NIXWMzRg==

> <s_epik_cmdline>
J2VwaWtfcHl0aG9uJywgJy1waCcsICc3LjAnLCAnLXRuJywgJzgnLCAnLW1hJywgJzIwMCcsICctbWV0YWxfYmluZGluZycsICctaW1hZScsICc8aW5maWxlLm1hZT4nLCAnLW9tYWUnLCAnPG91dGZpbGUubWFlPic=

> <r_lp_tautomer_probability>
1

> <r_epik_Ionization_Penalty>
0.0404035

> <r_epik_Ionization_Penalty_Charging>
0

> <r_epik_Ionization_Penalty_Neutral>
0.0404035

> <r_epik_State_Penalty>
0.0340039

> <r_epik_Charging_Adjusted_Penalty>
0.0340039

> <i_epik_Tot_Q>
0

> <i_epik_Tot_abs_Q>
0

> <r_epik_Metal_State_Penalty>
3.49976e-05

> <b_epik_Metal_Only>
0

> <s_lp_Force_Field>
OPLS_2005

> <r_lp_Energy>
15.721

> <b_lp_Chiralities_Consistent>
1

> <s_lp_Variant>
AV-unprocessed.smi:2975-1

> <Gold.Version>
5.8.1

> <Gold.Id.Protein>
6NUR|6NUR_protein|mol2

> <Gold.PLP.Fitness>
56.7230

> <Gold.PLP.PLP>
-53.2158

> <Gold.PLP.part.hbond>
-2.1702

> <Gold.PLP.part.metal>
0.0000

> <Gold.PLP.part.buried>
-1.7523

> <Gold.PLP.part.nonpolar>
-50.3919

> <Gold.PLP.part.repulsive>
1.2526

> <Gold.PLP.ligand.clash>
0.0000

> <Gold.PLP.ligand.torsion>
0.8092

> <Gold.PLP.Chemscore.Hbond>
1.7020

> <Gold.PLP.Chemscore.CHOScore>
0.0000

> <Gold.PLP.Chemscore.Metal>
0.0000

> <Gold.PLP.Chemscore.Internal.Correction>
0.0198

> <Gold.Rescore>
     Score         DG    S(hbond)    S(metal)    S(lipo)     H(rot)  DE(clash)    DE(int)     intcor
     17.86     -19.85       1.33        0.00     132.99       2.21       0.93       1.06       ----

> <Gold.Chemscore.Fitness>
17.8623

> <Gold.Chemscore.DG>
-19.8462

> <Gold.Chemscore.ZeroCoef>
-5.4800

> <Gold.Chemscore.Hbond>
1.3335

> <Gold.Chemscore.Metal>
0.0000

> <Gold.Chemscore.Lipo>
132.9884

> <Gold.Chemscore.Internal_Hbond>
0.0000

> <Gold.Chemscore.DEClash>
0.9288

> <Gold.Chemscore.DEInternal>
1.0551

> <Gold.Chemscore.Rot>
2.2060

> <Gold.Chemscore.Internal.Correction>
   9.000000E+99

> <Gold.Chemscore.Hbond.Weighted>
-4.4539

> <Gold.Chemscore.Metal.Weighted>
-0.0000

> <Gold.Chemscore.Lipo.Weighted>
-15.5596

> <Gold.Chemscore.Internal_Hbond.Weighted>
0.0000

> <Gold.Chemscore.DEClash.Weighted>
0.9288

> <Gold.Chemscore.DEInternal.Weighted>
1.0551

> <Gold.Chemscore.Rot.Weighted>
5.6473

> <Gold.Chemscore.Internal.Correction.Weighted>
   9.000000E+99

> <Gold.Protein.RotatedTorsions>
[ 6907 6896 6895 6894 ] final  -94.52 input  -60.11 | X-H torsion
[ 7974 7965 7964 7962 ] final   27.21 input  175.53 | X-H torsion
[ 8008 7997 7996 7995 ] final -116.55 input   59.86 | X-H torsion
[ 10167 10162 10161 10158 ] final   45.74 input  -65.29 | X-H torsion
[ 10718 10713 10712 10709 ] final  -15.87 input   66.30 | X-H torsion
[ 10763 10752 10751 10750 ] final  168.48 input  -60.55 | X-H torsion
[ 11005 11000 10999 10996 ] final  100.19 input  -57.11 | X-H torsion

> <Gold.Protein.ActiveResidues>
 VAL166  LYS551  ARG553  GLY616  TRP617  ASP618  TYR619  PRO620  LYS621  CYS622 
 ASP623  PHE694  ASN695  SER759  ASP760  ASP761  ALA762  ILE779  LEU786  VAL792 
 PHE793  MET794  SER795  GLU796  ALA797  LYS798  CYS799  TRP800  GLU811  SER814 

> <Gold.Protein.RotatedAtoms>
  150.6943  134.1800  159.4244 H   0  0  0  0  0  0  0  0  0  0  0  0  # atno 6907 bound_to 6896
  151.9775  135.0043  160.0565 H   0  0  0  0  0  0  0  0  0  0  0  0  # atno 6908 bound_to 6896
  152.1785  133.4656  159.4983 H   0  0  0  0  0  0  0  0  0  0  0  0  # atno 6909 bound_to 6896
  146.1796  139.7222  142.8910 H   0  0  0  0  0  0  0  0  0  0  0  0  # atno 7974 bound_to 7965
  155.0696  140.0393  157.2604 H   0  0  0  0  0  0  0  0  0  0  0  0  # atno 8008 bound_to 7997
  154.6993  140.2670  155.6710 H   0  0  0  0  0  0  0  0  0  0  0  0  # atno 8009 bound_to 7997
  156.2755  140.2744  156.1598 H   0  0  0  0  0  0  0  0  0  0  0  0  # atno 8010 bound_to 7997
  140.3210  144.2705  150.6183 H   0  0  0  0  0  0  0  0  0  0  0  0  # atno 10167 bound_to 10162
  156.5956  130.4810  149.6261 H   0  0  0  0  0  0  0  0  0  0  0  0  # atno 10718 bound_to 10713
  154.3692  135.2753  155.2276 H   0  0  0  0  0  0  0  0  0  0  0  0  # atno 10763 bound_to 10752
  154.4431  135.5949  153.6146 H   0  0  0  0  0  0  0  0  0  0  0  0  # atno 10764 bound_to 10752
  152.9839  135.6023  154.3921 H   0  0  0  0  0  0  0  0  0  0  0  0  # atno 10765 bound_to 10752
  139.8771  134.9129  156.4719 H   0  0  0  0  0  0  0  0  0  0  0  0  # atno 11005 bound_to 11000
  145.4113  141.0397  143.3015 LP  0  0  0  0  0  0  0  0  0  0  0  0  # atno 17320 bound_to 7965
  144.8293  139.5655  143.6951 LP  0  0  0  0  0  0  0  0  0  0  0  0  # atno 17321 bound_to 7965
  140.5483  143.2211  151.7970 LP  0  0  0  0  0  0  0  0  0  0  0  0  # atno 17342 bound_to 10162
  139.4874  144.4510  151.9654 LP  0  0  0  0  0  0  0  0  0  0  0  0  # atno 17343 bound_to 10162
  156.2513  130.6908  151.1647 LP  0  0  0  0  0  0  0  0  0  0  0  0  # atno 17370 bound_to 10713
  157.7293  131.0625  150.5782 LP  0  0  0  0  0  0  0  0  0  0  0  0  # atno 17371 bound_to 10713
  140.8789  133.7932  155.9445 LP  0  0  0  0  0  0  0  0  0  0  0  0  # atno 17394 bound_to 11000
  140.8874  134.2537  157.5112 LP  0  0  0  0  0  0  0  0  0  0  0  0  # atno 17395 bound_to 11000

$$$$
