AV-unprocessed.smi:1392|AV-procd|sdf|5661|dock6
  -GOLD-   22720 5283D 1   1.00000     0.00000
 Structure written by MMmdl.
 39 40  0  0  0  0  0  0  0  0  1 V2000
  151.8269  141.6457  158.1098 C   0  0  0  0  0  0  0  0  0  0  0  0
  151.2706  141.5307  156.7674 N   0  0  0  0  0  0  0  0  0  0  0  0
  151.0870  142.7263  155.9510 C   0  0  0  0  0  0  0  0  0  0  0  0
  150.8883  140.2670  156.2612 C   0  0  0  0  0  0  0  0  0  0  0  0
  151.0301  139.0870  157.0330 C   0  0  0  0  0  0  0  0  0  0  0  0
  150.6324  137.8517  156.4866 C   0  0  0  0  0  0  0  0  0  0  0  0
  150.0931  137.8208  155.1803 C   0  0  0  0  0  0  0  0  0  0  0  0
  149.6734  136.6387  154.5124 N   0  0  0  0  0  0  0  0  0  0  0  0
  149.4704  135.4137  155.0267 C   0  0  0  0  0  0  0  0  0  0  0  0
  149.5916  135.1093  156.2131 O   0  0  0  0  0  0  0  0  0  0  0  0
  149.0946  134.5457  154.0769 N   0  0  0  0  0  0  0  0  0  0  0  0
  148.7896  133.1368  154.3031 C   0  0  0  0  0  0  0  0  0  0  0  0
  148.1114  132.4869  153.0820 C   0  0  2  0  0  0  0  0  0  0  0  0
  147.0465  133.3373  152.4181 C   0  0  0  0  0  0  0  0  0  0  0  0
  146.2658  132.2958  151.6225 C   0  0  0  0  0  0  0  0  0  0  0  0
  146.3520  131.0877  152.3731 O   0  0  0  0  0  0  0  0  0  0  0  0
  147.3163  131.2245  153.4130 C   0  0  0  0  0  0  0  0  0  0  0  0
  150.0049  139.0416  154.4839 C   0  0  0  0  0  0  0  0  0  0  0  0
  150.3836  140.2274  155.0038 N   0  0  0  0  0  0  0  0  0  0  0  0
  152.7499  141.0713  158.1927 H   0  0  0  0  0  0  0  0  0  0  0  0
  151.1174  141.2779  158.8516 H   0  0  0  0  0  0  0  0  0  0  0  0
  152.0578  142.6819  158.3570 H   0  0  0  0  0  0  0  0  0  0  0  0
  151.6500  142.6454  155.0208 H   0  0  0  0  0  0  0  0  0  0  0  0
  151.4301  143.6205  156.4710 H   0  0  0  0  0  0  0  0  0  0  0  0
  150.0333  142.8656  155.7078 H   0  0  0  0  0  0  0  0  0  0  0  0
  151.4398  139.1018  158.0314 H   0  0  0  0  0  0  0  0  0  0  0  0
  150.7631  136.9570  157.0752 H   0  0  0  0  0  0  0  0  0  0  0  0
  149.4524  136.7514  153.5339 H   0  0  0  0  0  0  0  0  0  0  0  0
  149.0146  134.8819  153.1285 H   0  0  0  0  0  0  0  0  0  0  0  0
  149.7020  132.5958  154.5596 H   0  0  0  0  0  0  0  0  0  0  0  0
  148.1380  133.0693  155.1748 H   0  0  0  0  0  0  0  0  0  0  0  0
  148.8660  132.2302  152.3365 H   0  0  0  0  0  0  0  0  0  0  0  0
  146.4013  133.7955  153.1690 H   0  0  0  0  0  0  0  0  0  0  0  0
  147.4570  134.1286  151.7900 H   0  0  0  0  0  0  0  0  0  0  0  0
  145.2293  132.5896  151.4563 H   0  0  0  0  0  0  0  0  0  0  0  0
  146.7322  132.1328  150.6502 H   0  0  0  0  0  0  0  0  0  0  0  0
  147.9501  130.3405  153.4868 H   0  0  0  0  0  0  0  0  0  0  0  0
  146.7845  131.3383  154.3585 H   0  0  0  0  0  0  0  0  0  0  0  0
  149.6130  139.0720  153.4777 H   0  0  0  0  0  0  0  0  0  0  0  0
  1  2  1  0  0  0  0
  1 20  1  0  0  0  0
  1 21  1  0  0  0  0
  1 22  1  0  0  0  0
  2  3  1  0  0  0  0
  2  4  1  0  0  0  0
  3 23  1  0  0  0  0
  3 24  1  0  0  0  0
  3 25  1  0  0  0  0
  4 19  1  0  0  0  0
  4  5  2  0  0  0  0
  5  6  1  0  0  0  0
  5 26  1  0  0  0  0
  6  7  2  0  0  0  0
  6 27  1  0  0  0  0
  7  8  1  0  0  0  0
  7 18  1  0  0  0  0
  8  9  1  0  0  0  0
  8 28  1  0  0  0  0
  9 10  2  0  0  0  0
  9 11  1  0  0  0  0
 11 12  1  0  0  0  0
 11 29  1  0  0  0  0
 12 13  1  0  0  0  0
 12 30  1  0  0  0  0
 12 31  1  0  0  0  0
 13 17  1  0  0  0  0
 13 14  1  0  0  0  0
 13 32  1  0  0  0  0
 14 15  1  0  0  0  0
 14 33  1  0  0  0  0
 14 34  1  0  0  0  0
 15 16  1  0  0  0  0
 15 35  1  0  0  0  0
 15 36  1  0  0  0  0
 16 17  1  0  0  0  0
 17 37  1  0  0  0  0
 17 38  1  0  0  0  0
 18 19  2  0  0  0  0
 18 39  1  0  0  0  0
M  END
> <s_m_source_file>
AV-unprocessed.smi

> <i_m_source_file_index>
1392

> <i_lp_mmshare_version>
43012

> <i_f3d_flags>
0

> <s_epik_input>
W0NIM11OKFtDSDNdKWMxW2NIXVtjSF1jKFtjSF1uMSlbTkhdQyg9TylbTkhdW0NIMl1bQ0BASF0yW0NIMl1bQ0gyXU9bQ0gyXTI=

> <s_epik_cmdline>
J2VwaWtfcHl0aG9uJywgJy1waCcsICc3LjAnLCAnLXRuJywgJzgnLCAnLW1hJywgJzIwMCcsICctbWV0YWxfYmluZGluZycsICctaW1hZScsICc8aW5maWxlLm1hZT4nLCAnLW9tYWUnLCAnPG91dGZpbGUubWFlPic=

> <r_lp_tautomer_probability>
1

> <r_epik_Ionization_Penalty>
0.612298

> <r_epik_Ionization_Penalty_Charging>
0

> <r_epik_Ionization_Penalty_Neutral>
0.612298

> <r_epik_State_Penalty>
0.626495

> <r_epik_Charging_Adjusted_Penalty>
0.626495

> <i_epik_Tot_Q>
0

> <i_epik_Tot_abs_Q>
0

> <r_epik_Metal_State_Penalty>
0.304101

> <b_epik_Metal_Only>
0

> <s_lp_Force_Field>
OPLS_2005

> <r_lp_Energy>
22.6053

> <b_lp_Chiralities_Consistent>
1

> <s_lp_Variant>
AV-unprocessed.smi:1392-3

> <Gold.Version>
5.8.1

> <Gold.Id.Protein>
6NUR|6NUR_protein|mol2

> <Gold.PLP.Fitness>
35.2688

> <Gold.PLP.PLP>
-24.4979

> <Gold.PLP.part.hbond>
-3.0000

> <Gold.PLP.part.metal>
0.0000

> <Gold.PLP.part.buried>
-3.1921

> <Gold.PLP.part.nonpolar>
-18.1818

> <Gold.PLP.part.repulsive>
0.2845

> <Gold.PLP.ligand.clash>
0.0000

> <Gold.PLP.ligand.torsion>
0.2805

> <Gold.PLP.Chemscore.Hbond>
2.7750

> <Gold.PLP.Chemscore.CHOScore>
1.0000

> <Gold.PLP.Chemscore.Metal>
0.0000

> <Gold.Chemscore.Hbonds>
donor molecule, donor type, donor heavy atom, donor atom, acceptor molecule, acceptor atom, score
      L1  H     8    28       P1  7948  1.00
      L1  H    11    29       P1  7948  0.80
      P1  H  7989  7998       L1    19  0.94
      L1  C    18    39       P1  7957  1.00

> <Gold.PLP.Chemscore.Internal.Correction>
0.0069

> <Gold.Rescore>
     Score         DG    S(hbond)    S(metal)    S(lipo)     H(rot)  DE(clash)    DE(int)     intcor
     13.69     -15.10       1.80        0.00      57.45       1.21       0.00       1.42       ----

> <Gold.Chemscore.Fitness>
13.6871

> <Gold.Chemscore.DG>
-15.1026

> <Gold.Chemscore.ZeroCoef>
-5.4800

> <Gold.Chemscore.Hbond>
1.7994

> <Gold.Chemscore.Metal>
0.0000

> <Gold.Chemscore.Lipo>
57.4514

> <Gold.Chemscore.Internal_Hbond>
0.0000

> <Gold.Chemscore.DEClash>
0.0000

> <Gold.Chemscore.DEInternal>
1.4155

> <Gold.Chemscore.Rot>
1.2146

> <Gold.Chemscore.Internal.Correction>
   9.000000E+99

> <Gold.Chemscore.Hbonds>
donor molecule, donor type, donor heavy atom, donor atom, acceptor molecule, acceptor atom, score
      L1  H     8    28       P1  7948  0.84
      L1  H    11    29       P1  7948  0.12
      P1  H  7989  7998       L1    19  0.21

> <Gold.Chemscore.Hbond.Weighted>
-6.0101

> <Gold.Chemscore.Metal.Weighted>
-0.0000

> <Gold.Chemscore.Lipo.Weighted>
-6.7218

> <Gold.Chemscore.Internal_Hbond.Weighted>
0.0000

> <Gold.Chemscore.DEClash.Weighted>
0.0000

> <Gold.Chemscore.DEInternal.Weighted>
1.4155

> <Gold.Chemscore.Rot.Weighted>
3.1093

> <Gold.Chemscore.Internal.Correction.Weighted>
   9.000000E+99

> <Gold.Protein.RotatedTorsions>
[ 6907 6896 6895 6894 ] final   95.62 input  -60.11 | X-H torsion
[ 7974 7965 7964 7962 ] final  -58.95 input  175.53 | X-H torsion
[ 8008 7997 7996 7995 ] final   -2.55 input   59.86 | X-H torsion
[ 10167 10162 10161 10158 ] final  157.21 input  -65.29 | X-H torsion
[ 10718 10713 10712 10709 ] final  120.88 input   66.30 | X-H torsion
[ 10763 10752 10751 10750 ] final -128.02 input  -60.55 | X-H torsion
[ 11005 11000 10999 10996 ] final -174.27 input  -57.11 | X-H torsion

> <Gold.Protein.ActiveResidues>
 VAL166  LYS551  ARG553  GLY616  TRP617  ASP618  TYR619  PRO620  LYS621  CYS622 
 ASP623  PHE694  ASN695  SER759  ASP760  ASP761  ALA762  ILE779  LEU786  VAL792 
 PHE793  MET794  SER795  GLU796  ALA797  LYS798  CYS799  TRP800  GLU811  SER814 

> <Gold.Protein.RotatedAtoms>
  152.5442  134.1011  159.8317 H   0  0  0  0  0  0  0  0  0  0  0  0  # atno 6907 bound_to 6896
  151.1089  133.5180  159.2614 H   0  0  0  0  0  0  0  0  0  0  0  0  # atno 6908 bound_to 6896
  151.1907  135.0410  159.8885 H   0  0  0  0  0  0  0  0  0  0  0  0  # atno 6909 bound_to 6896
  145.8333  140.8465  143.0072 H   0  0  0  0  0  0  0  0  0  0  0  0  # atno 7974 bound_to 7965
  154.6345  140.2531  155.7394 H   0  0  0  0  0  0  0  0  0  0  0  0  # atno 8008 bound_to 7997
  156.2497  140.2900  156.0632 H   0  0  0  0  0  0  0  0  0  0  0  0  # atno 8009 bound_to 7997
  155.1692  140.0386  157.2849 H   0  0  0  0  0  0  0  0  0  0  0  0  # atno 8010 bound_to 7997
  139.4822  144.4939  151.8269 H   0  0  0  0  0  0  0  0  0  0  0  0  # atno 10167 bound_to 10162
  157.5859  131.1070  150.8096 H   0  0  0  0  0  0  0  0  0  0  0  0  # atno 10718 bound_to 10713
  154.8755  135.3942  154.3688 H   0  0  0  0  0  0  0  0  0  0  0  0  # atno 10763 bound_to 10752
  153.4451  135.7027  153.6149 H   0  0  0  0  0  0  0  0  0  0  0  0  # atno 10764 bound_to 10752
  153.4714  135.3789  155.2362 H   0  0  0  0  0  0  0  0  0  0  0  0  # atno 10765 bound_to 10752
  140.4763  134.6117  157.4902 H   0  0  0  0  0  0  0  0  0  0  0  0  # atno 11005 bound_to 11000
  144.6738  140.0704  143.7473 LP  0  0  0  0  0  0  0  0  0  0  0  0  # atno 17320 bound_to 7965
  145.9547  139.2758  143.1191 LP  0  0  0  0  0  0  0  0  0  0  0  0  # atno 17321 bound_to 7965
  140.4425  144.1966  150.5892 LP  0  0  0  0  0  0  0  0  0  0  0  0  # atno 17342 bound_to 10162
  140.4668  143.2428  151.9144 LP  0  0  0  0  0  0  0  0  0  0  0  0  # atno 17343 bound_to 10162
  156.8530  130.5087  149.5310 LP  0  0  0  0  0  0  0  0  0  0  0  0  # atno 17370 bound_to 10713
  156.0908  130.5894  150.9729 LP  0  0  0  0  0  0  0  0  0  0  0  0  # atno 17371 bound_to 10713
  139.9854  134.7071  155.9784 LP  0  0  0  0  0  0  0  0  0  0  0  0  # atno 17394 bound_to 11000
  141.1553  133.6543  156.4140 LP  0  0  0  0  0  0  0  0  0  0  0  0  # atno 17395 bound_to 11000

$$$$
