AV-unprocessed.smi:2114|AV-procd|sdf|8619|dock9
  -GOLD-   2272011363D 1   1.00000     0.00000
 Structure written by MMmdl.
 47 48  0  0  0  0  0  0  0  0  1 V2000
  147.7411  133.4242  153.3262 C   0  0  0  0  0  0  0  0  0  0  0  0
  147.6008  133.4671  154.7349 O   0  0  0  0  0  0  0  0  0  0  0  0
  147.9355  134.7338  155.2787 C   0  0  0  0  0  0  0  0  0  0  0  0
  149.3722  135.1100  154.8764 C   0  0  2  0  0  0  0  0  0  0  0  0
  150.3636  133.9895  155.2190 C   0  0  0  0  0  0  0  0  0  0  0  0
  149.7867  136.3342  155.5576 N   0  0  0  0  0  0  0  0  0  0  0  0
  150.9024  137.0366  155.2989 C   0  0  0  0  0  0  0  0  0  0  0  0
  151.7399  136.7047  154.4601 O   0  0  0  0  0  0  0  0  0  0  0  0
  151.1131  138.2514  156.1556 C   0  0  0  0  0  0  0  0  0  0  0  0
  150.0593  138.8308  156.8952 C   0  0  0  0  0  0  0  0  0  0  0  0
  150.3134  139.9832  157.6631 C   0  0  0  0  0  0  0  0  0  0  0  0
  151.6155  140.5361  157.6691 C   0  0  0  0  0  0  0  0  0  0  0  0
  151.8907  141.6887  158.4351 N   0  0  0  0  0  0  0  0  0  0  0  0
  151.0325  142.8398  158.1700 C   0  0  0  0  0  0  0  0  0  0  0  0
  151.6161  144.1207  158.7979 C   0  0  2  0  0  0  0  0  0  0  0  0
  152.8163  144.6905  158.0207 C   0  0  0  0  0  0  0  0  0  0  0  0
  151.9198  143.9014  160.1775 O   0  0  0  0  0  0  0  0  0  0  0  0
  152.8023  142.8085  160.4294 C   0  0  1  0  0  0  0  0  0  0  0  0
  153.0177  142.7115  161.9434 C   0  0  0  0  0  0  0  0  0  0  0  0
  152.2001  141.5157  159.8515 C   0  0  0  0  0  0  0  0  0  0  0  0
  152.6215  139.9890  156.9439 N   0  0  0  0  0  0  0  0  0  0  0  0
  152.3733  138.8840  156.2092 C   0  0  0  0  0  0  0  0  0  0  0  0
  147.4731  132.4324  152.9622 H   0  0  0  0  0  0  0  0  0  0  0  0
  148.7702  133.6260  153.0263 H   0  0  0  0  0  0  0  0  0  0  0  0
  147.0859  134.1495  152.8422 H   0  0  0  0  0  0  0  0  0  0  0  0
  147.2325  135.4945  154.9344 H   0  0  0  0  0  0  0  0  0  0  0  0
  147.8564  134.6869  156.3660 H   0  0  0  0  0  0  0  0  0  0  0  0
  149.4059  135.2560  153.7951 H   0  0  0  0  0  0  0  0  0  0  0  0
  150.1013  133.0635  154.7065 H   0  0  0  0  0  0  0  0  0  0  0  0
  150.3779  133.7839  156.2900 H   0  0  0  0  0  0  0  0  0  0  0  0
  151.3769  134.2557  154.9166 H   0  0  0  0  0  0  0  0  0  0  0  0
  149.1735  136.6772  156.2823 H   0  0  0  0  0  0  0  0  0  0  0  0
  149.0642  138.4107  156.8771 H   0  0  0  0  0  0  0  0  0  0  0  0
  149.5088  140.4375  158.2217 H   0  0  0  0  0  0  0  0  0  0  0  0
  150.8763  142.9980  157.1037 H   0  0  0  0  0  0  0  0  0  0  0  0
  150.0510  142.6370  158.6008 H   0  0  0  0  0  0  0  0  0  0  0  0
  150.8373  144.8835  158.7769 H   0  0  0  0  0  0  0  0  0  0  0  0
  152.5214  144.9732  157.0100 H   0  0  0  0  0  0  0  0  0  0  0  0
  153.6300  143.9714  157.9294 H   0  0  0  0  0  0  0  0  0  0  0  0
  153.2093  145.5816  158.5106 H   0  0  0  0  0  0  0  0  0  0  0  0
  153.7689  143.0018  159.9637 H   0  0  0  0  0  0  0  0  0  0  0  0
  153.6969  141.8958  162.1922 H   0  0  0  0  0  0  0  0  0  0  0  0
  152.0767  142.5349  162.4651 H   0  0  0  0  0  0  0  0  0  0  0  0
  153.4481  143.6334  162.3355 H   0  0  0  0  0  0  0  0  0  0  0  0
  151.2878  141.2506  160.3879 H   0  0  0  0  0  0  0  0  0  0  0  0
  152.9080  140.6968  159.9861 H   0  0  0  0  0  0  0  0  0  0  0  0
  153.2138  138.4950  155.6531 H   0  0  0  0  0  0  0  0  0  0  0  0
  1  2  1  0  0  0  0
  1 23  1  0  0  0  0
  1 24  1  0  0  0  0
  1 25  1  0  0  0  0
  2  3  1  0  0  0  0
  3  4  1  0  0  0  0
  3 26  1  0  0  0  0
  3 27  1  0  0  0  0
  4  5  1  0  0  0  0
  4  6  1  0  0  0  0
  4 28  1  0  0  0  0
  5 29  1  0  0  0  0
  5 30  1  0  0  0  0
  5 31  1  0  0  0  0
  6  7  1  0  0  0  0
  6 32  1  0  0  0  0
  7  8  2  0  0  0  0
  7  9  1  0  0  0  0
  9 22  1  0  0  0  0
  9 10  2  0  0  0  0
 10 11  1  0  0  0  0
 10 33  1  0  0  0  0
 11 12  2  0  0  0  0
 11 34  1  0  0  0  0
 12 13  1  0  0  0  0
 12 21  1  0  0  0  0
 13 20  1  0  0  0  0
 13 14  1  0  0  0  0
 14 15  1  0  0  0  0
 14 35  1  0  0  0  0
 14 36  1  0  0  0  0
 15 16  1  0  0  0  0
 15 17  1  0  0  0  0
 15 37  1  0  0  0  0
 16 38  1  0  0  0  0
 16 39  1  0  0  0  0
 16 40  1  0  0  0  0
 17 18  1  0  0  0  0
 18 19  1  0  0  0  0
 18 20  1  0  0  0  0
 18 41  1  0  0  0  0
 19 42  1  0  0  0  0
 19 43  1  0  0  0  0
 19 44  1  0  0  0  0
 20 45  1  0  0  0  0
 20 46  1  0  0  0  0
 21 22  2  0  0  0  0
 22 47  1  0  0  0  0
M  END
> <s_m_source_file>
AV-unprocessed.smi

> <i_m_source_file_index>
2114

> <i_lp_mmshare_version>
43012

> <i_f3d_flags>
0

> <s_epik_input>
W0NIM11PW0NIMl1bQ0BIXShbQ0gzXSlbTkhdQyg9TyljMVtjSF1bY0hdYyhuW2NIXTEpTjJbQ0gyXVtDQEBIXShbQ0gzXSlPW0NAQEhdKFtDSDNdKVtDSDJdMg==

> <s_epik_cmdline>
J2VwaWtfcHl0aG9uJywgJy1waCcsICc3LjAnLCAnLXRuJywgJzgnLCAnLW1hJywgJzIwMCcsICctbWV0YWxfYmluZGluZycsICctaW1hZScsICc8aW5maWxlLm1hZT4nLCAnLW9tYWUnLCAnPG91dGZpbGUubWFlPic=

> <r_lp_tautomer_probability>
1

> <r_epik_Ionization_Penalty>
1.92915e-05

> <r_epik_Ionization_Penalty_Charging>
0

> <r_epik_Ionization_Penalty_Neutral>
1.92915e-05

> <r_epik_State_Penalty>
-0

> <r_epik_Charging_Adjusted_Penalty>
0

> <i_epik_Tot_Q>
0

> <i_epik_Tot_abs_Q>
0

> <r_epik_Metal_State_Penalty>
-0

> <b_epik_Metal_Only>
0

> <s_lp_Force_Field>
OPLS_2005

> <r_lp_Energy>
21.9464

> <b_lp_Chiralities_Consistent>
1

> <s_lp_Variant>
AV-unprocessed.smi:2114-3

> <Gold.Version>
5.8.1

> <Gold.Id.Protein>
6NUR|6NUR_protein|mol2

> <Gold.PLP.Fitness>
43.4469

> <Gold.PLP.PLP>
-38.2101

> <Gold.PLP.part.hbond>
-2.0000

> <Gold.PLP.part.metal>
0.0000

> <Gold.PLP.part.buried>
-5.7387

> <Gold.PLP.part.nonpolar>
-30.7592

> <Gold.PLP.part.repulsive>
0.2856

> <Gold.PLP.ligand.clash>
0.0000

> <Gold.PLP.ligand.torsion>
0.5570

> <Gold.PLP.Chemscore.Hbond>
2.0000

> <Gold.PLP.Chemscore.CHOScore>
0.0000

> <Gold.PLP.Chemscore.Metal>
0.0000

> <Gold.Chemscore.Hbonds>
donor molecule, donor type, donor heavy atom, donor atom, acceptor molecule, acceptor atom, score
      P1  H  7997  8008       L1    21  1.00
      P1  H 10752 10763       L1     8  1.00

> <Gold.PLP.Chemscore.Internal.Correction>
0.3508

> <Gold.Rescore>
     Score         DG    S(hbond)    S(metal)    S(lipo)     H(rot)  DE(clash)    DE(int)     intcor
     17.83     -18.91       1.46        0.00     106.29       1.52       0.51       0.56       ----

> <Gold.Chemscore.Fitness>
17.8296

> <Gold.Chemscore.DG>
-18.9072

> <Gold.Chemscore.ZeroCoef>
-5.4800

> <Gold.Chemscore.Hbond>
1.4640

> <Gold.Chemscore.Metal>
0.0000

> <Gold.Chemscore.Lipo>
106.2865

> <Gold.Chemscore.Internal_Hbond>
0.0000

> <Gold.Chemscore.DEClash>
0.5135

> <Gold.Chemscore.DEInternal>
0.5640

> <Gold.Chemscore.Rot>
1.5226

> <Gold.Chemscore.Internal.Correction>
   9.000000E+99

> <Gold.Chemscore.Hbonds>
donor molecule, donor type, donor heavy atom, donor atom, acceptor molecule, acceptor atom, score
      P1  H  7997  8008       L1    21  0.25
      P1  H 10752 10763       L1     8  0.97

> <Gold.Chemscore.Hbond.Weighted>
-4.8896

> <Gold.Chemscore.Metal.Weighted>
-0.0000

> <Gold.Chemscore.Lipo.Weighted>
-12.4355

> <Gold.Chemscore.Internal_Hbond.Weighted>
0.0000

> <Gold.Chemscore.DEClash.Weighted>
0.5135

> <Gold.Chemscore.DEInternal.Weighted>
0.5640

> <Gold.Chemscore.Rot.Weighted>
3.8980

> <Gold.Chemscore.Internal.Correction.Weighted>
   9.000000E+99

> <Gold.Protein.RotatedTorsions>
[ 6907 6896 6895 6894 ] final  153.11 input  -60.11 | X-H torsion
[ 7974 7965 7964 7962 ] final  -53.68 input  175.53 | X-H torsion
[ 8008 7997 7996 7995 ] final  -67.58 input   59.86 | X-H torsion
[ 10167 10162 10161 10158 ] final  117.59 input  -65.29 | X-H torsion
[ 10718 10713 10712 10709 ] final -166.01 input   66.30 | X-H torsion
[ 10763 10752 10751 10750 ] final   31.95 input  -60.55 | X-H torsion
[ 11005 11000 10999 10996 ] final  131.82 input  -57.11 | X-H torsion

> <Gold.Protein.ActiveResidues>
 VAL166  LYS551  ARG553  GLY616  TRP617  ASP618  TYR619  PRO620  LYS621  CYS622 
 ASP623  PHE694  ASN695  SER759  ASP760  ASP761  ALA762  ILE779  LEU786  VAL792 
 PHE793  MET794  SER795  GLU796  ALA797  LYS798  CYS799  TRP800  GLU811  SER814 

> <Gold.Protein.RotatedAtoms>
  152.0773  133.4135  159.4485 H   0  0  0  0  0  0  0  0  0  0  0  0  # atno 6907 bound_to 6896
  150.6862  134.3023  159.4720 H   0  0  0  0  0  0  0  0  0  0  0  0  # atno 6908 bound_to 6896
  152.0861  134.9438  160.0623 H   0  0  0  0  0  0  0  0  0  0  0  0  # atno 6909 bound_to 6896
  145.8941  140.8047  142.9777 H   0  0  0  0  0  0  0  0  0  0  0  0  # atno 7974 bound_to 7965
  154.4809  140.0890  156.7376 H   0  0  0  0  0  0  0  0  0  0  0  0  # atno 8008 bound_to 7997
  155.4472  140.3456  155.4278 H   0  0  0  0  0  0  0  0  0  0  0  0  # atno 8009 bound_to 7997
  156.1190  140.1469  156.9220 H   0  0  0  0  0  0  0  0  0  0  0  0  # atno 8010 bound_to 7997
  139.6168  144.7093  151.2722 H   0  0  0  0  0  0  0  0  0  0  0  0  # atno 10167 bound_to 10162
  156.6616  130.9048  151.3030 H   0  0  0  0  0  0  0  0  0  0  0  0  # atno 10718 bound_to 10713
  153.0288  135.6426  154.1279 H   0  0  0  0  0  0  0  0  0  0  0  0  # atno 10763 bound_to 10752
  154.1004  135.2860  155.3254 H   0  0  0  0  0  0  0  0  0  0  0  0  # atno 10764 bound_to 10752
  154.6402  135.5462  153.7844 H   0  0  0  0  0  0  0  0  0  0  0  0  # atno 10765 bound_to 10752
  139.9753  134.9565  156.9493 H   0  0  0  0  0  0  0  0  0  0  0  0  # atno 11005 bound_to 11000
  144.6732  140.1574  143.7425 LP  0  0  0  0  0  0  0  0  0  0  0  0  # atno 17320 bound_to 7965
  145.8872  139.2356  143.1570 LP  0  0  0  0  0  0  0  0  0  0  0  0  # atno 17321 bound_to 7965
  140.7356  143.6732  150.8064 LP  0  0  0  0  0  0  0  0  0  0  0  0  # atno 17342 bound_to 10162
  140.0336  143.5418  152.2749 LP  0  0  0  0  0  0  0  0  0  0  0  0  # atno 17343 bound_to 10162
  157.7107  130.9437  150.1081 LP  0  0  0  0  0  0  0  0  0  0  0  0  # atno 17370 bound_to 10713
  156.2006  130.3660  149.8793 LP  0  0  0  0  0  0  0  0  0  0  0  0  # atno 17371 bound_to 10713
  140.5208  134.0909  155.7291 LP  0  0  0  0  0  0  0  0  0  0  0  0  # atno 17394 bound_to 11000
  141.1430  133.9104  157.2281 LP  0  0  0  0  0  0  0  0  0  0  0  0  # atno 17395 bound_to 11000

$$$$
