#       Name:                AV-unprocessed.smi:2010
#       Creating user name   scv26
#       Creation time:       Fri Mar 27 10:39:18 2020


#       File generated by GOLD software.
#

@<TRIPOS>MOLECULE
AV-unprocessed.smi:2010
    43    44     1
SMALL
NO_CHARGES


@<TRIPOS>ATOM
      1 ****         0.5915   3.0876   3.0297 C.3            1 S1                 0.0000
      2 ****        -0.0158   2.8807   1.6350 C.3            1 S1                 0.0000
      3 ****        -0.7261   1.5250   1.5196 C.3            1 S1                 0.0000
      4 ****        -1.3245   1.3234   0.1183 C.3            1 S1                 0.0000
      5 ****        -0.2990   1.4785  -0.9354 N.3            1 S1                 0.0000
      6 ****        -0.6537   0.8224  -2.5099 S.o2           1 S1                 0.0000
      7 ****        -1.9971   1.3228  -2.8399 O.2            1 S1                 0.0000
      8 ****         0.4515   1.2171  -3.4008 O.2            1 S1                 0.0000
      9 ****        -0.6569  -0.7616  -2.1196 N.pl3          1 S1                -1.0000
     10 ****         0.5797  -1.5323  -1.9828 C.3            1 S1                 0.0000
     11 ****         0.4143  -2.8679  -2.7250 C.3            1 S1                 0.0000
     12 ****         0.9748  -1.6932  -0.4883 C.3            1 S1                 0.0000
     13 ****         0.1394  -2.6020   0.2934 N.pl3          1 S1                 0.0000
     14 ****         0.2497  -3.9733   0.4264 C.2            1 S1                 0.0000
     15 ****        -0.7323  -4.3851   1.2808 C.2            1 S1                 0.0000
     16 ****        -1.3939  -3.1782   1.6398 C.2            1 S1                 0.0000
     17 ****        -0.8636  -2.1145   1.0605 N.2            1 S1                 0.0000
     18 ****         0.4387   2.7543  -0.8647 C.3            1 S1                 0.0000
     19 ****         1.0473   2.9705   0.5311 C.3            1 S1                 0.0000
     20 ****         1.3347   2.3225   3.2562 H              1 S1                 0.0000
     21 ****        -0.1771   3.0445   3.8019 H              1 S1                 0.0000
     22 ****         1.0800   4.0595   3.1044 H              1 S1                 0.0000
     23 ****        -0.7507   3.6698   1.4694 H              1 S1                 0.0000
     24 ****        -0.0248   0.7177   1.7349 H              1 S1                 0.0000
     25 ****        -1.5172   1.4517   2.2663 H              1 S1                 0.0000
     26 ****        -1.7816   0.3369   0.0549 H              1 S1                 0.0000
     27 ****        -2.1225   2.0451  -0.0592 H              1 S1                 0.0000
     28 ****         1.4107  -1.0163  -2.4639 H              1 S1                 0.0000
     29 ****         1.3088  -3.4829  -2.6249 H              1 S1                 0.0000
     30 ****         0.2469  -2.7047  -3.7901 H              1 S1                 0.0000
     31 ****        -0.4311  -3.4423  -2.3446 H              1 S1                 0.0000
     32 ****         1.9943  -2.0771  -0.4393 H              1 S1                 0.0000
     33 ****         1.0092  -0.7246   0.0103 H              1 S1                 0.0000
     34 ****         1.0079  -4.5350  -0.0990 H              1 S1                 0.0000
     35 ****        -0.9439  -5.3939   1.6024 H              1 S1                 0.0000
     36 ****        -2.2344  -3.0432   2.3043 H              1 S1                 0.0000
     37 ****         1.2404   2.7616  -1.6024 H              1 S1                 0.0000
     38 ****        -0.2380   3.5702  -1.1212 H              1 S1                 0.0000
     39 ****         1.5416   3.9419   0.5660 H              1 S1                 0.0000
     40 ****         1.8232   2.2232   0.7048 H              1 S1                 0.0000
     41 ****         0.3976   0.8064  -0.6843 LP             1 S1                 0.0000
     42 ****        -1.5323  -1.2209  -1.9689 LP             1 S1                 0.0000
     43 ****        -1.1422  -1.1599   1.1659 LP             1 S1                 0.0000
@<TRIPOS>BOND
    1    1    2 1     
    2    1   20 1     
    3    1   21 1     
    4    1   22 1     
    5    2   19 1     
    6    2    3 1     
    7    2   23 1     
    8    3    4 1     
    9    3   24 1     
   10    3   25 1     
   11    4    5 1     
   12    4   26 1     
   13    4   27 1     
   14    5    6 1     
   15    5   18 1     
   16    6    7 2     
   17    6    8 2     
   18    6    9 1     
   19    9   10 1     
   20   10   11 1     
   21   10   12 1     
   22   10   28 1     
   23   11   29 1     
   24   11   30 1     
   25   11   31 1     
   26   12   13 1     
   27   12   32 1     
   28   12   33 1     
   29   13   17 1     
   30   13   14 1     
   31   14   15 2     
   32   14   34 1     
   33   15   16 1     
   34   15   35 1     
   35   16   17 2     
   36   16   36 1     
   37   18   19 1     
   38   18   37 1     
   39   18   38 1     
   40   19   39 1     
   41   19   40 1     
   42    5   41 1     
   43    9   42 1     
   44   17   43 1     
@<TRIPOS>SUBSTRUCTURE
      1 S1             1
@<TRIPOS>SET
LONE_PAIRS      STATIC     ATOMS    <user>   **** ""
5 41 7 8 42 43
ATOM$BLUE        STATIC     ATOMS    COLORGROUP SYSTEM
5 41 7 8 42 43
