AV-unprocessed.smi:2779|AV-procd|sdf|10711|dock6
  -GOLD-   2272015143D 1   1.00000     0.00000
 Structure written by MMmdl.
 38 39  0  0  0  0  0  0  0  0  1 V2000
  151.2944  136.4472  154.5114 O   0  0  0  0  0  0  0  0  0  0  0  0
  150.4297  136.5125  155.3849 C   0  0  0  0  0  0  0  0  0  0  0  0
  150.3873  135.6180  156.5389 C   0  0  0  0  0  0  0  0  0  0  0  0
  149.4315  135.7263  157.4864 C   0  0  0  0  0  0  0  0  0  0  0  0
  148.4133  136.7563  157.3619 C   0  0  0  0  0  0  0  0  0  0  0  0
  147.3081  136.9616  158.3686 C   0  0  0  0  0  0  0  0  0  0  0  0
  146.5272  135.8839  158.4507 F   0  0  0  0  0  0  0  0  0  0  0  0
  147.8256  137.2022  159.5737 F   0  0  0  0  0  0  0  0  0  0  0  0
  146.5552  138.0041  158.0161 F   0  0  0  0  0  0  0  0  0  0  0  0
  148.4430  137.5487  156.3391 N   0  0  0  0  0  0  0  0  0  0  0  0
  149.4237  137.4352  155.3691 N   0  0  0  0  0  0  0  0  0  0  0  0
  149.3126  138.4245  154.2903 C   0  0  0  0  0  0  0  0  0  0  0  0
  149.8884  139.7964  154.7029 C   0  0  2  0  0  0  0  0  0  0  0  0
  149.9748  140.6525  153.5813 O   0  0  0  0  0  0  0  0  0  0  0  0
  151.2883  139.7016  155.3319 C   0  0  0  0  0  0  0  0  0  0  0  0
  151.6537  140.9463  155.9079 O   0  0  0  0  0  0  0  0  0  0  0  0
  151.1131  141.1317  157.2061 C   0  0  0  0  0  0  0  0  0  0  0  0
  151.6825  142.3587  157.8934 C   0  0  0  0  0  0  0  0  0  0  0  0
  151.5471  143.6346  157.3048 C   0  0  0  0  0  0  0  0  0  0  0  0
  152.0560  144.7739  157.9581 C   0  0  0  0  0  0  0  0  0  0  0  0
  152.6971  144.6440  159.2052 C   0  0  0  0  0  0  0  0  0  0  0  0
  152.8260  143.3743  159.8006 C   0  0  0  0  0  0  0  0  0  0  0  0
  152.3169  142.2346  159.1477 C   0  0  0  0  0  0  0  0  0  0  0  0
  149.2313  140.2779  155.4280 H   0  0  0  0  0  0  0  0  0  0  0  0
  151.1420  134.8513  156.6358 H   0  0  0  0  0  0  0  0  0  0  0  0
  149.4209  135.0547  158.3318 H   0  0  0  0  0  0  0  0  0  0  0  0
  149.8465  138.0517  153.4141 H   0  0  0  0  0  0  0  0  0  0  0  0
  148.2757  138.5287  153.9638 H   0  0  0  0  0  0  0  0  0  0  0  0
  149.8083  140.1433  152.8029 H   0  0  0  0  0  0  0  0  0  0  0  0
  151.3222  138.9027  156.0751 H   0  0  0  0  0  0  0  0  0  0  0  0
  152.0122  139.4475  154.5560 H   0  0  0  0  0  0  0  0  0  0  0  0
  150.0301  141.2497  157.1461 H   0  0  0  0  0  0  0  0  0  0  0  0
  151.3125  140.2478  157.8141 H   0  0  0  0  0  0  0  0  0  0  0  0
  151.0508  143.7448  156.3516 H   0  0  0  0  0  0  0  0  0  0  0  0
  151.9516  145.7482  157.5036 H   0  0  0  0  0  0  0  0  0  0  0  0
  153.0862  145.5181  159.7064 H   0  0  0  0  0  0  0  0  0  0  0  0
  153.3129  143.2749  160.7596 H   0  0  0  0  0  0  0  0  0  0  0  0
  152.4149  141.2650  159.6138 H   0  0  0  0  0  0  0  0  0  0  0  0
  1  2  2  0  0  0  0
  2 11  1  0  0  0  0
  2  3  1  0  0  0  0
  3  4  2  0  0  0  0
  3 25  1  0  0  0  0
  4  5  1  0  0  0  0
  4 26  1  0  0  0  0
  5  6  1  0  0  0  0
  5 10  2  0  0  0  0
  6  7  1  0  0  0  0
  6  8  1  0  0  0  0
  6  9  1  0  0  0  0
 10 11  1  0  0  0  0
 11 12  1  0  0  0  0
 12 13  1  0  0  0  0
 12 27  1  0  0  0  0
 12 28  1  0  0  0  0
 13 24  1  0  0  0  0
 13 14  1  0  0  0  0
 13 15  1  0  0  0  0
 14 29  1  0  0  0  0
 15 16  1  0  0  0  0
 15 30  1  0  0  0  0
 15 31  1  0  0  0  0
 16 17  1  0  0  0  0
 17 18  1  0  0  0  0
 17 32  1  0  0  0  0
 17 33  1  0  0  0  0
 18 23  1  0  0  0  0
 18 19  2  0  0  0  0
 19 20  1  0  0  0  0
 19 34  1  0  0  0  0
 20 21  2  0  0  0  0
 20 35  1  0  0  0  0
 21 22  1  0  0  0  0
 21 36  1  0  0  0  0
 22 23  2  0  0  0  0
 22 37  1  0  0  0  0
 23 38  1  0  0  0  0
M  END
> <s_m_source_file>
AV-unprocessed.smi

> <i_m_source_file_index>
2779

> <i_lp_mmshare_version>
43012

> <i_f3d_flags>
0

> <s_epik_input>
Tz1jMVtjSF1bY0hdYyhDKEYpKEYpRilubjFbQ0gyXVtDQEhdKFtPSF0pW0NIMl1PW0NIMl1jMltjSF1bY0hdW2NIXVtjSF1bY0hdMg==

> <s_epik_cmdline>
J2VwaWtfcHl0aG9uJywgJy1waCcsICc3LjAnLCAnLXRuJywgJzgnLCAnLW1hJywgJzIwMCcsICctbWV0YWxfYmluZGluZycsICctaW1hZScsICc8aW5maWxlLm1hZT4nLCAnLW9tYWUnLCAnPG91dGZpbGUubWFlPic=

> <r_lp_tautomer_probability>
1

> <r_epik_Ionization_Penalty>
6.7226e-08

> <r_epik_Ionization_Penalty_Charging>
6.11342e-09

> <r_epik_Ionization_Penalty_Neutral>
6.11126e-08

> <r_epik_State_Penalty>
-0

> <r_epik_Charging_Adjusted_Penalty>
6.11342e-09

> <i_epik_Tot_Q>
0

> <i_epik_Tot_abs_Q>
0

> <r_epik_Metal_State_Penalty>
-0

> <b_epik_Metal_Only>
0

> <s_lp_Force_Field>
OPLS_2005

> <r_lp_Energy>
33.7736

> <b_lp_Chiralities_Consistent>
1

> <s_lp_Variant>
AV-unprocessed.smi:2779-1

> <Gold.Version>
5.8.1

> <Gold.Id.Protein>
6NUR|6NUR_protein|mol2

> <Gold.PLP.Fitness>
45.4716

> <Gold.PLP.PLP>
-38.5903

> <Gold.PLP.part.hbond>
-4.0807

> <Gold.PLP.part.metal>
0.0000

> <Gold.PLP.part.buried>
-3.4858

> <Gold.PLP.part.nonpolar>
-31.6224

> <Gold.PLP.part.repulsive>
1.3282

> <Gold.PLP.ligand.clash>
0.0000

> <Gold.PLP.ligand.torsion>
0.5394

> <Gold.PLP.Chemscore.Hbond>
2.5901

> <Gold.PLP.Chemscore.CHOScore>
0.0000

> <Gold.PLP.Chemscore.Metal>
0.0000

> <Gold.Chemscore.Hbonds>
donor molecule, donor type, donor heavy atom, donor atom, acceptor molecule, acceptor atom, score
      L1  H    14    29       P1  7957  1.00
      P1  H  7989  7998       L1    14  0.46
      P1  H  8011  8017       L1    14  0.24
      P1  H 10752 10763       L1     1  1.00

> <Gold.PLP.Chemscore.Internal.Correction>
0.1898

> <Gold.Rescore>
     Score         DG    S(hbond)    S(metal)    S(lipo)     H(rot)  DE(clash)    DE(int)     intcor
     16.49     -17.14       1.98        0.00     104.52       2.80       0.10       0.54       ----

> <Gold.Chemscore.Fitness>
16.4929

> <Gold.Chemscore.DG>
-17.1409

> <Gold.Chemscore.ZeroCoef>
-5.4800

> <Gold.Chemscore.Hbond>
1.9778

> <Gold.Chemscore.Metal>
0.0000

> <Gold.Chemscore.Lipo>
104.5189

> <Gold.Chemscore.Internal_Hbond>
0.0000

> <Gold.Chemscore.DEClash>
0.1042

> <Gold.Chemscore.DEInternal>
0.5437

> <Gold.Chemscore.Rot>
2.8022

> <Gold.Chemscore.Internal.Correction>
   9.000000E+99

> <Gold.Chemscore.Hbonds>
donor molecule, donor type, donor heavy atom, donor atom, acceptor molecule, acceptor atom, score
      L1  H    14    29       P1  7957  0.94
      P1  H  7989  7998       L1    14  0.05
      P1  H 10752 10763       L1     1  1.00

> <Gold.Chemscore.Hbond.Weighted>
-6.6058

> <Gold.Chemscore.Metal.Weighted>
-0.0000

> <Gold.Chemscore.Lipo.Weighted>
-12.2287

> <Gold.Chemscore.Internal_Hbond.Weighted>
0.0000

> <Gold.Chemscore.DEClash.Weighted>
0.1042

> <Gold.Chemscore.DEInternal.Weighted>
0.5437

> <Gold.Chemscore.Rot.Weighted>
7.1736

> <Gold.Chemscore.Internal.Correction.Weighted>
   9.000000E+99

> <Gold.Protein.RotatedTorsions>
[ 6907 6896 6895 6894 ] final  164.59 input  -60.11 | X-H torsion
[ 7974 7965 7964 7962 ] final   42.43 input  175.53 | X-H torsion
[ 8008 7997 7996 7995 ] final  152.82 input   59.86 | X-H torsion
[ 10167 10162 10161 10158 ] final -120.60 input  -65.29 | X-H torsion
[ 10718 10713 10712 10709 ] final -131.19 input   66.30 | X-H torsion
[ 10763 10752 10751 10750 ] final   59.06 input  -60.55 | X-H torsion
[ 11005 11000 10999 10996 ] final  -64.33 input  -57.11 | X-H torsion

> <Gold.Protein.ActiveResidues>
 VAL166  LYS551  ARG553  GLY616  TRP617  ASP618  TYR619  PRO620  LYS621  CYS622 
 ASP623  PHE694  ASN695  SER759  ASP760  ASP761  ALA762  ILE779  LEU786  VAL792 
 PHE793  MET794  SER795  GLU796  ALA797  LYS798  CYS799  TRP800  GLU811  SER814 

> <Gold.Protein.RotatedAtoms>
  151.9076  133.3553  159.3851 H   0  0  0  0  0  0  0  0  0  0  0  0  # atno 6907 bound_to 6896
  150.7065  134.4765  159.5459 H   0  0  0  0  0  0  0  0  0  0  0  0  # atno 6908 bound_to 6896
  152.2365  134.8271  160.0517 H   0  0  0  0  0  0  0  0  0  0  0  0  # atno 6909 bound_to 6896
  146.0741  139.5301  142.9579 H   0  0  0  0  0  0  0  0  0  0  0  0  # atno 7974 bound_to 7965
  156.2611  140.2010  156.6393 H   0  0  0  0  0  0  0  0  0  0  0  0  # atno 8008 bound_to 7997
  154.6622  140.0559  157.0099 H   0  0  0  0  0  0  0  0  0  0  0  0  # atno 8009 bound_to 7997
  155.1259  140.3229  155.4488 H   0  0  0  0  0  0  0  0  0  0  0  0  # atno 8010 bound_to 7997
  140.0341  143.5219  152.2162 H   0  0  0  0  0  0  0  0  0  0  0  0  # atno 10167 bound_to 10162
  156.2219  130.6984  151.0765 H   0  0  0  0  0  0  0  0  0  0  0  0  # atno 10718 bound_to 10713
  152.9885  135.5585  154.5652 H   0  0  0  0  0  0  0  0  0  0  0  0  # atno 10763 bound_to 10752
  154.5064  135.2800  155.1381 H   0  0  0  0  0  0  0  0  0  0  0  0  # atno 10764 bound_to 10752
  154.2791  135.6348  153.5393 H   0  0  0  0  0  0  0  0  0  0  0  0  # atno 10765 bound_to 10752
  141.1421  133.6664  156.5817 H   0  0  0  0  0  0  0  0  0  0  0  0  # atno 11005 bound_to 11000
  145.6338  141.0298  143.1849 LP  0  0  0  0  0  0  0  0  0  0  0  0  # atno 17320 bound_to 7965
  144.7250  139.7905  143.7368 LP  0  0  0  0  0  0  0  0  0  0  0  0  # atno 17321 bound_to 7965
  139.6057  144.7595  151.3068 LP  0  0  0  0  0  0  0  0  0  0  0  0  # atno 17342 bound_to 10162
  140.7289  143.6922  150.7913 LP  0  0  0  0  0  0  0  0  0  0  0  0  # atno 17343 bound_to 10162
  157.7091  131.0742  150.6562 LP  0  0  0  0  0  0  0  0  0  0  0  0  # atno 17370 bound_to 10713
  156.6626  130.4516  149.5683 LP  0  0  0  0  0  0  0  0  0  0  0  0  # atno 17371 bound_to 10713
  140.3832  134.7505  157.4675 LP  0  0  0  0  0  0  0  0  0  0  0  0  # atno 17394 bound_to 11000
  140.0621  134.5980  155.8736 LP  0  0  0  0  0  0  0  0  0  0  0  0  # atno 17395 bound_to 11000

$$$$
