#       Name:                AV-unprocessed.smi:1859
#       Creating user name   scv26
#       Creation time:       Fri Mar 27 09:26:00 2020


#       File generated by GOLD software.
#

@<TRIPOS>MOLECULE
AV-unprocessed.smi:1859
    50    52     1
SMALL
NO_CHARGES


@<TRIPOS>ATOM
      1 ****         0.9234  -0.3135  -0.3386 O.2            1 S1                 0.0000
      2 ****         0.3924  -1.4117  -0.1725 C.2            1 S1                 0.0000
      3 ****         1.0886  -2.5189   0.1330 N.am           1 S1                 0.0000
      4 ****         2.5315  -2.5766   0.3587 C.3            1 S1                 0.0000
      5 ****         2.8999  -2.4545   1.8517 C.3            1 S1                 0.0000
      6 ****         2.4024  -1.1744   2.5027 C.ar           1 S1                 0.0000
      7 ****         1.2546  -1.1819   3.3248 C.ar           1 S1                 0.0000
      8 ****         0.8066   0.0396   3.8629 C.ar           1 S1                 0.0000
      9 ****         1.5225   1.2149   3.5651 C.ar           1 S1                 0.0000
     10 ****         2.6616   1.1151   2.7415 C.ar           1 S1                 0.0000
     11 ****         3.0999  -0.0511   2.2203 N.ar           1 S1                 0.0000
     12 ****        -1.1362  -1.5716  -0.2773 C.3            1 S1                 0.0000
     13 ****        -1.8710  -0.8007   0.8481 C.3            1 S1                 0.0000
     14 ****        -2.0005   0.7110   0.5698 C.3            1 S1                 0.0000
     15 ****        -2.5579   0.9549  -0.8424 C.3            1 S1                 0.0000
     16 ****        -1.6788   0.3032  -1.8243 N.am           1 S1                 0.0000
     17 ****        -0.9171   0.9320  -2.7555 C.2            1 S1                 0.0000
     18 ****        -0.3016   0.3099  -3.6227 O.2            1 S1                 0.0000
     19 ****        -0.8219   2.4266  -2.6717 C.3            1 S1                 0.0000
     20 ****        -1.5104   3.2166  -3.7645 C.3            1 S1                 0.0000
     21 ****        -0.0057   3.1600  -3.7212 C.3            1 S1                 0.0000
     22 ****        -1.6911  -1.1606  -1.6660 C.3            1 S1                 0.0000
     23 ****         0.5761  -3.3813   0.2479 H              1 S1                 0.0000
     24 ****         2.8957  -3.5282  -0.0286 H              1 S1                 0.0000
     25 ****         3.0407  -1.8022  -0.2175 H              1 S1                 0.0000
     26 ****         2.4995  -3.3094   2.3981 H              1 S1                 0.0000
     27 ****         3.9835  -2.5074   1.9649 H              1 S1                 0.0000
     28 ****         0.7183  -2.0982   3.5239 H              1 S1                 0.0000
     29 ****        -0.0731   0.0751   4.4884 H              1 S1                 0.0000
     30 ****         1.2067   2.1700   3.9580 H              1 S1                 0.0000
     31 ****         3.2352   1.9960   2.4937 H              1 S1                 0.0000
     32 ****        -1.3546  -2.6322  -0.1413 H              1 S1                 0.0000
     33 ****        -2.8717  -1.2204   0.9567 H              1 S1                 0.0000
     34 ****        -1.3797  -0.9596   1.8089 H              1 S1                 0.0000
     35 ****        -2.6539   1.1681   1.3131 H              1 S1                 0.0000
     36 ****        -1.0314   1.2000   0.6745 H              1 S1                 0.0000
     37 ****        -3.5558   0.5212  -0.9214 H              1 S1                 0.0000
     38 ****        -2.7036   2.0198  -1.0154 H              1 S1                 0.0000
     39 ****        -0.7863   2.8623  -1.6748 H              1 S1                 0.0000
     40 ****        -2.0083   2.6660  -4.5611 H              1 S1                 0.0000
     41 ****        -1.9988   4.1431  -3.4695 H              1 S1                 0.0000
     42 ****         0.5278   4.0511  -3.3963 H              1 S1                 0.0000
     43 ****         0.4922   2.5901  -4.5036 H              1 S1                 0.0000
     44 ****        -1.1333  -1.6758  -2.4497 H              1 S1                 0.0000
     45 ****        -2.7178  -1.5147  -1.7688 H              1 S1                 0.0000
     46 ****         1.9147  -0.2185  -0.2471 LP             1 S1                 0.0000
     47 ****         0.3635   0.4834  -0.5651 LP             1 S1                 0.0000
     48 ****         3.9158  -0.0829   1.6429 LP             1 S1                 0.0000
     49 ****        -0.3546  -0.6882  -3.6548 LP             1 S1                 0.0000
     50 ****         0.2511   0.8030  -4.2946 LP             1 S1                 0.0000
@<TRIPOS>BOND
    1    1    2 2     
    2    2    3 am    
    3    2   12 1     
    4    3    4 1     
    5    3   23 1     
    6    4    5 1     
    7    4   24 1     
    8    4   25 1     
    9    5    6 1     
   10    5   26 1     
   11    5   27 1     
   12    6   11 ar    
   13    6    7 ar    
   14    7    8 ar    
   15    7   28 1     
   16    8    9 ar    
   17    8   29 1     
   18    9   10 ar    
   19    9   30 1     
   20   10   11 ar    
   21   10   31 1     
   22   12   22 1     
   23   12   13 1     
   24   12   32 1     
   25   13   14 1     
   26   13   33 1     
   27   13   34 1     
   28   14   15 1     
   29   14   35 1     
   30   14   36 1     
   31   15   16 1     
   32   15   37 1     
   33   15   38 1     
   34   16   17 am    
   35   16   22 1     
   36   17   18 2     
   37   17   19 1     
   38   19   21 1     
   39   19   20 1     
   40   19   39 1     
   41   20   21 1     
   42   20   40 1     
   43   20   41 1     
   44   21   42 1     
   45   21   43 1     
   46   22   44 1     
   47   22   45 1     
   48    1   46 1     
   49    1   47 1     
   50   11   48 1     
   51   18   49 1     
   52   18   50 1     
@<TRIPOS>SUBSTRUCTURE
      1 S1             1
@<TRIPOS>SET
LONE_PAIRS      STATIC     ATOMS    <user>   **** ""
5 46 47 48 49 50
DONOR_HYDROGENS      STATIC     ATOMS    <user>   **** ""
1 23
ATOM$BLUE        STATIC     ATOMS    COLORGROUP SYSTEM
5 46 47 48 49 50
ATOM$RED        STATIC     ATOMS    COLORGROUP SYSTEM
1 23
