#       Name:                AV-unprocessed.smi:283
#       Creating user name   scv26
#       Creation time:       Thu Mar 26 21:43:35 2020


#       File generated by GOLD software.
#

@<TRIPOS>MOLECULE
AV-unprocessed.smi:283
    59    62     1
SMALL
NO_CHARGES


@<TRIPOS>ATOM
      1 ****        -3.5608   1.5254  -1.6021 C.3            1 S1                 0.0000
      2 ****        -3.4297   1.0058  -0.1586 C.3            1 S1                 0.0000
      3 ****        -2.3950  -0.0233  -0.0594 N.pl3          1 S1                 0.0000
      4 ****        -1.0795   0.2815  -0.1175 C.ar           1 S1                 0.0000
      5 ****        -0.6507   1.5702  -0.1024 N.ar           1 S1                 0.0000
      6 ****         0.6567   1.8396  -0.1574 C.ar           1 S1                 0.0000
      7 ****         1.6812   0.9875  -0.2277 N.ar           1 S1                 0.0000
      8 ****         1.2584  -0.3099  -0.2388 C.ar           1 S1                 0.0000
      9 ****        -0.0971  -0.7401  -0.1839 C.ar           1 S1                 0.0000
     10 ****        -0.1529  -2.1272  -0.2096 N.2            1 S1                 0.0000
     11 ****         1.0990  -2.4916  -0.2764 C.2            1 S1                 0.0000
     12 ****         2.0164  -1.4643  -0.2978 N.pl3          1 S1                 0.0000
     13 ****         3.5093  -1.5888  -0.3726 C.3            1 S1                 0.0000
     14 ****         4.0255  -0.5546  -1.1591 O.3            1 S1                 0.0000
     15 ****         4.9250   0.2529  -0.3996 C.3            1 S1                 0.0000
     16 ****         6.0193   0.8113  -1.3212 C.3            1 S1                 0.0000
     17 ****         5.5418   1.9562  -1.9945 O.3            1 S1                 0.0000
     18 ****         5.4475  -0.7241   0.6549 C.3            1 S1                 0.0000
     19 ****         6.0253  -0.0856   1.7774 O.3            1 S1                 0.0000
     20 ****         4.1988  -1.5207   1.0038 C.3            1 S1                 0.0000
     21 ****         3.4123  -0.8908   2.0044 O.3            1 S1                 0.0000
     22 ****        -4.7892   0.5235   0.3454 C.ar           1 S1                 0.0000
     23 ****        -5.1895  -0.8166   0.1291 C.ar           1 S1                 0.0000
     24 ****        -6.4427  -1.2737   0.5782 C.ar           1 S1                 0.0000
     25 ****        -7.3145  -0.3940   1.2441 C.ar           1 S1                 0.0000
     26 ****        -6.9329   0.9436   1.4546 C.ar           1 S1                 0.0000
     27 ****        -5.6797   1.4077   1.0067 C.ar           1 S1                 0.0000
     28 ****        -5.2745   3.0669   1.2782 Cl             1 S1                 0.0000
     29 ****         3.6817  -2.5365  -0.8844 H              1 S1                 0.0000
     30 ****         4.3769   1.0584   0.0921 H              1 S1                 0.0000
     31 ****         6.1860  -1.3888   0.2039 H              1 S1                 0.0000
     32 ****         4.4423  -2.5285   1.3419 H              1 S1                 0.0000
     33 ****        -4.2997   2.3249  -1.6631 H              1 S1                 0.0000
     34 ****        -3.8756   0.7317  -2.2803 H              1 S1                 0.0000
     35 ****        -2.6200   1.9267  -1.9781 H              1 S1                 0.0000
     36 ****        -3.1177   1.8298   0.4820 H              1 S1                 0.0000
     37 ****        -2.7310  -0.9750  -0.0314 H              1 S1                 0.0000
     38 ****         0.9198   2.8869  -0.1428 H              1 S1                 0.0000
     39 ****         1.3910  -3.5311  -0.3113 H              1 S1                 0.0000
     40 ****         6.8869   1.1146  -0.7346 H              1 S1                 0.0000
     41 ****         6.3577   0.0617  -2.0372 H              1 S1                 0.0000
     42 ****         4.7826   1.7099  -2.5009 H              1 S1                 0.0000
     43 ****         5.3565   0.4348   2.1971 H              1 S1                 0.0000
     44 ****         2.5942  -1.3578   2.0803 H              1 S1                 0.0000
     45 ****        -4.5399  -1.5064  -0.3891 H              1 S1                 0.0000
     46 ****        -6.7355  -2.2995   0.4093 H              1 S1                 0.0000
     47 ****        -8.2770  -0.7425   1.5881 H              1 S1                 0.0000
     48 ****        -7.6083   1.6183   1.9601 H              1 S1                 0.0000
     49 ****        -1.3134   2.3172  -0.0501 LP             1 S1                 0.0000
     50 ****         2.6410   1.2656  -0.2674 LP             1 S1                 0.0000
     51 ****        -0.9639  -2.7116  -0.1831 LP             1 S1                 0.0000
     52 ****         3.2724   0.0142  -1.4897 LP             1 S1                 0.0000
     53 ****         4.5141  -0.9468  -1.9385 LP             1 S1                 0.0000
     54 ****         6.2522   2.3115  -2.6020 LP             1 S1                 0.0000
     55 ****         5.2903   2.6590  -1.3290 LP             1 S1                 0.0000
     56 ****         6.7774   0.5037   1.4820 LP             1 S1                 0.0000
     57 ****         6.3712  -0.7722   2.4168 LP             1 S1                 0.0000
     58 ****         3.2359   0.0592   1.7466 LP             1 S1                 0.0000
     59 ****         3.8967  -0.9144   2.8789 LP             1 S1                 0.0000
@<TRIPOS>BOND
    1    1    2 1     
    2    1   33 1     
    3    1   34 1     
    4    1   35 1     
    5    2    3 1     
    6    2   22 1     
    7    2   36 1     
    8    3    4 1     
    9    3   37 1     
   10    4    9 ar    
   11    4    5 ar    
   12    5    6 ar    
   13    6    7 ar    
   14    6   38 1     
   15    7    8 ar    
   16    8   12 1     
   17    8    9 ar    
   18    9   10 1     
   19   10   11 2     
   20   11   12 1     
   21   11   39 1     
   22   12   13 1     
   23   13   29 1     
   24   13   20 1     
   25   13   14 1     
   26   14   15 1     
   27   15   30 1     
   28   15   16 1     
   29   15   18 1     
   30   16   17 1     
   31   16   40 1     
   32   16   41 1     
   33   17   42 1     
   34   18   31 1     
   35   18   19 1     
   36   18   20 1     
   37   19   43 1     
   38   20   32 1     
   39   20   21 1     
   40   21   44 1     
   41   22   27 ar    
   42   22   23 ar    
   43   23   24 ar    
   44   23   45 1     
   45   24   25 ar    
   46   24   46 1     
   47   25   26 ar    
   48   25   47 1     
   49   26   27 ar    
   50   26   48 1     
   51   27   28 1     
   52    5   49 1     
   53    7   50 1     
   54   10   51 1     
   55   14   52 1     
   56   14   53 1     
   57   17   54 1     
   58   17   55 1     
   59   19   56 1     
   60   19   57 1     
   61   21   58 1     
   62   21   59 1     
@<TRIPOS>SUBSTRUCTURE
      1 S1             1
@<TRIPOS>SET
LONE_PAIRS      STATIC     ATOMS    <user>   **** ""
11 49 50 51 52 53 54 55 56 57 58 59
DONOR_HYDROGENS      STATIC     ATOMS    <user>   **** ""
4 37 42 43 44
ATOM$BLUE        STATIC     ATOMS    COLORGROUP SYSTEM
11 49 50 51 52 53 54 55 56 57 58 59
ATOM$RED        STATIC     ATOMS    COLORGROUP SYSTEM
4 37 42 43 44
