#       Name:                AV-unprocessed.smi:45
#       Creating user name   scv26
#       Creation time:       Thu Mar 26 16:29:13 2020


#       File generated by GOLD software.
#

@<TRIPOS>MOLECULE
AV-unprocessed.smi:45
    71    74     1
SMALL
NO_CHARGES


@<TRIPOS>ATOM
      1 ****        -7.1253  -1.8401  -1.0154 C.3            1 S1                 0.0000
      2 ****        -6.4448  -1.2595   0.0872 O.3            1 S1                 0.0000
      3 ****        -5.1879  -0.7324  -0.1266 C.ar           1 S1                 0.0000
      4 ****        -4.5500  -0.7022  -1.3927 C.ar           1 S1                 0.0000
      5 ****        -3.2596  -0.1563  -1.5309 C.ar           1 S1                 0.0000
      6 ****        -2.5836   0.3656  -0.4098 C.ar           1 S1                 0.0000
      7 ****        -1.1818   0.9275  -0.5479 C.3            1 S1                 0.0000
      8 ****        -0.2545  -0.0268  -1.1349 N.3            1 S1                 0.0000
      9 ****         1.0963   0.0677  -0.7702 C.ar           1 S1                 0.0000
     10 ****         1.6508   1.3033  -0.6560 N.pl3          1 S1                 1.0000
     11 ****         2.9322   1.4453  -0.2760 C.ar           1 S1                 0.0000
     12 ****         3.4579   2.7328  -0.1802 N.pl3          1 S1                 0.0000
     13 ****         2.9260   3.8347  -0.9743 C.3            1 S1                 0.0000
     14 ****         4.1086   4.7611  -1.2513 C.3            1 S1                 0.0000
     15 ****         5.0048   4.5401  -0.0398 C.3            1 S1                 0.0000
     16 ****         4.8081   3.0521   0.2872 C.3            1 S1                 0.0000
     17 ****         5.0230   2.7424   1.7838 C.3            1 S1                 0.0000
     18 ****         6.3641   2.9958   2.1450 O.3            1 S1                 0.0000
     19 ****         3.7144   0.3926   0.0007 N.ar           1 S1                 0.0000
     20 ****         3.2077  -0.8524  -0.0948 C.ar           1 S1                 0.0000
     21 ****         1.8764  -1.0790  -0.4883 C.ar           1 S1                 0.0000
     22 ****         1.3198  -2.4701  -0.5888 C.2            1 S1                 0.0000
     23 ****         0.8291  -2.8281  -1.6649 O.2            1 S1                 0.0000
     24 ****         1.3995  -3.1240   0.6018 N.pl3          1 S1                -1.0000
     25 ****         0.6527  -4.3479   0.9005 C.3            1 S1                 0.0000
     26 ****        -0.8498  -4.0954   1.0105 C.ar           1 S1                 0.0000
     27 ****        -1.2793  -3.4663   2.1123 N.ar           1 S1                 0.0000
     28 ****        -2.6031  -3.2115   2.1977 C.ar           1 S1                 0.0000
     29 ****        -3.4982  -3.5887   1.1770 C.ar           1 S1                 0.0000
     30 ****        -2.9341  -4.2414   0.0631 C.ar           1 S1                 0.0000
     31 ****        -1.6099  -4.4952  -0.0169 N.ar           1 S1                 0.0000
     32 ****        -3.2135   0.3435   0.8496 C.ar           1 S1                 0.0000
     33 ****        -4.5046  -0.2014   0.9902 C.ar           1 S1                 0.0000
     34 ****        -5.2393  -0.2289   2.5530 Cl             1 S1                 0.0000
     35 ****         5.5052   2.4642  -0.3119 H              1 S1                 0.0000
     36 ****        -8.0892  -2.2236  -0.6810 H              1 S1                 0.0000
     37 ****        -6.5645  -2.6776  -1.4333 H              1 S1                 0.0000
     38 ****        -7.3167  -1.1050  -1.7983 H              1 S1                 0.0000
     39 ****        -5.0286  -1.0958  -2.2763 H              1 S1                 0.0000
     40 ****        -2.7863  -0.1472  -2.5019 H              1 S1                 0.0000
     41 ****        -1.2194   1.8189  -1.1748 H              1 S1                 0.0000
     42 ****        -0.8232   1.2402   0.4341 H              1 S1                 0.0000
     43 ****        -0.6103  -0.9695  -1.2161 H              1 S1                 0.0000
     44 ****         2.4714   3.4945  -1.9057 H              1 S1                 0.0000
     45 ****         2.1617   4.3483  -0.3902 H              1 S1                 0.0000
     46 ****         4.6265   4.4411  -2.1566 H              1 S1                 0.0000
     47 ****         3.8118   5.8023  -1.3808 H              1 S1                 0.0000
     48 ****         6.0473   4.7965  -0.2304 H              1 S1                 0.0000
     49 ****         4.6539   5.1624   0.7849 H              1 S1                 0.0000
     50 ****         4.3633   3.3497   2.4047 H              1 S1                 0.0000
     51 ****         4.8079   1.7006   2.0172 H              1 S1                 0.0000
     52 ****         6.9238   2.4073   1.6613 H              1 S1                 0.0000
     53 ****         3.8744  -1.6692   0.1408 H              1 S1                 0.0000
     54 ****         0.8326  -5.1234   0.1536 H              1 S1                 0.0000
     55 ****         0.9864  -4.7862   1.8418 H              1 S1                 0.0000
     56 ****        -2.9502  -2.7004   3.0835 H              1 S1                 0.0000
     57 ****        -4.5563  -3.3832   1.2423 H              1 S1                 0.0000
     58 ****        -3.5474  -4.5603  -0.7664 H              1 S1                 0.0000
     59 ****        -2.7031   0.7351   1.7174 H              1 S1                 0.0000
     60 ****         1.0783   2.1222  -0.8579 H              1 S1                 0.0000
     61 ****        -6.3539  -1.9687   0.7864 LP             1 S1                 0.0000
     62 ****        -7.0211  -0.5201   0.4353 LP             1 S1                 0.0000
     63 ****        -0.2121   0.3102  -2.0755 LP             1 S1                 0.0000
     64 ****         6.4831   2.8434   3.1261 LP             1 S1                 0.0000
     65 ****         6.5993   3.9422   1.9237 LP             1 S1                 0.0000
     66 ****         4.6660   0.5300   0.2757 LP             1 S1                 0.0000
     67 ****         0.8100  -2.1969  -2.4403 LP             1 S1                 0.0000
     68 ****         0.4511  -3.7489  -1.7603 LP             1 S1                 0.0000
     69 ****         1.9989  -2.7496   1.3093 LP             1 S1                 0.0000
     70 ****        -0.6479  -3.1971   2.8395 LP             1 S1                 0.0000
     71 ****        -1.2146  -4.9611  -0.8085 LP             1 S1                 0.0000
@<TRIPOS>BOND
    1    1    2 1     
    2    1   36 1     
    3    1   37 1     
    4    1   38 1     
    5    2    3 1     
    6    3   33 ar    
    7    3    4 ar    
    8    4    5 ar    
    9    4   39 1     
   10    5    6 ar    
   11    5   40 1     
   12    6    7 1     
   13    6   32 ar    
   14    7    8 1     
   15    7   41 1     
   16    7   42 1     
   17    8    9 1     
   18    8   43 1     
   19    9   21 ar    
   20    9   10 ar    
   21   10   11 ar    
   22   10   60 1     
   23   11   12 1     
   24   11   19 ar    
   25   12   16 1     
   26   12   13 1     
   27   13   14 1     
   28   13   44 1     
   29   13   45 1     
   30   14   15 1     
   31   14   46 1     
   32   14   47 1     
   33   15   16 1     
   34   15   48 1     
   35   15   49 1     
   36   16   35 1     
   37   16   17 1     
   38   17   18 1     
   39   17   50 1     
   40   17   51 1     
   41   18   52 1     
   42   19   20 ar    
   43   20   21 ar    
   44   20   53 1     
   45   21   22 1     
   46   22   23 2     
   47   22   24 1     
   48   24   25 1     
   49   25   26 1     
   50   25   54 1     
   51   25   55 1     
   52   26   31 ar    
   53   26   27 ar    
   54   27   28 ar    
   55   28   29 ar    
   56   28   56 1     
   57   29   30 ar    
   58   29   57 1     
   59   30   31 ar    
   60   30   58 1     
   61   32   33 ar    
   62   32   59 1     
   63   33   34 1     
   64    2   61 1     
   65    2   62 1     
   66    8   63 1     
   67   18   64 1     
   68   18   65 1     
   69   19   66 1     
   70   23   67 1     
   71   23   68 1     
   72   24   69 1     
   73   27   70 1     
   74   31   71 1     
@<TRIPOS>SUBSTRUCTURE
      1 S1             1
@<TRIPOS>SET
LONE_PAIRS      STATIC     ATOMS    <user>   **** ""
11 61 62 63 64 65 66 67 68 69 70 71
DONOR_HYDROGENS      STATIC     ATOMS    <user>   **** ""
3 43 60 52
ATOM$BLUE        STATIC     ATOMS    COLORGROUP SYSTEM
11 61 62 63 64 65 66 67 68 69 70 71
ATOM$RED        STATIC     ATOMS    COLORGROUP SYSTEM
3 43 60 52
