AV-unprocessed.smi:2415|AV-procd|sdf|9542|dock2
  -GOLD-   2272013173D 1   1.00000     0.00000
 Structure written by MMmdl.
 33 34  0  0  0  0  0  0  0  0  1 V2000
  152.1957  144.6935  158.9276 C   0  0  0  0  0  0  0  0  0  0  0  0
  152.2591  143.1972  158.7088 C   0  0  0  0  0  0  0  0  0  0  0  0
  152.9433  142.3488  159.6036 C   0  0  0  0  0  0  0  0  0  0  0  0
  152.9264  140.9747  159.2887 C   0  0  0  0  0  0  0  0  0  0  0  0
  153.6194  139.9529  160.1642 C   0  0  0  0  0  0  0  0  0  0  0  0
  152.2908  140.5030  158.1944 N   0  0  0  0  0  0  0  0  0  0  0  0
  151.6825  141.3979  157.4036 C   0  0  0  0  0  0  0  0  0  0  0  0
  151.0138  140.9281  156.2742 N   0  0  0  0  0  0  0  0  0  0  0  0
  149.7222  141.5702  156.0314 C   0  0  0  0  0  0  0  0  0  0  0  0
  149.2149  141.2832  154.6123 C   0  0  0  0  0  0  0  0  0  0  0  0
  149.1451  139.8781  154.4236 O   0  0  0  0  0  0  0  0  0  0  0  0
  150.4324  139.2832  154.5146 C   0  0  0  0  0  0  0  0  0  0  0  0
  151.0416  139.4978  155.9212 C   0  0  1  0  0  0  0  0  0  0  0  0
  152.4416  138.8545  155.9257 C   0  0  0  0  0  0  0  0  0  0  0  0
  152.6434  137.8464  156.7781 N   0  0  0  0  0  0  0  0  0  0  0  0
  153.3218  139.2512  155.1636 O   0  0  0  0  0  0  0  0  0  0  0  0
  151.6287  142.7182  157.6142 N   0  0  0  0  0  0  0  0  0  0  0  0
  152.6311  144.9692  159.8884 H   0  0  0  0  0  0  0  0  0  0  0  0
  151.1612  145.0374  158.9114 H   0  0  0  0  0  0  0  0  0  0  0  0
  152.7444  145.2136  158.1419 H   0  0  0  0  0  0  0  0  0  0  0  0
  153.4500  142.7288  160.4786 H   0  0  0  0  0  0  0  0  0  0  0  0
  154.2710  140.4373  160.8919 H   0  0  0  0  0  0  0  0  0  0  0  0
  154.2273  139.2803  159.5581 H   0  0  0  0  0  0  0  0  0  0  0  0
  152.8828  139.3588  160.7053 H   0  0  0  0  0  0  0  0  0  0  0  0
  149.0028  141.2033  156.7651 H   0  0  0  0  0  0  0  0  0  0  0  0
  149.7899  142.6497  156.1715 H   0  0  0  0  0  0  0  0  0  0  0  0
  148.2210  141.7093  154.4752 H   0  0  0  0  0  0  0  0  0  0  0  0
  149.8642  141.7382  153.8623 H   0  0  0  0  0  0  0  0  0  0  0  0
  150.3286  138.2180  154.3047 H   0  0  0  0  0  0  0  0  0  0  0  0
  151.0779  139.6941  153.7354 H   0  0  0  0  0  0  0  0  0  0  0  0
  150.4168  138.9741  156.6474 H   0  0  0  0  0  0  0  0  0  0  0  0
  153.5421  137.3878  156.8126 H   0  0  0  0  0  0  0  0  0  0  0  0
  151.8921  137.5421  157.3800 H   0  0  0  0  0  0  0  0  0  0  0  0
  1  2  1  0  0  0  0
  1 18  1  0  0  0  0
  1 19  1  0  0  0  0
  1 20  1  0  0  0  0
  2 17  1  0  0  0  0
  2  3  2  0  0  0  0
  3  4  1  0  0  0  0
  3 21  1  0  0  0  0
  4  5  1  0  0  0  0
  4  6  2  0  0  0  0
  5 22  1  0  0  0  0
  5 23  1  0  0  0  0
  5 24  1  0  0  0  0
  6  7  1  0  0  0  0
  7  8  1  0  0  0  0
  7 17  2  0  0  0  0
  8 13  1  0  0  0  0
  8  9  1  0  0  0  0
  9 10  1  0  0  0  0
  9 25  1  0  0  0  0
  9 26  1  0  0  0  0
 10 11  1  0  0  0  0
 10 27  1  0  0  0  0
 10 28  1  0  0  0  0
 11 12  1  0  0  0  0
 12 13  1  0  0  0  0
 12 29  1  0  0  0  0
 12 30  1  0  0  0  0
 13 14  1  0  0  0  0
 13 31  1  0  0  0  0
 14 15  1  0  0  0  0
 14 16  2  0  0  0  0
 15 32  1  0  0  0  0
 15 33  1  0  0  0  0
M  END
> <s_m_source_file>
AV-unprocessed.smi

> <i_m_source_file_index>
2415

> <i_lp_mmshare_version>
43012

> <i_f3d_flags>
0

> <s_epik_input>
W0NIM11jMVtjSF1jKFtDSDNdKW5jKG4xKU4yW0NIMl1bQ0gyXU9bQ0gyXVtDQEhdMkMoPU8pW05IMl0=

> <s_epik_cmdline>
J2VwaWtfcHl0aG9uJywgJy1waCcsICc3LjAnLCAnLXRuJywgJzgnLCAnLW1hJywgJzIwMCcsICctbWV0YWxfYmluZGluZycsICctaW1hZScsICc8aW5maWxlLm1hZT4nLCAnLW9tYWUnLCAnPG91dGZpbGUubWFlPic=

> <r_lp_tautomer_probability>
1

> <r_epik_Ionization_Penalty>
2.01639e-05

> <r_epik_Ionization_Penalty_Charging>
0

> <r_epik_Ionization_Penalty_Neutral>
2.01639e-05

> <r_epik_State_Penalty>
-0

> <r_epik_Charging_Adjusted_Penalty>
0

> <i_epik_Tot_Q>
0

> <i_epik_Tot_abs_Q>
0

> <r_epik_Metal_State_Penalty>
-0

> <b_epik_Metal_Only>
0

> <s_lp_Force_Field>
OPLS_2005

> <r_lp_Energy>
9.24332

> <b_lp_Chiralities_Consistent>
1

> <s_lp_Variant>
AV-unprocessed.smi:2415-1

> <Gold.Version>
5.8.1

> <Gold.Id.Protein>
6NUR|6NUR_protein|mol2

> <Gold.PLP.Fitness>
36.0930

> <Gold.PLP.PLP>
-33.2010

> <Gold.PLP.part.hbond>
-1.0000

> <Gold.PLP.part.metal>
0.0000

> <Gold.PLP.part.buried>
-3.7089

> <Gold.PLP.part.nonpolar>
-28.6313

> <Gold.PLP.part.repulsive>
0.3462

> <Gold.PLP.ligand.clash>
0.0000

> <Gold.PLP.ligand.torsion>
0.2737

> <Gold.PLP.Chemscore.Hbond>
1.0000

> <Gold.PLP.Chemscore.CHOScore>
0.0000

> <Gold.PLP.Chemscore.Metal>
0.0000

> <Gold.Chemscore.Hbonds>
donor molecule, donor type, donor heavy atom, donor atom, acceptor molecule, acceptor atom, score
      P1  H  7997  8008       L1    16  1.00

> <Gold.PLP.Chemscore.Internal.Correction>
0.4393

> <Gold.Rescore>
     Score         DG    S(hbond)    S(metal)    S(lipo)     H(rot)  DE(clash)    DE(int)     intcor
     12.65     -14.18       0.97        0.00      78.35       1.44       0.00       1.54       ----

> <Gold.Chemscore.Fitness>
12.6474

> <Gold.Chemscore.DG>
-14.1828

> <Gold.Chemscore.ZeroCoef>
-5.4800

> <Gold.Chemscore.Hbond>
0.9660

> <Gold.Chemscore.Metal>
0.0000

> <Gold.Chemscore.Lipo>
78.3549

> <Gold.Chemscore.Internal_Hbond>
0.0000

> <Gold.Chemscore.DEClash>
0.0000

> <Gold.Chemscore.DEInternal>
1.5354

> <Gold.Chemscore.Rot>
1.4419

> <Gold.Chemscore.Internal.Correction>
   9.000000E+99

> <Gold.Chemscore.Hbonds>
donor molecule, donor type, donor heavy atom, donor atom, acceptor molecule, acceptor atom, score
      P1  H  7997  8008       L1    16  0.95

> <Gold.Chemscore.Hbond.Weighted>
-3.2265

> <Gold.Chemscore.Metal.Weighted>
-0.0000

> <Gold.Chemscore.Lipo.Weighted>
-9.1675

> <Gold.Chemscore.Internal_Hbond.Weighted>
0.0000

> <Gold.Chemscore.DEClash.Weighted>
0.0000

> <Gold.Chemscore.DEInternal.Weighted>
1.5354

> <Gold.Chemscore.Rot.Weighted>
3.6912

> <Gold.Chemscore.Internal.Correction.Weighted>
   9.000000E+99

> <Gold.Protein.RotatedTorsions>
[ 6907 6896 6895 6894 ] final  137.98 input  -60.11 | X-H torsion
[ 7974 7965 7964 7962 ] final  175.05 input  175.53 | X-H torsion
[ 8008 7997 7996 7995 ] final   -8.24 input   59.86 | X-H torsion
[ 10167 10162 10161 10158 ] final   15.94 input  -65.29 | X-H torsion
[ 10718 10713 10712 10709 ] final -147.70 input   66.30 | X-H torsion
[ 10763 10752 10751 10750 ] final -153.96 input  -60.55 | X-H torsion
[ 11005 11000 10999 10996 ] final   10.35 input  -57.11 | X-H torsion

> <Gold.Protein.ActiveResidues>
 VAL166  LYS551  ARG553  GLY616  TRP617  ASP618  TYR619  PRO620  LYS621  CYS622 
 ASP623  PHE694  ASN695  SER759  ASP760  ASP761  ALA762  ILE779  LEU786  VAL792 
 PHE793  MET794  SER795  GLU796  ALA797  LYS798  CYS799  TRP800  GLU811  SER814 

> <Gold.Protein.RotatedAtoms>
  152.2718  133.5390  159.5443 H   0  0  0  0  0  0  0  0  0  0  0  0  # atno 6907 bound_to 6896
  150.7162  134.0686  159.3865 H   0  0  0  0  0  0  0  0  0  0  0  0  # atno 6908 bound_to 6896
  151.8601  135.0527  160.0519 H   0  0  0  0  0  0  0  0  0  0  0  0  # atno 6909 bound_to 6896
  144.7209  139.9888  143.6439 H   0  0  0  0  0  0  0  0  0  0  0  0  # atno 7974 bound_to 7965
  154.5760  140.2386  155.8122 H   0  0  0  0  0  0  0  0  0  0  0  0  # atno 8008 bound_to 7997
  156.2143  140.3017  155.9761 H   0  0  0  0  0  0  0  0  0  0  0  0  # atno 8009 bound_to 7997
  155.2626  140.0415  157.2989 H   0  0  0  0  0  0  0  0  0  0  0  0  # atno 8010 bound_to 7997
  140.5832  143.8940  150.6808 H   0  0  0  0  0  0  0  0  0  0  0  0  # atno 10167 bound_to 10162
  156.4108  130.7980  151.2198 H   0  0  0  0  0  0  0  0  0  0  0  0  # atno 10718 bound_to 10713
  154.7892  135.3201  154.7817 H   0  0  0  0  0  0  0  0  0  0  0  0  # atno 10763 bound_to 10752
  153.8509  135.6862  153.4797 H   0  0  0  0  0  0  0  0  0  0  0  0  # atno 10764 bound_to 10752
  153.1555  135.4682  154.9638 H   0  0  0  0  0  0  0  0  0  0  0  0  # atno 10765 bound_to 10752
  140.5155  134.0610  155.7830 H   0  0  0  0  0  0  0  0  0  0  0  0  # atno 11005 bound_to 11000
  146.0428  139.3438  143.0687 LP  0  0  0  0  0  0  0  0  0  0  0  0  # atno 17320 bound_to 7965
  145.8313  140.9629  143.0847 LP  0  0  0  0  0  0  0  0  0  0  0  0  # atno 17321 bound_to 7965
  140.2444  143.3639  152.1459 LP  0  0  0  0  0  0  0  0  0  0  0  0  # atno 17342 bound_to 10162
  139.5182  144.7003  151.5514 LP  0  0  0  0  0  0  0  0  0  0  0  0  # atno 17343 bound_to 10162
  157.7507  131.0258  150.3935 LP  0  0  0  0  0  0  0  0  0  0  0  0  # atno 17370 bound_to 10713
  156.4233  130.3957  149.6810 LP  0  0  0  0  0  0  0  0  0  0  0  0  # atno 17371 bound_to 10713
  141.1363  133.9216  157.2427 LP  0  0  0  0  0  0  0  0  0  0  0  0  # atno 17394 bound_to 11000
  139.9635  135.0148  156.9325 LP  0  0  0  0  0  0  0  0  0  0  0  0  # atno 17395 bound_to 11000

$$$$
