AV-unprocessed.smi:1734|AV-procd|sdf|6983|dock7
  -GOLD-   22720 8193D 1   1.00000     0.00000
 Structure written by MMmdl.
 50 52  0  0  0  0  0  0  0  0  1 V2000
  144.7979  135.3498  150.8081 C   0  0  0  0  0  0  0  0  0  0  0  0
  143.6540  135.2597  151.8051 C   0  0  0  0  0  0  0  0  0  0  0  0
  142.9182  134.0596  151.9045 C   0  0  0  0  0  0  0  0  0  0  0  0
  141.8614  133.9776  152.8269 C   0  0  0  0  0  0  0  0  0  0  0  0
  141.5829  135.1065  153.6160 C   0  0  0  0  0  0  0  0  0  0  0  0
  142.2801  136.2574  153.5269 N   0  0  0  0  0  0  0  0  0  0  0  0
  143.3037  136.3537  152.6414 C   0  0  0  0  0  0  0  0  0  0  0  0
  144.0802  137.5374  152.4904 N   0  0  0  0  0  0  0  0  0  0  0  0
  145.4133  137.6825  152.5916 C   0  0  0  0  0  0  0  0  0  0  0  0
  146.2144  136.7732  152.8099 O   0  0  0  0  0  0  0  0  0  0  0  0
  145.7715  138.9651  152.4329 N   0  0  0  0  0  0  0  0  0  0  0  0
  147.1317  139.4892  152.5292 C   0  0  0  0  0  0  0  0  0  0  0  0
  147.4394  140.0490  153.9451 C   0  0  1  0  0  0  0  0  0  0  0  0
  148.9365  140.4482  154.1273 C   0  0  1  0  0  0  0  0  0  0  0  0
  149.2981  141.4083  155.2644 C   0  0  0  0  0  0  0  0  0  0  0  0
  150.5396  140.7811  155.9008 C   0  0  0  0  0  0  0  0  0  0  0  0
  151.0503  139.9154  154.8988 O   0  0  0  0  0  0  0  0  0  0  0  0
  149.9308  139.2915  154.2927 C   0  0  0  0  0  0  0  0  0  0  0  0
  146.4679  141.0421  154.4451 N   0  0  0  0  0  0  0  0  0  0  0  0
  146.3664  141.1498  155.8993 C   0  0  0  0  0  0  0  0  0  0  0  0
  145.2608  142.1332  156.3218 C   0  0  0  0  0  0  0  0  0  0  0  0
  145.4796  143.4024  155.7145 O   0  0  0  0  0  0  0  0  0  0  0  0
  145.5193  143.3303  154.2933 C   0  0  0  0  0  0  0  0  0  0  0  0
  146.6413  142.3712  153.8631 C   0  0  0  0  0  0  0  0  0  0  0  0
  144.9132  134.4196  150.2508 H   0  0  0  0  0  0  0  0  0  0  0  0
  145.7377  135.5507  151.3231 H   0  0  0  0  0  0  0  0  0  0  0  0
  144.6165  136.1501  150.0902 H   0  0  0  0  0  0  0  0  0  0  0  0
  143.1581  133.2097  151.2824 H   0  0  0  0  0  0  0  0  0  0  0  0
  141.2797  133.0732  152.9272 H   0  0  0  0  0  0  0  0  0  0  0  0
  140.7795  135.0863  154.3375 H   0  0  0  0  0  0  0  0  0  0  0  0
  143.5530  138.3771  152.3030 H   0  0  0  0  0  0  0  0  0  0  0  0
  145.0422  139.6397  152.2534 H   0  0  0  0  0  0  0  0  0  0  0  0
  147.8667  138.7360  152.2441 H   0  0  0  0  0  0  0  0  0  0  0  0
  147.2062  140.2755  151.7797 H   0  0  0  0  0  0  0  0  0  0  0  0
  147.3307  139.1913  154.6109 H   0  0  0  0  0  0  0  0  0  0  0  0
  149.2391  140.9584  153.2112 H   0  0  0  0  0  0  0  0  0  0  0  0
  149.5422  142.3894  154.8553 H   0  0  0  0  0  0  0  0  0  0  0  0
  148.5057  141.5592  155.9955 H   0  0  0  0  0  0  0  0  0  0  0  0
  151.2778  141.5242  156.2029 H   0  0  0  0  0  0  0  0  0  0  0  0
  150.2678  140.1941  156.7795 H   0  0  0  0  0  0  0  0  0  0  0  0
  149.5638  138.5129  154.9623 H   0  0  0  0  0  0  0  0  0  0  0  0
  150.1958  138.8268  153.3427 H   0  0  0  0  0  0  0  0  0  0  0  0
  146.1348  140.1818  156.3370 H   0  0  0  0  0  0  0  0  0  0  0  0
  147.3175  141.4756  156.3209 H   0  0  0  0  0  0  0  0  0  0  0  0
  144.2792  141.7520  156.0359 H   0  0  0  0  0  0  0  0  0  0  0  0
  145.2538  142.2522  157.4053 H   0  0  0  0  0  0  0  0  0  0  0  0
  144.5546  142.9951  153.9094 H   0  0  0  0  0  0  0  0  0  0  0  0
  145.6968  144.3274  153.8902 H   0  0  0  0  0  0  0  0  0  0  0  0
  147.5956  142.7985  154.1700 H   0  0  0  0  0  0  0  0  0  0  0  0
  146.6599  142.3031  152.7751 H   0  0  0  0  0  0  0  0  0  0  0  0
  1  2  1  0  0  0  0
  1 25  1  0  0  0  0
  1 26  1  0  0  0  0
  1 27  1  0  0  0  0
  2  7  1  0  0  0  0
  2  3  2  0  0  0  0
  3  4  1  0  0  0  0
  3 28  1  0  0  0  0
  4  5  2  0  0  0  0
  4 29  1  0  0  0  0
  5  6  1  0  0  0  0
  5 30  1  0  0  0  0
  6  7  2  0  0  0  0
  7  8  1  0  0  0  0
  8  9  1  0  0  0  0
  8 31  1  0  0  0  0
  9 10  2  0  0  0  0
  9 11  1  0  0  0  0
 11 12  1  0  0  0  0
 11 32  1  0  0  0  0
 12 13  1  0  0  0  0
 12 33  1  0  0  0  0
 12 34  1  0  0  0  0
 13 14  1  0  0  0  0
 13 19  1  0  0  0  0
 13 35  1  0  0  0  0
 14 18  1  0  0  0  0
 14 15  1  0  0  0  0
 14 36  1  0  0  0  0
 15 16  1  0  0  0  0
 15 37  1  0  0  0  0
 15 38  1  0  0  0  0
 16 17  1  0  0  0  0
 16 39  1  0  0  0  0
 16 40  1  0  0  0  0
 17 18  1  0  0  0  0
 18 41  1  0  0  0  0
 18 42  1  0  0  0  0
 19 24  1  0  0  0  0
 19 20  1  0  0  0  0
 20 21  1  0  0  0  0
 20 43  1  0  0  0  0
 20 44  1  0  0  0  0
 21 22  1  0  0  0  0
 21 45  1  0  0  0  0
 21 46  1  0  0  0  0
 22 23  1  0  0  0  0
 23 24  1  0  0  0  0
 23 47  1  0  0  0  0
 23 48  1  0  0  0  0
 24 49  1  0  0  0  0
 24 50  1  0  0  0  0
M  END
> <s_m_source_file>
AV-unprocessed.smi

> <i_m_source_file_index>
1734

> <i_lp_mmshare_version>
43012

> <i_f3d_flags>
0

> <s_epik_input>
W0NIM11jMVtjSF1bY0hdW2NIXW5jMVtOSF1DKD1PKVtOSF1bQ0gyXVtDQEhdKFtDQEBIXTJbQ0gyXVtDSDJdT1tDSDJdMilOM1tDSDJdW0NIMl1PW0NIMl1bQ0gyXTM=

> <s_epik_cmdline>
J2VwaWtfcHl0aG9uJywgJy1waCcsICc3LjAnLCAnLXRuJywgJzgnLCAnLW1hJywgJzIwMCcsICctbWV0YWxfYmluZGluZycsICctaW1hZScsICc8aW5maWxlLm1hZT4nLCAnLW9tYWUnLCAnPG91dGZpbGUubWFlPic=

> <r_epik_Ionization_Penalty>
0.125073

> <r_epik_Ionization_Penalty_Charging>
0

> <r_epik_Ionization_Penalty_Neutral>
0.125073

> <r_epik_State_Penalty>
0.114484

> <r_epik_Charging_Adjusted_Penalty>
0.114484

> <i_epik_Tot_Q>
0

> <i_epik_Tot_abs_Q>
0

> <r_epik_Metal_State_Penalty>
0.114483

> <b_epik_Metal_Only>
0

> <s_lp_Force_Field>
OPLS_2005

> <r_lp_Energy>
55.6911

> <b_lp_Chiralities_Consistent>
1

> <s_lp_Variant>
AV-unprocessed.smi:1734-4

> <Gold.Version>
5.8.1

> <Gold.Id.Protein>
6NUR|6NUR_protein|mol2

> <Gold.PLP.Fitness>
50.5496

> <Gold.PLP.PLP>
-41.5245

> <Gold.PLP.part.hbond>
-4.2979

> <Gold.PLP.part.metal>
0.0000

> <Gold.PLP.part.buried>
-1.6806

> <Gold.PLP.part.nonpolar>
-37.5997

> <Gold.PLP.part.repulsive>
1.5887

> <Gold.PLP.ligand.clash>
0.0000

> <Gold.PLP.ligand.torsion>
1.5167

> <Gold.PLP.Chemscore.Hbond>
2.8640

> <Gold.PLP.Chemscore.CHOScore>
0.9981

> <Gold.PLP.Chemscore.Metal>
0.0000

> <Gold.Chemscore.Hbonds>
donor molecule, donor type, donor heavy atom, donor atom, acceptor molecule, acceptor atom, score
      L1  H     8    31       P1 10175  0.80
      L1  H    11    32       P1 10175  1.00
      P1  H  7989  7998       L1    17  0.95
      L1  C     5    30       P1 11000  0.98

> <Gold.PLP.Chemscore.Internal.Correction>
0.4724

> <Gold.Rescore>
     Score         DG    S(hbond)    S(metal)    S(lipo)     H(rot)  DE(clash)    DE(int)     intcor
     11.92     -18.44       1.94        0.00      91.49       1.65       1.70       4.81       ----

> <Gold.Chemscore.Fitness>
11.9235

> <Gold.Chemscore.DG>
-18.4400

> <Gold.Chemscore.ZeroCoef>
-5.4800

> <Gold.Chemscore.Hbond>
1.9386

> <Gold.Chemscore.Metal>
0.0000

> <Gold.Chemscore.Lipo>
91.4863

> <Gold.Chemscore.Internal_Hbond>
0.0000

> <Gold.Chemscore.DEClash>
1.7040

> <Gold.Chemscore.DEInternal>
4.8126

> <Gold.Chemscore.Rot>
1.6480

> <Gold.Chemscore.Internal.Correction>
   9.000000E+99

> <Gold.Chemscore.Hbonds>
donor molecule, donor type, donor heavy atom, donor atom, acceptor molecule, acceptor atom, score
      L1  H     8    31       P1 10175  0.75
      L1  H    11    32       P1 10175  0.97
      P1  H  7989  7998       L1    17  0.16

> <Gold.Chemscore.Hbond.Weighted>
-6.4750

> <Gold.Chemscore.Metal.Weighted>
-0.0000

> <Gold.Chemscore.Lipo.Weighted>
-10.7039

> <Gold.Chemscore.Internal_Hbond.Weighted>
0.0000

> <Gold.Chemscore.DEClash.Weighted>
1.7040

> <Gold.Chemscore.DEInternal.Weighted>
4.8126

> <Gold.Chemscore.Rot.Weighted>
4.2188

> <Gold.Chemscore.Internal.Correction.Weighted>
   9.000000E+99

> <Gold.Protein.RotatedTorsions>
[ 6907 6896 6895 6894 ] final  173.33 input  -60.11 | X-H torsion
[ 7974 7965 7964 7962 ] final  167.13 input  175.53 | X-H torsion
[ 8008 7997 7996 7995 ] final -179.52 input   59.86 | X-H torsion
[ 10167 10162 10161 10158 ] final  -63.45 input  -65.29 | X-H torsion
[ 10718 10713 10712 10709 ] final   -0.14 input   66.30 | X-H torsion
[ 10763 10752 10751 10750 ] final -168.62 input  -60.55 | X-H torsion
[ 11005 11000 10999 10996 ] final -150.75 input  -57.11 | X-H torsion

> <Gold.Protein.ActiveResidues>
 VAL166  LYS551  ARG553  GLY616  TRP617  ASP618  TYR619  PRO620  LYS621  CYS622 
 ASP623  PHE694  ASN695  SER759  ASP760  ASP761  ALA762  ILE779  LEU786  VAL792 
 PHE793  MET794  SER795  GLU796  ALA797  LYS798  CYS799  TRP800  GLU811  SER814 

> <Gold.Protein.RotatedAtoms>
  151.7700  133.3340  159.3441 H   0  0  0  0  0  0  0  0  0  0  0  0  # atno 6907 bound_to 6896
  150.7465  134.6027  159.6054 H   0  0  0  0  0  0  0  0  0  0  0  0  # atno 6908 bound_to 6896
  152.3347  134.7215  160.0331 H   0  0  0  0  0  0  0  0  0  0  0  0  # atno 6909 bound_to 6896
  144.7436  139.8715  143.6389 H   0  0  0  0  0  0  0  0  0  0  0  0  # atno 7974 bound_to 7965
  156.0315  140.1283  157.0253 H   0  0  0  0  0  0  0  0  0  0  0  0  # atno 8008 bound_to 7997
  154.4352  140.1048  156.6177 H   0  0  0  0  0  0  0  0  0  0  0  0  # atno 8009 bound_to 7997
  155.5800  140.3468  155.4540 H   0  0  0  0  0  0  0  0  0  0  0  0  # atno 8010 bound_to 7997
  140.5870  143.2335  151.6221 H   0  0  0  0  0  0  0  0  0  0  0  0  # atno 10167 bound_to 10162
  156.8248  130.5468  149.5693 H   0  0  0  0  0  0  0  0  0  0  0  0  # atno 10718 bound_to 10713
  154.6610  135.2925  154.9867 H   0  0  0  0  0  0  0  0  0  0  0  0  # atno 10763 bound_to 10752
  154.0926  135.6588  153.4859 H   0  0  0  0  0  0  0  0  0  0  0  0  # atno 10764 bound_to 10752
  153.0430  135.5223  154.7561 H   0  0  0  0  0  0  0  0  0  0  0  0  # atno 10765 bound_to 10752
  140.7369  134.3558  157.5155 H   0  0  0  0  0  0  0  0  0  0  0  0  # atno 11005 bound_to 11000
  146.1276  139.4305  143.0189 LP  0  0  0  0  0  0  0  0  0  0  0  0  # atno 17320 bound_to 7965
  145.7211  141.0074  143.1402 LP  0  0  0  0  0  0  0  0  0  0  0  0  # atno 17321 bound_to 7965
  139.5204  144.3225  152.0898 LP  0  0  0  0  0  0  0  0  0  0  0  0  # atno 17342 bound_to 10162
  140.2384  144.4296  150.6270 LP  0  0  0  0  0  0  0  0  0  0  0  0  # atno 17343 bound_to 10162
  156.0968  130.5938  150.9826 LP  0  0  0  0  0  0  0  0  0  0  0  0  # atno 17370 bound_to 10713
  157.6438  131.0907  150.8197 LP  0  0  0  0  0  0  0  0  0  0  0  0  # atno 17371 bound_to 10713
  139.8814  134.9055  156.2902 LP  0  0  0  0  0  0  0  0  0  0  0  0  # atno 17394 bound_to 11000
  140.9871  133.7231  156.0758 LP  0  0  0  0  0  0  0  0  0  0  0  0  # atno 17395 bound_to 11000

$$$$
