AV-unprocessed.smi:3343|AV-procd|sdf|12893|dock8
  -GOLD-   2272019303D 1   1.00000     0.00000
 Structure written by MMmdl.
 41 42  0  0  0  0  0  0  0  0  1 V2000
  149.1193  139.8154  154.1087 C   0  0  0  0  0  0  0  0  0  0  0  0
  149.1839  141.2373  154.7025 C   0  0  2  0  0  0  0  0  0  0  0  0
  149.8542  141.2832  156.0854 C   0  0  0  0  0  0  0  0  0  0  0  0
  150.1245  140.2464  156.6926 O   0  0  0  0  0  0  0  0  0  0  0  0
  150.0900  142.5075  156.5813 N   0  0  0  0  0  0  0  0  0  0  0  0
  150.5356  142.7957  157.9387 C   0  0  0  0  0  0  0  0  0  0  0  0
  151.9597  143.3810  157.9306 C   0  0  0  0  0  0  0  0  0  0  0  0
  152.6902  143.2784  159.1951 N   0  0  0  0  0  0  0  0  0  0  0  0
  151.9137  143.8617  160.2906 C   0  0  0  0  0  0  0  0  0  0  0  0
  152.6658  143.7785  161.6319 C   0  0  0  0  0  0  0  0  0  0  0  0
  152.9821  142.3948  161.9775 N   0  0  0  0  0  0  0  0  0  0  0  0
  153.6818  142.3070  163.2499 C   0  0  0  0  0  0  0  0  0  0  0  0
  153.7633  141.8051  160.8935 C   0  0  0  0  0  0  0  0  0  0  0  0
  153.0178  141.8932  159.5496 C   0  0  0  0  0  0  0  0  0  0  0  0
  147.8676  141.8640  154.7679 N   0  0  0  0  0  0  0  0  0  0  0  0
  146.8184  141.5779  155.5423 C   0  0  0  0  0  0  0  0  0  0  0  0
  145.7455  142.3148  155.2907 N   0  0  0  0  0  0  0  0  0  0  0  0
  146.2319  143.0856  154.2733 C   0  0  0  0  0  0  0  0  0  0  0  0
  147.4935  142.8498  153.9140 N   0  0  0  0  0  0  0  0  0  0  0  0
  150.1162  139.3849  154.0097 H   0  0  0  0  0  0  0  0  0  0  0  0
  148.6709  139.8301  153.1150 H   0  0  0  0  0  0  0  0  0  0  0  0
  148.5274  139.1392  154.7271 H   0  0  0  0  0  0  0  0  0  0  0  0
  149.7946  141.8423  154.0302 H   0  0  0  0  0  0  0  0  0  0  0  0
  149.8522  143.3025  156.0066 H   0  0  0  0  0  0  0  0  0  0  0  0
  149.8524  143.4609  158.4699 H   0  0  0  0  0  0  0  0  0  0  0  0
  150.5365  141.8510  158.4834 H   0  0  0  0  0  0  0  0  0  0  0  0
  152.5210  142.8294  157.1753 H   0  0  0  0  0  0  0  0  0  0  0  0
  151.9437  144.4157  157.5832 H   0  0  0  0  0  0  0  0  0  0  0  0
  151.6929  144.9067  160.0702 H   0  0  0  0  0  0  0  0  0  0  0  0
  150.9528  143.3524  160.3799 H   0  0  0  0  0  0  0  0  0  0  0  0
  153.5812  144.3701  161.5766 H   0  0  0  0  0  0  0  0  0  0  0  0
  152.0536  144.2232  162.4172 H   0  0  0  0  0  0  0  0  0  0  0  0
  153.8907  141.2673  163.5036 H   0  0  0  0  0  0  0  0  0  0  0  0
  153.0773  142.7299  164.0529 H   0  0  0  0  0  0  0  0  0  0  0  0
  154.6295  142.8461  163.2173 H   0  0  0  0  0  0  0  0  0  0  0  0
  154.7279  142.3084  160.8097 H   0  0  0  0  0  0  0  0  0  0  0  0
  153.9757  140.7594  161.1190 H   0  0  0  0  0  0  0  0  0  0  0  0
  152.1086  141.2914  159.5924 H   0  0  0  0  0  0  0  0  0  0  0  0
  153.6535  141.4508  158.7844 H   0  0  0  0  0  0  0  0  0  0  0  0
  146.8361  140.8067  156.2985 H   0  0  0  0  0  0  0  0  0  0  0  0
  145.6360  143.8374  153.7769 H   0  0  0  0  0  0  0  0  0  0  0  0
  1  2  1  0  0  0  0
  1 20  1  0  0  0  0
  1 21  1  0  0  0  0
  1 22  1  0  0  0  0
  2  3  1  0  0  0  0
  2 15  1  0  0  0  0
  2 23  1  0  0  0  0
  3  4  2  0  0  0  0
  3  5  1  0  0  0  0
  5  6  1  0  0  0  0
  5 24  1  0  0  0  0
  6  7  1  0  0  0  0
  6 25  1  0  0  0  0
  6 26  1  0  0  0  0
  7  8  1  0  0  0  0
  7 27  1  0  0  0  0
  7 28  1  0  0  0  0
  8 14  1  0  0  0  0
  8  9  1  0  0  0  0
  9 10  1  0  0  0  0
  9 29  1  0  0  0  0
  9 30  1  0  0  0  0
 10 11  1  0  0  0  0
 10 31  1  0  0  0  0
 10 32  1  0  0  0  0
 11 12  1  0  0  0  0
 11 13  1  0  0  0  0
 12 33  1  0  0  0  0
 12 34  1  0  0  0  0
 12 35  1  0  0  0  0
 13 14  1  0  0  0  0
 13 36  1  0  0  0  0
 13 37  1  0  0  0  0
 14 38  1  0  0  0  0
 14 39  1  0  0  0  0
 15 19  1  0  0  0  0
 15 16  1  0  0  0  0
 16 17  2  0  0  0  0
 16 40  1  0  0  0  0
 17 18  1  0  0  0  0
 18 19  2  0  0  0  0
 18 41  1  0  0  0  0
M  END
> <s_m_source_file>
AV-unprocessed.smi

> <i_m_source_file_index>
3343

> <i_lp_mmshare_version>
43012

> <i_f3d_flags>
0

> <s_epik_input>
bjFbY0hdbltjSF1uMVtDQEhdKFtDSDNdKUMoPU8pW05IXVtDSDJdW0NIMl1OMltDSDJdW0NIMl1OKFtDSDNdKVtDSDJdW0NIMl0y

> <s_epik_cmdline>
J2VwaWtfcHl0aG9uJywgJy1waCcsICc3LjAnLCAnLXRuJywgJzgnLCAnLW1hJywgJzIwMCcsICctbWV0YWxfYmluZGluZycsICctaW1hZScsICc8aW5maWxlLm1hZT4nLCAnLW9tYWUnLCAnPG91dGZpbGUubWFlPic=

> <r_lp_tautomer_probability>
1

> <r_epik_Ionization_Penalty>
1.97295

> <r_epik_Ionization_Penalty_Charging>
0

> <r_epik_Ionization_Penalty_Neutral>
1.97295

> <r_epik_State_Penalty>
1.8027

> <r_epik_Charging_Adjusted_Penalty>
1.8027

> <i_epik_Tot_Q>
0

> <i_epik_Tot_abs_Q>
0

> <r_epik_Metal_State_Penalty>
1.8027

> <b_epik_Metal_Only>
0

> <s_lp_Force_Field>
OPLS_2005

> <r_lp_Energy>
39.2202

> <b_lp_Chiralities_Consistent>
1

> <s_lp_Variant>
AV-unprocessed.smi:3343-3

> <Gold.Version>
5.8.1

> <Gold.Id.Protein>
6NUR|6NUR_protein|mol2

> <Gold.PLP.Fitness>
43.4576

> <Gold.PLP.PLP>
-39.7727

> <Gold.PLP.part.hbond>
-3.0000

> <Gold.PLP.part.metal>
0.0000

> <Gold.PLP.part.buried>
-2.1426

> <Gold.PLP.part.nonpolar>
-35.4659

> <Gold.PLP.part.repulsive>
2.0771

> <Gold.PLP.ligand.clash>
0.0000

> <Gold.PLP.ligand.torsion>
0.3767

> <Gold.PLP.Chemscore.Hbond>
1.4368

> <Gold.PLP.Chemscore.CHOScore>
0.0000

> <Gold.PLP.Chemscore.Metal>
0.0000

> <Gold.Chemscore.Hbonds>
donor molecule, donor type, donor heavy atom, donor atom, acceptor molecule, acceptor atom, score
      L1  H     5    24       P1  8028  1.00
      P1  H  8022  8030       L1    19  0.36

> <Gold.PLP.Chemscore.Internal.Correction>
0.1277

> <Gold.Rescore>
     Score         DG    S(hbond)    S(metal)    S(lipo)     H(rot)  DE(clash)    DE(int)     intcor
     12.07     -12.63       0.96        0.00      89.60       2.56       0.05       0.52       ----

> <Gold.Chemscore.Fitness>
12.0691

> <Gold.Chemscore.DG>
-12.6347

> <Gold.Chemscore.ZeroCoef>
-5.4800

> <Gold.Chemscore.Hbond>
0.9637

> <Gold.Chemscore.Metal>
0.0000

> <Gold.Chemscore.Lipo>
89.6027

> <Gold.Chemscore.Internal_Hbond>
0.0000

> <Gold.Chemscore.DEClash>
0.0498

> <Gold.Chemscore.DEInternal>
0.5158

> <Gold.Chemscore.Rot>
2.5577

> <Gold.Chemscore.Internal.Correction>
   9.000000E+99

> <Gold.Chemscore.Hbonds>
donor molecule, donor type, donor heavy atom, donor atom, acceptor molecule, acceptor atom, score
      L1  H     5    24       P1  8028  0.96
      P1  H  8022  8030       L1    19  0.27

> <Gold.Chemscore.Hbond.Weighted>
-3.2189

> <Gold.Chemscore.Metal.Weighted>
-0.0000

> <Gold.Chemscore.Lipo.Weighted>
-10.4835

> <Gold.Chemscore.Internal_Hbond.Weighted>
0.0000

> <Gold.Chemscore.DEClash.Weighted>
0.0498

> <Gold.Chemscore.DEInternal.Weighted>
0.5158

> <Gold.Chemscore.Rot.Weighted>
6.5477

> <Gold.Chemscore.Internal.Correction.Weighted>
   9.000000E+99

> <Gold.Protein.RotatedTorsions>
[ 6907 6896 6895 6894 ] final -146.99 input  -60.11 | X-H torsion
[ 7974 7965 7964 7962 ] final -151.30 input  175.53 | X-H torsion
[ 8008 7997 7996 7995 ] final  139.92 input   59.86 | X-H torsion
[ 10167 10162 10161 10158 ] final -102.11 input  -65.29 | X-H torsion
[ 10718 10713 10712 10709 ] final  157.30 input   66.30 | X-H torsion
[ 10763 10752 10751 10750 ] final  132.20 input  -60.55 | X-H torsion
[ 11005 11000 10999 10996 ] final   25.49 input  -57.11 | X-H torsion

> <Gold.Protein.ActiveResidues>
 VAL166  LYS551  ARG553  GLY616  TRP617  ASP618  TYR619  PRO620  LYS621  CYS622 
 ASP623  PHE694  ASN695  SER759  ASP760  ASP761  ALA762  ILE779  LEU786  VAL792 
 PHE793  MET794  SER795  GLU796  ALA797  LYS798  CYS799  TRP800  GLU811  SER814 

> <Gold.Protein.RotatedAtoms>
  151.1494  133.4918  159.2595 H   0  0  0  0  0  0  0  0  0  0  0  0  # atno 6907 bound_to 6896
  151.1570  135.0255  159.8703 H   0  0  0  0  0  0  0  0  0  0  0  0  # atno 6908 bound_to 6896
  152.5463  134.1372  159.8517 H   0  0  0  0  0  0  0  0  0  0  0  0  # atno 6909 bound_to 6896
  144.7857  140.4815  143.5807 H   0  0  0  0  0  0  0  0  0  0  0  0  # atno 7974 bound_to 7965
  156.2985  140.2355  156.4317 H   0  0  0  0  0  0  0  0  0  0  0  0  # atno 8008 bound_to 7997
  154.8265  140.0435  157.1467 H   0  0  0  0  0  0  0  0  0  0  0  0  # atno 8009 bound_to 7997
  154.9256  140.3009  155.5197 H   0  0  0  0  0  0  0  0  0  0  0  0  # atno 8010 bound_to 7997
  140.2342  143.3585  152.0860 H   0  0  0  0  0  0  0  0  0  0  0  0  # atno 10167 bound_to 10162
  157.1934  131.0660  151.2066 H   0  0  0  0  0  0  0  0  0  0  0  0  # atno 10718 bound_to 10713
  153.7868  135.3160  155.3373 H   0  0  0  0  0  0  0  0  0  0  0  0  # atno 10763 bound_to 10752
  154.8141  135.4648  154.0598 H   0  0  0  0  0  0  0  0  0  0  0  0  # atno 10764 bound_to 10752
  153.1903  135.6907  153.8447 H   0  0  0  0  0  0  0  0  0  0  0  0  # atno 10765 bound_to 10752
  140.3473  134.2267  155.7683 H   0  0  0  0  0  0  0  0  0  0  0  0  # atno 11005 bound_to 11000
  145.5927  139.1497  143.3173 LP  0  0  0  0  0  0  0  0  0  0  0  0  # atno 17320 bound_to 7965
  146.2088  140.6052  142.9069 LP  0  0  0  0  0  0  0  0  0  0  0  0  # atno 17321 bound_to 7965
  139.5099  144.6876  151.5847 LP  0  0  0  0  0  0  0  0  0  0  0  0  # atno 17342 bound_to 10162
  140.6162  143.9343  150.6491 LP  0  0  0  0  0  0  0  0  0  0  0  0  # atno 17343 bound_to 10162
  157.3838  130.7245  149.6649 LP  0  0  0  0  0  0  0  0  0  0  0  0  # atno 17370 bound_to 10713
  155.9709  130.4165  150.4234 LP  0  0  0  0  0  0  0  0  0  0  0  0  # atno 17371 bound_to 10713
  141.2022  133.7944  157.0403 LP  0  0  0  0  0  0  0  0  0  0  0  0  # atno 17394 bound_to 11000
  140.0732  134.9690  157.1501 LP  0  0  0  0  0  0  0  0  0  0  0  0  # atno 17395 bound_to 11000

$$$$
