AV-unprocessed.smi:2607|AV-procd|sdf|10202|dock5
  -GOLD-   2272014213D 1   1.00000     0.00000
 Structure written by MMmdl.
 21 22  0  0  0  0  0  0  0  0  2 V2000
  150.9362  142.9071  156.3118 C   0  0  0  0  0  0  0  0  0  0  0  0
  150.5027  141.4510  156.0444 C   0  0  1  0  0  0  0  0  0  0  0  0
  149.1008  141.4052  155.4038 C   0  0  0  0  0  0  0  0  0  0  0  0
  147.9479  141.9400  156.0368 C   0  0  0  0  0  0  0  0  0  0  0  0
  146.7218  141.8837  155.4694 N   0  0  0  0  0  0  0  0  0  0  0  0
  146.6402  141.2866  154.2614 C   0  0  0  0  0  0  0  0  0  0  0  0
  147.7754  140.7460  153.6247 C   0  0  0  0  0  0  0  0  0  0  0  0
  148.9996  140.8012  154.1917 N   0  0  0  0  0  0  0  0  0  0  0  0
  151.5307  140.7929  155.2450 N   0  5  0  0  0  0  0  0  0  0  0  0
  152.0174  139.7319  155.9293 C   0  0  0  0  0  0  0  0  0  0  0  0
  152.8736  138.9294  155.5647 O   0  0  0  0  0  0  0  0  0  0  0  0
  151.4376  139.6409  157.1284 N   0  0  0  0  0  0  0  0  0  0  0  0
  150.5532  140.6140  157.3224 C   0  0  0  0  0  0  0  0  0  0  0  0
  149.9033  140.8232  158.3469 O   0  0  0  0  0  0  0  0  0  0  0  0
  150.2332  143.4203  156.9688 H   0  0  0  0  0  0  0  0  0  0  0  0
  150.9896  143.4764  155.3833 H   0  0  0  0  0  0  0  0  0  0  0  0
  151.9181  142.9575  156.7853 H   0  0  0  0  0  0  0  0  0  0  0  0
  147.9901  142.4159  157.0050 H   0  0  0  0  0  0  0  0  0  0  0  0
  145.6646  141.2374  153.8011 H   0  0  0  0  0  0  0  0  0  0  0  0
  147.7011  140.2676  152.6595 H   0  0  0  0  0  0  0  0  0  0  0  0
  151.6624  138.9342  157.8124 H   0  0  0  0  0  0  0  0  0  0  0  0
  1  2  1  0  0  0  0
  1 15  1  0  0  0  0
  1 16  1  0  0  0  0
  1 17  1  0  0  0  0
  2 13  1  0  0  0  0
  2  3  1  0  0  0  0
  2  9  1  0  0  0  0
  3  8  1  0  0  0  0
  3  4  2  0  0  0  0
  4  5  1  0  0  0  0
  4 18  1  0  0  0  0
  5  6  2  0  0  0  0
  6  7  1  0  0  0  0
  6 19  1  0  0  0  0
  7  8  2  0  0  0  0
  7 20  1  0  0  0  0
  9 10  1  0  0  0  0
 10 11  2  0  0  0  0
 10 12  1  0  0  0  0
 12 13  1  0  0  0  0
 12 21  1  0  0  0  0
 13 14  2  0  0  0  0
M  CHG  1   9  -1
M  END
> <s_m_source_file>
AV-unprocessed.smi

> <i_m_source_file_index>
2607

> <i_lp_mmshare_version>
43012

> <i_f3d_flags>
0

> <s_epik_input>
Tz1DMVtOSF1DKD1PKVtOSF1bQ0BAXTEoW0NIM10pYzJbY0hdbltjSF1bY0hdbjI=

> <s_epik_cmdline>
J2VwaWtfcHl0aG9uJywgJy1waCcsICc3LjAnLCAnLXRuJywgJzgnLCAnLW1hJywgJzIwMCcsICctbWV0YWxfYmluZGluZycsICctaW1hZScsICc8aW5maWxlLm1hZT4nLCAnLW9tYWUnLCAnPG91dGZpbGUubWFlPic=

> <r_lp_tautomer_probability>
1

> <r_epik_Ionization_Penalty>
4.70687

> <r_epik_Ionization_Penalty_Charging>
4.70687

> <r_epik_Ionization_Penalty_Neutral>
2.29475e-06

> <r_epik_State_Penalty>
4.73416

> <r_epik_Charging_Adjusted_Penalty>
9.44103

> <i_epik_Tot_Q>
-1

> <i_epik_Tot_abs_Q>
1

> <r_epik_Metal_State_Penalty>
1.2389

> <b_epik_Metal_Only>
1

> <s_lp_Force_Field>
OPLS_2005

> <r_lp_Energy>
21.97

> <b_lp_Chiralities_Consistent>
1

> <s_lp_Variant>
AV-unprocessed.smi:2607-5

> <Gold.Version>
5.8.1

> <Gold.Id.Protein>
6NUR|6NUR_protein|mol2

> <Gold.PLP.Fitness>
28.9979

> <Gold.PLP.PLP>
-18.4020

> <Gold.PLP.part.hbond>
-2.2132

> <Gold.PLP.part.metal>
0.0000

> <Gold.PLP.part.buried>
-2.1670

> <Gold.PLP.part.nonpolar>
-14.3920

> <Gold.PLP.part.repulsive>
0.3057

> <Gold.PLP.ligand.clash>
0.0000

> <Gold.PLP.ligand.torsion>
0.0325

> <Gold.PLP.Chemscore.Hbond>
1.5380

> <Gold.PLP.Chemscore.CHOScore>
1.9976

> <Gold.PLP.Chemscore.Metal>
0.0000

> <Gold.Chemscore.Hbonds>
donor molecule, donor type, donor heavy atom, donor atom, acceptor molecule, acceptor atom, score
      P1  H  7989  7998       L1     9  0.69
      P1  H  7997  8009       L1    11  0.60
      L1  C     4    18       P1  8028  0.05
      L1  C     6    19       P1 10175  1.00
      L1  C     7    20       P1  7957  0.87

> <Gold.PLP.Chemscore.Internal.Correction>
0.0541

> <Gold.Rescore>
     Score         DG    S(hbond)    S(metal)    S(lipo)     H(rot)  DE(clash)    DE(int)     intcor
      9.50     -10.15       0.87        0.00      37.07       1.00       0.02       0.63       ----

> <Gold.Chemscore.Fitness>
9.4982

> <Gold.Chemscore.DG>
-10.1489

> <Gold.Chemscore.ZeroCoef>
-5.4800

> <Gold.Chemscore.Hbond>
0.8657

> <Gold.Chemscore.Metal>
0.0000

> <Gold.Chemscore.Lipo>
37.0731

> <Gold.Chemscore.Internal_Hbond>
0.0000

> <Gold.Chemscore.DEClash>
0.0234

> <Gold.Chemscore.DEInternal>
0.6273

> <Gold.Chemscore.Rot>
1.0000

> <Gold.Chemscore.Internal.Correction>
   9.000000E+99

> <Gold.Chemscore.Hbonds>
donor molecule, donor type, donor heavy atom, donor atom, acceptor molecule, acceptor atom, score
      P1  H  7989  7998       L1     9  0.67
      P1  H  7997  8009       L1    11  0.04

> <Gold.Chemscore.Hbond.Weighted>
-2.8913

> <Gold.Chemscore.Metal.Weighted>
-0.0000

> <Gold.Chemscore.Lipo.Weighted>
-4.3376

> <Gold.Chemscore.Internal_Hbond.Weighted>
0.0000

> <Gold.Chemscore.DEClash.Weighted>
0.0234

> <Gold.Chemscore.DEInternal.Weighted>
0.6273

> <Gold.Chemscore.Rot.Weighted>
2.5600

> <Gold.Chemscore.Internal.Correction.Weighted>
   9.000000E+99

> <Gold.Protein.RotatedTorsions>
[ 6907 6896 6895 6894 ] final   37.10 input  -60.11 | X-H torsion
[ 7974 7965 7964 7962 ] final   14.07 input  175.53 | X-H torsion
[ 8008 7997 7996 7995 ] final -155.32 input   59.86 | X-H torsion
[ 10167 10162 10161 10158 ] final  -68.12 input  -65.29 | X-H torsion
[ 10718 10713 10712 10709 ] final  136.29 input   66.30 | X-H torsion
[ 10763 10752 10751 10750 ] final  115.92 input  -60.55 | X-H torsion
[ 11005 11000 10999 10996 ] final -138.28 input  -57.11 | X-H torsion

> <Gold.Protein.ActiveResidues>
 VAL166  LYS551  ARG553  GLY616  TRP617  ASP618  TYR619  PRO620  LYS621  CYS622 
 ASP623  PHE694  ASN695  SER759  ASP760  ASP761  ALA762  ILE779  LEU786  VAL792 
 PHE793  MET794  SER795  GLU796  ALA797  LYS798  CYS799  TRP800  GLU811  SER814 

> <Gold.Protein.RotatedAtoms>
  152.1387  134.9079  160.0554 H   0  0  0  0  0  0  0  0  0  0  0  0  # atno 6907 bound_to 6896
  152.0156  133.3873  159.4245 H   0  0  0  0  0  0  0  0  0  0  0  0  # atno 6908 bound_to 6896
  150.6863  134.3604  159.4992 H   0  0  0  0  0  0  0  0  0  0  0  0  # atno 6909 bound_to 6896
  146.2314  139.9095  142.8526 H   0  0  0  0  0  0  0  0  0  0  0  0  # atno 7974 bound_to 7965
  155.7000  140.0765  157.2414 H   0  0  0  0  0  0  0  0  0  0  0  0  # atno 8008 bound_to 7997
  154.4074  140.1649  156.2233 H   0  0  0  0  0  0  0  0  0  0  0  0  # atno 8009 bound_to 7997
  155.9376  140.3387  155.6303 H   0  0  0  0  0  0  0  0  0  0  0  0  # atno 8010 bound_to 7997
  140.5531  143.2312  151.6872 H   0  0  0  0  0  0  0  0  0  0  0  0  # atno 10167 bound_to 10162
  157.4482  131.1063  151.0064 H   0  0  0  0  0  0  0  0  0  0  0  0  # atno 10718 bound_to 10713
  153.5294  135.3581  155.2668 H   0  0  0  0  0  0  0  0  0  0  0  0  # atno 10763 bound_to 10752
  154.8728  135.4064  154.3169 H   0  0  0  0  0  0  0  0  0  0  0  0  # atno 10764 bound_to 10752
  153.3855  135.7070  153.6601 H   0  0  0  0  0  0  0  0  0  0  0  0  # atno 10765 bound_to 10752
  140.8631  134.2145  157.4696 H   0  0  0  0  0  0  0  0  0  0  0  0  # atno 11005 bound_to 11000
  145.2244  140.9948  143.4027 LP  0  0  0  0  0  0  0  0  0  0  0  0  # atno 17320 bound_to 7965
  144.9583  139.4007  143.6368 LP  0  0  0  0  0  0  0  0  0  0  0  0  # atno 17321 bound_to 7965
  139.5036  144.3785  152.0400 LP  0  0  0  0  0  0  0  0  0  0  0  0  # atno 17342 bound_to 10162
  140.2904  144.3760  150.6090 LP  0  0  0  0  0  0  0  0  0  0  0  0  # atno 17343 bound_to 10162
  157.0904  130.5940  149.5438 LP  0  0  0  0  0  0  0  0  0  0  0  0  # atno 17370 bound_to 10713
  155.9976  130.5048  150.7540 LP  0  0  0  0  0  0  0  0  0  0  0  0  # atno 17371 bound_to 10713
  139.8708  134.9739  156.4825 LP  0  0  0  0  0  0  0  0  0  0  0  0  # atno 17394 bound_to 11000
  140.8660  133.8024  155.9315 LP  0  0  0  0  0  0  0  0  0  0  0  0  # atno 17395 bound_to 11000

$$$$
