AV-unprocessed.smi:39|AV-procd|sdf|351|dock2
  -GOLD-   2262016193D 1   1.00000     0.00000
 Structure written by MMmdl.
 32 33  0  0  0  0  0  0  0  0  3 V2000
  152.3765  141.6855  159.2031 C   0  0  0  0  0  0  0  0  0  0  0  0
  152.4779  140.4014  158.3966 C   0  0  0  0  0  0  0  0  0  0  0  0
  151.9646  140.2861  157.1452 C   0  0  0  0  0  0  0  0  0  0  0  0
  152.0408  139.1269  156.3842 N   0  0  0  0  0  0  0  0  0  0  0  0
  151.4433  139.0512  154.9963 C   0  0  1  0  0  0  0  0  0  0  0  0
  150.4387  137.8986  154.9084 C   0  0  0  0  0  0  0  0  0  0  0  0
  149.1123  138.6252  155.0377 C   0  0  2  0  0  0  0  0  0  0  0  0
  148.0022  137.8966  154.4200 N   0  0  0  0  0  0  0  0  0  0  0  0
  147.4046  138.4767  153.5038 N   0  3  0  0  0  0  0  0  0  0  0  0
  146.9275  139.1095  152.6870 N   0  5  0  0  0  0  0  0  0  0  0  0
  149.4203  139.9427  154.3215 C   0  0  1  0  0  0  0  0  0  0  0  0
  148.4822  141.0927  154.7203 C   0  0  0  0  0  0  0  0  0  0  0  0
  148.8942  142.2918  154.1002 O   0  0  0  0  0  0  0  0  0  0  0  0
  150.7526  140.2370  154.7338 O   0  0  0  0  0  0  0  0  0  0  0  0
  152.6582  137.9824  156.9307 C   0  0  0  0  0  0  0  0  0  0  0  0
  152.7327  136.9105  156.3313 O   0  0  0  0  0  0  0  0  0  0  0  0
  153.1911  138.1023  158.2128 N   0  0  0  0  0  0  0  0  0  0  0  0
  153.1531  139.2519  159.0054 C   0  0  0  0  0  0  0  0  0  0  0  0
  153.6639  139.2357  160.1241 O   0  0  0  0  0  0  0  0  0  0  0  0
  152.2732  138.9627  154.2933 H   0  0  0  0  0  0  0  0  0  0  0  0
  148.9110  138.8286  156.0916 H   0  0  0  0  0  0  0  0  0  0  0  0
  149.4095  139.7814  153.2413 H   0  0  0  0  0  0  0  0  0  0  0  0
  153.6400  137.2871  158.6042 H   0  0  0  0  0  0  0  0  0  0  0  0
  151.8467  142.4661  158.6565 H   0  0  0  0  0  0  0  0  0  0  0  0
  153.3708  142.0627  159.4448 H   0  0  0  0  0  0  0  0  0  0  0  0
  151.8403  141.5085  160.1360 H   0  0  0  0  0  0  0  0  0  0  0  0
  151.4664  141.1478  156.7269 H   0  0  0  0  0  0  0  0  0  0  0  0
  150.5359  137.4311  153.9274 H   0  0  0  0  0  0  0  0  0  0  0  0
  150.6057  137.1426  155.6767 H   0  0  0  0  0  0  0  0  0  0  0  0
  147.4669  140.8839  154.3818 H   0  0  0  0  0  0  0  0  0  0  0  0
  148.4432  141.2173  155.8027 H   0  0  0  0  0  0  0  0  0  0  0  0
  148.9035  142.9785  154.7495 H   0  0  0  0  0  0  0  0  0  0  0  0
  1  2  1  0  0  0  0
  1 24  1  0  0  0  0
  1 25  1  0  0  0  0
  1 26  1  0  0  0  0
  2 18  1  0  0  0  0
  2  3  2  0  0  0  0
  3  4  1  0  0  0  0
  3 27  1  0  0  0  0
  4  5  1  0  0  0  0
  4 15  1  0  0  0  0
  5 20  1  0  0  0  0
  5 14  1  0  0  0  0
  5  6  1  0  0  0  0
  6  7  1  0  0  0  0
  6 28  1  0  0  0  0
  6 29  1  0  0  0  0
  7 21  1  0  0  0  0
  7  8  1  0  0  0  0
  7 11  1  0  0  0  0
  8  9  2  0  0  0  0
  9 10  2  0  0  0  0
 11 22  1  0  0  0  0
 11 12  1  0  0  0  0
 11 14  1  0  0  0  0
 12 13  1  0  0  0  0
 12 30  1  0  0  0  0
 12 31  1  0  0  0  0
 13 32  1  0  0  0  0
 15 16  2  0  0  0  0
 15 17  1  0  0  0  0
 17 23  1  0  0  0  0
 17 18  1  0  0  0  0
 18 19  2  0  0  0  0
M  CHG  1   9   1
M  CHG  1  10  -1
M  END
> <s_m_source_file>
AV-unprocessed.smi

> <i_m_source_file_index>
39

> <i_lp_mmshare_version>
43012

> <i_f3d_flags>
0

> <s_epik_input>
Tz1jMVtuSF1jKD1PKW4oW2NIXWMxW0NIM10pW0NASF0yW0NIMl1bQ0BIXShOPVtOK109W04tXSlbQ0BIXShPMilbQ0gyXVtPSF0=

> <s_epik_cmdline>
J2VwaWtfcHl0aG9uJywgJy1waCcsICc3LjAnLCAnLXRuJywgJzgnLCAnLW1hJywgJzIwMCcsICctbWV0YWxfYmluZGluZycsICctaW1hZScsICc8aW5maWxlLm1hZT4nLCAnLW9tYWUnLCAnPG91dGZpbGUubWFlPic=

> <r_lp_tautomer_probability>
0.999537

> <r_epik_Ionization_Penalty>
0.00127512

> <r_epik_Ionization_Penalty_Charging>
0.00127507

> <r_epik_Ionization_Penalty_Neutral>
5.43433e-08

> <r_epik_State_Penalty>
0.000844892

> <r_epik_Charging_Adjusted_Penalty>
0.00211996

> <i_epik_Tot_Q>
0

> <i_epik_Tot_abs_Q>
2

> <r_epik_Metal_State_Penalty>
0.680636

> <b_epik_Metal_Only>
0

> <s_epik_Chemistry_Notes>
This compound contains an acetal/aminal-like group ( X-CH(R)-Y where X, Y are N, S, or O) that may be acid/base labile, releasing an aldehyde.

> <s_lp_Force_Field>
OPLS_2005

> <r_lp_Energy>
24.0553

> <b_lp_Chiralities_Consistent>
1

> <s_lp_Variant>
AV-unprocessed.smi:39-1

> <Gold.Version>
5.8.1

> <Gold.Id.Protein>
6NUR|6NUR_protein|mol2

> <Gold.PLP.Fitness>
35.6334

> <Gold.PLP.PLP>
-26.3061

> <Gold.PLP.part.hbond>
-4.0000

> <Gold.PLP.part.metal>
0.0000

> <Gold.PLP.part.buried>
-4.7293

> <Gold.PLP.part.nonpolar>
-18.8167

> <Gold.PLP.part.repulsive>
0.8151

> <Gold.PLP.ligand.clash>
0.0000

> <Gold.PLP.ligand.torsion>
0.0810

> <Gold.PLP.Chemscore.Hbond>
3.1520

> <Gold.PLP.Chemscore.CHOScore>
0.0000

> <Gold.PLP.Chemscore.Metal>
0.0000

> <Gold.Chemscore.Hbonds>
donor molecule, donor type, donor heavy atom, donor atom, acceptor molecule, acceptor atom, score
      L1  H    13    32       P1  8028  1.00
      P1  H  7989  7998       L1    14  1.00
      P1  H  8011  8017       L1    13  0.24
      P1  H 10752 10763       L1    16  0.90

> <Gold.PLP.Chemscore.Internal.Correction>
0.0334

> <Gold.Rescore>
     Score         DG    S(hbond)    S(metal)    S(lipo)     H(rot)  DE(clash)    DE(int)     intcor
     10.61     -12.78       2.75        0.00      44.04       2.75       0.12       2.05       ----

> <Gold.Chemscore.Fitness>
10.6059

> <Gold.Chemscore.DG>
-12.7812

> <Gold.Chemscore.ZeroCoef>
-5.4800

> <Gold.Chemscore.Hbond>
2.7528

> <Gold.Chemscore.Metal>
0.0000

> <Gold.Chemscore.Lipo>
44.0422

> <Gold.Chemscore.Internal_Hbond>
0.0000

> <Gold.Chemscore.DEClash>
0.1214

> <Gold.Chemscore.DEInternal>
2.0539

> <Gold.Chemscore.Rot>
2.7524

> <Gold.Chemscore.Internal.Correction>
   9.000000E+99

> <Gold.Chemscore.Hbonds>
donor molecule, donor type, donor heavy atom, donor atom, acceptor molecule, acceptor atom, score
      L1  H    13    32       P1  8028  0.99
      P1  H  7989  7998       L1    14  0.27
      P1  H  8011  8017       L1    13  0.23
      P1  H 10752 10763       L1    16  0.86

> <Gold.Chemscore.Hbond.Weighted>
-9.1944

> <Gold.Chemscore.Metal.Weighted>
-0.0000

> <Gold.Chemscore.Lipo.Weighted>
-5.1529

> <Gold.Chemscore.Internal_Hbond.Weighted>
0.0000

> <Gold.Chemscore.DEClash.Weighted>
0.1214

> <Gold.Chemscore.DEInternal.Weighted>
2.0539

> <Gold.Chemscore.Rot.Weighted>
7.0461

> <Gold.Chemscore.Internal.Correction.Weighted>
   9.000000E+99

> <Gold.Protein.RotatedTorsions>
[ 6907 6896 6895 6894 ] final  116.91 input  -60.11 | X-H torsion
[ 7974 7965 7964 7962 ] final  126.69 input  175.53 | X-H torsion
[ 8008 7997 7996 7995 ] final  135.21 input   59.86 | X-H torsion
[ 10167 10162 10161 10158 ] final  -48.70 input  -65.29 | X-H torsion
[ 10718 10713 10712 10709 ] final  163.54 input   66.30 | X-H torsion
[ 10763 10752 10751 10750 ] final  100.52 input  -60.55 | X-H torsion
[ 11005 11000 10999 10996 ] final -156.29 input  -57.11 | X-H torsion

> <Gold.Protein.ActiveResidues>
 VAL166  LYS551  ARG553  GLY616  TRP617  ASP618  TYR619  PRO620  LYS621  CYS622 
 ASP623  PHE694  ASN695  SER759  ASP760  ASP761  ALA762  ILE779  LEU786  VAL792 
 PHE793  MET794  SER795  GLU796  ALA797  LYS798  CYS799  TRP800  GLU811  SER814 

> <Gold.Protein.RotatedAtoms>
  152.4647  133.7897  159.6894 H   0  0  0  0  0  0  0  0  0  0  0  0  # atno 6907 bound_to 6896
  150.8606  133.7639  159.3000 H   0  0  0  0  0  0  0  0  0  0  0  0  # atno 6908 bound_to 6896
  151.5206  135.1070  159.9929 H   0  0  0  0  0  0  0  0  0  0  0  0  # atno 6909 bound_to 6896
  145.0589  139.3821  143.5016 H   0  0  0  0  0  0  0  0  0  0  0  0  # atno 7974 bound_to 7965
  156.3002  140.2476  156.3545 H   0  0  0  0  0  0  0  0  0  0  0  0  # atno 8008 bound_to 7997
  154.8935  140.0408  157.1871 H   0  0  0  0  0  0  0  0  0  0  0  0  # atno 8009 bound_to 7997
  154.8573  140.2915  155.5565 H   0  0  0  0  0  0  0  0  0  0  0  0  # atno 8010 bound_to 7997
  140.6719  143.2729  151.4108 H   0  0  0  0  0  0  0  0  0  0  0  0  # atno 10167 bound_to 10162
  157.1071  131.0458  151.2473 H   0  0  0  0  0  0  0  0  0  0  0  0  # atno 10718 bound_to 10713
  153.3149  135.4076  155.1368 H   0  0  0  0  0  0  0  0  0  0  0  0  # atno 10763 bound_to 10752
  154.8586  135.3573  154.5673 H   0  0  0  0  0  0  0  0  0  0  0  0  # atno 10764 bound_to 10752
  153.6104  135.7068  153.5408 H   0  0  0  0  0  0  0  0  0  0  0  0  # atno 10765 bound_to 10752
  140.6772  134.4183  157.5228 H   0  0  0  0  0  0  0  0  0  0  0  0  # atno 11005 bound_to 11000
  146.3523  140.0277  142.8653 LP  0  0  0  0  0  0  0  0  0  0  0  0  # atno 17320 bound_to 7965
  145.1433  140.9583  143.4475 LP  0  0  0  0  0  0  0  0  0  0  0  0  # atno 17321 bound_to 7965
  139.5992  144.1333  152.2178 LP  0  0  0  0  0  0  0  0  0  0  0  0  # atno 17342 bound_to 10162
  140.0711  144.5778  150.7191 LP  0  0  0  0  0  0  0  0  0  0  0  0  # atno 17343 bound_to 10162
  157.4591  130.7643  149.7220 LP  0  0  0  0  0  0  0  0  0  0  0  0  # atno 17370 bound_to 10713
  155.9859  130.3979  150.3237 LP  0  0  0  0  0  0  0  0  0  0  0  0  # atno 17371 bound_to 10713
  139.8963  134.8663  156.2094 LP  0  0  0  0  0  0  0  0  0  0  0  0  # atno 17394 bound_to 11000
  141.0346  133.6970  156.1489 LP  0  0  0  0  0  0  0  0  0  0  0  0  # atno 17395 bound_to 11000

$$$$
