AV-unprocessed.smi:1645|AV-procd|sdf|6602|dock7
  -GOLD-   22720 7303D 1   1.00000     0.00000
 Structure written by MMmdl.
 55 58  0  0  0  0  0  0  0  0  2 V2000
  147.9885  135.4246  155.8767 O   0  0  0  0  0  0  0  0  0  0  0  0
  148.4003  135.6206  154.7338 C   0  0  0  0  0  0  0  0  0  0  0  0
  149.1251  136.6812  154.3397 N   0  0  0  0  0  0  0  0  0  0  0  0
  149.6365  137.7432  155.1329 C   0  0  0  0  0  0  0  0  0  0  0  0
  149.7332  137.7073  156.5432 C   0  0  0  0  0  0  0  0  0  0  0  0
  150.2874  138.8127  157.2168 C   0  0  0  0  0  0  0  0  0  0  0  0
  150.7394  139.9252  156.4688 C   0  0  0  0  0  0  0  0  0  0  0  0
  151.3063  141.0388  157.1267 N   0  0  0  0  0  0  0  0  0  0  0  0
  151.7666  140.8523  158.5054 C   0  0  0  0  0  0  0  0  0  0  0  0
  152.6812  142.0071  158.9484 C   0  0  0  0  0  0  0  0  0  0  0  0
  151.9989  143.3657  158.7336 C   0  0  0  0  0  0  0  0  0  0  0  0
  151.5468  143.5013  157.2723 C   0  0  0  0  0  0  0  0  0  0  0  0
  150.6517  142.3211  156.8576 C   0  0  0  0  0  0  0  0  0  0  0  0
  150.6477  139.9540  155.1166 N   0  0  0  0  0  0  0  0  0  0  0  0
  150.1189  138.8916  154.4747 C   0  0  0  0  0  0  0  0  0  0  0  0
  148.1510  134.7945  153.7080 N   0  0  0  0  0  0  0  0  0  0  0  0
  147.3815  133.5566  153.7956 C   0  0  2  0  0  0  0  0  0  0  0  0
  148.2288  132.3403  154.1843 C   0  0  0  0  0  0  0  0  0  0  0  0
  147.5147  131.1827  153.4893 C   0  0  0  0  0  0  0  0  0  0  0  0
  147.0984  131.7680  152.2069 N   0  3  1  0  0  0  0  0  0  0  0  0
  146.2456  130.9349  151.3199 C   0  0  0  0  0  0  0  0  0  0  0  0
  144.7441  131.1397  151.5507 C   0  0  0  0  0  0  0  0  0  0  0  0
  144.3993  132.6264  151.4565 C   0  0  0  0  0  0  0  0  0  0  0  0
  145.1662  133.3743  152.5472 C   0  0  0  0  0  0  0  0  0  0  0  0
  146.7011  133.1824  152.4521 C   0  0  1  0  0  0  0  0  0  0  0  0
  149.3032  136.7585  153.3491 H   0  0  0  0  0  0  0  0  0  0  0  0
  149.4094  136.8540  157.1185 H   0  0  0  0  0  0  0  0  0  0  0  0
  150.3526  138.7980  158.2947 H   0  0  0  0  0  0  0  0  0  0  0  0
  150.9008  140.7882  159.1661 H   0  0  0  0  0  0  0  0  0  0  0  0
  152.3120  139.9120  158.5958 H   0  0  0  0  0  0  0  0  0  0  0  0
  152.9527  141.8861  159.9972 H   0  0  0  0  0  0  0  0  0  0  0  0
  153.6120  141.9727  158.3809 H   0  0  0  0  0  0  0  0  0  0  0  0
  151.1369  143.4532  159.3961 H   0  0  0  0  0  0  0  0  0  0  0  0
  152.6799  144.1759  158.9954 H   0  0  0  0  0  0  0  0  0  0  0  0
  151.0130  144.4416  157.1323 H   0  0  0  0  0  0  0  0  0  0  0  0
  152.4211  143.5414  156.6212 H   0  0  0  0  0  0  0  0  0  0  0  0
  150.3932  142.4296  155.8051 H   0  0  0  0  0  0  0  0  0  0  0  0
  149.7138  142.3541  157.4137 H   0  0  0  0  0  0  0  0  0  0  0  0
  150.0777  138.9647  153.3977 H   0  0  0  0  0  0  0  0  0  0  0  0
  148.5270  135.0359  152.8028 H   0  0  0  0  0  0  0  0  0  0  0  0
  146.6308  133.6750  154.5795 H   0  0  0  0  0  0  0  0  0  0  0  0
  149.2408  132.4365  153.7870 H   0  0  0  0  0  0  0  0  0  0  0  0
  148.3041  132.2033  155.2634 H   0  0  0  0  0  0  0  0  0  0  0  0
  148.1613  130.3156  153.3511 H   0  0  0  0  0  0  0  0  0  0  0  0
  146.6355  130.8743  154.0574 H   0  0  0  0  0  0  0  0  0  0  0  0
  146.4821  131.2094  150.2910 H   0  0  0  0  0  0  0  0  0  0  0  0
  146.5137  129.8827  151.4237 H   0  0  0  0  0  0  0  0  0  0  0  0
  144.1757  130.5771  150.8093 H   0  0  0  0  0  0  0  0  0  0  0  0
  144.4562  130.7470  152.5268 H   0  0  0  0  0  0  0  0  0  0  0  0
  144.6569  133.0180  150.4715 H   0  0  0  0  0  0  0  0  0  0  0  0
  143.3264  132.7728  151.5854 H   0  0  0  0  0  0  0  0  0  0  0  0
  144.9247  134.4368  152.5089 H   0  0  0  0  0  0  0  0  0  0  0  0
  144.8014  133.0170  153.5112 H   0  0  0  0  0  0  0  0  0  0  0  0
  147.0896  133.7733  151.6210 H   0  0  0  0  0  0  0  0  0  0  0  0
  147.9725  131.8442  151.7069 H   0  0  0  0  0  0  0  0  0  0  0  0
  1  2  2  0  0  0  0
  2  3  1  0  0  0  0
  2 16  1  0  0  0  0
  3  4  1  0  0  0  0
  3 26  1  0  0  0  0
  4 15  1  0  0  0  0
  4  5  2  0  0  0  0
  5  6  1  0  0  0  0
  5 27  1  0  0  0  0
  6  7  2  0  0  0  0
  6 28  1  0  0  0  0
  7  8  1  0  0  0  0
  7 14  1  0  0  0  0
  8 13  1  0  0  0  0
  8  9  1  0  0  0  0
  9 10  1  0  0  0  0
  9 29  1  0  0  0  0
  9 30  1  0  0  0  0
 10 11  1  0  0  0  0
 10 31  1  0  0  0  0
 10 32  1  0  0  0  0
 11 12  1  0  0  0  0
 11 33  1  0  0  0  0
 11 34  1  0  0  0  0
 12 13  1  0  0  0  0
 12 35  1  0  0  0  0
 12 36  1  0  0  0  0
 13 37  1  0  0  0  0
 13 38  1  0  0  0  0
 14 15  2  0  0  0  0
 15 39  1  0  0  0  0
 16 17  1  0  0  0  0
 16 40  1  0  0  0  0
 17 25  1  0  0  0  0
 17 18  1  0  0  0  0
 17 41  1  0  0  0  0
 18 19  1  0  0  0  0
 18 42  1  0  0  0  0
 18 43  1  0  0  0  0
 19 20  1  0  0  0  0
 19 44  1  0  0  0  0
 19 45  1  0  0  0  0
 20 25  1  0  0  0  0
 20 21  1  0  0  0  0
 20 55  1  0  0  0  0
 21 22  1  0  0  0  0
 21 46  1  0  0  0  0
 21 47  1  0  0  0  0
 22 23  1  0  0  0  0
 22 48  1  0  0  0  0
 22 49  1  0  0  0  0
 23 24  1  0  0  0  0
 23 50  1  0  0  0  0
 23 51  1  0  0  0  0
 24 25  1  0  0  0  0
 24 52  1  0  0  0  0
 24 53  1  0  0  0  0
 25 54  1  0  0  0  0
M  CHG  1  20   1
M  END
> <s_m_source_file>
AV-unprocessed.smi

> <i_m_source_file_index>
1645

> <i_lp_mmshare_version>
43012

> <i_f3d_flags>
0

> <s_epik_input>
W0NIMl0xW0NIMl1bQ0gyXVtDSDJdW0NASF0oTjEyKVtDQEBIXShbQ0gyXVtDSDJdMilbTkhdQyg9TylbTkhdYzNbY0hdW2NIXWMobltjSF0zKU40W0NIMl1bQ0gyXVtDSDJdW0NIMl1bQ0gyXTQ=

> <s_epik_cmdline>
J2VwaWtfcHl0aG9uJywgJy1waCcsICc3LjAnLCAnLXRuJywgJzgnLCAnLW1hJywgJzIwMCcsICctbWV0YWxfYmluZGluZycsICctaW1hZScsICc8aW5maWxlLm1hZT4nLCAnLW9tYWUnLCAnPG91dGZpbGUubWFlPic=

> <r_lp_tautomer_probability>
1

> <r_epik_Ionization_Penalty>
0.0808019

> <r_epik_Ionization_Penalty_Charging>
0.000974069

> <r_epik_Ionization_Penalty_Neutral>
0.0798278

> <r_epik_State_Penalty>
0.0653665

> <r_epik_Charging_Adjusted_Penalty>
0.0663406

> <i_epik_Tot_Q>
1

> <i_epik_Tot_abs_Q>
1

> <r_epik_Metal_State_Penalty>
0.0585673

> <b_epik_Metal_Only>
0

> <s_lp_Force_Field>
OPLS_2005

> <r_lp_Energy>
57.6774

> <b_lp_Chiralities_Consistent>
1

> <s_lp_Variant>
AV-unprocessed.smi:1645-3

> <Gold.Version>
5.8.1

> <Gold.Id.Protein>
6NUR|6NUR_protein|mol2

> <Gold.PLP.Fitness>
47.3324

> <Gold.PLP.PLP>
-34.4611

> <Gold.PLP.part.hbond>
-3.4637

> <Gold.PLP.part.metal>
0.0000

> <Gold.PLP.part.buried>
-2.2217

> <Gold.PLP.part.nonpolar>
-29.4097

> <Gold.PLP.part.repulsive>
0.1022

> <Gold.PLP.ligand.clash>
0.0000

> <Gold.PLP.ligand.torsion>
0.6641

> <Gold.PLP.Chemscore.Hbond>
3.5975

> <Gold.PLP.Chemscore.CHOScore>
1.0000

> <Gold.PLP.Chemscore.Metal>
0.0000

> <Gold.Chemscore.Hbonds>
donor molecule, donor type, donor heavy atom, donor atom, acceptor molecule, acceptor atom, score
      L1  H     3    26       P1  7948  0.98
      L1  H    16    40       P1  7948  0.93
      L1  H    20    55       P1 10747  0.78
      P1  H  7989  7998       L1    14  0.77
      L1  C    15    39       P1  7957  1.00

> <Gold.PLP.Chemscore.Internal.Correction>
0.4070

> <Gold.Rescore>
     Score         DG    S(hbond)    S(metal)    S(lipo)     H(rot)  DE(clash)    DE(int)     intcor
     21.78     -24.18       2.67        0.00     109.25       1.17       0.64       1.76       ----

> <Gold.Chemscore.Fitness>
21.7793

> <Gold.Chemscore.DG>
-24.1835

> <Gold.Chemscore.ZeroCoef>
-5.4800

> <Gold.Chemscore.Hbond>
2.6720

> <Gold.Chemscore.Metal>
0.0000

> <Gold.Chemscore.Lipo>
109.2492

> <Gold.Chemscore.Internal_Hbond>
0.0000

> <Gold.Chemscore.DEClash>
0.6412

> <Gold.Chemscore.DEInternal>
1.7630

> <Gold.Chemscore.Rot>
1.1731

> <Gold.Chemscore.Internal.Correction>
   9.000000E+99

> <Gold.Chemscore.Hbonds>
donor molecule, donor type, donor heavy atom, donor atom, acceptor molecule, acceptor atom, score
      L1  H     3    26       P1  7948  0.86
      L1  H    16    40       P1  7948  0.47
      L1  H    20    55       P1 10747  0.75
      P1  H  7989  7998       L1    14  0.17

> <Gold.Chemscore.Hbond.Weighted>
-8.9246

> <Gold.Chemscore.Metal.Weighted>
-0.0000

> <Gold.Chemscore.Lipo.Weighted>
-12.7822

> <Gold.Chemscore.Internal_Hbond.Weighted>
0.0000

> <Gold.Chemscore.DEClash.Weighted>
0.6412

> <Gold.Chemscore.DEInternal.Weighted>
1.7630

> <Gold.Chemscore.Rot.Weighted>
3.0032

> <Gold.Chemscore.Internal.Correction.Weighted>
   9.000000E+99

> <Gold.Protein.RotatedTorsions>
[ 6907 6896 6895 6894 ] final  113.12 input  -60.11 | X-H torsion
[ 7974 7965 7964 7962 ] final  -79.29 input  175.53 | X-H torsion
[ 8008 7997 7996 7995 ] final   70.85 input   59.86 | X-H torsion
[ 10167 10162 10161 10158 ] final  176.16 input  -65.29 | X-H torsion
[ 10718 10713 10712 10709 ] final  -22.05 input   66.30 | X-H torsion
[ 10763 10752 10751 10750 ] final   62.20 input  -60.55 | X-H torsion
[ 11005 11000 10999 10996 ] final   12.19 input  -57.11 | X-H torsion

> <Gold.Protein.ActiveResidues>
 VAL166  LYS551  ARG553  GLY616  TRP617  ASP618  TYR619  PRO620  LYS621  CYS622 
 ASP623  PHE694  ASN695  SER759  ASP760  ASP761  ALA762  ILE779  LEU786  VAL792 
 PHE793  MET794  SER795  GLU796  ALA797  LYS798  CYS799  TRP800  GLU811  SER814 

> <Gold.Protein.RotatedAtoms>
  152.4878  133.8420  159.7156 H   0  0  0  0  0  0  0  0  0  0  0  0  # atno 6907 bound_to 6896
  150.8980  133.7146  159.2893 H   0  0  0  0  0  0  0  0  0  0  0  0  # atno 6908 bound_to 6896
  151.4596  135.1041  159.9773 H   0  0  0  0  0  0  0  0  0  0  0  0  # atno 6909 bound_to 6896
  145.5751  140.9459  143.1374 H   0  0  0  0  0  0  0  0  0  0  0  0  # atno 7974 bound_to 7965
  155.7450  140.3489  155.5122 H   0  0  0  0  0  0  0  0  0  0  0  0  # atno 8008 bound_to 7997
  155.9058  140.1042  157.1337 H   0  0  0  0  0  0  0  0  0  0  0  0  # atno 8009 bound_to 7997
  154.4049  140.1277  156.4481 H   0  0  0  0  0  0  0  0  0  0  0  0  # atno 8010 bound_to 7997
  139.5204  144.2947  152.0432 H   0  0  0  0  0  0  0  0  0  0  0  0  # atno 10167 bound_to 10162
  156.5098  130.4607  149.6654 H   0  0  0  0  0  0  0  0  0  0  0  0  # atno 10718 bound_to 10713
  152.9975  135.5473  154.6155 H   0  0  0  0  0  0  0  0  0  0  0  0  # atno 10763 bound_to 10752
  154.5466  135.2823  155.1049 H   0  0  0  0  0  0  0  0  0  0  0  0  # atno 10764 bound_to 10752
  154.2305  135.6434  153.5226 H   0  0  0  0  0  0  0  0  0  0  0  0  # atno 10765 bound_to 10752
  140.4948  134.0805  155.7779 H   0  0  0  0  0  0  0  0  0  0  0  0  # atno 11005 bound_to 11000
  144.7419  139.7424  143.7307 LP  0  0  0  0  0  0  0  0  0  0  0  0  # atno 17320 bound_to 7965
  146.1756  139.4925  142.9899 LP  0  0  0  0  0  0  0  0  0  0  0  0  # atno 17321 bound_to 7965
  140.2397  144.4282  150.6265 LP  0  0  0  0  0  0  0  0  0  0  0  0  # atno 17342 bound_to 10162
  140.6299  143.2186  151.6518 LP  0  0  0  0  0  0  0  0  0  0  0  0  # atno 17343 bound_to 10162
  156.3251  130.7302  151.2221 LP  0  0  0  0  0  0  0  0  0  0  0  0  # atno 17370 bound_to 10713
  157.7452  131.0445  150.4796 LP  0  0  0  0  0  0  0  0  0  0  0  0  # atno 17371 bound_to 10713
  141.1466  133.9044  157.2201 LP  0  0  0  0  0  0  0  0  0  0  0  0  # atno 17394 bound_to 11000
  139.9748  135.0117  156.9603 LP  0  0  0  0  0  0  0  0  0  0  0  0  # atno 17395 bound_to 11000

$$$$
