#       Name:                AV-unprocessed.smi:1
#       Creating user name   scv26
#       Creation time:       Thu Mar 26 15:08:22 2020


#       File generated by GOLD software.
#

@<TRIPOS>MOLECULE
AV-unprocessed.smi:1
    66    71     1
SMALL
NO_CHARGES


@<TRIPOS>ATOM
      1 ****        -4.4561   1.3277  -0.6949 O.2            1 S1                 0.0000
      2 ****        -4.5193   0.0980  -0.7066 C.2            1 S1                 0.0000
      3 ****        -3.3317  -0.7378  -0.7187 N.am           1 S1                 0.0000
      4 ****        -2.0360  -0.3510  -0.6535 C.ar           1 S1                 0.0000
      5 ****        -1.6690   0.9503  -0.5134 N.ar           1 S1                 0.0000
      6 ****        -0.3760   1.2822  -0.4575 C.ar           1 S1                 0.0000
      7 ****         0.6923   0.4847  -0.5182 N.ar           1 S1                 0.0000
      8 ****         0.3325  -0.8237  -0.6533 C.ar           1 S1                 0.0000
      9 ****        -0.9995  -1.3178  -0.7271 C.ar           1 S1                 0.0000
     10 ****        -0.9811  -2.7002  -0.8622 N.2            1 S1                 0.0000
     11 ****         0.2902  -3.0006  -0.8675 C.2            1 S1                 0.0000
     12 ****         1.1492  -1.9315  -0.7444 N.pl3          1 S1                 0.0000
     13 ****         2.6397  -1.9584  -0.7152 C.3            1 S1                 0.0000
     14 ****         3.1363  -0.9557  -1.5393 O.3            1 S1                 0.0000
     15 ****         4.4266  -0.5676  -1.0686 C.3            1 S1                 0.0000
     16 ****         4.5507   0.9619  -1.1385 C.3            1 S1                 0.0000
     17 ****         3.6932   1.5612  -0.1796 O.3            1 S1                 0.0000
     18 ****         3.4739   2.8888  -0.1953 C.2            1 S1                 0.0000
     19 ****         3.9861   3.6576  -1.0115 O.2            1 S1                 0.0000
     20 ****         2.5321   3.3280   0.8739 C.ar           1 S1                 0.0000
     21 ****         2.0682   4.6637   0.8847 C.ar           1 S1                 0.0000
     22 ****         1.1655   5.1012   1.8734 C.ar           1 S1                 0.0000
     23 ****         0.7182   4.2086   2.8650 C.ar           1 S1                 0.0000
     24 ****         1.1773   2.8787   2.8690 C.ar           1 S1                 0.0000
     25 ****         2.0808   2.4403   1.8818 C.ar           1 S1                 0.0000
     26 ****         4.5800  -1.1557   0.3457 C.3            1 S1                 0.0000
     27 ****         5.4621  -2.2657   0.3189 O.3            1 S1                 0.0000
     28 ****         4.7996  -3.4979   1.2331 S.o2           1 S1                 0.0000
     29 ****         4.6771  -4.6889   0.3788 O.2            1 S1                 0.0000
     30 ****         5.4805  -3.5235   2.5364 O.2            1 S1                 0.0000
     31 ****         3.2751  -2.8514   1.4534 O.3            1 S1                 0.0000
     32 ****         3.1755  -1.6678   0.6830 C.3            1 S1                 0.0000
     33 ****        -5.8325  -0.6234  -0.7970 C.ar           1 S1                 0.0000
     34 ****        -6.9378  -0.0029  -1.4214 C.ar           1 S1                 0.0000
     35 ****        -8.1781  -0.6662  -1.4986 C.ar           1 S1                 0.0000
     36 ****        -8.3258  -1.9520  -0.9453 C.ar           1 S1                 0.0000
     37 ****        -7.2332  -2.5725  -0.3107 C.ar           1 S1                 0.0000
     38 ****        -5.9922  -1.9105  -0.2332 C.ar           1 S1                 0.0000
     39 ****        -3.4936  -1.7326  -0.7784 H              1 S1                 0.0000
     40 ****        -0.1685   2.3365  -0.3470 H              1 S1                 0.0000
     41 ****         0.6388  -4.0192  -0.9581 H              1 S1                 0.0000
     42 ****         2.9270  -2.9374  -1.1020 H              1 S1                 0.0000
     43 ****         5.1703  -1.0081  -1.7339 H              1 S1                 0.0000
     44 ****         5.5782   1.2628  -0.9310 H              1 S1                 0.0000
     45 ****         4.3044   1.3078  -2.1433 H              1 S1                 0.0000
     46 ****         2.3941   5.3655   0.1305 H              1 S1                 0.0000
     47 ****         0.8147   6.1226   1.8697 H              1 S1                 0.0000
     48 ****         0.0247   4.5441   3.6219 H              1 S1                 0.0000
     49 ****         0.8361   2.1923   3.6298 H              1 S1                 0.0000
     50 ****         2.4121   1.4129   1.9130 H              1 S1                 0.0000
     51 ****         4.9431  -0.4355   1.0801 H              1 S1                 0.0000
     52 ****         2.5774  -0.8992   1.1727 H              1 S1                 0.0000
     53 ****        -6.8407   0.9839  -1.8507 H              1 S1                 0.0000
     54 ****        -9.0168  -0.1871  -1.9819 H              1 S1                 0.0000
     55 ****        -9.2770  -2.4600  -1.0044 H              1 S1                 0.0000
     56 ****        -7.3479  -3.5564   0.1196 H              1 S1                 0.0000
     57 ****        -5.1694  -2.4010   0.2664 H              1 S1                 0.0000
     58 ****        -3.5656   1.7826  -0.6935 LP             1 S1                 0.0000
     59 ****        -5.2953   1.8714  -0.6868 LP             1 S1                 0.0000
     60 ****        -2.3692   1.6616  -0.4519 LP             1 S1                 0.0000
     61 ****         1.6380   0.8062  -0.4706 LP             1 S1                 0.0000
     62 ****        -1.7608  -3.3218  -0.9379 LP             1 S1                 0.0000
     63 ****         2.5204  -0.1682  -1.5183 LP             1 S1                 0.0000
     64 ****         3.2094  -1.2969  -2.4764 LP             1 S1                 0.0000
     65 ****         4.6038   3.3027  -1.7133 LP             1 S1                 0.0000
     66 ****         3.7839   4.6361  -0.9718 LP             1 S1                 0.0000
@<TRIPOS>BOND
    1    1    2 2     
    2    2    3 am    
    3    2   33 1     
    4    3    4 1     
    5    3   39 1     
    6    4    9 ar    
    7    4    5 ar    
    8    5    6 ar    
    9    6    7 ar    
   10    6   40 1     
   11    7    8 ar    
   12    8   12 1     
   13    8    9 ar    
   14    9   10 1     
   15   10   11 2     
   16   11   12 1     
   17   11   41 1     
   18   12   13 1     
   19   13   32 1     
   20   13   14 1     
   21   13   42 1     
   22   14   15 1     
   23   15   16 1     
   24   15   26 1     
   25   15   43 1     
   26   16   17 1     
   27   16   44 1     
   28   16   45 1     
   29   17   18 1     
   30   18   19 2     
   31   18   20 1     
   32   20   25 ar    
   33   20   21 ar    
   34   21   22 ar    
   35   21   46 1     
   36   22   23 ar    
   37   22   47 1     
   38   23   24 ar    
   39   23   48 1     
   40   24   25 ar    
   41   24   49 1     
   42   25   50 1     
   43   26   32 1     
   44   26   27 1     
   45   26   51 1     
   46   27   28 1     
   47   28   29 2     
   48   28   30 2     
   49   28   31 1     
   50   31   32 1     
   51   32   52 1     
   52   33   38 ar    
   53   33   34 ar    
   54   34   35 ar    
   55   34   53 1     
   56   35   36 ar    
   57   35   54 1     
   58   36   37 ar    
   59   36   55 1     
   60   37   38 ar    
   61   37   56 1     
   62   38   57 1     
   63    1   58 1     
   64    1   59 1     
   65    5   60 1     
   66    7   61 1     
   67   10   62 1     
   68   14   63 1     
   69   14   64 1     
   70   19   65 1     
   71   19   66 1     
@<TRIPOS>SUBSTRUCTURE
      1 S1             1
@<TRIPOS>SET
LONE_PAIRS      STATIC     ATOMS    <user>   **** ""
11 58 59 60 61 62 63 64 65 66 29 30
DONOR_HYDROGENS      STATIC     ATOMS    <user>   **** ""
1 39
ATOM$BLUE        STATIC     ATOMS    COLORGROUP SYSTEM
11 58 59 60 61 62 63 64 65 66 29 30
ATOM$RED        STATIC     ATOMS    COLORGROUP SYSTEM
1 39
