#       Name:                AV-unprocessed.smi:530
#       Creating user name   scv26
#       Creation time:       Thu Mar 26 23:33:37 2020


#       File generated by GOLD software.
#

@<TRIPOS>MOLECULE
AV-unprocessed.smi:530
    38    40     1
SMALL
NO_CHARGES


@<TRIPOS>ATOM
      1 ****        -1.1347   1.1795  -2.8959 C.3            1 S1                 0.0000
      2 ****        -1.2830   1.6321  -1.4822 C.2            1 S1                 0.0000
      3 ****        -1.7396   2.8489  -1.0726 N.pl3          1 S1                 1.0000
      4 ****        -1.7425   2.9070   0.3218 C.ar           1 S1                 0.0000
      5 ****        -2.1191   3.9274   1.1898 C.ar           1 S1                 0.0000
      6 ****        -1.9984   3.6614   2.5696 C.ar           1 S1                 0.0000
      7 ****        -1.5172   2.4219   3.0387 C.ar           1 S1                 0.0000
      8 ****        -1.1373   1.3955   2.1491 C.ar           1 S1                 0.0000
      9 ****        -1.2626   1.6648   0.7861 C.ar           1 S1                 0.0000
     10 ****        -0.9919   0.9108  -0.3625 N.pl3          1 S1                 0.0000
     11 ****        -0.4695  -0.4590  -0.2324 C.3            1 S1                 0.0000
     12 ****         1.0675  -0.5304  -0.3327 C.3            1 S1                 0.0000
     13 ****         1.6609   0.2740   0.6684 O.3            1 S1                 0.0000
     14 ****         1.5544  -1.9699  -0.2780 C.ar           1 S1                 0.0000
     15 ****         1.6446  -2.6528   0.9554 C.ar           1 S1                 0.0000
     16 ****         2.0866  -3.9895   0.9963 C.ar           1 S1                 0.0000
     17 ****         2.4384  -4.6522  -0.1951 C.ar           1 S1                 0.0000
     18 ****         2.3468  -3.9779  -1.4278 C.ar           1 S1                 0.0000
     19 ****         1.9053  -2.6409  -1.4693 C.ar           1 S1                 0.0000
     20 ****        -1.4294   1.9712  -3.5852 H              1 S1                 0.0000
     21 ****        -1.7637   0.3082  -3.0793 H              1 S1                 0.0000
     22 ****        -0.0981   0.9105  -3.0988 H              1 S1                 0.0000
     23 ****        -2.4863   4.8782   0.8328 H              1 S1                 0.0000
     24 ****        -2.2793   4.4236   3.2820 H              1 S1                 0.0000
     25 ****        -1.4364   2.2545   4.1031 H              1 S1                 0.0000
     26 ****        -0.7637   0.4528   2.5207 H              1 S1                 0.0000
     27 ****        -0.8269  -0.8947   0.7007 H              1 S1                 0.0000
     28 ****        -0.9187  -1.0504  -1.0310 H              1 S1                 0.0000
     29 ****         1.3740  -0.1053  -1.2893 H              1 S1                 0.0000
     30 ****         2.5964   0.2767   0.5333 H              1 S1                 0.0000
     31 ****         1.3727  -2.1550   1.8749 H              1 S1                 0.0000
     32 ****         2.1540  -4.5073   1.9417 H              1 S1                 0.0000
     33 ****         2.7764  -5.6776  -0.1637 H              1 S1                 0.0000
     34 ****         2.6139  -4.4868  -2.3423 H              1 S1                 0.0000
     35 ****         1.8356  -2.1341  -2.4207 H              1 S1                 0.0000
     36 ****        -2.0282   3.5852  -1.7040 H              1 S1                 0.0000
     37 ****         1.4511  -0.1011   1.5713 LP             1 S1                 0.0000
     38 ****         1.3078   1.2074   0.6049 LP             1 S1                 0.0000
@<TRIPOS>BOND
    1    1    2 1     
    2    1   20 1     
    3    1   21 1     
    4    1   22 1     
    5    2   10 1     
    6    2    3 2     
    7    3    4 1     
    8    3   36 1     
    9    4    9 ar    
   10    4    5 ar    
   11    5    6 ar    
   12    5   23 1     
   13    6    7 ar    
   14    6   24 1     
   15    7    8 ar    
   16    7   25 1     
   17    8    9 ar    
   18    8   26 1     
   19    9   10 1     
   20   10   11 1     
   21   11   12 1     
   22   11   27 1     
   23   11   28 1     
   24   12   13 1     
   25   12   14 1     
   26   12   29 1     
   27   13   30 1     
   28   14   19 ar    
   29   14   15 ar    
   30   15   16 ar    
   31   15   31 1     
   32   16   17 ar    
   33   16   32 1     
   34   17   18 ar    
   35   17   33 1     
   36   18   19 ar    
   37   18   34 1     
   38   19   35 1     
   39   13   37 1     
   40   13   38 1     
@<TRIPOS>SUBSTRUCTURE
      1 S1             1
@<TRIPOS>SET
LONE_PAIRS      STATIC     ATOMS    <user>   **** ""
2 37 38
DONOR_HYDROGENS      STATIC     ATOMS    <user>   **** ""
2 36 30
ATOM$BLUE        STATIC     ATOMS    COLORGROUP SYSTEM
2 37 38
ATOM$RED        STATIC     ATOMS    COLORGROUP SYSTEM
2 36 30
