AV-unprocessed.smi:308|AV-procd|sdf|2288|dock2
  -GOLD-   2262022183D 1   1.00000     0.00000
 Structure written by MMmdl.
 50 51  0  0  0  0  0  0  0  0  2 V2000
  144.1802  133.2455  150.9459 C   0  0  0  0  0  0  0  0  0  0  0  0
  145.4445  134.0534  150.6040 C   0  0  2  0  0  0  0  0  0  0  0  0
  146.7204  133.4514  151.2195 C   0  0  0  0  0  0  0  0  0  0  0  0
  146.8078  133.6965  152.7369 C   0  0  0  0  0  0  0  0  0  0  0  0
  146.7052  135.1434  153.0591 N   0  3  2  0  0  0  0  0  0  0  0  0
  146.9108  135.4088  154.5054 C   0  0  0  0  0  0  0  0  0  0  0  0
  148.4004  135.4030  154.9005 C   0  0  0  0  0  0  0  0  0  0  0  0
  149.0010  136.7232  154.7460 N   0  0  0  0  0  0  0  0  0  0  0  0
  149.4260  137.4937  155.7575 C   0  0  0  0  0  0  0  0  0  0  0  0
  149.3604  137.1530  156.9386 O   0  0  0  0  0  0  0  0  0  0  0  0
  149.9067  138.6659  155.3091 N   0  0  0  0  0  0  0  0  0  0  0  0
  150.4333  139.7513  156.0603 C   0  0  0  0  0  0  0  0  0  0  0  0
  150.3664  141.1062  155.6623 C   0  0  0  0  0  0  0  0  0  0  0  0
  150.9169  142.0936  156.5021 C   0  0  0  0  0  0  0  0  0  0  0  0
  151.5165  141.7093  157.7273 C   0  0  0  0  0  0  0  0  0  0  0  0
  152.0870  142.6635  158.6008 N   0  0  0  0  0  0  0  0  0  0  0  0
  152.7856  142.2211  159.8033 C   0  0  0  0  0  0  0  0  0  0  0  0
  152.0559  144.0804  158.2595 C   0  0  0  0  0  0  0  0  0  0  0  0
  151.5607  140.4098  158.1103 N   0  0  0  0  0  0  0  0  0  0  0  0
  151.0323  139.4672  157.3029 C   0  0  0  0  0  0  0  0  0  0  0  0
  145.4460  135.7330  152.5305 C   0  0  0  0  0  0  0  0  0  0  0  0
  145.3333  135.5345  151.0082 C   0  0  0  0  0  0  0  0  0  0  0  0
  143.9820  133.2221  152.0171 H   0  0  0  0  0  0  0  0  0  0  0  0
  144.2735  132.2136  150.6064 H   0  0  0  0  0  0  0  0  0  0  0  0
  143.3023  133.6702  150.4583 H   0  0  0  0  0  0  0  0  0  0  0  0
  145.5509  134.0143  149.5191 H   0  0  0  0  0  0  0  0  0  0  0  0
  146.7735  132.3827  151.0091 H   0  0  0  0  0  0  0  0  0  0  0  0
  147.5926  133.8968  150.7389 H   0  0  0  0  0  0  0  0  0  0  0  0
  146.0241  133.1474  153.2607 H   0  0  0  0  0  0  0  0  0  0  0  0
  147.7594  133.3071  153.1011 H   0  0  0  0  0  0  0  0  0  0  0  0
  146.4340  136.3533  154.7722 H   0  0  0  0  0  0  0  0  0  0  0  0
  146.4076  134.6361  155.0884 H   0  0  0  0  0  0  0  0  0  0  0  0
  148.5058  135.1035  155.9436 H   0  0  0  0  0  0  0  0  0  0  0  0
  148.9704  134.6835  154.3124 H   0  0  0  0  0  0  0  0  0  0  0  0
  149.0856  137.0812  153.8056 H   0  0  0  0  0  0  0  0  0  0  0  0
  149.8250  138.8294  154.3162 H   0  0  0  0  0  0  0  0  0  0  0  0
  149.8950  141.4113  154.7413 H   0  0  0  0  0  0  0  0  0  0  0  0
  150.8633  143.1257  156.1910 H   0  0  0  0  0  0  0  0  0  0  0  0
  153.6505  141.6110  159.5407 H   0  0  0  0  0  0  0  0  0  0  0  0
  152.1230  141.6300  160.4367 H   0  0  0  0  0  0  0  0  0  0  0  0
  153.1389  143.0675  160.3924 H   0  0  0  0  0  0  0  0  0  0  0  0
  151.0288  144.4453  158.2368 H   0  0  0  0  0  0  0  0  0  0  0  0
  152.5105  144.2514  157.2832 H   0  0  0  0  0  0  0  0  0  0  0  0
  152.6054  144.6764  158.9882 H   0  0  0  0  0  0  0  0  0  0  0  0
  151.0972  138.4499  157.6608 H   0  0  0  0  0  0  0  0  0  0  0  0
  144.5899  135.2859  153.0375 H   0  0  0  0  0  0  0  0  0  0  0  0
  145.4080  136.8001  152.7445 H   0  0  0  0  0  0  0  0  0  0  0  0
  146.1280  136.0991  150.5185 H   0  0  0  0  0  0  0  0  0  0  0  0
  144.3958  135.9565  150.6442 H   0  0  0  0  0  0  0  0  0  0  0  0
  147.4680  135.5928  152.5730 H   0  0  0  0  0  0  0  0  0  0  0  0
  1  2  1  0  0  0  0
  1 23  1  0  0  0  0
  1 24  1  0  0  0  0
  1 25  1  0  0  0  0
  2 22  1  0  0  0  0
  2  3  1  0  0  0  0
  2 26  1  0  0  0  0
  3  4  1  0  0  0  0
  3 27  1  0  0  0  0
  3 28  1  0  0  0  0
  4  5  1  0  0  0  0
  4 29  1  0  0  0  0
  4 30  1  0  0  0  0
  5  6  1  0  0  0  0
  5 21  1  0  0  0  0
  5 50  1  0  0  0  0
  6  7  1  0  0  0  0
  6 31  1  0  0  0  0
  6 32  1  0  0  0  0
  7  8  1  0  0  0  0
  7 33  1  0  0  0  0
  7 34  1  0  0  0  0
  8  9  1  0  0  0  0
  8 35  1  0  0  0  0
  9 10  2  0  0  0  0
  9 11  1  0  0  0  0
 11 12  1  0  0  0  0
 11 36  1  0  0  0  0
 12 20  1  0  0  0  0
 12 13  2  0  0  0  0
 13 14  1  0  0  0  0
 13 37  1  0  0  0  0
 14 15  2  0  0  0  0
 14 38  1  0  0  0  0
 15 16  1  0  0  0  0
 15 19  1  0  0  0  0
 16 17  1  0  0  0  0
 16 18  1  0  0  0  0
 17 39  1  0  0  0  0
 17 40  1  0  0  0  0
 17 41  1  0  0  0  0
 18 42  1  0  0  0  0
 18 43  1  0  0  0  0
 18 44  1  0  0  0  0
 19 20  2  0  0  0  0
 20 45  1  0  0  0  0
 21 22  1  0  0  0  0
 21 46  1  0  0  0  0
 21 47  1  0  0  0  0
 22 48  1  0  0  0  0
 22 49  1  0  0  0  0
M  CHG  1   5   1
M  END
> <s_m_source_file>
AV-unprocessed.smi

> <i_m_source_file_index>
308

> <i_lp_mmshare_version>
43012

> <i_f3d_flags>
0

> <s_epik_input>
W0NIM11bQ0hdMVtDSDJdW0NIMl1OKFtDSDJdW0NIMl0xKVtDSDJdW0NIMl1bTkhdQyg9TylbTkhdYzJbY0hdW2NIXWMoTihbQ0gzXSlbQ0gzXSluW2NIXTI=

> <s_epik_cmdline>
J2VwaWtfcHl0aG9uJywgJy1waCcsICc3LjAnLCAnLXRuJywgJzgnLCAnLW1hJywgJzIwMCcsICctbWV0YWxfYmluZGluZycsICctaW1hZScsICc8aW5maWxlLm1hZT4nLCAnLW9tYWUnLCAnPG91dGZpbGUubWFlPic=

> <r_lp_tautomer_probability>
1

> <r_epik_Ionization_Penalty>
0.536661

> <r_epik_Ionization_Penalty_Charging>
0.00139388

> <r_epik_Ionization_Penalty_Neutral>
0.535267

> <r_epik_State_Penalty>
0.543381

> <r_epik_Charging_Adjusted_Penalty>
0.544775

> <i_epik_Tot_Q>
1

> <i_epik_Tot_abs_Q>
1

> <r_epik_Metal_State_Penalty>
0.284523

> <b_epik_Metal_Only>
0

> <s_lp_Force_Field>
OPLS_2005

> <r_lp_Energy>
22.9976

> <b_lp_Chiralities_Consistent>
1

> <s_lp_Variant>
AV-unprocessed.smi:308-4

> <Gold.Version>
5.8.1

> <Gold.Id.Protein>
6NUR|6NUR_protein|mol2

> <Gold.PLP.Fitness>
44.3613

> <Gold.PLP.PLP>
-37.4699

> <Gold.PLP.part.hbond>
-2.0000

> <Gold.PLP.part.metal>
0.0000

> <Gold.PLP.part.buried>
-3.6430

> <Gold.PLP.part.nonpolar>
-31.0234

> <Gold.PLP.part.repulsive>
0.0350

> <Gold.PLP.ligand.clash>
0.0000

> <Gold.PLP.ligand.torsion>
0.6230

> <Gold.PLP.Chemscore.Hbond>
2.6903

> <Gold.PLP.Chemscore.CHOScore>
0.0000

> <Gold.PLP.Chemscore.Metal>
0.0000

> <Gold.Chemscore.Hbonds>
donor molecule, donor type, donor heavy atom, donor atom, acceptor molecule, acceptor atom, score
      L1  H     5    50       P1  7948  2.00
      L1  H     8    35       P1  7948  0.57

> <Gold.PLP.Chemscore.Internal.Correction>
0.0665

> <Gold.Rescore>
     Score         DG    S(hbond)    S(metal)    S(lipo)     H(rot)  DE(clash)    DE(int)     intcor
     16.63     -18.42       1.88        0.00      88.20       1.42       0.00       1.79       ----

> <Gold.Chemscore.Fitness>
16.6281

> <Gold.Chemscore.DG>
-18.4182

> <Gold.Chemscore.ZeroCoef>
-5.4800

> <Gold.Chemscore.Hbond>
1.8756

> <Gold.Chemscore.Metal>
0.0000

> <Gold.Chemscore.Lipo>
88.1987

> <Gold.Chemscore.Internal_Hbond>
0.0000

> <Gold.Chemscore.DEClash>
0.0049

> <Gold.Chemscore.DEInternal>
1.7852

> <Gold.Chemscore.Rot>
1.4241

> <Gold.Chemscore.Internal.Correction>
   9.000000E+99

> <Gold.Chemscore.Hbonds>
donor molecule, donor type, donor heavy atom, donor atom, acceptor molecule, acceptor atom, score
      L1  H     5    50       P1  7948  1.00
      L1  H     8    35       P1  7948  0.55

> <Gold.Chemscore.Hbond.Weighted>
-6.2646

> <Gold.Chemscore.Metal.Weighted>
-0.0000

> <Gold.Chemscore.Lipo.Weighted>
-10.3192

> <Gold.Chemscore.Internal_Hbond.Weighted>
0.0000

> <Gold.Chemscore.DEClash.Weighted>
0.0049

> <Gold.Chemscore.DEInternal.Weighted>
1.7852

> <Gold.Chemscore.Rot.Weighted>
3.6456

> <Gold.Chemscore.Internal.Correction.Weighted>
   9.000000E+99

> <Gold.Protein.RotatedTorsions>
[ 6907 6896 6895 6894 ] final   82.10 input  -60.11 | X-H torsion
[ 7974 7965 7964 7962 ] final -161.59 input  175.53 | X-H torsion
[ 8008 7997 7996 7995 ] final  -91.18 input   59.86 | X-H torsion
[ 10167 10162 10161 10158 ] final  146.64 input  -65.29 | X-H torsion
[ 10718 10713 10712 10709 ] final  -54.63 input   66.30 | X-H torsion
[ 10763 10752 10751 10750 ] final -144.08 input  -60.55 | X-H torsion
[ 11005 11000 10999 10996 ] final  134.23 input  -57.11 | X-H torsion

> <Gold.Protein.ActiveResidues>
 VAL166  LYS551  ARG553  GLY616  TRP617  ASP618  TYR619  PRO620  LYS621  CYS622 
 ASP623  PHE694  ASN695  SER759  ASP760  ASP761  ALA762  ILE779  LEU786  VAL792 
 PHE793  MET794  SER795  GLU796  ALA797  LYS798  CYS799  TRP800  GLU811  SER814 

> <Gold.Protein.RotatedAtoms>
  152.5289  134.3102  159.9110 H   0  0  0  0  0  0  0  0  0  0  0  0  # atno 6907 bound_to 6896
  151.3052  133.4098  159.2650 H   0  0  0  0  0  0  0  0  0  0  0  0  # atno 6908 bound_to 6896
  151.0085  134.9395  159.8051 H   0  0  0  0  0  0  0  0  0  0  0  0  # atno 6909 bound_to 6896
  144.7386  140.3375  143.6141 H   0  0  0  0  0  0  0  0  0  0  0  0  # atno 7974 bound_to 7965
  154.7076  140.0522  157.0519 H   0  0  0  0  0  0  0  0  0  0  0  0  # atno 8008 bound_to 7997
  155.0599  140.3188  155.4645 H   0  0  0  0  0  0  0  0  0  0  0  0  # atno 8009 bound_to 7997
  156.2779  140.2100  156.5726 H   0  0  0  0  0  0  0  0  0  0  0  0  # atno 8010 bound_to 7997
  139.4903  144.5814  151.6864 H   0  0  0  0  0  0  0  0  0  0  0  0  # atno 10167 bound_to 10162
  156.1435  130.4153  150.0064 H   0  0  0  0  0  0  0  0  0  0  0  0  # atno 10718 bound_to 10713
  154.8443  135.3450  154.6289 H   0  0  0  0  0  0  0  0  0  0  0  0  # atno 10763 bound_to 10752
  153.6899  135.6975  153.5098 H   0  0  0  0  0  0  0  0  0  0  0  0  # atno 10764 bound_to 10752
  153.2603  135.4325  155.0843 H   0  0  0  0  0  0  0  0  0  0  0  0  # atno 10765 bound_to 10752
  139.9902  134.9518  156.9838 H   0  0  0  0  0  0  0  0  0  0  0  0  # atno 11005 bound_to 11000
  145.7408  139.1763  143.2377 LP  0  0  0  0  0  0  0  0  0  0  0  0  # atno 17320 bound_to 7965
  146.1135  140.7398  142.9491 LP  0  0  0  0  0  0  0  0  0  0  0  0  # atno 17321 bound_to 7965
  140.5421  144.0562  150.6092 LP  0  0  0  0  0  0  0  0  0  0  0  0  # atno 17342 bound_to 10162
  140.3588  143.2920  152.0407 LP  0  0  0  0  0  0  0  0  0  0  0  0  # atno 17343 bound_to 10162
  156.7942  130.9267  151.3646 LP  0  0  0  0  0  0  0  0  0  0  0  0  # atno 17370 bound_to 10713
  157.6596  130.8954  149.9801 LP  0  0  0  0  0  0  0  0  0  0  0  0  # atno 17371 bound_to 10713
  140.4923  134.1180  155.7235 LP  0  0  0  0  0  0  0  0  0  0  0  0  # atno 17394 bound_to 11000
  141.1559  133.8883  157.1978 LP  0  0  0  0  0  0  0  0  0  0  0  0  # atno 17395 bound_to 11000

$$$$
