AV-unprocessed.smi:3144|AV-procd|sdf|11978|dock6
  -GOLD-   2272017383D 1   1.00000     0.00000
 Structure written by MMmdl.
 40 41  0  0  0  0  0  0  0  0  2 V2000
  143.6000  144.0750  162.1519 C   0  0  0  0  0  0  0  0  0  0  0  0
  144.7682  143.7139  161.2799 C   0  0  0  0  0  0  0  0  0  0  0  0
  146.0833  143.3526  161.6885 C   0  0  0  0  0  0  0  0  0  0  0  0
  146.8855  143.0930  160.6685 N   0  0  0  0  0  0  0  0  0  0  0  0
  146.1137  143.2784  159.5772 N   0  0  0  0  0  0  0  0  0  0  0  0
  146.6778  143.0765  158.2570 C   0  0  0  0  0  0  0  0  0  0  0  0
  148.1329  142.5922  158.3304 C   0  0  0  0  0  0  0  0  0  0  0  0
  148.6475  142.2570  156.9890 N   0  3  0  0  0  0  0  0  0  0  0  0
  149.9970  141.6574  156.9952 C   0  0  0  0  0  0  0  0  0  0  0  0
  150.8752  142.2444  158.1155 C   0  0  0  0  0  0  0  0  0  0  0  0
  151.2587  143.7062  157.8052 C   0  0  0  0  0  0  0  0  0  0  0  0
  152.1316  144.3141  158.9153 C   0  0  0  0  0  0  0  0  0  0  0  0
  153.3907  143.4687  159.1582 C   0  0  0  0  0  0  0  0  0  0  0  0
  153.0244  142.0095  159.4673 C   0  0  0  0  0  0  0  0  0  0  0  0
  152.1504  141.4061  158.3556 C   0  0  0  0  0  0  0  0  0  0  0  0
  144.8309  143.6529  159.9163 C   0  0  0  0  0  0  0  0  0  0  0  0
  143.6378  143.5585  163.1113 H   0  0  0  0  0  0  0  0  0  0  0  0
  142.6499  143.8139  161.6854 H   0  0  0  0  0  0  0  0  0  0  0  0
  143.5728  145.1440  162.3634 H   0  0  0  0  0  0  0  0  0  0  0  0
  146.4764  143.2719  162.6913 H   0  0  0  0  0  0  0  0  0  0  0  0
  146.0590  142.3534  157.7231 H   0  0  0  0  0  0  0  0  0  0  0  0
  146.6156  144.0154  157.7052 H   0  0  0  0  0  0  0  0  0  0  0  0
  148.7608  143.3653  158.7754 H   0  0  0  0  0  0  0  0  0  0  0  0
  148.2045  141.7106  158.9690 H   0  0  0  0  0  0  0  0  0  0  0  0
  148.0090  141.6059  156.5545 H   0  0  0  0  0  0  0  0  0  0  0  0
  149.9177  140.5746  157.1029 H   0  0  0  0  0  0  0  0  0  0  0  0
  150.4605  141.8477  156.0260 H   0  0  0  0  0  0  0  0  0  0  0  0
  150.2891  142.2469  159.0364 H   0  0  0  0  0  0  0  0  0  0  0  0
  151.7946  143.7539  156.8562 H   0  0  0  0  0  0  0  0  0  0  0  0
  150.3596  144.3110  157.6809 H   0  0  0  0  0  0  0  0  0  0  0  0
  152.4145  145.3333  158.6499 H   0  0  0  0  0  0  0  0  0  0  0  0
  151.5539  144.3845  159.8380 H   0  0  0  0  0  0  0  0  0  0  0  0
  154.0322  143.5061  158.2769 H   0  0  0  0  0  0  0  0  0  0  0  0
  153.9701  143.8897  159.9805 H   0  0  0  0  0  0  0  0  0  0  0  0
  153.9318  141.4175  159.5900 H   0  0  0  0  0  0  0  0  0  0  0  0
  152.4925  141.9599  160.4184 H   0  0  0  0  0  0  0  0  0  0  0  0
  151.8882  140.3825  158.6244 H   0  0  0  0  0  0  0  0  0  0  0  0
  152.7300  141.3427  157.4338 H   0  0  0  0  0  0  0  0  0  0  0  0
  144.0759  143.8440  159.1678 H   0  0  0  0  0  0  0  0  0  0  0  0
  148.6757  143.1009  156.4350 H   0  0  0  0  0  0  0  0  0  0  0  0
  1  2  1  0  0  0  0
  1 17  1  0  0  0  0
  1 18  1  0  0  0  0
  1 19  1  0  0  0  0
  2 16  2  0  0  0  0
  2  3  1  0  0  0  0
  3  4  2  0  0  0  0
  3 20  1  0  0  0  0
  4  5  1  0  0  0  0
  5  6  1  0  0  0  0
  5 16  1  0  0  0  0
  6  7  1  0  0  0  0
  6 21  1  0  0  0  0
  6 22  1  0  0  0  0
  7  8  1  0  0  0  0
  7 23  1  0  0  0  0
  7 24  1  0  0  0  0
  8  9  1  0  0  0  0
  8 25  1  0  0  0  0
  8 40  1  0  0  0  0
  9 10  1  0  0  0  0
  9 26  1  0  0  0  0
  9 27  1  0  0  0  0
 10 15  1  0  0  0  0
 10 11  1  0  0  0  0
 10 28  1  0  0  0  0
 11 12  1  0  0  0  0
 11 29  1  0  0  0  0
 11 30  1  0  0  0  0
 12 13  1  0  0  0  0
 12 31  1  0  0  0  0
 12 32  1  0  0  0  0
 13 14  1  0  0  0  0
 13 33  1  0  0  0  0
 13 34  1  0  0  0  0
 14 15  1  0  0  0  0
 14 35  1  0  0  0  0
 14 36  1  0  0  0  0
 15 37  1  0  0  0  0
 15 38  1  0  0  0  0
 16 39  1  0  0  0  0
M  CHG  1   8   1
M  END
> <s_m_source_file>
AV-unprocessed.smi

> <i_m_source_file_index>
3144

> <i_lp_mmshare_version>
43012

> <i_f3d_flags>
0

> <s_epik_input>
W0NIM11jMVtjSF1ubihbY0hdMSlbQ0gyXVtDSDJdW05IXVtDSDJdW0NIXTJbQ0gyXVtDSDJdW0NIMl1bQ0gyXVtDSDJdMg==

> <s_epik_cmdline>
J2VwaWtfcHl0aG9uJywgJy1waCcsICc3LjAnLCAnLXRuJywgJzgnLCAnLW1hJywgJzIwMCcsICctbWV0YWxfYmluZGluZycsICctaW1hZScsICc8aW5maWxlLm1hZT4nLCAnLW9tYWUnLCAnPG91dGZpbGUubWFlPic=

> <r_lp_tautomer_probability>
1

> <r_epik_Ionization_Penalty>
0.0017464

> <r_epik_Ionization_Penalty_Charging>
0.00174052

> <r_epik_Ionization_Penalty_Neutral>
5.87243e-06

> <r_epik_State_Penalty>
-0

> <r_epik_Charging_Adjusted_Penalty>
0.00174052

> <i_epik_Tot_Q>
1

> <i_epik_Tot_abs_Q>
1

> <r_epik_Metal_State_Penalty>
-0

> <b_epik_Metal_Only>
0

> <s_lp_Force_Field>
OPLS_2005

> <r_lp_Energy>
13.1437

> <b_lp_Chiralities_Consistent>
1

> <s_lp_Variant>
AV-unprocessed.smi:3144-1

> <Gold.Version>
5.8.1

> <Gold.Id.Protein>
6NUR|6NUR_protein|mol2

> <Gold.PLP.Fitness>
47.1340

> <Gold.PLP.PLP>
-36.3941

> <Gold.PLP.part.hbond>
-3.0000

> <Gold.PLP.part.metal>
0.0000

> <Gold.PLP.part.buried>
-5.2084

> <Gold.PLP.part.nonpolar>
-29.3445

> <Gold.PLP.part.repulsive>
0.0422

> <Gold.PLP.ligand.clash>
0.0000

> <Gold.PLP.ligand.torsion>
0.2433

> <Gold.PLP.Chemscore.Hbond>
3.7221

> <Gold.PLP.Chemscore.CHOScore>
0.0000

> <Gold.PLP.Chemscore.Metal>
0.0000

> <Gold.Chemscore.Hbonds>
donor molecule, donor type, donor heavy atom, donor atom, acceptor molecule, acceptor atom, score
      L1  H     8    40       P1  8028  2.00
      P1  H  6933  6944       L1     4  1.00
      P1  H  6934  6946       L1     4  0.43

> <Gold.PLP.Chemscore.Internal.Correction>
0.0602

> <Gold.Rescore>
     Score         DG    S(hbond)    S(metal)    S(lipo)     H(rot)  DE(clash)    DE(int)     intcor
     19.23     -19.49       2.03        0.00      94.74       1.50       0.05       0.20       ----

> <Gold.Chemscore.Fitness>
19.2333

> <Gold.Chemscore.DG>
-19.4863

> <Gold.Chemscore.ZeroCoef>
-5.4800

> <Gold.Chemscore.Hbond>
2.0273

> <Gold.Chemscore.Metal>
0.0000

> <Gold.Chemscore.Lipo>
94.7368

> <Gold.Chemscore.Internal_Hbond>
0.0000

> <Gold.Chemscore.DEClash>
0.0536

> <Gold.Chemscore.DEInternal>
0.1993

> <Gold.Chemscore.Rot>
1.5036

> <Gold.Chemscore.Internal.Correction>
   9.000000E+99

> <Gold.Chemscore.Hbonds>
donor molecule, donor type, donor heavy atom, donor atom, acceptor molecule, acceptor atom, score
      L1  H     8    40       P1  8028  0.93
      P1  H  6933  6944       L1     4  0.48
      P1  H  6934  6946       L1     4  0.03

> <Gold.Chemscore.Hbond.Weighted>
-6.7712

> <Gold.Chemscore.Metal.Weighted>
-0.0000

> <Gold.Chemscore.Lipo.Weighted>
-11.0842

> <Gold.Chemscore.Internal_Hbond.Weighted>
0.0000

> <Gold.Chemscore.DEClash.Weighted>
0.0536

> <Gold.Chemscore.DEInternal.Weighted>
0.1993

> <Gold.Chemscore.Rot.Weighted>
3.8492

> <Gold.Chemscore.Internal.Correction.Weighted>
   9.000000E+99

> <Gold.Protein.RotatedTorsions>
[ 6907 6896 6895 6894 ] final   75.10 input  -60.11 | X-H torsion
[ 7974 7965 7964 7962 ] final  167.45 input  175.53 | X-H torsion
[ 8008 7997 7996 7995 ] final  -19.38 input   59.86 | X-H torsion
[ 10167 10162 10161 10158 ] final  118.77 input  -65.29 | X-H torsion
[ 10718 10713 10712 10709 ] final  -48.49 input   66.30 | X-H torsion
[ 10763 10752 10751 10750 ] final  156.93 input  -60.55 | X-H torsion
[ 11005 11000 10999 10996 ] final   -1.03 input  -57.11 | X-H torsion

> <Gold.Protein.ActiveResidues>
 VAL166  LYS551  ARG553  GLY616  TRP617  ASP618  TYR619  PRO620  LYS621  CYS622 
 ASP623  PHE694  ASN695  SER759  ASP760  ASP761  ALA762  ILE779  LEU786  VAL792 
 PHE793  MET794  SER795  GLU796  ALA797  LYS798  CYS799  TRP800  GLU811  SER814 

> <Gold.Protein.RotatedAtoms>
  152.5009  134.4171  159.9467 H   0  0  0  0  0  0  0  0  0  0  0  0  # atno 6907 bound_to 6896
  151.4142  133.3712  159.2755 H   0  0  0  0  0  0  0  0  0  0  0  0  # atno 6908 bound_to 6896
  150.9269  134.8708  159.7585 H   0  0  0  0  0  0  0  0  0  0  0  0  # atno 6909 bound_to 6896
  144.7424  139.8763  143.6393 H   0  0  0  0  0  0  0  0  0  0  0  0  # atno 7974 bound_to 7965
  154.4841  140.2090  155.9697 H   0  0  0  0  0  0  0  0  0  0  0  0  # atno 8008 bound_to 7997
  156.1209  140.3213  155.8176 H   0  0  0  0  0  0  0  0  0  0  0  0  # atno 8009 bound_to 7997
  155.4470  140.0514  157.2996 H   0  0  0  0  0  0  0  0  0  0  0  0  # atno 8010 bound_to 7997
  139.6090  144.7077  151.2888 H   0  0  0  0  0  0  0  0  0  0  0  0  # atno 10167 bound_to 10162
  156.1982  130.4155  149.9276 H   0  0  0  0  0  0  0  0  0  0  0  0  # atno 10718 bound_to 10713
  154.1922  135.2794  155.3018 H   0  0  0  0  0  0  0  0  0  0  0  0  # atno 10763 bound_to 10752
  154.5920  135.5557  153.7291 H   0  0  0  0  0  0  0  0  0  0  0  0  # atno 10764 bound_to 10752
  153.0109  135.6370  154.2061 H   0  0  0  0  0  0  0  0  0  0  0  0  # atno 10765 bound_to 10752
  140.6428  133.9474  155.8336 H   0  0  0  0  0  0  0  0  0  0  0  0  # atno 11005 bound_to 11000
  146.1244  139.4267  143.0208 LP  0  0  0  0  0  0  0  0  0  0  0  0  # atno 17320 bound_to 7965
  145.7257  141.0060  143.1379 LP  0  0  0  0  0  0  0  0  0  0  0  0  # atno 17321 bound_to 7965
  140.7305  143.6877  150.7947 LP  0  0  0  0  0  0  0  0  0  0  0  0  # atno 17342 bound_to 10162
  140.0468  143.5290  152.2692 LP  0  0  0  0  0  0  0  0  0  0  0  0  # atno 17343 bound_to 10162
  156.6994  130.8927  151.3597 LP  0  0  0  0  0  0  0  0  0  0  0  0  # atno 17370 bound_to 10713
  157.6970  130.9293  150.0674 LP  0  0  0  0  0  0  0  0  0  0  0  0  # atno 17371 bound_to 10713
  141.0594  134.0368  157.3679 LP  0  0  0  0  0  0  0  0  0  0  0  0  # atno 17394 bound_to 11000
  139.9074  135.0183  156.7544 LP  0  0  0  0  0  0  0  0  0  0  0  0  # atno 17395 bound_to 11000

$$$$
