AV-unprocessed.smi:1612|AV-procd|sdf|6477|dock4
  -GOLD-   22720 7133D 1   1.00000     0.00000
 Structure written by MMmdl.
 37 38  0  0  0  0  0  0  0  0  1 V2000
  146.9328  139.8880  151.5439 C   0  0  0  0  0  0  0  0  0  0  0  0
  146.5455  138.8078  152.5780 C   0  0  1  0  0  0  0  0  0  0  0  0
  146.6636  137.4481  152.0394 N   0  0  0  0  0  0  0  0  0  0  0  0
  145.6885  136.5390  151.8694 C   0  0  0  0  0  0  0  0  0  0  0  0
  144.4988  136.7574  152.0969 O   0  0  0  0  0  0  0  0  0  0  0  0
  146.1884  135.3774  151.4119 N   0  0  0  0  0  0  0  0  0  0  0  0
  145.4886  134.1798  151.1043 C   0  0  0  0  0  0  0  0  0  0  0  0
  146.3071  133.0805  150.7591 C   0  0  0  0  0  0  0  0  0  0  0  0
  145.7100  131.8465  150.4365 C   0  0  0  0  0  0  0  0  0  0  0  0
  144.3079  131.7433  150.4664 C   0  0  0  0  0  0  0  0  0  0  0  0
  143.5666  132.8855  150.8201 C   0  0  0  0  0  0  0  0  0  0  0  0
  144.1368  134.0689  151.1302 N   0  0  0  0  0  0  0  0  0  0  0  0
  147.2558  138.9504  153.9404 C   0  0  0  0  0  0  0  0  0  0  0  0
  147.8593  137.9817  154.4034 O   0  0  0  0  0  0  0  0  0  0  0  0
  147.1896  140.1273  154.6015 N   0  0  0  0  0  0  0  0  0  0  0  0
  146.5032  141.3392  154.1523 C   0  0  0  0  0  0  0  0  0  0  0  0
  146.5299  142.2982  155.3428 C   0  0  0  0  0  0  0  0  0  0  0  0
  147.7442  141.8590  156.1479 C   0  0  0  0  0  0  0  0  0  0  0  0
  147.8330  140.3541  155.8949 C   0  0  0  0  0  0  0  0  0  0  0  0
  146.7045  140.8847  151.9226 H   0  0  0  0  0  0  0  0  0  0  0  0
  146.3755  139.7588  150.6156 H   0  0  0  0  0  0  0  0  0  0  0  0
  147.9946  139.8740  151.2980 H   0  0  0  0  0  0  0  0  0  0  0  0
  145.4806  138.9550  152.7575 H   0  0  0  0  0  0  0  0  0  0  0  0
  147.6004  137.1580  151.8003 H   0  0  0  0  0  0  0  0  0  0  0  0
  147.1870  135.3438  151.2699 H   0  0  0  0  0  0  0  0  0  0  0  0
  147.3831  133.1772  150.7414 H   0  0  0  0  0  0  0  0  0  0  0  0
  146.3182  130.9945  150.1708 H   0  0  0  0  0  0  0  0  0  0  0  0
  143.8133  130.8139  150.2249 H   0  0  0  0  0  0  0  0  0  0  0  0
  142.4879  132.8484  150.8554 H   0  0  0  0  0  0  0  0  0  0  0  0
  147.0496  141.7665  153.3104 H   0  0  0  0  0  0  0  0  0  0  0  0
  145.4786  141.1470  153.8336 H   0  0  0  0  0  0  0  0  0  0  0  0
  146.5775  143.3451  155.0418 H   0  0  0  0  0  0  0  0  0  0  0  0
  145.6281  142.1630  155.9413 H   0  0  0  0  0  0  0  0  0  0  0  0
  148.6370  142.3494  155.7577 H   0  0  0  0  0  0  0  0  0  0  0  0
  147.6634  142.1057  157.2068 H   0  0  0  0  0  0  0  0  0  0  0  0
  147.2871  139.8035  156.6626 H   0  0  0  0  0  0  0  0  0  0  0  0
  148.8693  140.0124  155.9054 H   0  0  0  0  0  0  0  0  0  0  0  0
  1  2  1  0  0  0  0
  1 20  1  0  0  0  0
  1 21  1  0  0  0  0
  1 22  1  0  0  0  0
  2  3  1  0  0  0  0
  2 13  1  0  0  0  0
  2 23  1  0  0  0  0
  3  4  1  0  0  0  0
  3 24  1  0  0  0  0
  4  5  2  0  0  0  0
  4  6  1  0  0  0  0
  6  7  1  0  0  0  0
  6 25  1  0  0  0  0
  7 12  1  0  0  0  0
  7  8  2  0  0  0  0
  8  9  1  0  0  0  0
  8 26  1  0  0  0  0
  9 10  2  0  0  0  0
  9 27  1  0  0  0  0
 10 11  1  0  0  0  0
 10 28  1  0  0  0  0
 11 12  2  0  0  0  0
 11 29  1  0  0  0  0
 13 14  2  0  0  0  0
 13 15  1  0  0  0  0
 15 19  1  0  0  0  0
 15 16  1  0  0  0  0
 16 17  1  0  0  0  0
 16 30  1  0  0  0  0
 16 31  1  0  0  0  0
 17 18  1  0  0  0  0
 17 32  1  0  0  0  0
 17 33  1  0  0  0  0
 18 19  1  0  0  0  0
 18 34  1  0  0  0  0
 18 35  1  0  0  0  0
 19 36  1  0  0  0  0
 19 37  1  0  0  0  0
M  END
> <s_m_source_file>
AV-unprocessed.smi

> <i_m_source_file_index>
1612

> <i_lp_mmshare_version>
43012

> <i_f3d_flags>
0

> <s_epik_input>
W0NIMl0xW0NIMl1bQ0gyXVtDSDJdTjFDKD1PKVtDQEhdKFtDSDNdKVtOSF1DKD1PKVtOSF1jMltjSF1bY0hdW2NIXVtjSF1uMg==

> <s_epik_cmdline>
J2VwaWtfcHl0aG9uJywgJy1waCcsICc3LjAnLCAnLXRuJywgJzgnLCAnLW1hJywgJzIwMCcsICctbWV0YWxfYmluZGluZycsICctaW1hZScsICc8aW5maWxlLm1hZT4nLCAnLW9tYWUnLCAnPG91dGZpbGUubWFlPic=

> <r_lp_tautomer_probability>
1

> <r_epik_Ionization_Penalty>
3.95281e-05

> <r_epik_Ionization_Penalty_Charging>
0

> <r_epik_Ionization_Penalty_Neutral>
3.95281e-05

> <r_epik_State_Penalty>
-0

> <r_epik_Charging_Adjusted_Penalty>
0

> <i_epik_Tot_Q>
0

> <i_epik_Tot_abs_Q>
0

> <r_epik_Metal_State_Penalty>
-0

> <b_epik_Metal_Only>
0

> <s_lp_Force_Field>
OPLS_2005

> <r_lp_Energy>
35.1648

> <b_lp_Chiralities_Consistent>
1

> <s_lp_Variant>
AV-unprocessed.smi:1612-2

> <Gold.Version>
5.8.1

> <Gold.Id.Protein>
6NUR|6NUR_protein|mol2

> <Gold.PLP.Fitness>
36.8161

> <Gold.PLP.PLP>
-28.6001

> <Gold.PLP.part.hbond>
-2.0000

> <Gold.PLP.part.metal>
0.0000

> <Gold.PLP.part.buried>
-1.5086

> <Gold.PLP.part.nonpolar>
-27.3161

> <Gold.PLP.part.repulsive>
1.4733

> <Gold.PLP.ligand.clash>
0.0000

> <Gold.PLP.ligand.torsion>
0.0903

> <Gold.PLP.Chemscore.Hbond>
1.8800

> <Gold.PLP.Chemscore.CHOScore>
0.8712

> <Gold.PLP.Chemscore.Metal>
0.0000

> <Gold.Chemscore.Hbonds>
donor molecule, donor type, donor heavy atom, donor atom, acceptor molecule, acceptor atom, score
      L1  H     3    24       P1  7948  1.00
      L1  H     6    25       P1  7948  0.88
      L1  C    11    29       P1 10186  0.88

> <Gold.PLP.Chemscore.Internal.Correction>
0.1430

> <Gold.Rescore>
     Score         DG    S(hbond)    S(metal)    S(lipo)     H(rot)  DE(clash)    DE(int)     intcor
     13.27     -16.29       1.85        0.00      68.11       1.30       1.61       1.41       ----

> <Gold.Chemscore.Fitness>
13.2731

> <Gold.Chemscore.DG>
-16.2935

> <Gold.Chemscore.ZeroCoef>
-5.4800

> <Gold.Chemscore.Hbond>
1.8493

> <Gold.Chemscore.Metal>
0.0000

> <Gold.Chemscore.Lipo>
68.1124

> <Gold.Chemscore.Internal_Hbond>
0.0000

> <Gold.Chemscore.DEClash>
1.6121

> <Gold.Chemscore.DEInternal>
1.4083

> <Gold.Chemscore.Rot>
1.3016

> <Gold.Chemscore.Internal.Correction>
   9.000000E+99

> <Gold.Chemscore.Hbonds>
donor molecule, donor type, donor heavy atom, donor atom, acceptor molecule, acceptor atom, score
      L1  H     3    24       P1  7948  0.98
      L1  H     6    25       P1  7948  0.70

> <Gold.Chemscore.Hbond.Weighted>
-6.1765

> <Gold.Chemscore.Metal.Weighted>
-0.0000

> <Gold.Chemscore.Lipo.Weighted>
-7.9692

> <Gold.Chemscore.Internal_Hbond.Weighted>
0.0000

> <Gold.Chemscore.DEClash.Weighted>
1.6121

> <Gold.Chemscore.DEInternal.Weighted>
1.4083

> <Gold.Chemscore.Rot.Weighted>
3.3322

> <Gold.Chemscore.Internal.Correction.Weighted>
   9.000000E+99

> <Gold.Protein.RotatedTorsions>
[ 6907 6896 6895 6894 ] final -129.34 input  -60.11 | X-H torsion
[ 7974 7965 7964 7962 ] final -164.82 input  175.53 | X-H torsion
[ 8008 7997 7996 7995 ] final  154.64 input   59.86 | X-H torsion
[ 10167 10162 10161 10158 ] final   99.43 input  -65.29 | X-H torsion
[ 10718 10713 10712 10709 ] final -165.74 input   66.30 | X-H torsion
[ 10763 10752 10751 10750 ] final   26.62 input  -60.55 | X-H torsion
[ 11005 11000 10999 10996 ] final -109.30 input  -57.11 | X-H torsion

> <Gold.Protein.ActiveResidues>
 VAL166  LYS551  ARG553  GLY616  TRP617  ASP618  TYR619  PRO620  LYS621  CYS622 
 ASP623  PHE694  ASN695  SER759  ASP760  ASP761  ALA762  ILE779  LEU786  VAL792 
 PHE793  MET794  SER795  GLU796  ALA797  LYS798  CYS799  TRP800  GLU811  SER814 

> <Gold.Protein.RotatedAtoms>
  150.9276  133.6805  159.2817 H   0  0  0  0  0  0  0  0  0  0  0  0  # atno 6907 bound_to 6896
  151.4238  135.1000  159.9631 H   0  0  0  0  0  0  0  0  0  0  0  0  # atno 6908 bound_to 6896
  152.5010  133.8722  159.7359 H   0  0  0  0  0  0  0  0  0  0  0  0  # atno 6909 bound_to 6896
  144.7286  140.2904  143.6221 H   0  0  0  0  0  0  0  0  0  0  0  0  # atno 7974 bound_to 7965
  156.2521  140.1961  156.6677 H   0  0  0  0  0  0  0  0  0  0  0  0  # atno 8008 bound_to 7997
  154.6416  140.0583  156.9878 H   0  0  0  0  0  0  0  0  0  0  0  0  # atno 8009 bound_to 7997
  155.1553  140.3255  155.4425 H   0  0  0  0  0  0  0  0  0  0  0  0  # atno 8010 bound_to 7997
  139.7618  144.6952  151.0281 H   0  0  0  0  0  0  0  0  0  0  0  0  # atno 10167 bound_to 10162
  156.6578  130.9034  151.3024 H   0  0  0  0  0  0  0  0  0  0  0  0  # atno 10718 bound_to 10713
  153.0610  135.6556  154.0463 H   0  0  0  0  0  0  0  0  0  0  0  0  # atno 10763 bound_to 10752
  154.0130  135.2926  155.3391 H   0  0  0  0  0  0  0  0  0  0  0  0  # atno 10764 bound_to 10752
  154.6948  135.5268  153.8511 H   0  0  0  0  0  0  0  0  0  0  0  0  # atno 10765 bound_to 10752
  141.0855  133.9146  157.2195 H   0  0  0  0  0  0  0  0  0  0  0  0  # atno 11005 bound_to 11000
  145.7860  139.1909  143.2130 LP  0  0  0  0  0  0  0  0  0  0  0  0  # atno 17320 bound_to 7965
  146.0795  140.7780  142.9649 LP  0  0  0  0  0  0  0  0  0  0  0  0  # atno 17321 bound_to 7965
  140.7808  143.4688  151.0175 LP  0  0  0  0  0  0  0  0  0  0  0  0  # atno 17342 bound_to 10162
  139.8374  143.7609  152.3180 LP  0  0  0  0  0  0  0  0  0  0  0  0  # atno 17343 bound_to 10162
  157.7119  130.9451  150.1120 LP  0  0  0  0  0  0  0  0  0  0  0  0  # atno 17370 bound_to 10713
  156.2034  130.3662  149.8760 LP  0  0  0  0  0  0  0  0  0  0  0  0  # atno 17371 bound_to 10713
  139.9673  135.0138  156.9420 LP  0  0  0  0  0  0  0  0  0  0  0  0  # atno 17394 bound_to 11000
  140.5373  134.0755  155.7332 LP  0  0  0  0  0  0  0  0  0  0  0  0  # atno 17395 bound_to 11000

$$$$
