AV-unprocessed.smi:2043|AV-procd|sdf|8296|dock7
  -GOLD-   2272010563D 1   1.00000     0.00000
 Structure written by MMmdl.
 29 30  0  0  0  0  0  0  0  0  1 V2000
  142.9977  143.4698  162.5050 C   0  0  0  0  0  0  0  0  0  0  0  0
  144.0280  143.9764  161.5545 C   0  0  0  0  0  0  0  0  0  0  0  0
  143.7156  144.6174  160.4218 N   0  0  0  0  0  0  0  0  0  0  0  0
  144.8413  144.9889  159.6997 N   0  0  0  0  0  0  0  0  0  0  0  0
  145.9733  144.6135  160.3111 C   0  0  0  0  0  0  0  0  0  0  0  0
  147.2713  144.8632  159.7925 N   0  0  0  0  0  0  0  0  0  0  0  0
  148.4559  144.7453  160.4177 C   0  0  0  0  0  0  0  0  0  0  0  0
  148.6127  144.3777  161.5823 O   0  0  0  0  0  0  0  0  0  0  0  0
  149.4677  145.0818  159.6043 N   0  0  0  0  0  0  0  0  0  0  0  0
  150.8813  145.0614  159.9628 C   0  0  0  0  0  0  0  0  0  0  0  0
  151.6653  144.0906  159.0832 C   0  0  0  0  0  0  0  0  0  0  0  0
  151.3084  142.5954  159.0707 C   0  0  0  0  0  0  0  0  0  0  0  0
  152.7981  142.2879  158.8992 C   0  0  0  0  0  0  0  0  0  0  0  0
  153.0803  143.6656  159.5038 C   0  0  0  0  0  0  0  0  0  0  0  0
  145.7526  143.7687  161.8338 S   0  0  0  0  0  0  0  0  0  0  0  0
  142.0504  143.9889  162.3556 H   0  0  0  0  0  0  0  0  0  0  0  0
  143.3239  143.6309  163.5326 H   0  0  0  0  0  0  0  0  0  0  0  0
  142.8415  142.4024  162.3492 H   0  0  0  0  0  0  0  0  0  0  0  0
  147.3008  145.1727  158.8324 H   0  0  0  0  0  0  0  0  0  0  0  0
  149.2445  145.3718  158.6635 H   0  0  0  0  0  0  0  0  0  0  0  0
  151.2706  146.0721  159.8401 H   0  0  0  0  0  0  0  0  0  0  0  0
  151.0056  144.8179  161.0193 H   0  0  0  0  0  0  0  0  0  0  0  0
  151.7062  144.4501  158.0527 H   0  0  0  0  0  0  0  0  0  0  0  0
  150.9151  142.2447  160.0265 H   0  0  0  0  0  0  0  0  0  0  0  0
  150.6762  142.2840  158.2386 H   0  0  0  0  0  0  0  0  0  0  0  0
  153.1630  141.4462  159.4884 H   0  0  0  0  0  0  0  0  0  0  0  0
  153.0983  142.2143  157.8528 H   0  0  0  0  0  0  0  0  0  0  0  0
  153.8859  144.2201  159.0217 H   0  0  0  0  0  0  0  0  0  0  0  0
  153.2087  143.6303  160.5872 H   0  0  0  0  0  0  0  0  0  0  0  0
  1  2  1  0  0  0  0
  1 16  1  0  0  0  0
  1 17  1  0  0  0  0
  1 18  1  0  0  0  0
  2 15  1  0  0  0  0
  2  3  2  0  0  0  0
  3  4  1  0  0  0  0
  4  5  2  0  0  0  0
  5  6  1  0  0  0  0
  5 15  1  0  0  0  0
  6  7  1  0  0  0  0
  6 19  1  0  0  0  0
  7  8  2  0  0  0  0
  7  9  1  0  0  0  0
  9 10  1  0  0  0  0
  9 20  1  0  0  0  0
 10 11  1  0  0  0  0
 10 21  1  0  0  0  0
 10 22  1  0  0  0  0
 11 14  1  0  0  0  0
 11 12  1  0  0  0  0
 11 23  1  0  0  0  0
 12 13  1  0  0  0  0
 12 24  1  0  0  0  0
 12 25  1  0  0  0  0
 13 14  1  0  0  0  0
 13 26  1  0  0  0  0
 13 27  1  0  0  0  0
 14 28  1  0  0  0  0
 14 29  1  0  0  0  0
M  END
> <s_m_source_file>
AV-unprocessed.smi

> <i_m_source_file_index>
2043

> <i_lp_mmshare_version>
43012

> <i_f3d_flags>
0

> <s_epik_input>
W0NIM11jMW5uYyhzMSlbTkhdQyg9TylbTkhdW0NIMl1bQ0hdMltDSDJdW0NIMl1bQ0gyXTI=

> <s_epik_cmdline>
J2VwaWtfcHl0aG9uJywgJy1waCcsICc3LjAnLCAnLXRuJywgJzgnLCAnLW1hJywgJzIwMCcsICctbWV0YWxfYmluZGluZycsICctaW1hZScsICc8aW5maWxlLm1hZT4nLCAnLW9tYWUnLCAnPG91dGZpbGUubWFlPic=

> <r_lp_tautomer_probability>
1

> <r_epik_Ionization_Penalty>
0.000387707

> <r_epik_Ionization_Penalty_Charging>
0

> <r_epik_Ionization_Penalty_Neutral>
0.000387707

> <r_epik_State_Penalty>
-0

> <r_epik_Charging_Adjusted_Penalty>
0

> <i_epik_Tot_Q>
0

> <i_epik_Tot_abs_Q>
0

> <r_epik_Metal_State_Penalty>
0.190371

> <b_epik_Metal_Only>
0

> <s_lp_Force_Field>
OPLS_2005

> <r_lp_Energy>
11.3872

> <b_lp_Chiralities_Consistent>
1

> <s_lp_Variant>
AV-unprocessed.smi:2043-1

> <Gold.Version>
5.8.1

> <Gold.Id.Protein>
6NUR|6NUR_protein|mol2

> <Gold.PLP.Fitness>
39.6175

> <Gold.PLP.PLP>
-31.5303

> <Gold.PLP.part.hbond>
-3.0000

> <Gold.PLP.part.metal>
0.0000

> <Gold.PLP.part.buried>
-6.6323

> <Gold.PLP.part.nonpolar>
-23.8628

> <Gold.PLP.part.repulsive>
0.7494

> <Gold.PLP.ligand.clash>
0.0000

> <Gold.PLP.ligand.torsion>
0.0894

> <Gold.PLP.Chemscore.Hbond>
2.7360

> <Gold.PLP.Chemscore.CHOScore>
0.0000

> <Gold.PLP.Chemscore.Metal>
0.0000

> <Gold.Chemscore.Hbonds>
donor molecule, donor type, donor heavy atom, donor atom, acceptor molecule, acceptor atom, score
      L1  H     6    19       P1  8029  1.00
      L1  H     9    20       P1  8029  1.00
      P1  H  6933  6944       L1     8  0.74

> <Gold.PLP.Chemscore.Internal.Correction>
0.0579

> <Gold.Rescore>
     Score         DG    S(hbond)    S(metal)    S(lipo)     H(rot)  DE(clash)    DE(int)     intcor
     18.99     -20.27       2.71        0.00      76.83       1.27       0.01       1.27       ----

> <Gold.Chemscore.Fitness>
18.9898

> <Gold.Chemscore.DG>
-20.2700

> <Gold.Chemscore.ZeroCoef>
-5.4800

> <Gold.Chemscore.Hbond>
2.7139

> <Gold.Chemscore.Metal>
0.0000

> <Gold.Chemscore.Lipo>
76.8337

> <Gold.Chemscore.Internal_Hbond>
0.0000

> <Gold.Chemscore.DEClash>
0.0063

> <Gold.Chemscore.DEInternal>
1.2739

> <Gold.Chemscore.Rot>
1.2750

> <Gold.Chemscore.Internal.Correction>
   9.000000E+99

> <Gold.Chemscore.Hbonds>
donor molecule, donor type, donor heavy atom, donor atom, acceptor molecule, acceptor atom, score
      L1  H     6    19       P1  8029  1.00
      L1  H     9    20       P1  8029  0.88
      P1  H  6933  6944       L1     8  0.32

> <Gold.Chemscore.Hbond.Weighted>
-9.0645

> <Gold.Chemscore.Metal.Weighted>
-0.0000

> <Gold.Chemscore.Lipo.Weighted>
-8.9895

> <Gold.Chemscore.Internal_Hbond.Weighted>
0.0000

> <Gold.Chemscore.DEClash.Weighted>
0.0063

> <Gold.Chemscore.DEInternal.Weighted>
1.2739

> <Gold.Chemscore.Rot.Weighted>
3.2640

> <Gold.Chemscore.Internal.Correction.Weighted>
   9.000000E+99

> <Gold.Protein.RotatedTorsions>
[ 6907 6896 6895 6894 ] final  -71.75 input  -60.11 | X-H torsion
[ 7974 7965 7964 7962 ] final   56.63 input  175.53 | X-H torsion
[ 8008 7997 7996 7995 ] final  -26.54 input   59.86 | X-H torsion
[ 10167 10162 10161 10158 ] final -131.37 input  -65.29 | X-H torsion
[ 10718 10713 10712 10709 ] final   64.34 input   66.30 | X-H torsion
[ 10763 10752 10751 10750 ] final  -40.39 input  -60.55 | X-H torsion
[ 11005 11000 10999 10996 ] final  128.94 input  -57.11 | X-H torsion

> <Gold.Protein.ActiveResidues>
 VAL166  LYS551  ARG553  GLY616  TRP617  ASP618  TYR619  PRO620  LYS621  CYS622 
 ASP623  PHE694  ASN695  SER759  ASP760  ASP761  ALA762  ILE779  LEU786  VAL792 
 PHE793  MET794  SER795  GLU796  ALA797  LYS798  CYS799  TRP800  GLU811  SER814 

> <Gold.Protein.RotatedAtoms>
  150.7199  134.5263  159.5677 H   0  0  0  0  0  0  0  0  0  0  0  0  # atno 6907 bound_to 6896
  152.2806  134.7829  160.0406 H   0  0  0  0  0  0  0  0  0  0  0  0  # atno 6908 bound_to 6896
  151.8477  133.3399  159.3700 H   0  0  0  0  0  0  0  0  0  0  0  0  # atno 6909 bound_to 6896
  145.9377  139.3862  143.0382 H   0  0  0  0  0  0  0  0  0  0  0  0  # atno 7974 bound_to 7965
  154.4420  140.1896  156.0792 H   0  0  0  0  0  0  0  0  0  0  0  0  # atno 8008 bound_to 7997
  156.0452  140.3315  155.7262 H   0  0  0  0  0  0  0  0  0  0  0  0  # atno 8009 bound_to 7997
  155.5640  140.0606  157.2813 H   0  0  0  0  0  0  0  0  0  0  0  0  # atno 8010 bound_to 7997
  139.9196  143.6397  152.2556 H   0  0  0  0  0  0  0  0  0  0  0  0  # atno 10167 bound_to 10162
  157.6033  130.9155  149.9833 H   0  0  0  0  0  0  0  0  0  0  0  0  # atno 10718 bound_to 10713
  153.9452  135.6757  153.4744 H   0  0  0  0  0  0  0  0  0  0  0  0  # atno 10763 bound_to 10752
  153.0911  135.4874  154.8689 H   0  0  0  0  0  0  0  0  0  0  0  0  # atno 10764 bound_to 10752
  154.7355  135.3148  154.8777 H   0  0  0  0  0  0  0  0  0  0  0  0  # atno 10765 bound_to 10752
  139.9588  134.9607  156.9076 H   0  0  0  0  0  0  0  0  0  0  0  0  # atno 11005 bound_to 11000
  145.8341  140.9615  143.0833 LP  0  0  0  0  0  0  0  0  0  0  0  0  # atno 17320 bound_to 7965
  144.6774  140.0200  143.7484 LP  0  0  0  0  0  0  0  0  0  0  0  0  # atno 17321 bound_to 7965
  139.6872  144.7650  151.1502 LP  0  0  0  0  0  0  0  0  0  0  0  0  # atno 17342 bound_to 10162
  140.7665  143.5640  150.9068 LP  0  0  0  0  0  0  0  0  0  0  0  0  # atno 17343 bound_to 10162
  156.1112  130.3650  150.0046 LP  0  0  0  0  0  0  0  0  0  0  0  0  # atno 17370 bound_to 10713
  156.8144  130.9336  151.3643 LP  0  0  0  0  0  0  0  0  0  0  0  0  # atno 17371 bound_to 10713
  140.5547  134.0593  155.7380 LP  0  0  0  0  0  0  0  0  0  0  0  0  # atno 17394 bound_to 11000
  141.1263  133.9377  157.2628 LP  0  0  0  0  0  0  0  0  0  0  0  0  # atno 17395 bound_to 11000

$$$$
