#       Name:                AV-unprocessed.smi:1196
#       Creating user name   scv26
#       Creation time:       Fri Mar 27 04:00:08 2020


#       File generated by GOLD software.
#

@<TRIPOS>MOLECULE
AV-unprocessed.smi:1196
    44    45     1
SMALL
NO_CHARGES


@<TRIPOS>ATOM
      1 ****        -3.3018  -0.6836   1.1907 C.3            1 S1                 0.0000
      2 ****        -2.6903   0.2412   0.1266 C.3            1 S1                 0.0000
      3 ****        -3.4011   0.0837  -1.2319 C.3            1 S1                 0.0000
      4 ****        -2.9337   1.0413  -2.2187 N.pl3          1 S1                 0.0000
      5 ****        -2.0982   0.8250  -3.2945 C.2            1 S1                 0.0000
      6 ****        -1.9391   2.0217  -3.9324 C.2            1 S1                 0.0000
      7 ****        -2.7296   2.9217  -3.1642 C.2            1 S1                 0.0000
      8 ****        -3.3254   2.3315  -2.1406 N.2            1 S1                 0.0000
      9 ****        -1.2631  -0.0417  -0.0178 N.am           1 S1                 0.0000
     10 ****        -0.2821   0.5080   0.7144 C.2            1 S1                 0.0000
     11 ****        -0.4871   1.3180   1.6187 O.2            1 S1                 0.0000
     12 ****         1.1451   0.0774   0.3618 C.3            1 S1                 0.0000
     13 ****         2.0877   0.0512   1.5811 C.3            1 S1                 0.0000
     14 ****         3.5208  -0.3924   1.2271 C.3            1 S1                 0.0000
     15 ****         3.5883  -1.7711   0.7731 N.am           1 S1                 0.0000
     16 ****         4.3798  -2.5272   1.5461 C.2            1 S1                 0.0000
     17 ****         4.6165  -3.7221   1.3854 O.2            1 S1                 0.0000
     18 ****         4.8647  -1.7528   2.5225 N.am           1 S1                 0.0000
     19 ****         4.4241  -0.4983   2.4432 C.2            1 S1                 0.0000
     20 ****         4.6872   0.4282   3.2072 O.2            1 S1                 0.0000
     21 ****        -4.3640  -0.4770   1.3242 H              1 S1                 0.0000
     22 ****        -2.8183  -0.5471   2.1585 H              1 S1                 0.0000
     23 ****        -3.1992  -1.7329   0.9117 H              1 S1                 0.0000
     24 ****        -2.8226   1.2722   0.4602 H              1 S1                 0.0000
     25 ****        -3.2580  -0.9234  -1.6260 H              1 S1                 0.0000
     26 ****        -4.4769   0.2199  -1.1119 H              1 S1                 0.0000
     27 ****        -1.6888  -0.1505  -3.5121 H              1 S1                 0.0000
     28 ****        -1.3484   2.2236  -4.8135 H              1 S1                 0.0000
     29 ****        -2.8876   3.9789  -3.3194 H              1 S1                 0.0000
     30 ****        -1.0017  -0.6974  -0.7394 H              1 S1                 0.0000
     31 ****         1.1133  -0.9092  -0.1027 H              1 S1                 0.0000
     32 ****         1.5325   0.7650  -0.3907 H              1 S1                 0.0000
     33 ****         2.1304   1.0471   2.0255 H              1 S1                 0.0000
     34 ****         1.6746  -0.6068   2.3481 H              1 S1                 0.0000
     35 ****         3.9708   0.2689   0.4856 H              1 S1                 0.0000
     36 ****         3.0935  -2.1074  -0.0400 H              1 S1                 0.0000
     37 ****         5.4873  -2.0846   3.2446 H              1 S1                 0.0000
     38 ****        -3.9301   2.7475  -1.4615 LP             1 S1                 0.0000
     39 ****        -1.4222   1.5965   1.8381 LP             1 S1                 0.0000
     40 ****         0.2815   1.6975   2.1338 LP             1 S1                 0.0000
     41 ****         4.2020  -4.2155   0.6207 LP             1 S1                 0.0000
     42 ****         5.2237  -4.2012   2.0192 LP             1 S1                 0.0000
     43 ****         4.2954   1.3343   3.0478 LP             1 S1                 0.0000
     44 ****         5.2931   0.2758   3.9880 LP             1 S1                 0.0000
@<TRIPOS>BOND
    1    1    2 1     
    2    1   21 1     
    3    1   22 1     
    4    1   23 1     
    5    2    3 1     
    6    2    9 1     
    7    2   24 1     
    8    3    4 1     
    9    3   25 1     
   10    3   26 1     
   11    4    8 1     
   12    4    5 1     
   13    5    6 2     
   14    5   27 1     
   15    6    7 1     
   16    6   28 1     
   17    7    8 2     
   18    7   29 1     
   19    9   10 am    
   20    9   30 1     
   21   10   11 2     
   22   10   12 1     
   23   12   13 1     
   24   12   31 1     
   25   12   32 1     
   26   13   14 1     
   27   13   33 1     
   28   13   34 1     
   29   14   19 1     
   30   14   15 1     
   31   14   35 1     
   32   15   16 am    
   33   15   36 1     
   34   16   17 2     
   35   16   18 am    
   36   18   19 am    
   37   18   37 1     
   38   19   20 2     
   39    8   38 1     
   40   11   39 1     
   41   11   40 1     
   42   17   41 1     
   43   17   42 1     
   44   20   43 1     
   45   20   44 1     
@<TRIPOS>SUBSTRUCTURE
      1 S1             1
@<TRIPOS>SET
LONE_PAIRS      STATIC     ATOMS    <user>   **** ""
7 38 39 40 41 42 43 44
DONOR_HYDROGENS      STATIC     ATOMS    <user>   **** ""
3 30 36 37
ATOM$BLUE        STATIC     ATOMS    COLORGROUP SYSTEM
7 38 39 40 41 42 43 44
ATOM$RED        STATIC     ATOMS    COLORGROUP SYSTEM
3 30 36 37
