AV-unprocessed.smi:2984|AV-procd|sdf|11378|dock9
  -GOLD-   2272016303D 1   1.00000     0.00000
 Structure written by MMmdl.
 38 39  0  0  0  0  0  0  0  0  1 V2000
  156.0046  138.3356  161.0676 O   0  0  0  0  0  0  0  0  0  0  0  0
  154.8562  138.1915  160.6455 C   0  0  0  0  0  0  0  0  0  0  0  0
  154.3717  136.7857  160.2638 C   0  0  0  0  0  0  0  0  0  0  0  0
  154.4071  135.8514  161.3996 N   0  0  0  0  0  0  0  0  0  0  0  0
  154.3461  136.4671  162.6383 N   0  0  0  0  0  0  0  0  0  0  0  0
  154.3940  135.7490  163.7070 C   0  0  0  0  0  0  0  0  0  0  0  0
  154.5043  134.3081  163.6623 C   0  0  0  0  0  0  0  0  0  0  0  0
  154.5680  133.3980  165.1305 Cl  0  0  0  0  0  0  0  0  0  0  0  0
  154.5515  133.7134  162.4437 C   0  0  0  0  0  0  0  0  0  0  0  0
  154.6807  131.9931  162.3103 Cl  0  0  0  0  0  0  0  0  0  0  0  0
  154.4975  134.4998  161.2035 C   0  0  0  0  0  0  0  0  0  0  0  0
  154.5351  133.9973  160.0798 O   0  0  0  0  0  0  0  0  0  0  0  0
  153.9608  139.1872  160.4765 N   0  0  0  0  0  0  0  0  0  0  0  0
  154.1183  140.4936  160.7597 C   0  0  0  0  0  0  0  0  0  0  0  0
  155.0834  140.9921  161.3428 O   0  0  0  0  0  0  0  0  0  0  0  0
  153.0676  141.2067  160.3277 N   0  0  0  0  0  0  0  0  0  0  0  0
  153.0658  142.6469  160.0880 C   0  0  0  0  0  0  0  0  0  0  0  0
  152.1728  143.3666  161.1203 C   0  0  0  0  0  0  0  0  0  0  0  0
  152.0912  144.8758  160.8389 C   0  0  0  0  0  0  0  0  0  0  0  0
  151.6087  145.1512  159.4063 C   0  0  0  0  0  0  0  0  0  0  0  0
  152.5001  144.4411  158.3754 C   0  0  0  0  0  0  0  0  0  0  0  0
  152.5810  142.9313  158.6537 C   0  0  0  0  0  0  0  0  0  0  0  0
  153.3577  136.8691  159.8684 H   0  0  0  0  0  0  0  0  0  0  0  0
  154.9743  136.4007  159.4390 H   0  0  0  0  0  0  0  0  0  0  0  0
  154.3546  136.1903  164.7030 H   0  0  0  0  0  0  0  0  0  0  0  0
  153.0608  138.9148  160.1098 H   0  0  0  0  0  0  0  0  0  0  0  0
  152.1991  140.7200  160.1616 H   0  0  0  0  0  0  0  0  0  0  0  0
  154.0862  143.0241  160.1802 H   0  0  0  0  0  0  0  0  0  0  0  0
  151.1684  142.9412  161.1004 H   0  0  0  0  0  0  0  0  0  0  0  0
  152.5555  143.2050  162.1289 H   0  0  0  0  0  0  0  0  0  0  0  0
  151.4204  145.3516  161.5548 H   0  0  0  0  0  0  0  0  0  0  0  0
  153.0724  145.3288  160.9873 H   0  0  0  0  0  0  0  0  0  0  0  0
  150.5786  144.8102  159.2957 H   0  0  0  0  0  0  0  0  0  0  0  0
  151.6015  146.2247  159.2159 H   0  0  0  0  0  0  0  0  0  0  0  0
  152.1153  144.6138  157.3700 H   0  0  0  0  0  0  0  0  0  0  0  0
  153.5021  144.8713  158.4010 H   0  0  0  0  0  0  0  0  0  0  0  0
  153.2510  142.4617  157.9324 H   0  0  0  0  0  0  0  0  0  0  0  0
  151.5980  142.4841  158.4992 H   0  0  0  0  0  0  0  0  0  0  0  0
  1  2  2  0  0  0  0
  2  3  1  0  0  0  0
  2 13  1  0  0  0  0
  3  4  1  0  0  0  0
  3 23  1  0  0  0  0
  3 24  1  0  0  0  0
  4 11  1  0  0  0  0
  4  5  1  0  0  0  0
  5  6  2  0  0  0  0
  6  7  1  0  0  0  0
  6 25  1  0  0  0  0
  7  8  1  0  0  0  0
  7  9  2  0  0  0  0
  9 10  1  0  0  0  0
  9 11  1  0  0  0  0
 11 12  2  0  0  0  0
 13 14  1  0  0  0  0
 13 26  1  0  0  0  0
 14 15  2  0  0  0  0
 14 16  1  0  0  0  0
 16 17  1  0  0  0  0
 16 27  1  0  0  0  0
 17 22  1  0  0  0  0
 17 18  1  0  0  0  0
 17 28  1  0  0  0  0
 18 19  1  0  0  0  0
 18 29  1  0  0  0  0
 18 30  1  0  0  0  0
 19 20  1  0  0  0  0
 19 31  1  0  0  0  0
 19 32  1  0  0  0  0
 20 21  1  0  0  0  0
 20 33  1  0  0  0  0
 20 34  1  0  0  0  0
 21 22  1  0  0  0  0
 21 35  1  0  0  0  0
 21 36  1  0  0  0  0
 22 37  1  0  0  0  0
 22 38  1  0  0  0  0
M  END
> <s_m_source_file>
AV-unprocessed.smi

> <i_m_source_file_index>
2984

> <i_lp_mmshare_version>
43012

> <i_f3d_flags>
0

> <s_epik_input>
Tz1jMWMoQ2wpYyhDbClbY0hdbm4xW0NIMl1DKD1PKVtOSF1DKD1PKVtOSF1bQ0hdMltDSDJdW0NIMl1bQ0gyXVtDSDJdW0NIMl0y

> <s_epik_cmdline>
J2VwaWtfcHl0aG9uJywgJy1waCcsICc3LjAnLCAnLXRuJywgJzgnLCAnLW1hJywgJzIwMCcsICctbWV0YWxfYmluZGluZycsICctaW1hZScsICc8aW5maWxlLm1hZT4nLCAnLW9tYWUnLCAnPG91dGZpbGUubWFlPic=

> <r_lp_tautomer_probability>
1

> <r_epik_Ionization_Penalty>
3.27035e-05

> <r_epik_Ionization_Penalty_Charging>
2.24292e-11

> <r_epik_Ionization_Penalty_Neutral>
3.27035e-05

> <r_epik_State_Penalty>
-0

> <r_epik_Charging_Adjusted_Penalty>
2.24292e-11

> <i_epik_Tot_Q>
0

> <i_epik_Tot_abs_Q>
0

> <r_epik_Metal_State_Penalty>
-0

> <b_epik_Metal_Only>
0

> <s_lp_Force_Field>
OPLS_2005

> <r_lp_Energy>
25.082

> <b_lp_Chiralities_Consistent>
1

> <s_lp_Variant>
AV-unprocessed.smi:2984-1

> <Gold.Version>
5.8.1

> <Gold.Id.Protein>
6NUR|6NUR_protein|mol2

> <Gold.PLP.Fitness>
46.2090

> <Gold.PLP.PLP>
-44.2493

> <Gold.PLP.part.hbond>
-2.0000

> <Gold.PLP.part.metal>
0.0000

> <Gold.PLP.part.buried>
-3.9928

> <Gold.PLP.part.nonpolar>
-38.3156

> <Gold.PLP.part.repulsive>
0.1313

> <Gold.PLP.ligand.clash>
0.0000

> <Gold.PLP.ligand.torsion>
0.4890

> <Gold.PLP.Chemscore.Hbond>
0.9750

> <Gold.PLP.Chemscore.CHOScore>
0.0000

> <Gold.PLP.Chemscore.Metal>
0.0000

> <Gold.Chemscore.Hbonds>
donor molecule, donor type, donor heavy atom, donor atom, acceptor molecule, acceptor atom, score
      P1  H  6896  6907       L1    12  0.65

> <Gold.PLP.Chemscore.Internal.Correction>
0.0126

> <Gold.Rescore>
     Score         DG    S(hbond)    S(metal)    S(lipo)     H(rot)  DE(clash)    DE(int)     intcor
     12.05     -15.66       0.83        0.00      98.86       1.63       0.57       3.04       ----

> <Gold.Chemscore.Fitness>
12.0534

> <Gold.Chemscore.DG>
-15.6596

> <Gold.Chemscore.ZeroCoef>
-5.4800

> <Gold.Chemscore.Hbond>
0.8327

> <Gold.Chemscore.Metal>
0.0000

> <Gold.Chemscore.Lipo>
98.8610

> <Gold.Chemscore.Internal_Hbond>
0.0000

> <Gold.Chemscore.DEClash>
0.5667

> <Gold.Chemscore.DEInternal>
3.0396

> <Gold.Chemscore.Rot>
1.6283

> <Gold.Chemscore.Internal.Correction>
   9.000000E+99

> <Gold.Chemscore.Hbonds>
donor molecule, donor type, donor heavy atom, donor atom, acceptor molecule, acceptor atom, score
      P1  H  6896  6907       L1    12  0.06

> <Gold.Chemscore.Hbond.Weighted>
-2.7813

> <Gold.Chemscore.Metal.Weighted>
-0.0000

> <Gold.Chemscore.Lipo.Weighted>
-11.5667

> <Gold.Chemscore.Internal_Hbond.Weighted>
0.0000

> <Gold.Chemscore.DEClash.Weighted>
0.5667

> <Gold.Chemscore.DEInternal.Weighted>
3.0396

> <Gold.Chemscore.Rot.Weighted>
4.1684

> <Gold.Chemscore.Internal.Correction.Weighted>
   9.000000E+99

> <Gold.Protein.RotatedTorsions>
[ 6907 6896 6895 6894 ] final   94.37 input  -60.11 | X-H torsion
[ 7974 7965 7964 7962 ] final  178.20 input  175.53 | X-H torsion
[ 8008 7997 7996 7995 ] final -120.16 input   59.86 | X-H torsion
[ 10167 10162 10161 10158 ] final    8.92 input  -65.29 | X-H torsion
[ 10718 10713 10712 10709 ] final  -67.28 input   66.30 | X-H torsion
[ 10763 10752 10751 10750 ] final  -65.55 input  -60.55 | X-H torsion
[ 11005 11000 10999 10996 ] final   51.67 input  -57.11 | X-H torsion

> <Gold.Protein.ActiveResidues>
 VAL166  LYS551  ARG553  GLY616  TRP617  ASP618  TYR619  PRO620  LYS621  CYS622 
 ASP623  PHE694  ASN695  SER759  ASP760  ASP761  ALA762  ILE779  LEU786  VAL792 
 PHE793  MET794  SER795  GLU796  ALA797  LYS798  CYS799  TRP800  GLU811  SER814 

> <Gold.Protein.RotatedAtoms>
  152.5449  134.1204  159.8396 H   0  0  0  0  0  0  0  0  0  0  0  0  # atno 6907 bound_to 6896
  151.1260  133.5063  159.2608 H   0  0  0  0  0  0  0  0  0  0  0  0  # atno 6908 bound_to 6896
  151.1727  135.0335  159.8813 H   0  0  0  0  0  0  0  0  0  0  0  0  # atno 6909 bound_to 6896
  144.7159  140.0362  143.6438 H   0  0  0  0  0  0  0  0  0  0  0  0  # atno 7974 bound_to 7965
  155.1273  140.0399  157.2766 H   0  0  0  0  0  0  0  0  0  0  0  0  # atno 8008 bound_to 7997
  154.6568  140.2582  155.7126 H   0  0  0  0  0  0  0  0  0  0  0  0  # atno 8009 bound_to 7997
  156.2602  140.2825  156.1025 H   0  0  0  0  0  0  0  0  0  0  0  0  # atno 8010 bound_to 7997
  140.6286  143.8045  150.7265 H   0  0  0  0  0  0  0  0  0  0  0  0  # atno 10167 bound_to 10162
  156.0566  130.4275  150.1831 H   0  0  0  0  0  0  0  0  0  0  0  0  # atno 10718 bound_to 10713
  154.3467  135.6145  153.5622 H   0  0  0  0  0  0  0  0  0  0  0  0  # atno 10763 bound_to 10752
  152.9801  135.5782  154.4791 H   0  0  0  0  0  0  0  0  0  0  0  0  # atno 10764 bound_to 10752
  154.4505  135.2852  155.1762 H   0  0  0  0  0  0  0  0  0  0  0  0  # atno 10765 bound_to 10752
  140.0913  134.5205  155.8849 H   0  0  0  0  0  0  0  0  0  0  0  0  # atno 11005 bound_to 11000
  146.0062  139.3131  143.0898 LP  0  0  0  0  0  0  0  0  0  0  0  0  # atno 17320 bound_to 7965
  145.8736  140.9405  143.0638 LP  0  0  0  0  0  0  0  0  0  0  0  0  # atno 17321 bound_to 7965
  140.1651  143.4242  152.2040 LP  0  0  0  0  0  0  0  0  0  0  0  0  # atno 17342 bound_to 10162
  139.5503  144.7332  151.4456 LP  0  0  0  0  0  0  0  0  0  0  0  0  # atno 17343 bound_to 10162
  156.9906  130.9892  151.3415 LP  0  0  0  0  0  0  0  0  0  0  0  0  # atno 17370 bound_to 10713
  157.5541  130.8202  149.8182 LP  0  0  0  0  0  0  0  0  0  0  0  0  # atno 17371 bound_to 10713
  141.2079  133.6668  156.6334 LP  0  0  0  0  0  0  0  0  0  0  0  0  # atno 17394 bound_to 11000
  140.3348  134.7899  157.4353 LP  0  0  0  0  0  0  0  0  0  0  0  0  # atno 17395 bound_to 11000

$$$$
