#       Name:                AV-unprocessed.smi:1082
#       Creating user name   scv26
#       Creation time:       Fri Mar 27 03:23:54 2020


#       File generated by GOLD software.
#

@<TRIPOS>MOLECULE
AV-unprocessed.smi:1082
    52    54     1
SMALL
NO_CHARGES


@<TRIPOS>ATOM
      1 ****         0.5866   2.5992   0.2300 O.2            1 S1                 0.0000
      2 ****         0.1256   1.4727   0.4120 C.2            1 S1                 0.0000
      3 ****         0.8713   0.4190   0.7694 N.am           1 S1                 0.0000
      4 ****         2.3114   0.4662   0.9832 C.3            1 S1                 0.0000
      5 ****         2.8374  -0.9142   1.4076 C.3            1 S1                 0.0000
      6 ****         4.2974  -0.9076   1.6640 N.4            1 S1                 1.0000
      7 ****         4.8041  -2.1413   2.3136 C.3            1 S1                 0.0000
      8 ****         6.0362  -2.5910   1.5202 C.3            1 S1                 0.0000
      9 ****         6.4691  -1.3410   0.7646 C.3            1 S1                 0.0000
     10 ****         5.1408  -0.6492   0.4755 C.3            1 S1                 0.0000
     11 ****        -1.1647   1.1293   0.2629 N.am           1 S1                 0.0000
     12 ****        -2.2524   1.9546  -0.1409 C.ar           1 S1                 0.0000
     13 ****        -2.3033   3.3440   0.1393 C.ar           1 S1                 0.0000
     14 ****        -3.4198   4.0989  -0.2721 C.ar           1 S1                 0.0000
     15 ****        -4.4713   3.4542  -0.9497 C.ar           1 S1                 0.0000
     16 ****        -4.3993   2.1281  -1.1889 N.pl3          1 S1                 1.0000
     17 ****        -3.3500   1.3569  -0.8111 C.ar           1 S1                 0.0000
     18 ****        -3.3761  -0.0155  -1.1145 N.3            1 S1                 0.0000
     19 ****        -4.4386  -0.7700  -0.4556 C.3            1 S1                 0.0000
     20 ****        -4.8862  -1.8347  -1.4565 C.3            1 S1                 0.0000
     21 ****        -4.6523  -1.1505  -2.7970 C.3            1 S1                 0.0000
     22 ****        -3.3914  -0.3236  -2.5417 C.3            1 S1                 0.0000
     23 ****         0.4153  -0.4729   0.8955 H              1 S1                 0.0000
     24 ****         2.7929   0.7948   0.0609 H              1 S1                 0.0000
     25 ****         2.5411   1.2074   1.7506 H              1 S1                 0.0000
     26 ****         2.3274  -1.2196   2.3227 H              1 S1                 0.0000
     27 ****         2.6017  -1.6642   0.6507 H              1 S1                 0.0000
     28 ****         5.0751  -1.9002   3.3419 H              1 S1                 0.0000
     29 ****         4.0558  -2.9347   2.3483 H              1 S1                 0.0000
     30 ****         6.8241  -2.9965   2.1556 H              1 S1                 0.0000
     31 ****         5.7505  -3.3664   0.8080 H              1 S1                 0.0000
     32 ****         7.0870  -0.7123   1.4072 H              1 S1                 0.0000
     33 ****         7.0370  -1.5643  -0.1390 H              1 S1                 0.0000
     34 ****         4.6851  -1.0963  -0.4097 H              1 S1                 0.0000
     35 ****         5.2602   0.4187   0.2899 H              1 S1                 0.0000
     36 ****        -1.3780   0.1473   0.3580 H              1 S1                 0.0000
     37 ****        -1.5102   3.8426   0.6756 H              1 S1                 0.0000
     38 ****        -3.4698   5.1581  -0.0660 H              1 S1                 0.0000
     39 ****        -5.3632   3.9535  -1.2999 H              1 S1                 0.0000
     40 ****        -4.0756  -1.2214   0.4681 H              1 S1                 0.0000
     41 ****        -5.2794  -0.1242  -0.1979 H              1 S1                 0.0000
     42 ****        -4.2481  -2.7160  -1.3746 H              1 S1                 0.0000
     43 ****        -5.9200  -2.1493  -1.3102 H              1 S1                 0.0000
     44 ****        -4.5399  -1.8530  -3.6231 H              1 S1                 0.0000
     45 ****        -5.4897  -0.4895  -3.0255 H              1 S1                 0.0000
     46 ****        -3.3605   0.5654  -3.1735 H              1 S1                 0.0000
     47 ****        -2.5029  -0.9140  -2.7673 H              1 S1                 0.0000
     48 ****         4.4838  -0.1589   2.3162 H              1 S1                 0.0000
     49 ****        -5.1762   1.6832  -1.6781 H              1 S1                 0.0000
     50 ****         1.5659   2.7638   0.3484 LP             1 S1                 0.0000
     51 ****        -0.0180   3.3498  -0.0363 LP             1 S1                 0.0000
     52 ****        -2.5008  -0.3179  -0.7369 LP             1 S1                 0.0000
@<TRIPOS>BOND
    1    1    2 2     
    2    2    3 am    
    3    2   11 am    
    4    3    4 1     
    5    3   23 1     
    6    4    5 1     
    7    4   24 1     
    8    4   25 1     
    9    5    6 1     
   10    5   26 1     
   11    5   27 1     
   12    6   10 1     
   13    6    7 1     
   14    6   48 1     
   15    7    8 1     
   16    7   28 1     
   17    7   29 1     
   18    8    9 1     
   19    8   30 1     
   20    8   31 1     
   21    9   10 1     
   22    9   32 1     
   23    9   33 1     
   24   10   34 1     
   25   10   35 1     
   26   11   12 1     
   27   11   36 1     
   28   12   17 ar    
   29   12   13 ar    
   30   13   14 ar    
   31   13   37 1     
   32   14   15 ar    
   33   14   38 1     
   34   15   16 ar    
   35   15   39 1     
   36   16   17 ar    
   37   16   49 1     
   38   17   18 1     
   39   18   22 1     
   40   18   19 1     
   41   19   20 1     
   42   19   40 1     
   43   19   41 1     
   44   20   21 1     
   45   20   42 1     
   46   20   43 1     
   47   21   22 1     
   48   21   44 1     
   49   21   45 1     
   50   22   46 1     
   51   22   47 1     
   52    1   50 1     
   53    1   51 1     
   54   18   52 1     
@<TRIPOS>SUBSTRUCTURE
      1 S1             1
@<TRIPOS>SET
LONE_PAIRS      STATIC     ATOMS    <user>   **** ""
3 50 51 52
DONOR_HYDROGENS      STATIC     ATOMS    <user>   **** ""
4 23 48 36 49
ATOM$BLUE        STATIC     ATOMS    COLORGROUP SYSTEM
3 50 51 52
ATOM$RED        STATIC     ATOMS    COLORGROUP SYSTEM
4 23 48 36 49
