AV-unprocessed.smi:2397|AV-procd|sdf|9494|dock2
  -GOLD-   2272013123D 1   1.00000     0.00000
 Structure written by MMmdl.
 36 37  0  0  0  0  0  0  0  0  1 V2000
  153.8954  140.6772  160.6030 C   0  0  0  0  0  0  0  0  0  0  0  0
  153.6121  142.1853  160.6860 C   0  0  0  0  0  0  0  0  0  0  0  0
  153.0022  142.6077  162.0319 C   0  0  0  0  0  0  0  0  0  0  0  0
  152.7806  142.6740  159.5072 C   0  0  0  0  0  0  0  0  0  0  0  0
  152.6429  143.9961  159.3682 N   0  0  0  0  0  0  0  0  0  0  0  0
  151.8995  144.4258  158.3268 C   0  0  0  0  0  0  0  0  0  0  0  0
  151.2904  143.5280  157.4275 C   0  0  0  0  0  0  0  0  0  0  0  0
  151.4954  142.1509  157.6671 C   0  0  0  0  0  0  0  0  0  0  0  0
  150.9209  141.1916  156.8056 N   0  0  0  0  0  0  0  0  0  0  0  0
  150.1908  141.8529  155.7247 C   0  0  0  0  0  0  0  0  0  0  0  0
  149.4348  140.8316  154.8651 C   0  0  0  0  0  0  0  0  0  0  0  0
  150.3585  139.8747  154.3687 O   0  0  0  0  0  0  0  0  0  0  0  0
  150.9572  139.1358  155.4255 C   0  0  0  0  0  0  0  0  0  0  0  0
  151.7659  140.0647  156.3633 C   0  0  2  0  0  0  0  0  0  0  0  0
  152.3726  139.1829  157.4767 C   0  0  0  0  0  0  0  0  0  0  0  0
  151.5446  138.5246  158.2950 N   0  0  0  0  0  0  0  0  0  0  0  0
  153.5932  139.1077  157.6008 O   0  0  0  0  0  0  0  0  0  0  0  0
  152.2541  141.7383  158.7111 N   0  0  0  0  0  0  0  0  0  0  0  0
  154.3924  140.4229  159.6664 H   0  0  0  0  0  0  0  0  0  0  0  0
  152.9749  140.0955  160.6610 H   0  0  0  0  0  0  0  0  0  0  0  0
  154.5429  140.3543  161.4186 H   0  0  0  0  0  0  0  0  0  0  0  0
  154.5824  142.6811  160.6232 H   0  0  0  0  0  0  0  0  0  0  0  0
  152.8825  143.6901  162.0849 H   0  0  0  0  0  0  0  0  0  0  0  0
  153.6387  142.3042  162.8633 H   0  0  0  0  0  0  0  0  0  0  0  0
  152.0210  142.1568  162.1845 H   0  0  0  0  0  0  0  0  0  0  0  0
  151.7872  145.4935  158.2106 H   0  0  0  0  0  0  0  0  0  0  0  0
  150.6924  143.8813  156.6004 H   0  0  0  0  0  0  0  0  0  0  0  0
  149.4774  142.5762  156.1215 H   0  0  0  0  0  0  0  0  0  0  0  0
  150.8943  142.4095  155.1028 H   0  0  0  0  0  0  0  0  0  0  0  0
  148.6458  140.3408  155.4375 H   0  0  0  0  0  0  0  0  0  0  0  0
  148.9549  141.3306  154.0231 H   0  0  0  0  0  0  0  0  0  0  0  0
  150.1835  138.5956  155.9750 H   0  0  0  0  0  0  0  0  0  0  0  0
  151.6087  138.3818  154.9816 H   0  0  0  0  0  0  0  0  0  0  0  0
  152.5938  140.4762  155.7827 H   0  0  0  0  0  0  0  0  0  0  0  0
  151.9218  137.9404  159.0270 H   0  0  0  0  0  0  0  0  0  0  0  0
  150.5459  138.6122  158.1749 H   0  0  0  0  0  0  0  0  0  0  0  0
  1  2  1  0  0  0  0
  1 19  1  0  0  0  0
  1 20  1  0  0  0  0
  1 21  1  0  0  0  0
  2  3  1  0  0  0  0
  2  4  1  0  0  0  0
  2 22  1  0  0  0  0
  3 23  1  0  0  0  0
  3 24  1  0  0  0  0
  3 25  1  0  0  0  0
  4 18  1  0  0  0  0
  4  5  2  0  0  0  0
  5  6  1  0  0  0  0
  6  7  2  0  0  0  0
  6 26  1  0  0  0  0
  7  8  1  0  0  0  0
  7 27  1  0  0  0  0
  8  9  1  0  0  0  0
  8 18  2  0  0  0  0
  9 14  1  0  0  0  0
  9 10  1  0  0  0  0
 10 11  1  0  0  0  0
 10 28  1  0  0  0  0
 10 29  1  0  0  0  0
 11 12  1  0  0  0  0
 11 30  1  0  0  0  0
 11 31  1  0  0  0  0
 12 13  1  0  0  0  0
 13 14  1  0  0  0  0
 13 32  1  0  0  0  0
 13 33  1  0  0  0  0
 14 15  1  0  0  0  0
 14 34  1  0  0  0  0
 15 16  1  0  0  0  0
 15 17  2  0  0  0  0
 16 35  1  0  0  0  0
 16 36  1  0  0  0  0
M  END
> <s_m_source_file>
AV-unprocessed.smi

> <i_m_source_file_index>
2397

> <i_lp_mmshare_version>
43012

> <i_f3d_flags>
0

> <s_epik_input>
W0NIM11bQ0hdKFtDSDNdKWMxbltjSF1bY0hdYyhuMSlOMltDSDJdW0NIMl1PW0NIMl1bQ0BIXTJDKD1PKVtOSDJd

> <s_epik_cmdline>
J2VwaWtfcHl0aG9uJywgJy1waCcsICc3LjAnLCAnLXRuJywgJzgnLCAnLW1hJywgJzIwMCcsICctbWV0YWxfYmluZGluZycsICctaW1hZScsICc8aW5maWxlLm1hZT4nLCAnLW9tYWUnLCAnPG91dGZpbGUubWFlPic=

> <r_lp_tautomer_probability>
1

> <r_epik_Ionization_Penalty>
0.0323151

> <r_epik_Ionization_Penalty_Charging>
0

> <r_epik_Ionization_Penalty_Neutral>
0.0323151

> <r_epik_State_Penalty>
0.0267324

> <r_epik_Charging_Adjusted_Penalty>
0.0267324

> <i_epik_Tot_Q>
0

> <i_epik_Tot_abs_Q>
0

> <r_epik_Metal_State_Penalty>
0.0253461

> <b_epik_Metal_Only>
0

> <s_lp_Force_Field>
OPLS_2005

> <r_lp_Energy>
6.15108

> <b_lp_Chiralities_Consistent>
1

> <s_lp_Variant>
AV-unprocessed.smi:2397-2

> <Gold.Version>
5.8.1

> <Gold.Id.Protein>
6NUR|6NUR_protein|mol2

> <Gold.PLP.Fitness>
41.1108

> <Gold.PLP.PLP>
-39.7322

> <Gold.PLP.part.hbond>
-2.0000

> <Gold.PLP.part.metal>
0.0000

> <Gold.PLP.part.buried>
-4.5823

> <Gold.PLP.part.nonpolar>
-33.6287

> <Gold.PLP.part.repulsive>
0.2323

> <Gold.PLP.ligand.clash>
4.2830

> <Gold.PLP.ligand.torsion>
0.3053

> <Gold.PLP.Chemscore.Hbond>
2.0000

> <Gold.PLP.Chemscore.CHOScore>
0.0000

> <Gold.PLP.Chemscore.Metal>
0.0000

> <Gold.Chemscore.Hbonds>
donor molecule, donor type, donor heavy atom, donor atom, acceptor molecule, acceptor atom, score
      P1  H  7989  7998       L1    12  1.00
      P1  H  7997  8009       L1    17  0.88

> <Gold.PLP.Chemscore.Internal.Correction>
0.2722

> <Gold.Rescore>
     Score         DG    S(hbond)    S(metal)    S(lipo)     H(rot)  DE(clash)    DE(int)     intcor
     15.26     -16.77       1.73        0.00      85.25       1.74       0.07       1.44       ----

> <Gold.Chemscore.Fitness>
15.2595

> <Gold.Chemscore.DG>
-16.7728

> <Gold.Chemscore.ZeroCoef>
-5.4800

> <Gold.Chemscore.Hbond>
1.7303

> <Gold.Chemscore.Metal>
0.0000

> <Gold.Chemscore.Lipo>
85.2542

> <Gold.Chemscore.Internal_Hbond>
0.0000

> <Gold.Chemscore.DEClash>
0.0731

> <Gold.Chemscore.DEInternal>
1.4402

> <Gold.Chemscore.Rot>
1.7426

> <Gold.Chemscore.Internal.Correction>
   9.000000E+99

> <Gold.Chemscore.Hbonds>
donor molecule, donor type, donor heavy atom, donor atom, acceptor molecule, acceptor atom, score
      P1  H  7989  7998       L1    12  0.39
      P1  H  7997  8009       L1    17  0.85

> <Gold.Chemscore.Hbond.Weighted>
-5.7791

> <Gold.Chemscore.Metal.Weighted>
-0.0000

> <Gold.Chemscore.Lipo.Weighted>
-9.9747

> <Gold.Chemscore.Internal_Hbond.Weighted>
0.0000

> <Gold.Chemscore.DEClash.Weighted>
0.0731

> <Gold.Chemscore.DEInternal.Weighted>
1.4402

> <Gold.Chemscore.Rot.Weighted>
4.4610

> <Gold.Chemscore.Internal.Correction.Weighted>
   9.000000E+99

> <Gold.Protein.RotatedTorsions>
[ 6907 6896 6895 6894 ] final  -24.90 input  -60.11 | X-H torsion
[ 7974 7965 7964 7962 ] final   78.42 input  175.53 | X-H torsion
[ 8008 7997 7996 7995 ] final  150.37 input   59.86 | X-H torsion
[ 10167 10162 10161 10158 ] final   32.30 input  -65.29 | X-H torsion
[ 10718 10713 10712 10709 ] final  167.22 input   66.30 | X-H torsion
[ 10763 10752 10751 10750 ] final -148.68 input  -60.55 | X-H torsion
[ 11005 11000 10999 10996 ] final -108.94 input  -57.11 | X-H torsion

> <Gold.Protein.ActiveResidues>
 VAL166  LYS551  ARG553  GLY616  TRP617  ASP618  TYR619  PRO620  LYS621  CYS622 
 ASP623  PHE694  ASN695  SER759  ASP760  ASP761  ALA762  ILE779  LEU786  VAL792 
 PHE793  MET794  SER795  GLU796  ALA797  LYS798  CYS799  TRP800  GLU811  SER814 

> <Gold.Protein.RotatedAtoms>
  151.1828  135.0368  159.8799 H   0  0  0  0  0  0  0  0  0  0  0  0  # atno 6907 bound_to 6896
  152.5444  134.1043  159.8341 H   0  0  0  0  0  0  0  0  0  0  0  0  # atno 6908 bound_to 6896
  151.1162  133.5090  159.2636 H   0  0  0  0  0  0  0  0  0  0  0  0  # atno 6909 bound_to 6896
  145.6774  139.2514  143.1834 H   0  0  0  0  0  0  0  0  0  0  0  0  # atno 7974 bound_to 7965
  156.2718  140.2076  156.6006 H   0  0  0  0  0  0  0  0  0  0  0  0  # atno 8008 bound_to 7997
  154.6909  140.0530  157.0386 H   0  0  0  0  0  0  0  0  0  0  0  0  # atno 8009 bound_to 7997
  155.0867  140.3192  155.4588 H   0  0  0  0  0  0  0  0  0  0  0  0  # atno 8010 bound_to 7997
  140.4511  144.1047  150.6192 H   0  0  0  0  0  0  0  0  0  0  0  0  # atno 10167 bound_to 10162
  157.0546  131.0323  151.2668 H   0  0  0  0  0  0  0  0  0  0  0  0  # atno 10718 bound_to 10713
  154.8219  135.3328  154.7011 H   0  0  0  0  0  0  0  0  0  0  0  0  # atno 10763 bound_to 10752
  153.7643  135.6930  153.4923 H   0  0  0  0  0  0  0  0  0  0  0  0  # atno 10764 bound_to 10752
  153.2088  135.4489  155.0304 H   0  0  0  0  0  0  0  0  0  0  0  0  # atno 10765 bound_to 10752
  141.0874  133.9114  157.2153 H   0  0  0  0  0  0  0  0  0  0  0  0  # atno 11005 bound_to 11000
  146.0993  140.7562  142.9557 LP  0  0  0  0  0  0  0  0  0  0  0  0  # atno 17320 bound_to 7965
  144.7037  140.3762  143.7135 LP  0  0  0  0  0  0  0  0  0  0  0  0  # atno 17321 bound_to 7965
  140.4206  143.2613  151.9720 LP  0  0  0  0  0  0  0  0  0  0  0  0  # atno 17342 bound_to 10162
  139.4797  144.5834  151.7894 LP  0  0  0  0  0  0  0  0  0  0  0  0  # atno 17343 bound_to 10162
  157.5003  130.7876  149.7598 LP  0  0  0  0  0  0  0  0  0  0  0  0  # atno 17370 bound_to 10713
  155.9997  130.3887  150.2655 LP  0  0  0  0  0  0  0  0  0  0  0  0  # atno 17371 bound_to 10713
  139.9695  135.0132  156.9474 LP  0  0  0  0  0  0  0  0  0  0  0  0  # atno 17394 bound_to 11000
  140.5330  134.0794  155.7321 LP  0  0  0  0  0  0  0  0  0  0  0  0  # atno 17395 bound_to 11000

$$$$
