AV-unprocessed.smi:2830|AV-procd|sdf|10907|dock1
  -GOLD-   2272015353D 1   1.00000     0.00000
 Structure written by MMmdl.
 28 28  0  0  0  0  0  0  0  0  1 V2000
  145.2346  131.9045  149.4141 C   0  0  0  0  0  0  0  0  0  0  0  0
  145.6331  132.7457  150.4821 O   0  0  0  0  0  0  0  0  0  0  0  0
  144.6225  132.8929  151.4672 C   0  0  0  0  0  0  0  0  0  0  0  0
  144.9277  134.1377  152.3200 C   0  0  1  0  0  0  0  0  0  0  0  0
  143.9349  134.2596  153.3859 N   0  0  0  0  0  0  0  0  0  0  0  0
  143.5819  135.4961  153.9479 C   0  0  0  0  0  0  0  0  0  0  0  0
  142.2679  135.6600  154.4352 C   0  0  0  0  0  0  0  0  0  0  0  0
  141.9007  136.8962  155.0018 C   0  0  0  0  0  0  0  0  0  0  0  0
  142.8597  137.9264  155.0606 C   0  0  0  0  0  0  0  0  0  0  0  0
  142.5306  139.2188  155.6366 C   0  0  0  0  0  0  0  0  0  0  0  0
  142.2685  140.2483  156.0953 N   0  0  0  0  0  0  0  0  0  0  0  0
  144.1470  137.6708  154.5464 C   0  0  0  0  0  0  0  0  0  0  0  0
  144.5035  136.4879  154.0011 N   0  0  0  0  0  0  0  0  0  0  0  0
  146.3723  134.0651  152.8406 C   0  0  0  0  0  0  0  0  0  0  0  0
  147.3420  133.9596  151.9282 N   0  0  0  0  0  0  0  0  0  0  0  0
  146.6104  134.0885  154.0471 O   0  0  0  0  0  0  0  0  0  0  0  0
  146.0453  131.8245  148.6899 H   0  0  0  0  0  0  0  0  0  0  0  0
  144.3615  132.3074  148.8992 H   0  0  0  0  0  0  0  0  0  0  0  0
  145.0001  130.9000  149.7690 H   0  0  0  0  0  0  0  0  0  0  0  0
  143.6395  132.9769  150.9992 H   0  0  0  0  0  0  0  0  0  0  0  0
  144.6093  131.9961  152.0901 H   0  0  0  0  0  0  0  0  0  0  0  0
  144.8475  135.0086  151.6666 H   0  0  0  0  0  0  0  0  0  0  0  0
  143.5963  133.4111  153.8154 H   0  0  0  0  0  0  0  0  0  0  0  0
  141.5510  134.8539  154.3791 H   0  0  0  0  0  0  0  0  0  0  0  0
  140.9005  137.0442  155.3829 H   0  0  0  0  0  0  0  0  0  0  0  0
  144.9146  138.4309  154.5699 H   0  0  0  0  0  0  0  0  0  0  0  0
  148.3062  133.9000  152.2219 H   0  0  0  0  0  0  0  0  0  0  0  0
  147.1054  133.9312  150.9471 H   0  0  0  0  0  0  0  0  0  0  0  0
  1  2  1  0  0  0  0
  1 17  1  0  0  0  0
  1 18  1  0  0  0  0
  1 19  1  0  0  0  0
  2  3  1  0  0  0  0
  3  4  1  0  0  0  0
  3 20  1  0  0  0  0
  3 21  1  0  0  0  0
  4  5  1  0  0  0  0
  4 14  1  0  0  0  0
  4 22  1  0  0  0  0
  5  6  1  0  0  0  0
  5 23  1  0  0  0  0
  6 13  1  0  0  0  0
  6  7  2  0  0  0  0
  7  8  1  0  0  0  0
  7 24  1  0  0  0  0
  8  9  2  0  0  0  0
  8 25  1  0  0  0  0
  9 10  1  0  0  0  0
  9 12  1  0  0  0  0
 10 11  3  0  0  0  0
 12 13  2  0  0  0  0
 12 26  1  0  0  0  0
 14 15  1  0  0  0  0
 14 16  2  0  0  0  0
 15 27  1  0  0  0  0
 15 28  1  0  0  0  0
M  END
> <s_m_source_file>
AV-unprocessed.smi

> <i_m_source_file_index>
2830

> <i_lp_mmshare_version>
43012

> <i_f3d_flags>
0

> <s_epik_input>
W0NIM11PW0NIMl1bQ0BASF0oQyg9TylbTkgyXSlbTkhdYzFbY0hdW2NIXWMoQyNOKVtjSF1uMQ==

> <s_epik_cmdline>
J2VwaWtfcHl0aG9uJywgJy1waCcsICc3LjAnLCAnLXRuJywgJzgnLCAnLW1hJywgJzIwMCcsICctbWV0YWxfYmluZGluZycsICctaW1hZScsICc8aW5maWxlLm1hZT4nLCAnLW9tYWUnLCAnPG91dGZpbGUubWFlPic=

> <r_lp_tautomer_probability>
1

> <r_epik_Ionization_Penalty>
4.37908e-06

> <r_epik_Ionization_Penalty_Charging>
0

> <r_epik_Ionization_Penalty_Neutral>
4.37908e-06

> <r_epik_State_Penalty>
-0

> <r_epik_Charging_Adjusted_Penalty>
0

> <i_epik_Tot_Q>
0

> <i_epik_Tot_abs_Q>
0

> <r_epik_Metal_State_Penalty>
-0

> <b_epik_Metal_Only>
0

> <s_lp_Force_Field>
OPLS_2005

> <r_lp_Energy>
3.76959

> <b_lp_Chiralities_Consistent>
1

> <s_lp_Variant>
AV-unprocessed.smi:2830-2

> <Gold.Version>
5.8.1

> <Gold.Id.Protein>
6NUR|6NUR_protein|mol2

> <Gold.PLP.Fitness>
33.3075

> <Gold.PLP.PLP>
-26.2436

> <Gold.PLP.part.hbond>
-1.7262

> <Gold.PLP.part.metal>
0.0000

> <Gold.PLP.part.buried>
-5.5875

> <Gold.PLP.part.nonpolar>
-20.3430

> <Gold.PLP.part.repulsive>
0.5416

> <Gold.PLP.ligand.clash>
0.0000

> <Gold.PLP.ligand.torsion>
0.6572

> <Gold.PLP.Chemscore.Hbond>
1.7800

> <Gold.PLP.Chemscore.CHOScore>
1.0000

> <Gold.PLP.Chemscore.Metal>
0.0000

> <Gold.Chemscore.Hbonds>
donor molecule, donor type, donor heavy atom, donor atom, acceptor molecule, acceptor atom, score
      L1  H     5    23       P1 10957  0.76

> <Gold.PLP.Chemscore.Internal.Correction>
0.0384

> <Gold.Rescore>
     Score         DG    S(hbond)    S(metal)    S(lipo)     H(rot)  DE(clash)    DE(int)     intcor
     11.12     -11.90       1.95        0.00      50.09       2.32       0.01       0.78       ----

> <Gold.Chemscore.Fitness>
11.1173

> <Gold.Chemscore.DG>
-11.9030

> <Gold.Chemscore.ZeroCoef>
-5.4800

> <Gold.Chemscore.Hbond>
1.9464

> <Gold.Chemscore.Metal>
0.0000

> <Gold.Chemscore.Lipo>
50.0888

> <Gold.Chemscore.Internal_Hbond>
0.0000

> <Gold.Chemscore.DEClash>
0.0060

> <Gold.Chemscore.DEInternal>
0.7797

> <Gold.Chemscore.Rot>
2.3197

> <Gold.Chemscore.Internal.Correction>
   9.000000E+99

> <Gold.Chemscore.Hbonds>
donor molecule, donor type, donor heavy atom, donor atom, acceptor molecule, acceptor atom, score
      L1  H     5    23       P1 10957  0.77

> <Gold.Chemscore.Hbond.Weighted>
-6.5010

> <Gold.Chemscore.Metal.Weighted>
-0.0000

> <Gold.Chemscore.Lipo.Weighted>
-5.8604

> <Gold.Chemscore.Internal_Hbond.Weighted>
0.0000

> <Gold.Chemscore.DEClash.Weighted>
0.0060

> <Gold.Chemscore.DEInternal.Weighted>
0.7797

> <Gold.Chemscore.Rot.Weighted>
5.9384

> <Gold.Chemscore.Internal.Correction.Weighted>
   9.000000E+99

> <Gold.Protein.RotatedTorsions>
[ 6907 6896 6895 6894 ] final   28.92 input  -60.11 | X-H torsion
[ 7974 7965 7964 7962 ] final   -1.08 input  175.53 | X-H torsion
[ 8008 7997 7996 7995 ] final   14.84 input   59.86 | X-H torsion
[ 10167 10162 10161 10158 ] final   36.67 input  -65.29 | X-H torsion
[ 10718 10713 10712 10709 ] final -178.35 input   66.30 | X-H torsion
[ 10763 10752 10751 10750 ] final  -91.28 input  -60.55 | X-H torsion
[ 11005 11000 10999 10996 ] final   13.27 input  -57.11 | X-H torsion

> <Gold.Protein.ActiveResidues>
 VAL166  LYS551  ARG553  GLY616  TRP617  ASP618  TYR619  PRO620  LYS621  CYS622 
 ASP623  PHE694  ASN695  SER759  ASP760  ASP761  ALA762  ILE779  LEU786  VAL792 
 PHE793  MET794  SER795  GLU796  ALA797  LYS798  CYS799  TRP800  GLU811  SER814 

> <Gold.Protein.RotatedAtoms>
  152.0241  134.9806  160.0571 H   0  0  0  0  0  0  0  0  0  0  0  0  # atno 6907 bound_to 6896
  152.1309  133.4402  159.4728 H   0  0  0  0  0  0  0  0  0  0  0  0  # atno 6908 bound_to 6896
  150.6856  134.2340  159.4489 H   0  0  0  0  0  0  0  0  0  0  0  0  # atno 6909 bound_to 6896
  146.2421  140.1366  142.8336 H   0  0  0  0  0  0  0  0  0  0  0  0  # atno 7974 bound_to 7965
  154.8542  140.2934  155.5579 H   0  0  0  0  0  0  0  0  0  0  0  0  # atno 8008 bound_to 7997
  156.3017  140.2490  156.3437 H   0  0  0  0  0  0  0  0  0  0  0  0  # atno 8009 bound_to 7997
  154.8988  140.0392  157.1870 H   0  0  0  0  0  0  0  0  0  0  0  0  # atno 8010 bound_to 7997
  140.4106  144.1598  150.6139 H   0  0  0  0  0  0  0  0  0  0  0  0  # atno 10167 bound_to 10162
  156.8430  130.9693  151.3098 H   0  0  0  0  0  0  0  0  0  0  0  0  # atno 10718 bound_to 10713
  154.6744  135.5273  153.8180 H   0  0  0  0  0  0  0  0  0  0  0  0  # atno 10763 bound_to 10752
  153.0523  135.6537  154.0674 H   0  0  0  0  0  0  0  0  0  0  0  0  # atno 10764 bound_to 10752
  154.0569  135.2965  155.3311 H   0  0  0  0  0  0  0  0  0  0  0  0  # atno 10765 bound_to 10752
  140.4826  134.0920  155.7754 H   0  0  0  0  0  0  0  0  0  0  0  0  # atno 11005 bound_to 11000
  145.0281  140.8849  143.5126 LP  0  0  0  0  0  0  0  0  0  0  0  0  # atno 17320 bound_to 7965
  145.1426  139.2563  143.5482 LP  0  0  0  0  0  0  0  0  0  0  0  0  # atno 17321 bound_to 7965
  140.4642  143.2437  151.9178 LP  0  0  0  0  0  0  0  0  0  0  0  0  # atno 17342 bound_to 10162
  139.4782  144.5436  151.8491 LP  0  0  0  0  0  0  0  0  0  0  0  0  # atno 17343 bound_to 10162
  157.6345  130.8756  149.9334 LP  0  0  0  0  0  0  0  0  0  0  0  0  # atno 17370 bound_to 10713
  156.0870  130.3667  150.0468 LP  0  0  0  0  0  0  0  0  0  0  0  0  # atno 17371 bound_to 10713
  141.1523  133.8945  157.2065 LP  0  0  0  0  0  0  0  0  0  0  0  0  # atno 17394 bound_to 11000
  139.9817  135.0096  156.9765 LP  0  0  0  0  0  0  0  0  0  0  0  0  # atno 17395 bound_to 11000

$$$$
