AV-unprocessed.smi:2489|AV-procd|sdf|9806|dock3
  -GOLD-   2272013443D 1   1.00000     0.00000
 Structure written by MMmdl.
 34 35  0  0  0  0  0  0  0  0  2 V2000
  153.2386  142.2882  161.6437 C   0  0  0  0  0  0  0  0  0  0  0  0
  152.7589  141.7104  160.4383 O   0  0  0  0  0  0  0  0  0  0  0  0
  152.1211  142.5333  159.5355 C   0  0  0  0  0  0  0  0  0  0  0  0
  152.0269  143.9422  159.6648 C   0  0  0  0  0  0  0  0  0  0  0  0
  151.3385  144.6794  158.6824 C   0  0  0  0  0  0  0  0  0  0  0  0
  150.7832  144.0453  157.6282 N   0  3  0  0  0  0  0  0  0  0  0  0
  150.8527  142.7080  157.4413 C   0  0  0  0  0  0  0  0  0  0  0  0
  150.2081  142.1790  156.2911 N   0  0  0  0  0  0  0  0  0  0  0  0
  150.4510  141.0175  155.6559 C   0  0  0  0  0  0  0  0  0  0  0  0
  151.3114  140.2051  155.9970 O   0  0  0  0  0  0  0  0  0  0  0  0
  149.5661  140.7411  154.4290 C   0  0  1  0  0  0  0  0  0  0  0  0
  148.4859  139.6619  154.6502 C   0  0  0  0  0  0  0  0  0  0  0  0
  147.1720  140.3939  154.4316 C   0  0  0  0  0  0  0  0  0  0  0  0
  147.5452  141.8537  154.6662 C   0  0  2  0  0  0  0  0  0  0  0  0
  146.6066  142.8587  153.9907 C   0  0  0  0  0  0  0  0  0  0  0  0
  148.8491  141.9312  154.1079 O   0  0  0  0  0  0  0  0  0  0  0  0
  151.5215  141.9221  158.4133 C   0  0  0  0  0  0  0  0  0  0  0  0
  153.7164  141.5163  162.2468 H   0  0  0  0  0  0  0  0  0  0  0  0
  152.4249  142.7114  162.2342 H   0  0  0  0  0  0  0  0  0  0  0  0
  153.9832  143.0609  161.4474 H   0  0  0  0  0  0  0  0  0  0  0  0
  152.4637  144.4710  160.4985 H   0  0  0  0  0  0  0  0  0  0  0  0
  151.2160  145.7525  158.7087 H   0  0  0  0  0  0  0  0  0  0  0  0
  149.5251  142.7829  155.8571 H   0  0  0  0  0  0  0  0  0  0  0  0
  150.1929  140.4764  153.5757 H   0  0  0  0  0  0  0  0  0  0  0  0
  148.5935  138.8344  153.9482 H   0  0  0  0  0  0  0  0  0  0  0  0
  148.5178  139.2340  155.6530 H   0  0  0  0  0  0  0  0  0  0  0  0
  146.8417  140.2502  153.4019 H   0  0  0  0  0  0  0  0  0  0  0  0
  146.3766  140.0484  155.0924 H   0  0  0  0  0  0  0  0  0  0  0  0
  147.6015  142.0568  155.7370 H   0  0  0  0  0  0  0  0  0  0  0  0
  145.5954  142.7782  154.3900 H   0  0  0  0  0  0  0  0  0  0  0  0
  146.5569  142.6930  152.9141 H   0  0  0  0  0  0  0  0  0  0  0  0
  146.9487  143.8808  154.1545 H   0  0  0  0  0  0  0  0  0  0  0  0
  151.5764  140.8477  158.3255 H   0  0  0  0  0  0  0  0  0  0  0  0
  150.2913  144.6090  156.9344 H   0  0  0  0  0  0  0  0  0  0  0  0
  1  2  1  0  0  0  0
  1 18  1  0  0  0  0
  1 19  1  0  0  0  0
  1 20  1  0  0  0  0
  2  3  1  0  0  0  0
  3 17  1  0  0  0  0
  3  4  2  0  0  0  0
  4  5  1  0  0  0  0
  4 21  1  0  0  0  0
  5  6  2  0  0  0  0
  5 22  1  0  0  0  0
  6  7  1  0  0  0  0
  6 34  1  0  0  0  0
  7  8  1  0  0  0  0
  7 17  2  0  0  0  0
  8  9  1  0  0  0  0
  8 23  1  0  0  0  0
  9 10  2  0  0  0  0
  9 11  1  0  0  0  0
 11 16  1  0  0  0  0
 11 12  1  0  0  0  0
 11 24  1  0  0  0  0
 12 13  1  0  0  0  0
 12 25  1  0  0  0  0
 12 26  1  0  0  0  0
 13 14  1  0  0  0  0
 13 27  1  0  0  0  0
 13 28  1  0  0  0  0
 14 15  1  0  0  0  0
 14 16  1  0  0  0  0
 14 29  1  0  0  0  0
 15 30  1  0  0  0  0
 15 31  1  0  0  0  0
 15 32  1  0  0  0  0
 17 33  1  0  0  0  0
M  CHG  1   6   1
M  END
> <s_m_source_file>
AV-unprocessed.smi

> <i_m_source_file_index>
2489

> <i_lp_mmshare_version>
43012

> <i_f3d_flags>
0

> <s_epik_input>
W0NIM11PYzFbY0hdW2NIXW5jKFtjSF0xKVtOSF1DKD1PKVtDQEBIXTJbQ0gyXVtDSDJdW0NASF0oTzIpW0NIM10=

> <s_epik_cmdline>
J2VwaWtfcHl0aG9uJywgJy1waCcsICc3LjAnLCAnLXRuJywgJzgnLCAnLW1hJywgJzIwMCcsICctbWV0YWxfYmluZGluZycsICctaW1hZScsICc8aW5maWxlLm1hZT4nLCAnLW9tYWUnLCAnPG91dGZpbGUubWFlPic=

> <r_epik_Ionization_Penalty>
1.58956

> <r_epik_Ionization_Penalty_Charging>
1.1784

> <r_epik_Ionization_Penalty_Neutral>
0.411158

> <r_epik_State_Penalty>
1.31089

> <r_epik_Charging_Adjusted_Penalty>
2.48928

> <i_epik_Tot_Q>
1

> <i_epik_Tot_abs_Q>
1

> <r_epik_Metal_State_Penalty>
5.00213

> <b_epik_Metal_Only>
0

> <s_lp_Force_Field>
OPLS_2005

> <r_lp_Energy>
33.2408

> <b_lp_Chiralities_Consistent>
1

> <s_lp_Variant>
AV-unprocessed.smi:2489-12

> <Gold.Version>
5.8.1

> <Gold.Id.Protein>
6NUR|6NUR_protein|mol2

> <Gold.PLP.Fitness>
48.3129

> <Gold.PLP.PLP>
-39.4324

> <Gold.PLP.part.hbond>
-3.0000

> <Gold.PLP.part.metal>
0.0000

> <Gold.PLP.part.buried>
-5.3930

> <Gold.PLP.part.nonpolar>
-31.5482

> <Gold.PLP.part.repulsive>
0.3135

> <Gold.PLP.ligand.clash>
0.0000

> <Gold.PLP.ligand.torsion>
0.4319

> <Gold.PLP.Chemscore.Hbond>
3.2447

> <Gold.PLP.Chemscore.CHOScore>
0.0000

> <Gold.PLP.Chemscore.Metal>
0.0000

> <Gold.Chemscore.Hbonds>
donor molecule, donor type, donor heavy atom, donor atom, acceptor molecule, acceptor atom, score
      L1  H     6    34       P1  8028  1.98
      L1  H     8    23       P1  8028  0.86
      P1  H  8011  8017       L1    16  0.41

> <Gold.PLP.Chemscore.Internal.Correction>
0.0103

> <Gold.Rescore>
     Score         DG    S(hbond)    S(metal)    S(lipo)     H(rot)  DE(clash)    DE(int)     intcor
     16.61     -18.24       1.76        0.00      85.99       1.24       0.04       1.59       ----

> <Gold.Chemscore.Fitness>
16.6128

> <Gold.Chemscore.DG>
-18.2394

> <Gold.Chemscore.ZeroCoef>
-5.4800

> <Gold.Chemscore.Hbond>
1.7592

> <Gold.Chemscore.Metal>
0.0000

> <Gold.Chemscore.Lipo>
85.9863

> <Gold.Chemscore.Internal_Hbond>
0.0000

> <Gold.Chemscore.DEClash>
0.0380

> <Gold.Chemscore.DEInternal>
1.5886

> <Gold.Chemscore.Rot>
1.2409

> <Gold.Chemscore.Internal.Correction>
   9.000000E+99

> <Gold.Chemscore.Hbonds>
donor molecule, donor type, donor heavy atom, donor atom, acceptor molecule, acceptor atom, score
      L1  H     6    34       P1  8028  0.65
      L1  H     8    23       P1  8028  0.79
      P1  H  8011  8017       L1    16  0.10

> <Gold.Chemscore.Hbond.Weighted>
-5.8757

> <Gold.Chemscore.Metal.Weighted>
-0.0000

> <Gold.Chemscore.Lipo.Weighted>
-10.0604

> <Gold.Chemscore.Internal_Hbond.Weighted>
0.0000

> <Gold.Chemscore.DEClash.Weighted>
0.0380

> <Gold.Chemscore.DEInternal.Weighted>
1.5886

> <Gold.Chemscore.Rot.Weighted>
3.1767

> <Gold.Chemscore.Internal.Correction.Weighted>
   9.000000E+99

> <Gold.Protein.RotatedTorsions>
[ 6907 6896 6895 6894 ] final  113.66 input  -60.11 | X-H torsion
[ 7974 7965 7964 7962 ] final  -93.22 input  175.53 | X-H torsion
[ 8008 7997 7996 7995 ] final   51.97 input   59.86 | X-H torsion
[ 10167 10162 10161 10158 ] final -163.21 input  -65.29 | X-H torsion
[ 10718 10713 10712 10709 ] final   70.42 input   66.30 | X-H torsion
[ 10763 10752 10751 10750 ] final   64.71 input  -60.55 | X-H torsion
[ 11005 11000 10999 10996 ] final -109.45 input  -57.11 | X-H torsion

> <Gold.Protein.ActiveResidues>
 VAL166  LYS551  ARG553  GLY616  TRP617  ASP618  TYR619  PRO620  LYS621  CYS622 
 ASP623  PHE694  ASN695  SER759  ASP760  ASP761  ALA762  ILE779  LEU786  VAL792 
 PHE793  MET794  SER795  GLU796  ALA797  LYS798  CYS799  TRP800  GLU811  SER814 

> <Gold.Protein.RotatedAtoms>
  152.4848  133.8345  159.7119 H   0  0  0  0  0  0  0  0  0  0  0  0  # atno 6907 bound_to 6896
  150.8925  133.7214  159.2907 H   0  0  0  0  0  0  0  0  0  0  0  0  # atno 6908 bound_to 6896
  151.4682  135.1047  159.9796 H   0  0  0  0  0  0  0  0  0  0  0  0  # atno 6909 bound_to 6896
  145.3895  140.9526  143.2349 H   0  0  0  0  0  0  0  0  0  0  0  0  # atno 7974 bound_to 7965
  155.4441  140.3455  155.4293 H   0  0  0  0  0  0  0  0  0  0  0  0  # atno 8008 bound_to 7997
  156.1261  140.1501  156.9164 H   0  0  0  0  0  0  0  0  0  0  0  0  # atno 8009 bound_to 7997
  154.4859  140.0855  156.7465 H   0  0  0  0  0  0  0  0  0  0  0  0  # atno 8010 bound_to 7997
  139.6337  144.0391  152.2036 H   0  0  0  0  0  0  0  0  0  0  0  0  # atno 10167 bound_to 10162
  157.6399  130.9476  150.0649 H   0  0  0  0  0  0  0  0  0  0  0  0  # atno 10718 bound_to 10713
  153.0066  135.5383  154.6553 H   0  0  0  0  0  0  0  0  0  0  0  0  # atno 10763 bound_to 10752
  154.5775  135.2847  155.0768 H   0  0  0  0  0  0  0  0  0  0  0  0  # atno 10764 bound_to 10752
  154.1910  135.6500  153.5112 H   0  0  0  0  0  0  0  0  0  0  0  0  # atno 10765 bound_to 10752
  141.0847  133.9160  157.2213 H   0  0  0  0  0  0  0  0  0  0  0  0  # atno 11005 bound_to 11000
  144.8450  139.5411  143.6882 LP  0  0  0  0  0  0  0  0  0  0  0  0  # atno 17320 bound_to 7965
  146.2804  139.6863  142.9233 LP  0  0  0  0  0  0  0  0  0  0  0  0  # atno 17321 bound_to 7965
  140.0063  144.6256  150.7686 LP  0  0  0  0  0  0  0  0  0  0  0  0  # atno 17342 bound_to 10162
  140.7453  143.2874  151.3426 LP  0  0  0  0  0  0  0  0  0  0  0  0  # atno 17343 bound_to 10162
  156.1670  130.3645  149.9218 LP  0  0  0  0  0  0  0  0  0  0  0  0  # atno 17370 bound_to 10713
  156.7203  130.9004  151.3617 LP  0  0  0  0  0  0  0  0  0  0  0  0  # atno 17371 bound_to 10713
  139.9663  135.0141  156.9397 LP  0  0  0  0  0  0  0  0  0  0  0  0  # atno 17394 bound_to 11000
  140.5391  134.0738  155.7336 LP  0  0  0  0  0  0  0  0  0  0  0  0  # atno 17395 bound_to 11000

$$$$
