#       Name:                AV-unprocessed.smi:2453
#       Creating user name   scv26
#       Creation time:       Fri Mar 27 13:32:42 2020


#       File generated by GOLD software.
#

@<TRIPOS>MOLECULE
AV-unprocessed.smi:2453
    45    46     1
SMALL
NO_CHARGES


@<TRIPOS>ATOM
      1 ****        -3.9869  -0.1751   1.1464 C.3            1 S1                 0.0000
      2 ****        -3.7812   1.2521   0.6691 C.ar           1 S1                 0.0000
      3 ****        -4.8713   2.1482   0.6402 C.ar           1 S1                 0.0000
      4 ****        -4.7739   3.4291   0.2287 N.ar           1 S1                 0.0000
      5 ****        -3.5658   3.8673  -0.1800 C.ar           1 S1                 0.0000
      6 ****        -2.4116   3.0604  -0.1934 C.ar           1 S1                 0.0000
      7 ****        -2.5110   1.7202   0.2529 C.ar           1 S1                 0.0000
      8 ****        -1.4122   0.8149   0.2587 N.am           1 S1                 0.0000
      9 ****        -0.0957   1.0849   0.2840 C.2            1 S1                 0.0000
     10 ****         0.4000   2.2093   0.3537 O.2            1 S1                 0.0000
     11 ****         0.6241  -0.0456   0.2386 N.am           1 S1                 0.0000
     12 ****         2.0855  -0.1435   0.2306 C.3            1 S1                 0.0000
     13 ****         2.5721  -0.8722   1.4994 C.3            1 S1                 0.0000
     14 ****         2.2046  -2.3659   1.4902 C.3            1 S1                 0.0000
     15 ****         2.7202  -3.0568   0.2193 C.3            1 S1                 0.0000
     16 ****         2.2178  -2.3455  -1.0477 C.3            1 S1                 0.0000
     17 ****         2.6001  -0.8496  -1.0529 C.3            1 S1                 0.0000
     18 ****         2.1470  -0.1643  -2.3597 C.3            1 S1                 0.0000
     19 ****         2.6677   1.1457  -2.4450 O.3            1 S1                 0.0000
     20 ****        -5.0246  -0.3526   1.4306 H              1 S1                 0.0000
     21 ****        -3.3602  -0.3793   2.0149 H              1 S1                 0.0000
     22 ****        -3.7279  -0.8821   0.3579 H              1 S1                 0.0000
     23 ****        -5.8543   1.8297   0.9546 H              1 S1                 0.0000
     24 ****        -3.5179   4.8930  -0.5147 H              1 S1                 0.0000
     25 ****        -1.4860   3.4800  -0.5556 H              1 S1                 0.0000
     26 ****        -1.6624  -0.1622   0.2939 H              1 S1                 0.0000
     27 ****         0.1205  -0.9190   0.1917 H              1 S1                 0.0000
     28 ****         2.5161   0.8589   0.2555 H              1 S1                 0.0000
     29 ****         3.6559  -0.7738   1.5725 H              1 S1                 0.0000
     30 ****         2.1653  -0.3919   2.3902 H              1 S1                 0.0000
     31 ****         2.6199  -2.8545   2.3721 H              1 S1                 0.0000
     32 ****         1.1223  -2.4821   1.5570 H              1 S1                 0.0000
     33 ****         3.8109  -3.0646   0.2250 H              1 S1                 0.0000
     34 ****         2.4042  -4.1004   0.2099 H              1 S1                 0.0000
     35 ****         2.6354  -2.8391  -1.9258 H              1 S1                 0.0000
     36 ****         1.1352  -2.4549  -1.1230 H              1 S1                 0.0000
     37 ****         3.6905  -0.8044  -1.0324 H              1 S1                 0.0000
     38 ****         2.5052  -0.7248  -3.2237 H              1 S1                 0.0000
     39 ****         1.0601  -0.1275  -2.4360 H              1 S1                 0.0000
     40 ****         2.3641   1.5395  -3.2488 H              1 S1                 0.0000
     41 ****        -5.5707   4.0333   0.2268 LP             1 S1                 0.0000
     42 ****        -0.1913   3.0146   0.3969 LP             1 S1                 0.0000
     43 ****         1.3940   2.3175   0.3672 LP             1 S1                 0.0000
     44 ****         3.6671   1.1116  -2.4431 LP             1 S1                 0.0000
     45 ****         2.3511   1.6854  -1.6649 LP             1 S1                 0.0000
@<TRIPOS>BOND
    1    1    2 1     
    2    1   20 1     
    3    1   21 1     
    4    1   22 1     
    5    2    7 ar    
    6    2    3 ar    
    7    3    4 ar    
    8    3   23 1     
    9    4    5 ar    
   10    5    6 ar    
   11    5   24 1     
   12    6    7 ar    
   13    6   25 1     
   14    7    8 1     
   15    8    9 am    
   16    8   26 1     
   17    9   10 2     
   18    9   11 am    
   19   11   12 1     
   20   11   27 1     
   21   12   17 1     
   22   12   13 1     
   23   12   28 1     
   24   13   14 1     
   25   13   29 1     
   26   13   30 1     
   27   14   15 1     
   28   14   31 1     
   29   14   32 1     
   30   15   16 1     
   31   15   33 1     
   32   15   34 1     
   33   16   17 1     
   34   16   35 1     
   35   16   36 1     
   36   17   18 1     
   37   17   37 1     
   38   18   19 1     
   39   18   38 1     
   40   18   39 1     
   41   19   40 1     
   42    4   41 1     
   43   10   42 1     
   44   10   43 1     
   45   19   44 1     
   46   19   45 1     
@<TRIPOS>SUBSTRUCTURE
      1 S1             1
@<TRIPOS>SET
LONE_PAIRS      STATIC     ATOMS    <user>   **** ""
5 41 42 43 44 45
DONOR_HYDROGENS      STATIC     ATOMS    <user>   **** ""
3 26 27 40
ATOM$BLUE        STATIC     ATOMS    COLORGROUP SYSTEM
5 41 42 43 44 45
ATOM$RED        STATIC     ATOMS    COLORGROUP SYSTEM
3 26 27 40
