AV-unprocessed.smi:2241|AV-procd|sdf|9059|dock7
  -GOLD-   2272012263D 1   1.00000     0.00000
 Structure written by MMmdl.
 45 47  0  0  0  0  0  0  0  0  1 V2000
  151.4428  144.4512  160.5075 C   0  0  0  0  0  0  0  0  0  0  0  0
  152.2326  143.1608  160.5852 C   0  0  0  0  0  0  0  0  0  0  0  0
  152.9339  142.8249  161.7599 C   0  0  0  0  0  0  0  0  0  0  0  0
  153.6646  141.6245  161.8224 C   0  0  0  0  0  0  0  0  0  0  0  0
  153.6981  140.7578  160.7130 C   0  0  0  0  0  0  0  0  0  0  0  0
  154.6062  139.2914  160.8133 Cl  0  0  0  0  0  0  0  0  0  0  0  0
  153.0007  141.0806  159.5281 C   0  0  0  0  0  0  0  0  0  0  0  0
  153.0830  140.1852  158.4833 O   0  0  0  0  0  0  0  0  0  0  0  0
  152.1870  140.3280  157.3898 C   0  0  0  0  0  0  0  0  0  0  0  0
  151.9976  138.9480  156.7424 C   0  0  1  0  0  0  0  0  0  0  0  0
  153.2715  138.4995  156.3255 O   0  0  0  0  0  0  0  0  0  0  0  0
  151.4058  137.9194  157.7334 C   0  0  0  0  0  0  0  0  0  0  0  0
  150.9619  136.6909  157.0575 N   0  0  0  0  0  0  0  0  0  0  0  0
  149.5757  136.5511  156.8594 C   0  0  0  0  0  0  0  0  0  0  0  0
  149.0744  135.5216  156.2545 N   0  0  0  0  0  0  0  0  0  0  0  0
  149.9207  134.5101  155.7853 C   0  0  0  0  0  0  0  0  0  0  0  0
  149.2769  133.3189  155.0890 C   0  0  0  0  0  0  0  0  0  0  0  0
  150.2378  132.2587  154.5247 C   0  0  0  0  0  0  0  0  0  0  0  0
  149.2937  132.1370  153.3235 C   0  0  0  0  0  0  0  0  0  0  0  0
  148.8105  133.5562  153.6438 C   0  0  0  0  0  0  0  0  0  0  0  0
  151.2593  134.5879  155.9759 C   0  0  0  0  0  0  0  0  0  0  0  0
  151.8536  135.7386  156.6562 C   0  0  0  0  0  0  0  0  0  0  0  0
  153.0650  135.8416  156.8510 O   0  0  0  0  0  0  0  0  0  0  0  0
  152.2640  142.2913  159.4761 C   0  0  0  0  0  0  0  0  0  0  0  0
  151.6340  145.0880  161.3718 H   0  0  0  0  0  0  0  0  0  0  0  0
  150.3744  144.2373  160.4701 H   0  0  0  0  0  0  0  0  0  0  0  0
  151.7135  145.0086  159.6101 H   0  0  0  0  0  0  0  0  0  0  0  0
  152.9146  143.4840  162.6157 H   0  0  0  0  0  0  0  0  0  0  0  0
  154.2016  141.3689  162.7239 H   0  0  0  0  0  0  0  0  0  0  0  0
  151.2308  140.7058  157.7563 H   0  0  0  0  0  0  0  0  0  0  0  0
  152.5742  141.0352  156.6539 H   0  0  0  0  0  0  0  0  0  0  0  0
  151.3651  139.0572  155.8602 H   0  0  0  0  0  0  0  0  0  0  0  0
  153.4941  137.7249  156.8186 H   0  0  0  0  0  0  0  0  0  0  0  0
  152.1070  137.7131  158.5448 H   0  0  0  0  0  0  0  0  0  0  0  0
  150.5426  138.3533  158.2413 H   0  0  0  0  0  0  0  0  0  0  0  0
  148.9613  137.3642  157.2501 H   0  0  0  0  0  0  0  0  0  0  0  0
  148.4916  132.8708  155.7004 H   0  0  0  0  0  0  0  0  0  0  0  0
  151.2150  132.6560  154.2435 H   0  0  0  0  0  0  0  0  0  0  0  0
  150.3276  131.3561  155.1295 H   0  0  0  0  0  0  0  0  0  0  0  0
  149.7914  132.0298  152.3593 H   0  0  0  0  0  0  0  0  0  0  0  0
  148.5192  131.3819  153.4678 H   0  0  0  0  0  0  0  0  0  0  0  0
  147.7372  133.7105  153.5294 H   0  0  0  0  0  0  0  0  0  0  0  0
  149.3871  134.3209  153.1200 H   0  0  0  0  0  0  0  0  0  0  0  0
  151.9048  133.7984  155.6188 H   0  0  0  0  0  0  0  0  0  0  0  0
  151.7130  142.5749  158.5924 H   0  0  0  0  0  0  0  0  0  0  0  0
  1  2  1  0  0  0  0
  1 25  1  0  0  0  0
  1 26  1  0  0  0  0
  1 27  1  0  0  0  0
  2 24  1  0  0  0  0
  2  3  2  0  0  0  0
  3  4  1  0  0  0  0
  3 28  1  0  0  0  0
  4  5  2  0  0  0  0
  4 29  1  0  0  0  0
  5  6  1  0  0  0  0
  5  7  1  0  0  0  0
  7  8  1  0  0  0  0
  7 24  2  0  0  0  0
  8  9  1  0  0  0  0
  9 10  1  0  0  0  0
  9 30  1  0  0  0  0
  9 31  1  0  0  0  0
 10 11  1  0  0  0  0
 10 12  1  0  0  0  0
 10 32  1  0  0  0  0
 11 33  1  0  0  0  0
 12 13  1  0  0  0  0
 12 34  1  0  0  0  0
 12 35  1  0  0  0  0
 13 22  1  0  0  0  0
 13 14  1  0  0  0  0
 14 15  2  0  0  0  0
 14 36  1  0  0  0  0
 15 16  1  0  0  0  0
 16 17  1  0  0  0  0
 16 21  2  0  0  0  0
 17 20  1  0  0  0  0
 17 18  1  0  0  0  0
 17 37  1  0  0  0  0
 18 19  1  0  0  0  0
 18 38  1  0  0  0  0
 18 39  1  0  0  0  0
 19 20  1  0  0  0  0
 19 40  1  0  0  0  0
 19 41  1  0  0  0  0
 20 42  1  0  0  0  0
 20 43  1  0  0  0  0
 21 22  1  0  0  0  0
 21 44  1  0  0  0  0
 22 23  2  0  0  0  0
 24 45  1  0  0  0  0
M  END
> <s_m_source_file>
AV-unprocessed.smi

> <i_m_source_file_index>
2241

> <i_lp_mmshare_version>
43012

> <i_f3d_flags>
0

> <s_epik_input>
W0NIM11jMVtjSF1bY0hdYyhDbCljKFtjSF0xKU9bQ0gyXVtDQEhdKFtPSF0pW0NIMl1uMltjSF1uYyhbY0hdYzI9TylbQ0hdM1tDSDJdW0NIMl1bQ0gyXTM=

> <s_epik_cmdline>
J2VwaWtfcHl0aG9uJywgJy1waCcsICc3LjAnLCAnLXRuJywgJzgnLCAnLW1hJywgJzIwMCcsICctbWV0YWxfYmluZGluZycsICctaW1hZScsICc8aW5maWxlLm1hZT4nLCAnLW9tYWUnLCAnPG91dGZpbGUubWFlPic=

> <r_lp_tautomer_probability>
1

> <r_epik_Ionization_Penalty>
1.78212e-05

> <r_epik_Ionization_Penalty_Charging>
5.61663e-08

> <r_epik_Ionization_Penalty_Neutral>
1.7765e-05

> <r_epik_State_Penalty>
-0

> <r_epik_Charging_Adjusted_Penalty>
5.61663e-08

> <i_epik_Tot_Q>
0

> <i_epik_Tot_abs_Q>
0

> <r_epik_Metal_State_Penalty>
-0

> <b_epik_Metal_Only>
0

> <s_lp_Force_Field>
OPLS_2005

> <r_lp_Energy>
30.2703

> <b_lp_Chiralities_Consistent>
1

> <s_lp_Variant>
AV-unprocessed.smi:2241-2

> <Gold.Version>
5.8.1

> <Gold.Id.Protein>
6NUR|6NUR_protein|mol2

> <Gold.PLP.Fitness>
49.4272

> <Gold.PLP.PLP>
-44.7298

> <Gold.PLP.part.hbond>
-3.0000

> <Gold.PLP.part.metal>
0.0000

> <Gold.PLP.part.buried>
-4.6726

> <Gold.PLP.part.nonpolar>
-36.6829

> <Gold.PLP.part.repulsive>
0.0219

> <Gold.PLP.ligand.clash>
0.0000

> <Gold.PLP.ligand.torsion>
0.8327

> <Gold.PLP.Chemscore.Hbond>
1.9760

> <Gold.PLP.Chemscore.CHOScore>
0.0000

> <Gold.PLP.Chemscore.Metal>
0.0000

> <Gold.Chemscore.Hbonds>
donor molecule, donor type, donor heavy atom, donor atom, acceptor molecule, acceptor atom, score
      P1  H  7997  8010       L1    11  0.96
      P1  H 10752 10764       L1    23  0.90

> <Gold.PLP.Chemscore.Internal.Correction>
0.4348

> <Gold.Rescore>
     Score         DG    S(hbond)    S(metal)    S(lipo)     H(rot)  DE(clash)    DE(int)     intcor
     17.23     -19.57       1.74        0.00     122.79       2.38       0.06       2.29       ----

> <Gold.Chemscore.Fitness>
17.2267

> <Gold.Chemscore.DG>
-19.5748

> <Gold.Chemscore.ZeroCoef>
-5.4800

> <Gold.Chemscore.Hbond>
1.7430

> <Gold.Chemscore.Metal>
0.0000

> <Gold.Chemscore.Lipo>
122.7877

> <Gold.Chemscore.Internal_Hbond>
0.0000

> <Gold.Chemscore.DEClash>
0.0628

> <Gold.Chemscore.DEInternal>
2.2854

> <Gold.Chemscore.Rot>
2.3801

> <Gold.Chemscore.Internal.Correction>
   9.000000E+99

> <Gold.Chemscore.Hbonds>
donor molecule, donor type, donor heavy atom, donor atom, acceptor molecule, acceptor atom, score
      P1  H  7997  8010       L1    11  0.40
      P1  H 10752 10764       L1    23  0.18

> <Gold.Chemscore.Hbond.Weighted>
-5.8217

> <Gold.Chemscore.Metal.Weighted>
-0.0000

> <Gold.Chemscore.Lipo.Weighted>
-14.3662

> <Gold.Chemscore.Internal_Hbond.Weighted>
0.0000

> <Gold.Chemscore.DEClash.Weighted>
0.0628

> <Gold.Chemscore.DEInternal.Weighted>
2.2854

> <Gold.Chemscore.Rot.Weighted>
6.0931

> <Gold.Chemscore.Internal.Correction.Weighted>
   9.000000E+99

> <Gold.Protein.RotatedTorsions>
[ 6907 6896 6895 6894 ] final  134.94 input  -60.11 | X-H torsion
[ 7974 7965 7964 7962 ] final   11.39 input  175.53 | X-H torsion
[ 8008 7997 7996 7995 ] final   70.29 input   59.86 | X-H torsion
[ 10167 10162 10161 10158 ] final -135.41 input  -65.29 | X-H torsion
[ 10718 10713 10712 10709 ] final -116.90 input   66.30 | X-H torsion
[ 10763 10752 10751 10750 ] final    1.11 input  -60.55 | X-H torsion
[ 11005 11000 10999 10996 ] final  -20.61 input  -57.11 | X-H torsion

> <Gold.Protein.ActiveResidues>
 VAL166  LYS551  ARG553  GLY616  TRP617  ASP618  TYR619  PRO620  LYS621  CYS622 
 ASP623  PHE694  ASN695  SER759  ASP760  ASP761  ALA762  ILE779  LEU786  VAL792 
 PHE793  MET794  SER795  GLU796  ALA797  LYS798  CYS799  TRP800  GLU811  SER814 

> <Gold.Protein.RotatedAtoms>
  152.3058  133.5702  159.5648 H   0  0  0  0  0  0  0  0  0  0  0  0  # atno 6907 bound_to 6896
  150.7299  134.0225  159.3715 H   0  0  0  0  0  0  0  0  0  0  0  0  # atno 6908 bound_to 6896
  151.8121  135.0678  160.0465 H   0  0  0  0  0  0  0  0  0  0  0  0  # atno 6909 bound_to 6896
  146.2372  139.9493  142.8472 H   0  0  0  0  0  0  0  0  0  0  0  0  # atno 7974 bound_to 7965
  155.7365  140.3491  155.5084 H   0  0  0  0  0  0  0  0  0  0  0  0  # atno 8008 bound_to 7997
  155.9134  140.1054  157.1284 H   0  0  0  0  0  0  0  0  0  0  0  0  # atno 8009 bound_to 7997
  154.4059  140.1263  156.4573 H   0  0  0  0  0  0  0  0  0  0  0  0  # atno 8010 bound_to 7997
  139.8781  143.6873  152.2631 H   0  0  0  0  0  0  0  0  0  0  0  0  # atno 10167 bound_to 10162
  156.0996  130.6161  150.9095 H   0  0  0  0  0  0  0  0  0  0  0  0  # atno 10718 bound_to 10713
  153.3122  135.6963  153.7105 H   0  0  0  0  0  0  0  0  0  0  0  0  # atno 10763 bound_to 10752
  153.5978  135.3468  155.2935 H   0  0  0  0  0  0  0  0  0  0  0  0  # atno 10764 bound_to 10752
  154.8578  135.4333  154.2263 H   0  0  0  0  0  0  0  0  0  0  0  0  # atno 10765 bound_to 10752
  140.8481  133.7876  155.9935 H   0  0  0  0  0  0  0  0  0  0  0  0  # atno 11005 bound_to 11000
  145.1877  140.9797  143.4229 LP  0  0  0  0  0  0  0  0  0  0  0  0  # atno 17320 bound_to 7965
  144.9885  139.3713  143.6226 LP  0  0  0  0  0  0  0  0  0  0  0  0  # atno 17321 bound_to 7965
  139.7221  144.7600  151.0938 LP  0  0  0  0  0  0  0  0  0  0  0  0  # atno 17342 bound_to 10162
  140.7749  143.5194  150.9554 LP  0  0  0  0  0  0  0  0  0  0  0  0  # atno 17343 bound_to 10162
  157.6163  131.0933  150.8703 LP  0  0  0  0  0  0  0  0  0  0  0  0  # atno 17370 bound_to 10713
  156.8834  130.5187  149.5290 LP  0  0  0  0  0  0  0  0  0  0  0  0  # atno 17371 bound_to 10713
  140.8820  134.2599  157.5139 LP  0  0  0  0  0  0  0  0  0  0  0  0  # atno 17394 bound_to 11000
  139.8704  134.9620  156.4414 LP  0  0  0  0  0  0  0  0  0  0  0  0  # atno 17395 bound_to 11000

$$$$
