AV-unprocessed.smi:2500|AV-procd|sdf|9842|dock2
  -GOLD-   2272013463D 1   1.00000     0.00000
 Structure written by MMmdl.
 38 39  0  0  0  0  0  0  0  0  1 V2000
  148.5099  134.8527  154.6189 C   0  0  0  0  0  0  0  0  0  0  0  0
  148.3084  136.2820  154.4398 N   0  0  0  0  0  0  0  0  0  0  0  0
  149.1300  137.2323  154.9156 C   0  0  0  0  0  0  0  0  0  0  0  0
  150.1481  136.9764  155.5604 O   0  0  0  0  0  0  0  0  0  0  0  0
  148.7328  138.6569  154.6242 C   0  0  0  0  0  0  0  0  0  0  0  0
  147.7046  138.9298  153.6946 C   0  0  0  0  0  0  0  0  0  0  0  0
  147.3541  140.2691  153.4474 C   0  0  0  0  0  0  0  0  0  0  0  0
  148.0374  141.2893  154.1343 C   0  0  0  0  0  0  0  0  0  0  0  0
  149.0548  140.9440  155.0495 C   0  0  0  0  0  0  0  0  0  0  0  0
  149.6812  142.0392  155.6997 N   0  0  0  0  0  0  0  0  0  0  0  0
  150.6731  142.0122  156.6125 C   0  0  0  0  0  0  0  0  0  0  0  0
  151.2590  140.9949  156.9797 O   0  0  0  0  0  0  0  0  0  0  0  0
  151.0039  143.2200  157.1064 N   0  0  0  0  0  0  0  0  0  0  0  0
  152.0248  143.5541  158.1023 C   0  0  1  0  0  0  0  0  0  0  0  0
  151.8111  144.9631  158.6435 C   0  0  0  0  0  0  0  0  0  0  0  0
  151.8756  145.2815  159.9476 C   0  0  0  0  0  0  0  0  0  0  0  0
  152.1831  144.2752  161.0402 C   0  0  0  0  0  0  0  0  0  0  0  0
  152.7685  142.9689  160.4751 C   0  0  0  0  0  0  0  0  0  0  0  0
  152.0034  142.4982  159.2289 C   0  0  0  0  0  0  0  0  0  0  0  0
  149.3829  139.6495  155.2786 N   0  0  0  0  0  0  0  0  0  0  0  0
  147.6976  134.3012  154.1456 H   0  0  0  0  0  0  0  0  0  0  0  0
  148.5268  134.5926  155.6778 H   0  0  0  0  0  0  0  0  0  0  0  0
  149.4491  134.5335  154.1655 H   0  0  0  0  0  0  0  0  0  0  0  0
  147.4934  136.5772  153.9205 H   0  0  0  0  0  0  0  0  0  0  0  0
  147.1885  138.1348  153.1763 H   0  0  0  0  0  0  0  0  0  0  0  0
  146.5723  140.5104  152.7426 H   0  0  0  0  0  0  0  0  0  0  0  0
  147.7798  142.3235  153.9573 H   0  0  0  0  0  0  0  0  0  0  0  0
  149.3165  142.9505  155.4648 H   0  0  0  0  0  0  0  0  0  0  0  0
  150.4976  144.0071  156.7269 H   0  0  0  0  0  0  0  0  0  0  0  0
  153.0127  143.5322  157.6393 H   0  0  0  0  0  0  0  0  0  0  0  0
  151.5953  145.7384  157.9226 H   0  0  0  0  0  0  0  0  0  0  0  0
  151.6910  146.2986  160.2607 H   0  0  0  0  0  0  0  0  0  0  0  0
  152.8800  144.7177  161.7524 H   0  0  0  0  0  0  0  0  0  0  0  0
  151.2591  144.0722  161.5825 H   0  0  0  0  0  0  0  0  0  0  0  0
  153.8154  143.1251  160.2117 H   0  0  0  0  0  0  0  0  0  0  0  0
  152.7573  142.1939  161.2419 H   0  0  0  0  0  0  0  0  0  0  0  0
  150.9723  142.2861  159.5174 H   0  0  0  0  0  0  0  0  0  0  0  0
  152.4186  141.5574  158.8653 H   0  0  0  0  0  0  0  0  0  0  0  0
  1  2  1  0  0  0  0
  1 21  1  0  0  0  0
  1 22  1  0  0  0  0
  1 23  1  0  0  0  0
  2  3  1  0  0  0  0
  2 24  1  0  0  0  0
  3  4  2  0  0  0  0
  3  5  1  0  0  0  0
  5 20  1  0  0  0  0
  5  6  2  0  0  0  0
  6  7  1  0  0  0  0
  6 25  1  0  0  0  0
  7  8  2  0  0  0  0
  7 26  1  0  0  0  0
  8  9  1  0  0  0  0
  8 27  1  0  0  0  0
  9 10  1  0  0  0  0
  9 20  2  0  0  0  0
 10 11  1  0  0  0  0
 10 28  1  0  0  0  0
 11 12  2  0  0  0  0
 11 13  1  0  0  0  0
 13 14  1  0  0  0  0
 13 29  1  0  0  0  0
 14 19  1  0  0  0  0
 14 15  1  0  0  0  0
 14 30  1  0  0  0  0
 15 16  2  0  0  0  0
 15 31  1  0  0  0  0
 16 17  1  0  0  0  0
 16 32  1  0  0  0  0
 17 18  1  0  0  0  0
 17 33  1  0  0  0  0
 17 34  1  0  0  0  0
 18 19  1  0  0  0  0
 18 35  1  0  0  0  0
 18 36  1  0  0  0  0
 19 37  1  0  0  0  0
 19 38  1  0  0  0  0
M  END
> <s_m_source_file>
AV-unprocessed.smi

> <i_m_source_file_index>
2500

> <i_lp_mmshare_version>
43012

> <i_f3d_flags>
0

> <s_epik_input>
W0NIM11bTkhdQyg9TyljMVtjSF1bY0hdW2NIXWMobjEpW05IXUMoPU8pW05IXVtDQEBIXTJbQ0hdPVtDSF1bQ0gyXVtDSDJdW0NIMl0y

> <s_epik_cmdline>
J2VwaWtfcHl0aG9uJywgJy1waCcsICc3LjAnLCAnLXRuJywgJzgnLCAnLW1hJywgJzIwMCcsICctbWV0YWxfYmluZGluZycsICctaW1hZScsICc8aW5maWxlLm1hZT4nLCAnLW9tYWUnLCAnPG91dGZpbGUubWFlPic=

> <r_lp_tautomer_probability>
1

> <r_epik_Ionization_Penalty>
3.75371e-05

> <r_epik_Ionization_Penalty_Charging>
0

> <r_epik_Ionization_Penalty_Neutral>
3.75371e-05

> <r_epik_State_Penalty>
-0

> <r_epik_Charging_Adjusted_Penalty>
0

> <i_epik_Tot_Q>
0

> <i_epik_Tot_abs_Q>
0

> <r_epik_Metal_State_Penalty>
-0

> <b_epik_Metal_Only>
0

> <s_lp_Force_Field>
OPLS_2005

> <r_lp_Energy>
23.2344

> <b_lp_Chiralities_Consistent>
1

> <s_lp_Variant>
AV-unprocessed.smi:2500-2

> <Gold.Version>
5.8.1

> <Gold.Id.Protein>
6NUR|6NUR_protein|mol2

> <Gold.PLP.Fitness>
46.9364

> <Gold.PLP.PLP>
-41.5026

> <Gold.PLP.part.hbond>
-3.0000

> <Gold.PLP.part.metal>
0.0000

> <Gold.PLP.part.buried>
-6.1373

> <Gold.PLP.part.nonpolar>
-33.4247

> <Gold.PLP.part.repulsive>
0.3043

> <Gold.PLP.ligand.clash>
0.0000

> <Gold.PLP.ligand.torsion>
0.2871

> <Gold.PLP.Chemscore.Hbond>
2.0000

> <Gold.PLP.Chemscore.CHOScore>
0.0000

> <Gold.PLP.Chemscore.Metal>
0.0000

> <Gold.Chemscore.Hbonds>
donor molecule, donor type, donor heavy atom, donor atom, acceptor molecule, acceptor atom, score
      L1  H    10    28       P1  8028  1.00
      L1  H    13    29       P1  8028  0.98

> <Gold.PLP.Chemscore.Internal.Correction>
0.0080

> <Gold.Rescore>
     Score         DG    S(hbond)    S(metal)    S(lipo)     H(rot)  DE(clash)    DE(int)     intcor
     18.32     -21.00       1.96        0.00      98.61       1.00       0.03       2.65       ----

> <Gold.Chemscore.Fitness>
18.3171

> <Gold.Chemscore.DG>
-20.9989

> <Gold.Chemscore.ZeroCoef>
-5.4800

> <Gold.Chemscore.Hbond>
1.9586

> <Gold.Chemscore.Metal>
0.0000

> <Gold.Chemscore.Lipo>
98.6069

> <Gold.Chemscore.Internal_Hbond>
0.0000

> <Gold.Chemscore.DEClash>
0.0282

> <Gold.Chemscore.DEInternal>
2.6535

> <Gold.Chemscore.Rot>
1.0000

> <Gold.Chemscore.Internal.Correction>
   9.000000E+99

> <Gold.Chemscore.Hbonds>
donor molecule, donor type, donor heavy atom, donor atom, acceptor molecule, acceptor atom, score
      L1  H    10    28       P1  8028  1.00
      L1  H    13    29       P1  8028  0.86

> <Gold.Chemscore.Hbond.Weighted>
-6.5418

> <Gold.Chemscore.Metal.Weighted>
-0.0000

> <Gold.Chemscore.Lipo.Weighted>
-11.5370

> <Gold.Chemscore.Internal_Hbond.Weighted>
0.0000

> <Gold.Chemscore.DEClash.Weighted>
0.0282

> <Gold.Chemscore.DEInternal.Weighted>
2.6535

> <Gold.Chemscore.Rot.Weighted>
2.5600

> <Gold.Chemscore.Internal.Correction.Weighted>
   9.000000E+99

> <Gold.Protein.RotatedTorsions>
[ 6907 6896 6895 6894 ] final  111.58 input  -60.11 | X-H torsion
[ 7974 7965 7964 7962 ] final   12.36 input  175.53 | X-H torsion
[ 8008 7997 7996 7995 ] final  -64.76 input   59.86 | X-H torsion
[ 10167 10162 10161 10158 ] final  -29.92 input  -65.29 | X-H torsion
[ 10718 10713 10712 10709 ] final  124.52 input   66.30 | X-H torsion
[ 10763 10752 10751 10750 ] final  155.85 input  -60.55 | X-H torsion
[ 11005 11000 10999 10996 ] final   -3.66 input  -57.11 | X-H torsion

> <Gold.Protein.ActiveResidues>
 VAL166  LYS551  ARG553  GLY616  TRP617  ASP618  TYR619  PRO620  LYS621  CYS622 
 ASP623  PHE694  ASN695  SER759  ASP760  ASP761  ALA762  ILE779  LEU786  VAL792 
 PHE793  MET794  SER795  GLU796  ALA797  LYS798  CYS799  TRP800  GLU811  SER814 

> <Gold.Protein.RotatedAtoms>
  152.4962  133.8638  159.7263 H   0  0  0  0  0  0  0  0  0  0  0  0  # atno 6907 bound_to 6896
  150.9143  133.6950  159.2854 H   0  0  0  0  0  0  0  0  0  0  0  0  # atno 6908 bound_to 6896
  151.4349  135.1018  159.9705 H   0  0  0  0  0  0  0  0  0  0  0  0  # atno 6909 bound_to 6896
  146.2353  139.9348  142.8491 H   0  0  0  0  0  0  0  0  0  0  0  0  # atno 7974 bound_to 7965
  154.4631  140.0947  156.6947 H   0  0  0  0  0  0  0  0  0  0  0  0  # atno 8008 bound_to 7997
  155.4937  140.3471  155.4341 H   0  0  0  0  0  0  0  0  0  0  0  0  # atno 8009 bound_to 7997
  156.0907  140.1396  156.9585 H   0  0  0  0  0  0  0  0  0  0  0  0  # atno 8010 bound_to 7997
  140.7255  143.3890  151.1464 H   0  0  0  0  0  0  0  0  0  0  0  0  # atno 10167 bound_to 10162
  157.5578  131.1091  150.8591 H   0  0  0  0  0  0  0  0  0  0  0  0  # atno 10718 bound_to 10713
  154.1750  135.2802  155.3069 H   0  0  0  0  0  0  0  0  0  0  0  0  # atno 10763 bound_to 10752
  154.6046  135.5518  153.7413 H   0  0  0  0  0  0  0  0  0  0  0  0  # atno 10764 bound_to 10752
  153.0154  135.6400  154.1890 H   0  0  0  0  0  0  0  0  0  0  0  0  # atno 10765 bound_to 10752
  140.6717  133.9230  155.8499 H   0  0  0  0  0  0  0  0  0  0  0  0  # atno 11005 bound_to 11000
  145.2009  140.9854  143.4156 LP  0  0  0  0  0  0  0  0  0  0  0  0  # atno 17320 bound_to 7965
  144.9774  139.3817  143.6279 LP  0  0  0  0  0  0  0  0  0  0  0  0  # atno 17321 bound_to 7965
  139.7492  143.8805  152.3072 LP  0  0  0  0  0  0  0  0  0  0  0  0  # atno 17342 bound_to 10162
  139.8653  144.7096  150.9051 LP  0  0  0  0  0  0  0  0  0  0  0  0  # atno 17343 bound_to 10162
  156.9097  130.5276  149.5280 LP  0  0  0  0  0  0  0  0  0  0  0  0  # atno 17370 bound_to 10713
  156.0635  130.5683  150.9240 LP  0  0  0  0  0  0  0  0  0  0  0  0  # atno 17371 bound_to 10713
  141.0387  134.0653  157.3929 LP  0  0  0  0  0  0  0  0  0  0  0  0  # atno 17394 bound_to 11000
  139.8979  135.0152  156.7124 LP  0  0  0  0  0  0  0  0  0  0  0  0  # atno 17395 bound_to 11000

$$$$
