AV-unprocessed.smi:1553|AV-procd|sdf|6239|dock3
  -GOLD-   22720 6423D 1   1.00000     0.00000
 Structure written by MMmdl.
 37 38  0  0  0  0  0  0  0  0  1 V2000
  152.5755  144.0164  162.1927 C   0  0  0  0  0  0  0  0  0  0  0  0
  151.8730  144.0184  160.8784 C   0  0  0  0  0  0  0  0  0  0  0  0
  151.6101  142.9110  160.1798 N   0  0  0  0  0  0  0  0  0  0  0  0
  150.9419  143.1763  158.9804 C   0  0  0  0  0  0  0  0  0  0  0  0
  150.5710  142.0485  158.0662 C   0  0  0  0  0  0  0  0  0  0  0  0
  150.7332  142.4257  156.5844 C   0  0  0  0  0  0  0  0  0  0  0  0
  150.5412  141.2724  155.7130 N   0  0  0  0  0  0  0  0  0  0  0  0
  151.3149  140.1735  155.6994 C   0  0  0  0  0  0  0  0  0  0  0  0
  152.3131  140.0637  156.4113 O   0  0  0  0  0  0  0  0  0  0  0  0
  150.9558  139.2740  154.7496 N   0  0  0  0  0  0  0  0  0  0  0  0
  149.5423  139.0420  154.4149 C   0  0  0  0  0  0  0  0  0  0  0  0
  149.0432  137.8309  155.2274 C   0  0  0  0  0  0  0  0  0  0  0  0
  149.8435  136.6877  154.9352 O   0  0  0  0  0  0  0  0  0  0  0  0
  151.2318  136.8869  155.1943 C   0  0  0  0  0  0  0  0  0  0  0  0
  151.7384  138.0828  154.3632 C   0  0  2  0  0  0  0  0  0  0  0  0
  153.2724  138.2410  154.4233 C   0  0  0  0  0  0  0  0  0  0  0  0
  150.7048  144.5130  158.7777 C   0  0  0  0  0  0  0  0  0  0  0  0
  151.3100  145.4867  160.0897 S   0  0  0  0  0  0  0  0  0  0  0  0
  152.6282  143.0055  162.5982 H   0  0  0  0  0  0  0  0  0  0  0  0
  152.0420  144.6490  162.9023 H   0  0  0  0  0  0  0  0  0  0  0  0
  153.5890  144.3993  162.0736 H   0  0  0  0  0  0  0  0  0  0  0  0
  151.1846  141.1756  158.2931 H   0  0  0  0  0  0  0  0  0  0  0  0
  149.5402  141.7441  158.2525 H   0  0  0  0  0  0  0  0  0  0  0  0
  149.9946  143.1799  156.3117 H   0  0  0  0  0  0  0  0  0  0  0  0
  151.7130  142.8724  156.4057 H   0  0  0  0  0  0  0  0  0  0  0  0
  149.7647  141.3112  155.0688 H   0  0  0  0  0  0  0  0  0  0  0  0
  148.9023  139.9014  154.6177 H   0  0  0  0  0  0  0  0  0  0  0  0
  149.4428  138.8471  153.3462 H   0  0  0  0  0  0  0  0  0  0  0  0
  149.0743  138.0411  156.2976 H   0  0  0  0  0  0  0  0  0  0  0  0
  148.0061  137.6088  154.9757 H   0  0  0  0  0  0  0  0  0  0  0  0
  151.3963  137.0483  156.2609 H   0  0  0  0  0  0  0  0  0  0  0  0
  151.7680  135.9780  154.9209 H   0  0  0  0  0  0  0  0  0  0  0  0
  151.5123  137.8793  153.3151 H   0  0  0  0  0  0  0  0  0  0  0  0
  153.7602  137.4012  153.9280 H   0  0  0  0  0  0  0  0  0  0  0  0
  153.6505  138.2625  155.4450 H   0  0  0  0  0  0  0  0  0  0  0  0
  153.5985  139.1502  153.9173 H   0  0  0  0  0  0  0  0  0  0  0  0
  150.2139  144.9827  157.9383 H   0  0  0  0  0  0  0  0  0  0  0  0
  1  2  1  0  0  0  0
  1 19  1  0  0  0  0
  1 20  1  0  0  0  0
  1 21  1  0  0  0  0
  2 18  1  0  0  0  0
  2  3  2  0  0  0  0
  3  4  1  0  0  0  0
  4  5  1  0  0  0  0
  4 17  2  0  0  0  0
  5  6  1  0  0  0  0
  5 22  1  0  0  0  0
  5 23  1  0  0  0  0
  6  7  1  0  0  0  0
  6 24  1  0  0  0  0
  6 25  1  0  0  0  0
  7  8  1  0  0  0  0
  7 26  1  0  0  0  0
  8  9  2  0  0  0  0
  8 10  1  0  0  0  0
 10 15  1  0  0  0  0
 10 11  1  0  0  0  0
 11 12  1  0  0  0  0
 11 27  1  0  0  0  0
 11 28  1  0  0  0  0
 12 13  1  0  0  0  0
 12 29  1  0  0  0  0
 12 30  1  0  0  0  0
 13 14  1  0  0  0  0
 14 15  1  0  0  0  0
 14 31  1  0  0  0  0
 14 32  1  0  0  0  0
 15 16  1  0  0  0  0
 15 33  1  0  0  0  0
 16 34  1  0  0  0  0
 16 35  1  0  0  0  0
 16 36  1  0  0  0  0
 17 18  1  0  0  0  0
 17 37  1  0  0  0  0
M  END
> <s_m_source_file>
AV-unprocessed.smi

> <i_m_source_file_index>
1553

> <i_lp_mmshare_version>
43012

> <i_f3d_flags>
0

> <s_epik_input>
W0NIM11jMW5jKFtjSF1zMSlbQ0gyXVtDSDJdW05IXUMoPU8pTjJbQ0gyXVtDSDJdT1tDSDJdW0NASF0yW0NIM10=

> <s_epik_cmdline>
J2VwaWtfcHl0aG9uJywgJy1waCcsICc3LjAnLCAnLXRuJywgJzgnLCAnLW1hJywgJzIwMCcsICctbWV0YWxfYmluZGluZycsICctaW1hZScsICc8aW5maWxlLm1hZT4nLCAnLW9tYWUnLCAnPG91dGZpbGUubWFlPic=

> <r_epik_Ionization_Penalty>
0.0020768

> <r_epik_Ionization_Penalty_Charging>
0

> <r_epik_Ionization_Penalty_Neutral>
0.0020768

> <r_epik_State_Penalty>
0.00139904

> <r_epik_Charging_Adjusted_Penalty>
0.00139904

> <i_epik_Tot_Q>
0

> <i_epik_Tot_abs_Q>
0

> <r_epik_Metal_State_Penalty>
-0

> <b_epik_Metal_Only>
0

> <s_lp_Force_Field>
OPLS_2005

> <r_lp_Energy>
26.8806

> <b_lp_Chiralities_Consistent>
1

> <s_lp_Variant>
AV-unprocessed.smi:1553-2

> <Gold.Version>
5.8.1

> <Gold.Id.Protein>
6NUR|6NUR_protein|mol2

> <Gold.PLP.Fitness>
41.4459

> <Gold.PLP.PLP>
-36.3881

> <Gold.PLP.part.hbond>
-1.4105

> <Gold.PLP.part.metal>
0.0000

> <Gold.PLP.part.buried>
-1.1722

> <Gold.PLP.part.nonpolar>
-33.6062

> <Gold.PLP.part.repulsive>
0.3325

> <Gold.PLP.ligand.clash>
0.0000

> <Gold.PLP.ligand.torsion>
0.5871

> <Gold.PLP.Chemscore.Hbond>
1.0000

> <Gold.PLP.Chemscore.CHOScore>
0.9366

> <Gold.PLP.Chemscore.Metal>
0.0000

> <Gold.Chemscore.Hbonds>
donor molecule, donor type, donor heavy atom, donor atom, acceptor molecule, acceptor atom, score
      P1  H  7997  8008       L1     9  1.00
      L1  C    17    37       P1  8028  0.43
      L1  C    17    37       P1  8029  0.51

> <Gold.PLP.Chemscore.Internal.Correction>
0.4221

> <Gold.Rescore>
     Score         DG    S(hbond)    S(metal)    S(lipo)     H(rot)  DE(clash)    DE(int)     intcor
     15.29     -17.77       0.99        0.00     105.97       1.33       0.49       1.99       ----

> <Gold.Chemscore.Fitness>
15.2914

> <Gold.Chemscore.DG>
-17.7692

> <Gold.Chemscore.ZeroCoef>
-5.4800

> <Gold.Chemscore.Hbond>
0.9886

> <Gold.Chemscore.Metal>
0.0000

> <Gold.Chemscore.Lipo>
105.9684

> <Gold.Chemscore.Internal_Hbond>
0.0000

> <Gold.Chemscore.DEClash>
0.4886

> <Gold.Chemscore.DEInternal>
1.9893

> <Gold.Chemscore.Rot>
1.3325

> <Gold.Chemscore.Internal.Correction>
   9.000000E+99

> <Gold.Chemscore.Hbonds>
donor molecule, donor type, donor heavy atom, donor atom, acceptor molecule, acceptor atom, score
      P1  H  7997  8008       L1     9  0.94

> <Gold.Chemscore.Hbond.Weighted>
-3.3020

> <Gold.Chemscore.Metal.Weighted>
-0.0000

> <Gold.Chemscore.Lipo.Weighted>
-12.3983

> <Gold.Chemscore.Internal_Hbond.Weighted>
0.0000

> <Gold.Chemscore.DEClash.Weighted>
0.4886

> <Gold.Chemscore.DEInternal.Weighted>
1.9893

> <Gold.Chemscore.Rot.Weighted>
3.4111

> <Gold.Chemscore.Internal.Correction.Weighted>
   9.000000E+99

> <Gold.Protein.RotatedTorsions>
[ 6907 6896 6895 6894 ] final  170.05 input  -60.11 | X-H torsion
[ 7974 7965 7964 7962 ] final -178.96 input  175.53 | X-H torsion
[ 8008 7997 7996 7995 ] final  -48.36 input   59.86 | X-H torsion
[ 10167 10162 10161 10158 ] final  128.42 input  -65.29 | X-H torsion
[ 10718 10713 10712 10709 ] final -124.61 input   66.30 | X-H torsion
[ 10763 10752 10751 10750 ] final   52.54 input  -60.55 | X-H torsion
[ 11005 11000 10999 10996 ] final  174.38 input  -57.11 | X-H torsion

> <Gold.Protein.ActiveResidues>
 VAL166  LYS551  ARG553  GLY616  TRP617  ASP618  TYR619  PRO620  LYS621  CYS622 
 ASP623  PHE694  ASN695  SER759  ASP760  ASP761  ALA762  ILE779  LEU786  VAL792 
 PHE793  MET794  SER795  GLU796  ALA797  LYS798  CYS799  TRP800  GLU811  SER814 

> <Gold.Protein.RotatedAtoms>
  151.8222  133.3396  159.3587 H   0  0  0  0  0  0  0  0  0  0  0  0  # atno 6907 bound_to 6896
  150.7291  134.5563  159.5829 H   0  0  0  0  0  0  0  0  0  0  0  0  # atno 6908 bound_to 6896
  152.2998  134.7626  160.0411 H   0  0  0  0  0  0  0  0  0  0  0  0  # atno 6909 bound_to 6896
  144.7133  140.0790  143.6426 H   0  0  0  0  0  0  0  0  0  0  0  0  # atno 7974 bound_to 7965
  154.4028  140.1323  156.4326 H   0  0  0  0  0  0  0  0  0  0  0  0  # atno 8008 bound_to 7997
  155.7537  140.3487  155.5143 H   0  0  0  0  0  0  0  0  0  0  0  0  # atno 8009 bound_to 7997
  155.8925  140.1005  157.1398 H   0  0  0  0  0  0  0  0  0  0  0  0  # atno 8010 bound_to 7997
  139.5528  144.6826  151.4272 H   0  0  0  0  0  0  0  0  0  0  0  0  # atno 10167 bound_to 10162
  156.1603  130.6597  151.0040 H   0  0  0  0  0  0  0  0  0  0  0  0  # atno 10718 bound_to 10713
  152.9789  135.5809  154.4595 H   0  0  0  0  0  0  0  0  0  0  0  0  # atno 10763 bound_to 10752
  154.4173  135.2771  155.2000 H   0  0  0  0  0  0  0  0  0  0  0  0  # atno 10764 bound_to 10752
  154.3764  135.6156  153.5821 H   0  0  0  0  0  0  0  0  0  0  0  0  # atno 10765 bound_to 10752
  140.3507  134.7197  157.4266 H   0  0  0  0  0  0  0  0  0  0  0  0  # atno 11005 bound_to 11000
  145.9718  139.2875  143.1094 LP  0  0  0  0  0  0  0  0  0  0  0  0  # atno 17320 bound_to 7965
  145.9108  140.9181  143.0455 LP  0  0  0  0  0  0  0  0  0  0  0  0  # atno 17321 bound_to 7965
  140.6795  143.8115  150.7102 LP  0  0  0  0  0  0  0  0  0  0  0  0  # atno 17342 bound_to 10162
  140.1564  143.4313  152.2097 LP  0  0  0  0  0  0  0  0  0  0  0  0  # atno 17343 bound_to 10162
  157.6727  131.0857  150.7572 LP  0  0  0  0  0  0  0  0  0  0  0  0  # atno 17370 bound_to 10713
  156.7635  130.4806  149.5432 LP  0  0  0  0  0  0  0  0  0  0  0  0  # atno 17371 bound_to 10713
  140.0705  134.5869  155.8647 LP  0  0  0  0  0  0  0  0  0  0  0  0  # atno 17394 bound_to 11000
  141.2013  133.6617  156.5942 LP  0  0  0  0  0  0  0  0  0  0  0  0  # atno 17395 bound_to 11000

$$$$
