AV-unprocessed.smi:1830|AV-procd|sdf|7445|dock1
  -GOLD-   22720 9133D 1   1.00000     0.00000
 Structure written by MMmdl.
 54 57  0  0  0  0  0  0  0  0  3 V2000
  149.1056  134.0185  155.7585 O   0  0  0  0  0  0  0  0  0  0  0  0
  148.8993  134.5668  154.6761 C   0  0  0  0  0  0  0  0  0  0  0  0
  149.1233  135.8694  154.4535 N   0  0  0  0  0  0  0  0  0  0  0  0
  149.6272  136.8100  155.4489 C   0  0  0  0  0  0  0  0  0  0  0  0
  150.8358  137.6156  154.9210 C   0  0  1  0  0  0  0  0  0  0  0  0
  150.6909  139.1404  155.1474 C   0  0  0  0  0  0  0  0  0  0  0  0
  150.9401  139.4454  156.5687 N   0  3  2  0  0  0  0  0  0  0  0  0
  150.8507  140.8501  157.0037 C   0  0  0  0  0  0  0  0  0  0  0  0
  151.7215  140.9278  158.2735 C   0  0  0  0  0  0  0  0  0  0  0  0
  152.4049  139.5540  158.3958 C   0  0  0  0  0  0  0  0  0  0  0  0
  152.2575  138.9691  156.9947 C   0  0  1  0  0  0  0  0  0  0  0  0
  152.3122  137.4449  156.8417 C   0  0  0  0  0  0  0  0  0  0  0  0
  152.0731  137.1306  155.4667 O   0  0  0  0  0  0  0  0  0  0  0  0
  148.4440  133.9519  153.5720 N   0  0  0  0  0  0  0  0  0  0  0  0
  148.1322  132.5723  153.4058 C   0  0  0  0  0  0  0  0  0  0  0  0
  148.8588  131.5541  154.0747 C   0  0  0  0  0  0  0  0  0  0  0  0
  148.4877  130.2058  153.9105 C   0  0  0  0  0  0  0  0  0  0  0  0
  147.3895  129.8958  153.0890 C   0  0  0  0  0  0  0  0  0  0  0  0
  146.7093  130.8884  152.4787 N   0  3  0  0  0  0  0  0  0  0  0  0
  147.0197  132.2029  152.6006 C   0  0  0  0  0  0  0  0  0  0  0  0
  146.2513  133.1538  151.8955 N   0  0  0  0  0  0  0  0  0  0  0  0
  145.8280  132.7144  150.5681 C   0  0  0  0  0  0  0  0  0  0  0  0
  144.4249  133.2841  150.3487 C   0  0  0  0  0  0  0  0  0  0  0  0
  143.8830  133.4243  151.7657 C   0  0  0  0  0  0  0  0  0  0  0  0
  145.1288  133.8177  152.5571 C   0  0  0  0  0  0  0  0  0  0  0  0
  148.9296  136.2385  153.5338 H   0  0  0  0  0  0  0  0  0  0  0  0
  148.8264  137.4896  155.7459 H   0  0  0  0  0  0  0  0  0  0  0  0
  149.8894  136.2505  156.3464 H   0  0  0  0  0  0  0  0  0  0  0  0
  150.8918  137.4551  153.8439 H   0  0  0  0  0  0  0  0  0  0  0  0
  151.4110  139.6796  154.5301 H   0  0  0  0  0  0  0  0  0  0  0  0
  149.6982  139.4861  154.8569 H   0  0  0  0  0  0  0  0  0  0  0  0
  151.2540  141.5072  156.2314 H   0  0  0  0  0  0  0  0  0  0  0  0
  149.8149  141.1369  157.1877 H   0  0  0  0  0  0  0  0  0  0  0  0
  152.4620  141.7221  158.1721 H   0  0  0  0  0  0  0  0  0  0  0  0
  151.1251  141.1462  159.1600 H   0  0  0  0  0  0  0  0  0  0  0  0
  153.4448  139.6247  158.7168 H   0  0  0  0  0  0  0  0  0  0  0  0
  151.8700  138.9380  159.1200 H   0  0  0  0  0  0  0  0  0  0  0  0
  153.0174  139.4197  156.3523 H   0  0  0  0  0  0  0  0  0  0  0  0
  153.2956  137.0693  157.1249 H   0  0  0  0  0  0  0  0  0  0  0  0
  151.5849  136.9510  157.4865 H   0  0  0  0  0  0  0  0  0  0  0  0
  148.4108  134.5102  152.7316 H   0  0  0  0  0  0  0  0  0  0  0  0
  149.6871  131.7867  154.7267 H   0  0  0  0  0  0  0  0  0  0  0  0
  149.0351  129.4218  154.4133 H   0  0  0  0  0  0  0  0  0  0  0  0
  147.0334  128.8923  152.9060 H   0  0  0  0  0  0  0  0  0  0  0  0
  146.5185  133.0598  149.7984 H   0  0  0  0  0  0  0  0  0  0  0  0
  145.7973  131.6243  150.5257 H   0  0  0  0  0  0  0  0  0  0  0  0
  144.4929  134.2679  149.8823 H   0  0  0  0  0  0  0  0  0  0  0  0
  143.8045  132.6515  149.7132 H   0  0  0  0  0  0  0  0  0  0  0  0
  143.0789  134.1562  151.8466 H   0  0  0  0  0  0  0  0  0  0  0  0
  143.5056  132.4629  152.1169 H   0  0  0  0  0  0  0  0  0  0  0  0
  145.0223  133.5891  153.6173 H   0  0  0  0  0  0  0  0  0  0  0  0
  145.2908  134.8935  152.4818 H   0  0  0  0  0  0  0  0  0  0  0  0
  150.2601  138.9341  157.1130 H   0  0  0  0  0  0  0  0  0  0  0  0
  145.9172  130.6335  151.8884 H   0  0  0  0  0  0  0  0  0  0  0  0
  1  2  2  0  0  0  0
  2  3  1  0  0  0  0
  2 14  1  0  0  0  0
  3  4  1  0  0  0  0
  3 26  1  0  0  0  0
  4  5  1  0  0  0  0
  4 27  1  0  0  0  0
  4 28  1  0  0  0  0
  5 13  1  0  0  0  0
  5  6  1  0  0  0  0
  5 29  1  0  0  0  0
  6  7  1  0  0  0  0
  6 30  1  0  0  0  0
  6 31  1  0  0  0  0
  7 11  1  0  0  0  0
  7  8  1  0  0  0  0
  7 53  1  0  0  0  0
  8  9  1  0  0  0  0
  8 32  1  0  0  0  0
  8 33  1  0  0  0  0
  9 10  1  0  0  0  0
  9 34  1  0  0  0  0
  9 35  1  0  0  0  0
 10 11  1  0  0  0  0
 10 36  1  0  0  0  0
 10 37  1  0  0  0  0
 11 12  1  0  0  0  0
 11 38  1  0  0  0  0
 12 13  1  0  0  0  0
 12 39  1  0  0  0  0
 12 40  1  0  0  0  0
 14 15  1  0  0  0  0
 14 41  1  0  0  0  0
 15 20  1  0  0  0  0
 15 16  2  0  0  0  0
 16 17  1  0  0  0  0
 16 42  1  0  0  0  0
 17 18  2  0  0  0  0
 17 43  1  0  0  0  0
 18 19  1  0  0  0  0
 18 44  1  0  0  0  0
 19 20  2  0  0  0  0
 19 54  1  0  0  0  0
 20 21  1  0  0  0  0
 21 25  1  0  0  0  0
 21 22  1  0  0  0  0
 22 23  1  0  0  0  0
 22 45  1  0  0  0  0
 22 46  1  0  0  0  0
 23 24  1  0  0  0  0
 23 47  1  0  0  0  0
 23 48  1  0  0  0  0
 24 25  1  0  0  0  0
 24 49  1  0  0  0  0
 24 50  1  0  0  0  0
 25 51  1  0  0  0  0
 25 52  1  0  0  0  0
M  CHG  1   7   1
M  CHG  1  19   1
M  END
> <s_m_source_file>
AV-unprocessed.smi

> <i_m_source_file_index>
1830

> <i_lp_mmshare_version>
43012

> <i_f3d_flags>
0

> <s_epik_input>
W0NIMl0xW0NIMl1bQ0gyXVtDQEhdKE4xMilbQ0gyXU9bQ0BASF0oW0NIMl0yKVtDSDJdW05IXUMoPU8pW05IXWMzW2NIXVtjSF1bY0hdbmMzTjRbQ0gyXVtDSDJdW0NIMl1bQ0gyXTQ=

> <s_epik_cmdline>
J2VwaWtfcHl0aG9uJywgJy1waCcsICc3LjAnLCAnLXRuJywgJzgnLCAnLW1hJywgJzIwMCcsICctbWV0YWxfYmluZGluZycsICctaW1hZScsICc8aW5maWxlLm1hZT4nLCAnLW9tYWUnLCAnPG91dGZpbGUubWFlPic=

> <r_lp_tautomer_probability>
0.999994

> <r_epik_Ionization_Penalty>
1.29113

> <r_epik_Ionization_Penalty_Charging>
1.29111

> <r_epik_Ionization_Penalty_Neutral>
1.88144e-05

> <r_epik_State_Penalty>
1.32676

> <r_epik_Charging_Adjusted_Penalty>
2.61787

> <i_epik_Tot_Q>
2

> <i_epik_Tot_abs_Q>
2

> <r_epik_Metal_State_Penalty>
1.40425

> <b_epik_Metal_Only>
0

> <s_lp_Force_Field>
OPLS_2005

> <r_lp_Energy>
76.3722

> <b_lp_Chiralities_Consistent>
1

> <s_lp_Variant>
AV-unprocessed.smi:1830-14

> <Gold.Version>
5.8.1

> <Gold.Id.Protein>
6NUR|6NUR_protein|mol2

> <Gold.PLP.Fitness>
42.9946

> <Gold.PLP.PLP>
-38.2634

> <Gold.PLP.part.hbond>
-3.9229

> <Gold.PLP.part.metal>
0.0000

> <Gold.PLP.part.buried>
-5.2530

> <Gold.PLP.part.nonpolar>
-29.8851

> <Gold.PLP.part.repulsive>
0.2943

> <Gold.PLP.ligand.clash>
0.0000

> <Gold.PLP.ligand.torsion>
1.6212

> <Gold.PLP.Chemscore.Hbond>
2.6040

> <Gold.PLP.Chemscore.CHOScore>
0.0000

> <Gold.PLP.Chemscore.Metal>
0.0000

> <Gold.Chemscore.Hbonds>
donor molecule, donor type, donor heavy atom, donor atom, acceptor molecule, acceptor atom, score
      L1  H     3    26       P1  7948  1.00
      L1  H    14    41       P1  7948  0.88
      P1  H 10752 10764       L1    13  0.91

> <Gold.PLP.Chemscore.Internal.Correction>
0.1617

> <Gold.Rescore>
     Score         DG    S(hbond)    S(metal)    S(lipo)     H(rot)  DE(clash)    DE(int)     intcor
     16.90     -19.60       2.42        0.00      82.90       1.43       0.01       2.68       ----

> <Gold.Chemscore.Fitness>
16.9014

> <Gold.Chemscore.DG>
-19.5958

> <Gold.Chemscore.ZeroCoef>
-5.4800

> <Gold.Chemscore.Hbond>
2.4166

> <Gold.Chemscore.Metal>
0.0000

> <Gold.Chemscore.Lipo>
82.9017

> <Gold.Chemscore.Internal_Hbond>
0.0000

> <Gold.Chemscore.DEClash>
0.0106

> <Gold.Chemscore.DEInternal>
2.6838

> <Gold.Chemscore.Rot>
1.4278

> <Gold.Chemscore.Internal.Correction>
   9.000000E+99

> <Gold.Chemscore.Hbonds>
donor molecule, donor type, donor heavy atom, donor atom, acceptor molecule, acceptor atom, score
      L1  H     3    26       P1  7948  0.97
      L1  H    14    41       P1  7948  0.19
      P1  H 10752 10764       L1    13  0.84

> <Gold.Chemscore.Hbond.Weighted>
-8.0714

> <Gold.Chemscore.Metal.Weighted>
-0.0000

> <Gold.Chemscore.Lipo.Weighted>
-9.6995

> <Gold.Chemscore.Internal_Hbond.Weighted>
0.0000

> <Gold.Chemscore.DEClash.Weighted>
0.0106

> <Gold.Chemscore.DEInternal.Weighted>
2.6838

> <Gold.Chemscore.Rot.Weighted>
3.6551

> <Gold.Chemscore.Internal.Correction.Weighted>
   9.000000E+99

> <Gold.Protein.RotatedTorsions>
[ 6907 6896 6895 6894 ] final -128.50 input  -60.11 | X-H torsion
[ 7974 7965 7964 7962 ] final  -39.97 input  175.53 | X-H torsion
[ 8008 7997 7996 7995 ] final -100.74 input   59.86 | X-H torsion
[ 10167 10162 10161 10158 ] final  -17.15 input  -65.29 | X-H torsion
[ 10718 10713 10712 10709 ] final -175.39 input   66.30 | X-H torsion
[ 10763 10752 10751 10750 ] final  -51.65 input  -60.55 | X-H torsion
[ 11005 11000 10999 10996 ] final  157.20 input  -57.11 | X-H torsion

> <Gold.Protein.ActiveResidues>
 VAL166  LYS551  ARG553  GLY616  TRP617  ASP618  TYR619  PRO620  LYS621  CYS622 
 ASP623  PHE694  ASN695  SER759  ASP760  ASP761  ALA762  ILE779  LEU786  VAL792 
 PHE793  MET794  SER795  GLU796  ALA797  LYS798  CYS799  TRP800  GLU811  SER814 

> <Gold.Protein.RotatedAtoms>
  150.9185  133.6909  159.2837 H   0  0  0  0  0  0  0  0  0  0  0  0  # atno 6907 bound_to 6896
  151.4371  135.1015  159.9669 H   0  0  0  0  0  0  0  0  0  0  0  0  # atno 6908 bound_to 6896
  152.4967  133.8602  159.7301 H   0  0  0  0  0  0  0  0  0  0  0  0  # atno 6909 bound_to 6896
  146.0347  140.6686  142.9115 H   0  0  0  0  0  0  0  0  0  0  0  0  # atno 7974 bound_to 7965
  154.8328  140.0439  157.1489 H   0  0  0  0  0  0  0  0  0  0  0  0  # atno 8008 bound_to 7997
  154.9133  140.3016  155.5234 H   0  0  0  0  0  0  0  0  0  0  0  0  # atno 8009 bound_to 7997
  156.2988  140.2354  156.4174 H   0  0  0  0  0  0  0  0  0  0  0  0  # atno 8010 bound_to 7997
  140.7243  143.5044  150.9828 H   0  0  0  0  0  0  0  0  0  0  0  0  # atno 10167 bound_to 10162
  156.7992  130.9546  151.3119 H   0  0  0  0  0  0  0  0  0  0  0  0  # atno 10718 bound_to 10713
  154.1300  135.6521  153.4920 H   0  0  0  0  0  0  0  0  0  0  0  0  # atno 10763 bound_to 10752
  153.0198  135.5290  154.7010 H   0  0  0  0  0  0  0  0  0  0  0  0  # atno 10764 bound_to 10752
  154.6242  135.2968  155.0261 H   0  0  0  0  0  0  0  0  0  0  0  0  # atno 10765 bound_to 10752
  140.1747  134.8518  157.2732 H   0  0  0  0  0  0  0  0  0  0  0  0  # atno 11005 bound_to 11000
  144.7046  140.3800  143.7128 LP  0  0  0  0  0  0  0  0  0  0  0  0  # atno 17320 bound_to 7965
  145.6982  139.1655  143.2608 LP  0  0  0  0  0  0  0  0  0  0  0  0  # atno 17321 bound_to 7965
  139.8755  143.7138  152.3162 LP  0  0  0  0  0  0  0  0  0  0  0  0  # atno 17342 bound_to 10162
  139.7402  144.7561  151.0664 LP  0  0  0  0  0  0  0  0  0  0  0  0  # atno 17343 bound_to 10162
  157.6562  130.8926  149.9734 LP  0  0  0  0  0  0  0  0  0  0  0  0  # atno 17370 bound_to 10713
  156.1111  130.3650  150.0047 LP  0  0  0  0  0  0  0  0  0  0  0  0  # atno 17371 bound_to 10713
  140.2336  134.3879  155.7511 LP  0  0  0  0  0  0  0  0  0  0  0  0  # atno 17394 bound_to 11000
  141.2219  133.7228  156.8679 LP  0  0  0  0  0  0  0  0  0  0  0  0  # atno 17395 bound_to 11000

$$$$
