AV-unprocessed.smi:3017|AV-procd|sdf|11475|dock5
  -GOLD-   2272016413D 1   1.00000     0.00000
 Structure written by MMmdl.
 37 38  0  0  0  0  0  0  0  0  1 V2000
  153.3278  142.4220  161.3057 C   0  0  0  0  0  0  0  0  0  0  0  0
  152.8864  142.6136  159.8477 C   0  0  2  0  0  0  0  0  0  0  0  0
  152.5988  144.0946  159.5351 C   0  0  0  0  0  0  0  0  0  0  0  0
  152.1491  144.2873  158.0781 C   0  0  0  0  0  0  0  0  0  0  0  0
  150.9281  143.4131  157.7508 C   0  0  0  0  0  0  0  0  0  0  0  0
  151.1964  141.9240  158.0529 C   0  0  1  0  0  0  0  0  0  0  0  0
  152.2159  141.4005  157.2105 O   0  0  0  0  0  0  0  0  0  0  0  0
  152.1354  140.0016  156.9723 C   0  0  0  0  0  0  0  0  0  0  0  0
  151.2624  139.7542  155.7424 C   0  0  0  0  0  0  0  0  0  0  0  0
  151.7468  139.1854  154.7642 O   0  0  0  0  0  0  0  0  0  0  0  0
  149.9963  140.2067  155.8151 N   0  0  0  0  0  0  0  0  0  0  0  0
  148.9666  140.0953  154.8447 C   0  0  0  0  0  0  0  0  0  0  0  0
  148.1443  141.2360  154.6883 C   0  0  0  0  0  0  0  0  0  0  0  0
  147.1190  141.2810  153.8086 N   0  0  0  0  0  0  0  0  0  0  0  0
  146.9075  140.1704  153.0708 C   0  0  0  0  0  0  0  0  0  0  0  0
  147.7167  139.0255  153.2124 C   0  0  0  0  0  0  0  0  0  0  0  0
  148.7401  138.9873  154.0935 N   0  0  0  0  0  0  0  0  0  0  0  0
  151.6593  141.7413  159.5103 C   0  0  0  0  0  0  0  0  0  0  0  0
  152.5448  142.7263  162.0011 H   0  0  0  0  0  0  0  0  0  0  0  0
  154.2180  143.0115  161.5269 H   0  0  0  0  0  0  0  0  0  0  0  0
  153.5668  141.3777  161.5085 H   0  0  0  0  0  0  0  0  0  0  0  0
  153.7142  142.2920  159.2139 H   0  0  0  0  0  0  0  0  0  0  0  0
  151.8246  144.4696  160.2057 H   0  0  0  0  0  0  0  0  0  0  0  0
  153.4887  144.6957  159.7246 H   0  0  0  0  0  0  0  0  0  0  0  0
  151.9127  145.3364  157.8994 H   0  0  0  0  0  0  0  0  0  0  0  0
  152.9699  144.0375  157.4047 H   0  0  0  0  0  0  0  0  0  0  0  0
  150.0798  143.7498  158.3479 H   0  0  0  0  0  0  0  0  0  0  0  0
  150.6347  143.5561  156.7114 H   0  0  0  0  0  0  0  0  0  0  0  0
  150.2797  141.3486  157.9124 H   0  0  0  0  0  0  0  0  0  0  0  0
  153.1285  139.5879  156.7917 H   0  0  0  0  0  0  0  0  0  0  0  0
  151.7063  139.4812  157.8286 H   0  0  0  0  0  0  0  0  0  0  0  0
  149.7382  140.6672  156.6759 H   0  0  0  0  0  0  0  0  0  0  0  0
  148.3087  142.1268  155.2771 H   0  0  0  0  0  0  0  0  0  0  0  0
  146.0903  140.1945  152.3652 H   0  0  0  0  0  0  0  0  0  0  0  0
  147.5428  138.1399  152.6194 H   0  0  0  0  0  0  0  0  0  0  0  0
  151.8857  140.6901  159.6930 H   0  0  0  0  0  0  0  0  0  0  0  0
  150.8377  141.9969  160.1810 H   0  0  0  0  0  0  0  0  0  0  0  0
  1  2  1  0  0  0  0
  1 19  1  0  0  0  0
  1 20  1  0  0  0  0
  1 21  1  0  0  0  0
  2 18  1  0  0  0  0
  2  3  1  0  0  0  0
  2 22  1  0  0  0  0
  3  4  1  0  0  0  0
  3 23  1  0  0  0  0
  3 24  1  0  0  0  0
  4  5  1  0  0  0  0
  4 25  1  0  0  0  0
  4 26  1  0  0  0  0
  5  6  1  0  0  0  0
  5 27  1  0  0  0  0
  5 28  1  0  0  0  0
  6  7  1  0  0  0  0
  6 18  1  0  0  0  0
  6 29  1  0  0  0  0
  7  8  1  0  0  0  0
  8  9  1  0  0  0  0
  8 30  1  0  0  0  0
  8 31  1  0  0  0  0
  9 10  2  0  0  0  0
  9 11  1  0  0  0  0
 11 12  1  0  0  0  0
 11 32  1  0  0  0  0
 12 17  1  0  0  0  0
 12 13  2  0  0  0  0
 13 14  1  0  0  0  0
 13 33  1  0  0  0  0
 14 15  2  0  0  0  0
 15 16  1  0  0  0  0
 15 34  1  0  0  0  0
 16 17  2  0  0  0  0
 16 35  1  0  0  0  0
 18 36  1  0  0  0  0
 18 37  1  0  0  0  0
M  END
> <s_m_source_file>
AV-unprocessed.smi

> <i_m_source_file_index>
3017

> <i_lp_mmshare_version>
43012

> <i_f3d_flags>
0

> <s_epik_input>
W0NIM11bQ0BASF0xW0NIMl1bQ0gyXVtDSDJdW0NASF0oW0NIMl0xKU9bQ0gyXUMoPU8pW05IXWMyW2NIXW5bY0hdW2NIXW4y

> <s_epik_cmdline>
J2VwaWtfcHl0aG9uJywgJy1waCcsICc3LjAnLCAnLXRuJywgJzgnLCAnLW1hJywgJzIwMCcsICctbWV0YWxfYmluZGluZycsICctaW1hZScsICc8aW5maWxlLm1hZT4nLCAnLW9tYWUnLCAnPG91dGZpbGUubWFlPic=

> <r_lp_tautomer_probability>
1

> <r_epik_Ionization_Penalty>
2.89243e-06

> <r_epik_Ionization_Penalty_Charging>
0

> <r_epik_Ionization_Penalty_Neutral>
2.89243e-06

> <r_epik_State_Penalty>
-0

> <r_epik_Charging_Adjusted_Penalty>
0

> <i_epik_Tot_Q>
0

> <i_epik_Tot_abs_Q>
0

> <r_epik_Metal_State_Penalty>
-0

> <b_epik_Metal_Only>
0

> <s_lp_Force_Field>
OPLS_2005

> <r_lp_Energy>
20.5488

> <b_lp_Chiralities_Consistent>
1

> <s_lp_Variant>
AV-unprocessed.smi:3017-1

> <Gold.Version>
5.8.1

> <Gold.Id.Protein>
6NUR|6NUR_protein|mol2

> <Gold.PLP.Fitness>
41.2166

> <Gold.PLP.PLP>
-31.8669

> <Gold.PLP.part.hbond>
-1.2225

> <Gold.PLP.part.metal>
0.0000

> <Gold.PLP.part.buried>
3.8870

> <Gold.PLP.part.nonpolar>
-35.5909

> <Gold.PLP.part.repulsive>
0.7671

> <Gold.PLP.ligand.clash>
0.0000

> <Gold.PLP.ligand.torsion>
0.7894

> <Gold.PLP.Chemscore.Hbond>
0.8500

> <Gold.PLP.Chemscore.CHOScore>
2.7899

> <Gold.PLP.Chemscore.Metal>
0.0000

> <Gold.Chemscore.Hbonds>
donor molecule, donor type, donor heavy atom, donor atom, acceptor molecule, acceptor atom, score
      P1  H  7989  7998       L1    10  0.66
      L1  C    13    33       P1  8028  0.65
      L1  C    15    34       P1 10175  1.00
      L1  C    16    35       P1  7948  1.00

> <Gold.PLP.Chemscore.Internal.Correction>
0.0089

> <Gold.Rescore>
     Score         DG    S(hbond)    S(metal)    S(lipo)     H(rot)  DE(clash)    DE(int)     intcor
     12.56     -15.79       0.91        0.00      95.35       1.51       0.84       2.39       ----

> <Gold.Chemscore.Fitness>
12.5551

> <Gold.Chemscore.DG>
-15.7896

> <Gold.Chemscore.ZeroCoef>
-5.4800

> <Gold.Chemscore.Hbond>
0.9054

> <Gold.Chemscore.Metal>
0.0000

> <Gold.Chemscore.Lipo>
95.3527

> <Gold.Chemscore.Internal_Hbond>
0.0000

> <Gold.Chemscore.DEClash>
0.8407

> <Gold.Chemscore.DEInternal>
2.3938

> <Gold.Chemscore.Rot>
1.5119

> <Gold.Chemscore.Internal.Correction>
   9.000000E+99

> <Gold.Chemscore.Hbonds>
donor molecule, donor type, donor heavy atom, donor atom, acceptor molecule, acceptor atom, score
      P1  H  7989  7998       L1    10  0.09

> <Gold.Chemscore.Hbond.Weighted>
-3.0239

> <Gold.Chemscore.Metal.Weighted>
-0.0000

> <Gold.Chemscore.Lipo.Weighted>
-11.1563

> <Gold.Chemscore.Internal_Hbond.Weighted>
0.0000

> <Gold.Chemscore.DEClash.Weighted>
0.8407

> <Gold.Chemscore.DEInternal.Weighted>
2.3938

> <Gold.Chemscore.Rot.Weighted>
3.8706

> <Gold.Chemscore.Internal.Correction.Weighted>
   9.000000E+99

> <Gold.Protein.RotatedTorsions>
[ 6907 6896 6895 6894 ] final -117.30 input  -60.11 | X-H torsion
[ 7974 7965 7964 7962 ] final  -27.91 input  175.53 | X-H torsion
[ 8008 7997 7996 7995 ] final    1.84 input   59.86 | X-H torsion
[ 10167 10162 10161 10158 ] final  -22.82 input  -65.29 | X-H torsion
[ 10718 10713 10712 10709 ] final  -49.13 input   66.30 | X-H torsion
[ 10763 10752 10751 10750 ] final  -48.59 input  -60.55 | X-H torsion
[ 11005 11000 10999 10996 ] final  119.10 input  -57.11 | X-H torsion

> <Gold.Protein.ActiveResidues>
 VAL166  LYS551  ARG553  GLY616  TRP617  ASP618  TYR619  PRO620  LYS621  CYS622 
 ASP623  PHE694  ASN695  SER759  ASP760  ASP761  ALA762  ILE779  LEU786  VAL792 
 PHE793  MET794  SER795  GLU796  ALA797  LYS798  CYS799  TRP800  GLU811  SER814 

> <Gold.Protein.RotatedAtoms>
  150.8125  133.8396  159.3175 H   0  0  0  0  0  0  0  0  0  0  0  0  # atno 6907 bound_to 6896
  151.6177  135.1033  160.0104 H   0  0  0  0  0  0  0  0  0  0  0  0  # atno 6908 bound_to 6896
  152.4217  133.7087  159.6523 H   0  0  0  0  0  0  0  0  0  0  0  0  # atno 6909 bound_to 6896
  146.1325  140.5214  142.8687 H   0  0  0  0  0  0  0  0  0  0  0  0  # atno 7974 bound_to 7965
  154.6845  140.2640  155.6874 H   0  0  0  0  0  0  0  0  0  0  0  0  # atno 8008 bound_to 7997
  156.2709  140.2803  156.1324 H   0  0  0  0  0  0  0  0  0  0  0  0  # atno 8009 bound_to 7997
  155.0984  140.0374  157.2679 H   0  0  0  0  0  0  0  0  0  0  0  0  # atno 8010 bound_to 7997
  140.7287  143.4499  151.0531 H   0  0  0  0  0  0  0  0  0  0  0  0  # atno 10167 bound_to 10162
  156.1922  130.4153  149.9356 H   0  0  0  0  0  0  0  0  0  0  0  0  # atno 10718 bound_to 10713
  154.0803  135.6592  153.4837 H   0  0  0  0  0  0  0  0  0  0  0  0  # atno 10763 bound_to 10752
  153.0358  135.5178  154.7480 H   0  0  0  0  0  0  0  0  0  0  0  0  # atno 10764 bound_to 10752
  154.6573  135.3010  154.9879 H   0  0  0  0  0  0  0  0  0  0  0  0  # atno 10765 bound_to 10752
  139.9134  134.9626  156.7604 H   0  0  0  0  0  0  0  0  0  0  0  0  # atno 11005 bound_to 11000
  144.7705  140.5627  143.6673 LP  0  0  0  0  0  0  0  0  0  0  0  0  # atno 17320 bound_to 7965
  145.5229  139.1476  143.3542 LP  0  0  0  0  0  0  0  0  0  0  0  0  # atno 17321 bound_to 7965
  139.8174  143.7866  152.3175 LP  0  0  0  0  0  0  0  0  0  0  0  0  # atno 17342 bound_to 10162
  139.7937  144.7400  150.9919 LP  0  0  0  0  0  0  0  0  0  0  0  0  # atno 17343 bound_to 10162
  156.7092  130.8963  151.3607 LP  0  0  0  0  0  0  0  0  0  0  0  0  # atno 17370 bound_to 10713
  157.6936  130.9258  150.0581 LP  0  0  0  0  0  0  0  0  0  0  0  0  # atno 17371 bound_to 10713
  140.6702  133.9566  155.7852 LP  0  0  0  0  0  0  0  0  0  0  0  0  # atno 17394 bound_to 11000
  141.0583  134.0384  157.3693 LP  0  0  0  0  0  0  0  0  0  0  0  0  # atno 17395 bound_to 11000

$$$$
