AV-unprocessed.smi:1593|AV-procd|sdf|6412|dock9
  -GOLD-   22720 7 43D 1   1.00000     0.00000
 Structure written by MMmdl.
 36 37  0  0  0  0  0  0  0  0  3 V2000
  149.2054  140.7314  154.9342 C   0  0  0  0  0  0  0  0  0  0  0  0
  150.1876  139.6182  154.8054 C   0  0  0  0  0  0  0  0  0  0  0  0
  150.0492  138.2663  154.6656 C   0  0  0  0  0  0  0  0  0  0  0  0
  151.3931  137.8083  154.5922 C   0  0  0  0  0  0  0  0  0  0  0  0
  151.7846  136.5313  154.4618 N   0  5  0  0  0  0  0  0  0  0  0  0
  151.1196  135.5464  155.1068 C   0  0  0  0  0  0  0  0  0  0  0  0
  151.5023  134.9380  156.1091 O   0  0  0  0  0  0  0  0  0  0  0  0
  149.9370  135.2424  154.5532 N   0  0  0  0  0  0  0  0  0  0  0  0
  149.0130  134.2205  155.0303 C   0  0  0  0  0  0  0  0  0  0  0  0
  148.4009  133.4277  153.8601 C   0  0  0  0  0  0  0  0  0  0  0  0
  147.4580  134.2445  153.0572 N   0  3  0  0  0  0  0  0  0  0  0  0
  146.7204  133.4358  152.0574 C   0  0  0  0  0  0  0  0  0  0  0  0
  145.7954  134.3314  151.2161 C   0  0  0  0  0  0  0  0  0  0  0  0
  144.9006  135.0312  152.0715 O   0  0  0  0  0  0  0  0  0  0  0  0
  145.5901  135.8791  152.9817 C   0  0  0  0  0  0  0  0  0  0  0  0
  146.5107  135.0366  153.8809 C   0  0  0  0  0  0  0  0  0  0  0  0
  152.2694  138.7933  154.6963 N   0  0  0  0  0  0  0  0  0  0  0  0
  151.5041  139.9584  154.8256 O   0  0  0  0  0  0  0  0  0  0  0  0
  148.2078  140.3475  155.1481 H   0  0  0  0  0  0  0  0  0  0  0  0
  149.1555  141.3095  154.0114 H   0  0  0  0  0  0  0  0  0  0  0  0
  149.4878  141.4058  155.7427 H   0  0  0  0  0  0  0  0  0  0  0  0
  149.1340  137.6957  154.6186 H   0  0  0  0  0  0  0  0  0  0  0  0
  149.6597  135.7678  153.7367 H   0  0  0  0  0  0  0  0  0  0  0  0
  149.5340  133.5674  155.7308 H   0  0  0  0  0  0  0  0  0  0  0  0
  148.2242  134.7168  155.5962 H   0  0  0  0  0  0  0  0  0  0  0  0
  149.2161  133.0890  153.2187 H   0  0  0  0  0  0  0  0  0  0  0  0
  147.8942  132.5284  154.2138 H   0  0  0  0  0  0  0  0  0  0  0  0
  147.4249  132.9217  151.4023 H   0  0  0  0  0  0  0  0  0  0  0  0
  146.1363  132.6674  152.5666 H   0  0  0  0  0  0  0  0  0  0  0  0
  146.3744  135.0379  150.6188 H   0  0  0  0  0  0  0  0  0  0  0  0
  145.2167  133.7249  150.5192 H   0  0  0  0  0  0  0  0  0  0  0  0
  146.1610  136.6321  152.4358 H   0  0  0  0  0  0  0  0  0  0  0  0
  144.8590  136.4131  153.5892 H   0  0  0  0  0  0  0  0  0  0  0  0
  145.9124  134.3657  154.4995 H   0  0  0  0  0  0  0  0  0  0  0  0
  147.0508  135.6969  154.5584 H   0  0  0  0  0  0  0  0  0  0  0  0
  148.0194  134.9009  152.5335 H   0  0  0  0  0  0  0  0  0  0  0  0
  1  2  1  0  0  0  0
  1 19  1  0  0  0  0
  1 20  1  0  0  0  0
  1 21  1  0  0  0  0
  2 18  1  0  0  0  0
  2  3  2  0  0  0  0
  3  4  1  0  0  0  0
  3 22  1  0  0  0  0
  4  5  1  0  0  0  0
  4 17  2  0  0  0  0
  5  6  1  0  0  0  0
  6  7  2  0  0  0  0
  6  8  1  0  0  0  0
  8  9  1  0  0  0  0
  8 23  1  0  0  0  0
  9 10  1  0  0  0  0
  9 24  1  0  0  0  0
  9 25  1  0  0  0  0
 10 11  1  0  0  0  0
 10 26  1  0  0  0  0
 10 27  1  0  0  0  0
 11 16  1  0  0  0  0
 11 12  1  0  0  0  0
 11 36  1  0  0  0  0
 12 13  1  0  0  0  0
 12 28  1  0  0  0  0
 12 29  1  0  0  0  0
 13 14  1  0  0  0  0
 13 30  1  0  0  0  0
 13 31  1  0  0  0  0
 14 15  1  0  0  0  0
 15 16  1  0  0  0  0
 15 32  1  0  0  0  0
 15 33  1  0  0  0  0
 16 34  1  0  0  0  0
 16 35  1  0  0  0  0
 17 18  1  0  0  0  0
M  CHG  1   5  -1
M  CHG  1  11   1
M  END
> <s_m_source_file>
AV-unprocessed.smi

> <i_m_source_file_index>
1593

> <i_lp_mmshare_version>
43012

> <i_f3d_flags>
0

> <s_epik_input>
W0NIM11jMVtjSF1jKG5vMSlbTkhdQyg9TylbTkhdW0NIMl1bQ0gyXU4yW0NIMl1bQ0gyXU9bQ0gyXVtDSDJdMg==

> <s_epik_cmdline>
J2VwaWtfcHl0aG9uJywgJy1waCcsICc3LjAnLCAnLXRuJywgJzgnLCAnLW1hJywgJzIwMCcsICctbWV0YWxfYmluZGluZycsICctaW1hZScsICc8aW5maWxlLm1hZT4nLCAnLW9tYWUnLCAnPG91dGZpbGUubWFlPic=

> <r_epik_Ionization_Penalty>
6.73013

> <r_epik_Ionization_Penalty_Charging>
6.73004

> <r_epik_Ionization_Penalty_Neutral>
9.27027e-05

> <r_epik_State_Penalty>
6.93052

> <r_epik_Charging_Adjusted_Penalty>
13.6606

> <i_epik_Tot_Q>
0

> <i_epik_Tot_abs_Q>
2

> <r_epik_Metal_State_Penalty>
2.86736

> <b_epik_Metal_Only>
1

> <s_lp_Force_Field>
OPLS_2005

> <r_lp_Energy>
3.0075

> <b_lp_Chiralities_Consistent>
1

> <s_lp_Variant>
AV-unprocessed.smi:1593-4

> <Gold.Version>
5.8.1

> <Gold.Id.Protein>
6NUR|6NUR_protein|mol2

> <Gold.PLP.Fitness>
44.3742

> <Gold.PLP.PLP>
-28.7256

> <Gold.PLP.part.hbond>
-3.9837

> <Gold.PLP.part.metal>
0.0000

> <Gold.PLP.part.buried>
-4.9197

> <Gold.PLP.part.nonpolar>
-20.8691

> <Gold.PLP.part.repulsive>
0.4918

> <Gold.PLP.ligand.clash>
0.0000

> <Gold.PLP.ligand.torsion>
1.2143

> <Gold.PLP.Chemscore.Hbond>
6.0000

> <Gold.PLP.Chemscore.CHOScore>
0.0000

> <Gold.PLP.Chemscore.Metal>
0.0000

> <Gold.Chemscore.Hbonds>
donor molecule, donor type, donor heavy atom, donor atom, acceptor molecule, acceptor atom, score
      L1  H     8    23       P1  7948  0.95
      L1  H    11    36       P1  7948  2.00
      P1  H  7989  7998       L1    18  1.00
      P1  H 10752 10765       L1     5  0.57

> <Gold.PLP.Chemscore.Internal.Correction>
0.0773

> <Gold.Rescore>
     Score         DG    S(hbond)    S(metal)    S(lipo)     H(rot)  DE(clash)    DE(int)     intcor
     15.48     -17.78       3.31        0.00      46.07       1.62       0.09       2.21       ----

> <Gold.Chemscore.Fitness>
15.4750

> <Gold.Chemscore.DG>
-17.7792

> <Gold.Chemscore.ZeroCoef>
-5.4800

> <Gold.Chemscore.Hbond>
3.3125

> <Gold.Chemscore.Metal>
0.0000

> <Gold.Chemscore.Lipo>
46.0658

> <Gold.Chemscore.Internal_Hbond>
0.0000

> <Gold.Chemscore.DEClash>
0.0914

> <Gold.Chemscore.DEInternal>
2.2129

> <Gold.Chemscore.Rot>
1.6228

> <Gold.Chemscore.Internal.Correction>
   9.000000E+99

> <Gold.Chemscore.Hbonds>
donor molecule, donor type, donor heavy atom, donor atom, acceptor molecule, acceptor atom, score
      L1  H     8    23       P1  7948  0.20
      L1  H    11    36       P1  7948  0.78
      P1  H  7989  7998       L1    18  0.29
      P1  H 10752 10765       L1     5  0.01

> <Gold.Chemscore.Hbond.Weighted>
-11.0638

> <Gold.Chemscore.Metal.Weighted>
-0.0000

> <Gold.Chemscore.Lipo.Weighted>
-5.3897

> <Gold.Chemscore.Internal_Hbond.Weighted>
0.0000

> <Gold.Chemscore.DEClash.Weighted>
0.0914

> <Gold.Chemscore.DEInternal.Weighted>
2.2129

> <Gold.Chemscore.Rot.Weighted>
4.1542

> <Gold.Chemscore.Internal.Correction.Weighted>
   9.000000E+99

> <Gold.Protein.RotatedTorsions>
[ 6907 6896 6895 6894 ] final -161.08 input  -60.11 | X-H torsion
[ 7974 7965 7964 7962 ] final  154.11 input  175.53 | X-H torsion
[ 8008 7997 7996 7995 ] final  146.77 input   59.86 | X-H torsion
[ 10167 10162 10161 10158 ] final  -92.12 input  -65.29 | X-H torsion
[ 10718 10713 10712 10709 ] final  147.09 input   66.30 | X-H torsion
[ 10763 10752 10751 10750 ] final  171.96 input  -60.55 | X-H torsion
[ 11005 11000 10999 10996 ] final  122.79 input  -57.11 | X-H torsion

> <Gold.Protein.ActiveResidues>
 VAL166  LYS551  ARG553  GLY616  TRP617  ASP618  TYR619  PRO620  LYS621  CYS622 
 ASP623  PHE694  ASN695  SER759  ASP760  ASP761  ALA762  ILE779  LEU786  VAL792 
 PHE793  MET794  SER795  GLU796  ALA797  LYS798  CYS799  TRP800  GLU811  SER814 

> <Gold.Protein.RotatedAtoms>
  151.3591  133.3896  159.2687 H   0  0  0  0  0  0  0  0  0  0  0  0  # atno 6907 bound_to 6896
  150.9740  134.9108  159.7815 H   0  0  0  0  0  0  0  0  0  0  0  0  # atno 6908 bound_to 6896
  152.5194  134.3554  159.9318 H   0  0  0  0  0  0  0  0  0  0  0  0  # atno 6909 bound_to 6896
  144.8110  139.6890  143.6141 H   0  0  0  0  0  0  0  0  0  0  0  0  # atno 7974 bound_to 7965
  156.2845  140.2173  156.5430 H   0  0  0  0  0  0  0  0  0  0  0  0  # atno 8008 bound_to 7997
  154.7354  140.0492  157.0786 H   0  0  0  0  0  0  0  0  0  0  0  0  # atno 8009 bound_to 7997
  155.0300  140.3134  155.4765 H   0  0  0  0  0  0  0  0  0  0  0  0  # atno 8010 bound_to 7997
  140.3380  143.2958  151.9868 H   0  0  0  0  0  0  0  0  0  0  0  0  # atno 10167 bound_to 10162
  157.3252  131.0911  151.1208 H   0  0  0  0  0  0  0  0  0  0  0  0  # atno 10718 bound_to 10713
  154.4193  135.2757  155.1986 H   0  0  0  0  0  0  0  0  0  0  0  0  # atno 10763 bound_to 10752
  154.3938  135.6060  153.5862 H   0  0  0  0  0  0  0  0  0  0  0  0  # atno 10764 bound_to 10752
  152.9832  135.5910  154.4487 H   0  0  0  0  0  0  0  0  0  0  0  0  # atno 10765 bound_to 10752
  139.9284  134.9641  156.8162 H   0  0  0  0  0  0  0  0  0  0  0  0  # atno 11005 bound_to 11000
  146.2408  139.5998  142.9492 LP  0  0  0  0  0  0  0  0  0  0  0  0  # atno 17320 bound_to 7965
  145.5324  141.0426  143.2375 LP  0  0  0  0  0  0  0  0  0  0  0  0  # atno 17321 bound_to 7965
  139.4845  144.6180  151.7308 LP  0  0  0  0  0  0  0  0  0  0  0  0  # atno 17342 bound_to 10162
  140.5336  144.0692  150.6062 LP  0  0  0  0  0  0  0  0  0  0  0  0  # atno 17343 bound_to 10162
  157.2477  130.6599  149.5917 LP  0  0  0  0  0  0  0  0  0  0  0  0  # atno 17370 bound_to 10713
  155.9690  130.4548  150.5864 LP  0  0  0  0  0  0  0  0  0  0  0  0  # atno 17371 bound_to 10713
  140.6272  133.9939  155.7645 LP  0  0  0  0  0  0  0  0  0  0  0  0  # atno 17394 bound_to 11000
  141.0856  133.9995  157.3318 LP  0  0  0  0  0  0  0  0  0  0  0  0  # atno 17395 bound_to 11000

$$$$
