AV-unprocessed.smi:2061|AV-procd|sdf|8379|dock10
  -GOLD-   2272011 53D 1   1.00000     0.00000
 Structure written by MMmdl.
 44 45  0  0  0  0  0  0  0  0  2 V2000
  146.6521  133.7945  162.4969 C   0  0  0  0  0  0  0  0  0  0  0  0
  147.1526  135.0189  161.8100 C   0  0  0  0  0  0  0  0  0  0  0  0
  147.7779  135.2201  160.6124 C   0  0  0  0  0  0  0  0  0  0  0  0
  147.9676  136.6287  160.5776 C   0  0  0  0  0  0  0  0  0  0  0  0
  148.5603  137.3197  159.5917 N   0  5  0  0  0  0  0  0  0  0  0  0
  149.5115  136.7353  158.8269 C   0  0  0  0  0  0  0  0  0  0  0  0
  149.5169  135.5658  158.4364 O   0  0  0  0  0  0  0  0  0  0  0  0
  150.5210  137.5576  158.5046 N   0  0  0  0  0  0  0  0  0  0  0  0
  151.6914  137.2251  157.6938 C   0  0  0  0  0  0  0  0  0  0  0  0
  151.5731  137.7135  156.2214 C   0  0  1  0  0  0  0  0  0  0  0  0
  151.1381  136.5248  155.3265 C   0  0  0  0  0  0  0  0  0  0  0  0
  150.6927  138.8967  156.0648 N   0  0  0  0  0  0  0  0  0  0  0  0
  150.4306  139.2196  154.6571 C   0  0  0  0  0  0  0  0  0  0  0  0
  149.5375  140.4610  154.4611 C   0  0  1  0  0  0  0  0  0  0  0  0
  148.0582  140.2072  154.7990 C   0  0  0  0  0  0  0  0  0  0  0  0
  150.0656  141.5719  155.1815 O   0  0  0  0  0  0  0  0  0  0  0  0
  150.3107  141.3227  156.5611 C   0  0  2  0  0  0  0  0  0  0  0  0
  150.9315  142.5857  157.1677 C   0  0  0  0  0  0  0  0  0  0  0  0
  151.2313  140.0979  156.7096 C   0  0  0  0  0  0  0  0  0  0  0  0
  147.5145  137.2271  161.6663 N   0  0  0  0  0  0  0  0  0  0  0  0
  146.9844  136.2023  162.4593 O   0  0  0  0  0  0  0  0  0  0  0  0
  147.4832  133.1873  162.8550 H   0  0  0  0  0  0  0  0  0  0  0  0
  146.0574  133.1864  161.8153 H   0  0  0  0  0  0  0  0  0  0  0  0
  146.0268  134.0509  163.3524 H   0  0  0  0  0  0  0  0  0  0  0  0
  148.0522  134.4801  159.8755 H   0  0  0  0  0  0  0  0  0  0  0  0
  150.4684  138.5034  158.8531 H   0  0  0  0  0  0  0  0  0  0  0  0
  152.6138  137.5993  158.1406 H   0  0  0  0  0  0  0  0  0  0  0  0
  151.7473  136.1397  157.7450 H   0  0  0  0  0  0  0  0  0  0  0  0
  152.5770  137.9986  155.9030 H   0  0  0  0  0  0  0  0  0  0  0  0
  151.7703  135.6488  155.4630 H   0  0  0  0  0  0  0  0  0  0  0  0
  151.2080  136.7534  154.2646 H   0  0  0  0  0  0  0  0  0  0  0  0
  150.1122  136.2247  155.5421 H   0  0  0  0  0  0  0  0  0  0  0  0
  151.3791  139.3827  154.1430 H   0  0  0  0  0  0  0  0  0  0  0  0
  149.9417  138.3894  154.1512 H   0  0  0  0  0  0  0  0  0  0  0  0
  149.5775  140.7370  153.4071 H   0  0  0  0  0  0  0  0  0  0  0  0
  147.6374  139.4443  154.1439 H   0  0  0  0  0  0  0  0  0  0  0  0
  147.4685  141.1149  154.6707 H   0  0  0  0  0  0  0  0  0  0  0  0
  147.9249  139.8628  155.8245 H   0  0  0  0  0  0  0  0  0  0  0  0
  149.3657  141.1302  157.0697 H   0  0  0  0  0  0  0  0  0  0  0  0
  151.1284  142.4542  158.2320 H   0  0  0  0  0  0  0  0  0  0  0  0
  150.2631  143.4400  157.0569 H   0  0  0  0  0  0  0  0  0  0  0  0
  151.8748  142.8351  156.6808 H   0  0  0  0  0  0  0  0  0  0  0  0
  151.3591  139.9358  157.7777 H   0  0  0  0  0  0  0  0  0  0  0  0
  152.2171  140.3252  156.3012 H   0  0  0  0  0  0  0  0  0  0  0  0
  1  2  1  0  0  0  0
  1 22  1  0  0  0  0
  1 23  1  0  0  0  0
  1 24  1  0  0  0  0
  2 21  1  0  0  0  0
  2  3  2  0  0  0  0
  3  4  1  0  0  0  0
  3 25  1  0  0  0  0
  4  5  1  0  0  0  0
  4 20  2  0  0  0  0
  5  6  1  0  0  0  0
  6  7  2  0  0  0  0
  6  8  1  0  0  0  0
  8  9  1  0  0  0  0
  8 26  1  0  0  0  0
  9 10  1  0  0  0  0
  9 27  1  0  0  0  0
  9 28  1  0  0  0  0
 10 11  1  0  0  0  0
 10 12  1  0  0  0  0
 10 29  1  0  0  0  0
 11 30  1  0  0  0  0
 11 31  1  0  0  0  0
 11 32  1  0  0  0  0
 12 19  1  0  0  0  0
 12 13  1  0  0  0  0
 13 14  1  0  0  0  0
 13 33  1  0  0  0  0
 13 34  1  0  0  0  0
 14 15  1  0  0  0  0
 14 16  1  0  0  0  0
 14 35  1  0  0  0  0
 15 36  1  0  0  0  0
 15 37  1  0  0  0  0
 15 38  1  0  0  0  0
 16 17  1  0  0  0  0
 17 18  1  0  0  0  0
 17 19  1  0  0  0  0
 17 39  1  0  0  0  0
 18 40  1  0  0  0  0
 18 41  1  0  0  0  0
 18 42  1  0  0  0  0
 19 43  1  0  0  0  0
 19 44  1  0  0  0  0
 20 21  1  0  0  0  0
M  CHG  1   5  -1
M  END
> <s_m_source_file>
AV-unprocessed.smi

> <i_m_source_file_index>
2061

> <i_lp_mmshare_version>
43012

> <i_f3d_flags>
0

> <s_epik_input>
W0NIM11jMVtjSF1jKG5vMSlbTkhdQyg9TylbTkhdW0NIMl1bQ0BIXShbQ0gzXSlOMltDSDJdW0NAQEhdKFtDSDNdKU9bQ0BASF0oW0NIM10pW0NIMl0y

> <s_epik_cmdline>
J2VwaWtfcHl0aG9uJywgJy1waCcsICc3LjAnLCAnLXRuJywgJzgnLCAnLW1hJywgJzIwMCcsICctbWV0YWxfYmluZGluZycsICctaW1hZScsICc8aW5maWxlLm1hZT4nLCAnLW9tYWUnLCAnPG91dGZpbGUubWFlPic=

> <r_epik_Ionization_Penalty>
6.88367

> <r_epik_Ionization_Penalty_Charging>
6.57198

> <r_epik_Ionization_Penalty_Neutral>
0.311681

> <r_epik_State_Penalty>
6.77619

> <r_epik_Charging_Adjusted_Penalty>
13.3482

> <i_epik_Tot_Q>
-1

> <i_epik_Tot_abs_Q>
1

> <r_epik_Metal_State_Penalty>
2.70524

> <b_epik_Metal_Only>
1

> <s_lp_Force_Field>
OPLS_2005

> <r_lp_Energy>
24.642

> <b_lp_Chiralities_Consistent>
1

> <s_lp_Variant>
AV-unprocessed.smi:2061-20

> <Gold.Version>
5.8.1

> <Gold.Id.Protein>
6NUR|6NUR_protein|mol2

> <Gold.PLP.Fitness>
39.8695

> <Gold.PLP.PLP>
-34.0668

> <Gold.PLP.part.hbond>
-4.6717

> <Gold.PLP.part.metal>
0.0000

> <Gold.PLP.part.buried>
-2.7308

> <Gold.PLP.part.nonpolar>
-26.0510

> <Gold.PLP.part.repulsive>
0.2545

> <Gold.PLP.ligand.clash>
0.0000

> <Gold.PLP.ligand.torsion>
1.1907

> <Gold.PLP.Chemscore.Hbond>
2.6944

> <Gold.PLP.Chemscore.CHOScore>
0.0000

> <Gold.PLP.Chemscore.Metal>
0.0000

> <Gold.Chemscore.Hbonds>
donor molecule, donor type, donor heavy atom, donor atom, acceptor molecule, acceptor atom, score
      P1  H  6896  6909       L1     7  1.00
      P1  H  6931  6943       L1    20  0.71
      P1  H  6934  6947       L1    20  0.78

> <Gold.PLP.Chemscore.Internal.Correction>
0.1009

> <Gold.Rescore>
     Score         DG    S(hbond)    S(metal)    S(lipo)     H(rot)  DE(clash)    DE(int)     intcor
     13.08     -15.50       1.46        0.00      77.12       1.52       0.03       2.39       ----

> <Gold.Chemscore.Fitness>
13.0788

> <Gold.Chemscore.DG>
-15.4958

> <Gold.Chemscore.ZeroCoef>
-5.4800

> <Gold.Chemscore.Hbond>
1.4615

> <Gold.Chemscore.Metal>
0.0000

> <Gold.Chemscore.Lipo>
77.1194

> <Gold.Chemscore.Internal_Hbond>
0.0000

> <Gold.Chemscore.DEClash>
0.0251

> <Gold.Chemscore.DEInternal>
2.3919

> <Gold.Chemscore.Rot>
1.5190

> <Gold.Chemscore.Internal.Correction>
   9.000000E+99

> <Gold.Chemscore.Hbonds>
donor molecule, donor type, donor heavy atom, donor atom, acceptor molecule, acceptor atom, score
      P1  H  6896  6909       L1     7  0.81
      P1  H  6931  6943       L1    20  0.09
      P1  H  6934  6947       L1    20  0.20

> <Gold.Chemscore.Hbond.Weighted>
-4.8815

> <Gold.Chemscore.Metal.Weighted>
-0.0000

> <Gold.Chemscore.Lipo.Weighted>
-9.0230

> <Gold.Chemscore.Internal_Hbond.Weighted>
0.0000

> <Gold.Chemscore.DEClash.Weighted>
0.0251

> <Gold.Chemscore.DEInternal.Weighted>
2.3919

> <Gold.Chemscore.Rot.Weighted>
3.8886

> <Gold.Chemscore.Internal.Correction.Weighted>
   9.000000E+99

> <Gold.Protein.RotatedTorsions>
[ 6907 6896 6895 6894 ] final   41.30 input  -60.11 | X-H torsion
[ 7974 7965 7964 7962 ] final   12.19 input  175.53 | X-H torsion
[ 8008 7997 7996 7995 ] final  -47.35 input   59.86 | X-H torsion
[ 10167 10162 10161 10158 ] final  119.36 input  -65.29 | X-H torsion
[ 10718 10713 10712 10709 ] final  179.95 input   66.30 | X-H torsion
[ 10763 10752 10751 10750 ] final    5.27 input  -60.55 | X-H torsion
[ 11005 11000 10999 10996 ] final  105.76 input  -57.11 | X-H torsion

> <Gold.Protein.ActiveResidues>
 VAL166  LYS551  ARG553  GLY616  TRP617  ASP618  TYR619  PRO620  LYS621  CYS622 
 ASP623  PHE694  ASN695  SER759  ASP760  ASP761  ALA762  ILE779  LEU786  VAL792 
 PHE793  MET794  SER795  GLU796  ALA797  LYS798  CYS799  TRP800  GLU811  SER814 

> <Gold.Protein.RotatedAtoms>
  152.1936  134.8650  160.0514 H   0  0  0  0  0  0  0  0  0  0  0  0  # atno 6907 bound_to 6896
  151.9530  133.3667  159.4015 H   0  0  0  0  0  0  0  0  0  0  0  0  # atno 6908 bound_to 6896
  150.6940  134.4244  159.5263 H   0  0  0  0  0  0  0  0  0  0  0  0  # atno 6909 bound_to 6896
  146.2356  139.9374  142.8488 H   0  0  0  0  0  0  0  0  0  0  0  0  # atno 7974 bound_to 7965
  154.4016  140.1348  156.4161 H   0  0  0  0  0  0  0  0  0  0  0  0  # atno 8008 bound_to 7997
  155.7687  140.3484  155.5215 H   0  0  0  0  0  0  0  0  0  0  0  0  # atno 8009 bound_to 7997
  155.8788  140.0984  157.1490 H   0  0  0  0  0  0  0  0  0  0  0  0  # atno 8010 bound_to 7997
  139.6051  144.7067  151.2973 H   0  0  0  0  0  0  0  0  0  0  0  0  # atno 10167 bound_to 10162
  156.8681  130.9774  151.3076 H   0  0  0  0  0  0  0  0  0  0  0  0  # atno 10718 bound_to 10713
  153.2613  135.6923  153.7575 H   0  0  0  0  0  0  0  0  0  0  0  0  # atno 10763 bound_to 10752
  153.6633  135.3356  155.3134 H   0  0  0  0  0  0  0  0  0  0  0  0  # atno 10764 bound_to 10752
  154.8431  135.4482  154.1605 H   0  0  0  0  0  0  0  0  0  0  0  0  # atno 10765 bound_to 10752
  139.8806  134.9347  156.5563 H   0  0  0  0  0  0  0  0  0  0  0  0  # atno 11005 bound_to 11000
  145.1985  140.9844  143.4169 LP  0  0  0  0  0  0  0  0  0  0  0  0  # atno 17320 bound_to 7965
  144.9794  139.3799  143.6269 LP  0  0  0  0  0  0  0  0  0  0  0  0  # atno 17321 bound_to 7965
  140.7278  143.6951  150.7890 LP  0  0  0  0  0  0  0  0  0  0  0  0  # atno 17342 bound_to 10162
  140.0535  143.5225  152.2662 LP  0  0  0  0  0  0  0  0  0  0  0  0  # atno 17343 bound_to 10162
  157.6211  130.8656  149.9111 LP  0  0  0  0  0  0  0  0  0  0  0  0  # atno 17370 bound_to 10713
  156.0741  130.3681  150.0715 LP  0  0  0  0  0  0  0  0  0  0  0  0  # atno 17371 bound_to 10713
  140.8202  133.8359  155.8889 LP  0  0  0  0  0  0  0  0  0  0  0  0  # atno 17394 bound_to 11000
  140.9425  134.1882  157.4787 LP  0  0  0  0  0  0  0  0  0  0  0  0  # atno 17395 bound_to 11000

$$$$
