#       Name:                AV-unprocessed.smi:101
#       Creating user name   scv26
#       Creation time:       Thu Mar 26 17:43:06 2020


#       File generated by GOLD software.
#

@<TRIPOS>MOLECULE
AV-unprocessed.smi:101
    56    58     1
SMALL
NO_CHARGES


@<TRIPOS>ATOM
      1 ****        -1.6025   3.3980  -3.1518 C.3            1 S1                 0.0000
      2 ****        -2.4245   2.5586  -2.1880 C.2            1 S1                 0.0000
      3 ****        -1.9872   1.3678  -1.7048 C.2            1 S1                 0.0000
      4 ****        -2.7174   0.5775  -0.8279 N.am           1 S1                 0.0000
      5 ****        -2.1556  -0.7351  -0.3256 C.3            1 S1                 0.0000
      6 ****        -0.8093  -0.5392  -0.0312 O.3            1 S1                 0.0000
      7 ****        -0.0948  -1.7264  -0.3335 C.3            1 S1                 0.0000
      8 ****         1.3863  -1.3954  -0.5470 C.3            1 S1                 0.0000
      9 ****         1.9820  -1.1063   0.7069 O.3            1 S1                 0.0000
     10 ****         3.2601  -0.6850   0.7650 C.2            1 S1                 0.0000
     11 ****         3.9757  -0.5389  -0.2279 O.2            1 S1                 0.0000
     12 ****         3.7193  -0.4136   2.1579 C.ar           1 S1                 0.0000
     13 ****         5.0477   0.0207   2.3766 C.ar           1 S1                 0.0000
     14 ****         5.5104   0.2857   3.6801 C.ar           1 S1                 0.0000
     15 ****         4.6501   0.1206   4.7812 C.ar           1 S1                 0.0000
     16 ****         3.3264  -0.3109   4.5771 C.ar           1 S1                 0.0000
     17 ****         2.8619  -0.5769   3.2743 C.ar           1 S1                 0.0000
     18 ****        -0.7937  -2.2472  -1.5921 C.3            1 S1                 0.0000
     19 ****        -0.6320  -3.6479  -1.6993 O.3            1 S1                 0.0000
     20 ****        -2.2567  -1.8834  -1.3571 C.3            1 S1                 0.0000
     21 ****        -2.8862  -1.5276  -2.5753 O.3            1 S1                 0.0000
     22 ****        -3.9944   1.0042  -0.4091 C.2            1 S1                 0.0000
     23 ****        -4.7096   0.3454   0.3446 O.2            1 S1                 0.0000
     24 ****        -4.4416   2.2295  -0.9003 N.am           1 S1                 0.0000
     25 ****        -3.7380   3.0616  -1.7751 C.2            1 S1                 0.0000
     26 ****        -4.2398   4.1243  -2.1373 O.2            1 S1                 0.0000
     27 ****        -5.3540   2.5418  -0.6012 H              1 S1                 0.0000
     28 ****        -0.6529   2.9205  -3.3955 H              1 S1                 0.0000
     29 ****        -1.3844   4.3738  -2.7165 H              1 S1                 0.0000
     30 ****        -2.1476   3.5519  -4.0839 H              1 S1                 0.0000
     31 ****        -1.0197   1.0093  -2.0272 H              1 S1                 0.0000
     32 ****        -2.6596  -0.9741   0.6122 H              1 S1                 0.0000
     33 ****        -0.2240  -2.4321   0.4898 H              1 S1                 0.0000
     34 ****         1.8987  -2.2492  -0.9925 H              1 S1                 0.0000
     35 ****         1.4928  -0.5519  -1.2308 H              1 S1                 0.0000
     36 ****         5.7268   0.1552   1.5467 H              1 S1                 0.0000
     37 ****         6.5268   0.6165   3.8347 H              1 S1                 0.0000
     38 ****         5.0051   0.3244   5.7806 H              1 S1                 0.0000
     39 ****         2.6652  -0.4383   5.4218 H              1 S1                 0.0000
     40 ****         1.8400  -0.9058   3.1531 H              1 S1                 0.0000
     41 ****        -0.4023  -1.7433  -2.4779 H              1 S1                 0.0000
     42 ****        -0.9901  -4.0539  -0.9248 H              1 S1                 0.0000
     43 ****        -2.8041  -2.7026  -0.8882 H              1 S1                 0.0000
     44 ****        -3.7522  -1.2031  -2.3803 H              1 S1                 0.0000
     45 ****        -0.7061  -0.3234   0.9398 LP             1 S1                 0.0000
     46 ****        -0.4522   0.2164  -0.5803 LP             1 S1                 0.0000
     47 ****         3.6134  -0.7366  -1.1388 LP             1 S1                 0.0000
     48 ****         4.9185  -0.2226  -0.1226 LP             1 S1                 0.0000
     49 ****         0.3400  -3.8696  -1.7768 LP             1 S1                 0.0000
     50 ****        -1.1156  -3.9816  -2.5085 LP             1 S1                 0.0000
     51 ****        -2.9520  -2.3300  -3.1684 LP             1 S1                 0.0000
     52 ****        -2.3546  -0.8161  -3.0349 LP             1 S1                 0.0000
     53 ****        -4.3923  -0.5378   0.6899 LP             1 S1                 0.0000
     54 ****        -5.6083   0.6931   0.6119 LP             1 S1                 0.0000
     55 ****        -3.7430   4.7236  -2.7650 LP             1 S1                 0.0000
     56 ****        -5.1447   4.3892  -1.8041 LP             1 S1                 0.0000
@<TRIPOS>BOND
    1    1    2 1     
    2    1   28 1     
    3    1   29 1     
    4    1   30 1     
    5    2   25 1     
    6    2    3 2     
    7    3    4 1     
    8    3   31 1     
    9    4    5 1     
   10    4   22 1     
   11    5   20 1     
   12    5    6 1     
   13    5   32 1     
   14    6    7 1     
   15    7    8 1     
   16    7   18 1     
   17    7   33 1     
   18    8    9 1     
   19    8   34 1     
   20    8   35 1     
   21    9   10 1     
   22   10   11 2     
   23   10   12 1     
   24   12   17 ar    
   25   12   13 ar    
   26   13   14 ar    
   27   13   36 1     
   28   14   15 ar    
   29   14   37 1     
   30   15   16 ar    
   31   15   38 1     
   32   16   17 ar    
   33   16   39 1     
   34   17   40 1     
   35   18   19 1     
   36   18   20 1     
   37   18   41 1     
   38   19   42 1     
   39   20   21 1     
   40   20   43 1     
   41   21   44 1     
   42   22   23 2     
   43   22   24 1     
   44   24   27 1     
   45   24   25 1     
   46   25   26 2     
   47    6   45 1     
   48    6   46 1     
   49   11   47 1     
   50   11   48 1     
   51   19   49 1     
   52   19   50 1     
   53   21   51 1     
   54   21   52 1     
   55   23   53 1     
   56   23   54 1     
   57   26   55 1     
   58   26   56 1     
@<TRIPOS>SUBSTRUCTURE
      1 S1             1
@<TRIPOS>SET
LONE_PAIRS      STATIC     ATOMS    <user>   **** ""
12 45 46 47 48 49 50 51 52 53 54 55 56
DONOR_HYDROGENS      STATIC     ATOMS    <user>   **** ""
3 42 44 27
ATOM$BLUE        STATIC     ATOMS    COLORGROUP SYSTEM
12 45 46 47 48 49 50 51 52 53 54 55 56
ATOM$RED        STATIC     ATOMS    COLORGROUP SYSTEM
3 42 44 27
