AV-unprocessed.smi:1437|AV-procd|sdf|5865|dock1
  -GOLD-   22720 5543D 1   1.00000     0.00000
 Structure written by MMmdl.
 35 36  0  0  0  0  0  0  0  0  3 V2000
  153.4097  142.4949  161.4758 C   0  0  0  0  0  0  0  0  0  0  0  0
  152.8153  142.9557  160.1888 C   0  0  0  0  0  0  0  0  0  0  0  0
  152.4712  142.3015  159.0402 C   0  0  0  0  0  0  0  0  0  0  0  0
  151.9663  143.3410  158.2124 C   0  0  0  0  0  0  0  0  0  0  0  0
  151.4857  143.1937  156.9681 N   0  5  0  0  0  0  0  0  0  0  0  0
  150.7550  142.1022  156.6459 C   0  0  0  0  0  0  0  0  0  0  0  0
  150.9366  140.9528  157.0541 O   0  0  0  0  0  0  0  0  0  0  0  0
  149.7493  142.3593  155.7970 N   0  0  0  0  0  0  0  0  0  0  0  0
  148.7930  141.3846  155.2812 C   0  0  2  0  0  0  0  0  0  0  0  0
  149.5215  140.2168  154.5907 C   0  0  0  0  0  0  0  0  0  0  0  0
  148.5208  139.2376  153.9558 C   0  0  0  0  0  0  0  0  0  0  0  0
  147.6198  139.9369  153.0062 N   0  3  1  0  0  0  0  0  0  0  0  0
  146.7241  139.0044  152.2893 C   0  0  0  0  0  0  0  0  0  0  0  0
  146.8772  141.0453  153.6566 C   0  0  0  0  0  0  0  0  0  0  0  0
  147.8434  142.0647  154.2820 C   0  0  0  0  0  0  0  0  0  0  0  0
  151.9863  144.5196  158.8123 N   0  0  0  0  0  0  0  0  0  0  0  0
  152.5359  144.2822  160.0778 O   0  0  0  0  0  0  0  0  0  0  0  0
  152.7251  141.8271  161.9986 H   0  0  0  0  0  0  0  0  0  0  0  0
  153.6287  143.3368  162.1332 H   0  0  0  0  0  0  0  0  0  0  0  0
  154.3398  141.9550  161.2983 H   0  0  0  0  0  0  0  0  0  0  0  0
  152.5680  141.2484  158.8240 H   0  0  0  0  0  0  0  0  0  0  0  0
  149.6416  143.3147  155.4887 H   0  0  0  0  0  0  0  0  0  0  0  0
  148.1949  140.9948  156.1073 H   0  0  0  0  0  0  0  0  0  0  0  0
  150.1915  140.6017  153.8204 H   0  0  0  0  0  0  0  0  0  0  0  0
  150.1487  139.6858  155.3077 H   0  0  0  0  0  0  0  0  0  0  0  0
  149.0653  138.4513  153.4317 H   0  0  0  0  0  0  0  0  0  0  0  0
  147.9285  138.7512  154.7325 H   0  0  0  0  0  0  0  0  0  0  0  0
  146.0466  138.5025  152.9813 H   0  0  0  0  0  0  0  0  0  0  0  0
  147.3016  138.2437  151.7630 H   0  0  0  0  0  0  0  0  0  0  0  0
  146.1257  139.5376  151.5497 H   0  0  0  0  0  0  0  0  0  0  0  0
  146.2480  141.5460  152.9200 H   0  0  0  0  0  0  0  0  0  0  0  0
  146.2112  140.6413  154.4211 H   0  0  0  0  0  0  0  0  0  0  0  0
  147.2768  142.8522  154.7808 H   0  0  0  0  0  0  0  0  0  0  0  0
  148.4191  142.5504  153.4926 H   0  0  0  0  0  0  0  0  0  0  0  0
  148.2133  140.3604  152.3070 H   0  0  0  0  0  0  0  0  0  0  0  0
  1  2  1  0  0  0  0
  1 18  1  0  0  0  0
  1 19  1  0  0  0  0
  1 20  1  0  0  0  0
  2 17  1  0  0  0  0
  2  3  2  0  0  0  0
  3  4  1  0  0  0  0
  3 21  1  0  0  0  0
  4  5  1  0  0  0  0
  4 16  2  0  0  0  0
  5  6  1  0  0  0  0
  6  7  2  0  0  0  0
  6  8  1  0  0  0  0
  8  9  1  0  0  0  0
  8 22  1  0  0  0  0
  9 15  1  0  0  0  0
  9 10  1  0  0  0  0
  9 23  1  0  0  0  0
 10 11  1  0  0  0  0
 10 24  1  0  0  0  0
 10 25  1  0  0  0  0
 11 12  1  0  0  0  0
 11 26  1  0  0  0  0
 11 27  1  0  0  0  0
 12 13  1  0  0  0  0
 12 14  1  0  0  0  0
 12 35  1  0  0  0  0
 13 28  1  0  0  0  0
 13 29  1  0  0  0  0
 13 30  1  0  0  0  0
 14 15  1  0  0  0  0
 14 31  1  0  0  0  0
 14 32  1  0  0  0  0
 15 33  1  0  0  0  0
 15 34  1  0  0  0  0
 16 17  1  0  0  0  0
M  CHG  1   5  -1
M  CHG  1  12   1
M  END
> <s_m_source_file>
AV-unprocessed.smi

> <i_m_source_file_index>
1437

> <i_lp_mmshare_version>
43012

> <i_f3d_flags>
0

> <s_epik_input>
W0NIM11jMVtjSF1jKG5vMSlbTkhdQyg9TylbTkhdW0NIXTJbQ0gyXVtDSDJdTihbQ0gzXSlbQ0gyXVtDSDJdMg==

> <s_epik_cmdline>
J2VwaWtfcHl0aG9uJywgJy1waCcsICc3LjAnLCAnLXRuJywgJzgnLCAnLW1hJywgJzIwMCcsICctbWV0YWxfYmluZGluZycsICctaW1hZScsICc8aW5maWxlLm1hZT4nLCAnLW9tYWUnLCAnPG91dGZpbGUubWFlPic=

> <r_epik_Ionization_Penalty>
6.28535

> <r_epik_Ionization_Penalty_Charging>
6.28525

> <r_epik_Ionization_Penalty_Neutral>
9.66055e-05

> <r_epik_State_Penalty>
6.28414

> <r_epik_Charging_Adjusted_Penalty>
12.5694

> <i_epik_Tot_Q>
0

> <i_epik_Tot_abs_Q>
2

> <r_epik_Metal_State_Penalty>
2.21724

> <b_epik_Metal_Only>
1

> <s_lp_Force_Field>
OPLS_2005

> <r_lp_Energy>
2.83336

> <b_lp_Chiralities_Consistent>
1

> <s_lp_Variant>
AV-unprocessed.smi:1437-3

> <Gold.Version>
5.8.1

> <Gold.Id.Protein>
6NUR|6NUR_protein|mol2

> <Gold.PLP.Fitness>
41.1591

> <Gold.PLP.PLP>
-36.3185

> <Gold.PLP.part.hbond>
-1.9738

> <Gold.PLP.part.metal>
0.0000

> <Gold.PLP.part.buried>
-5.3124

> <Gold.PLP.part.nonpolar>
-30.2820

> <Gold.PLP.part.repulsive>
0.4879

> <Gold.PLP.ligand.clash>
0.0000

> <Gold.PLP.ligand.torsion>
0.5717

> <Gold.PLP.Chemscore.Hbond>
1.9920

> <Gold.PLP.Chemscore.CHOScore>
0.0000

> <Gold.PLP.Chemscore.Metal>
0.0000

> <Gold.Chemscore.Hbonds>
donor molecule, donor type, donor heavy atom, donor atom, acceptor molecule, acceptor atom, score
      L1  H     8    22       P1  8028  0.98
      L1  H    12    35       P1  7957  0.90

> <Gold.PLP.Chemscore.Internal.Correction>
0.0081

> <Gold.Rescore>
     Score         DG    S(hbond)    S(metal)    S(lipo)     H(rot)  DE(clash)    DE(int)     intcor
     15.01     -17.99       1.90        0.00      74.53       1.00       0.03       2.95       ----

> <Gold.Chemscore.Fitness>
15.0118

> <Gold.Chemscore.DG>
-17.9898

> <Gold.Chemscore.ZeroCoef>
-5.4800

> <Gold.Chemscore.Hbond>
1.9010

> <Gold.Chemscore.Metal>
0.0000

> <Gold.Chemscore.Lipo>
74.5331

> <Gold.Chemscore.Internal_Hbond>
0.0000

> <Gold.Chemscore.DEClash>
0.0310

> <Gold.Chemscore.DEInternal>
2.9470

> <Gold.Chemscore.Rot>
1.0000

> <Gold.Chemscore.Internal.Correction>
   9.000000E+99

> <Gold.Chemscore.Hbonds>
donor molecule, donor type, donor heavy atom, donor atom, acceptor molecule, acceptor atom, score
      L1  H     8    22       P1  8028  0.92
      L1  H    12    35       P1  7957  0.87

> <Gold.Chemscore.Hbond.Weighted>
-6.3494

> <Gold.Chemscore.Metal.Weighted>
-0.0000

> <Gold.Chemscore.Lipo.Weighted>
-8.7204

> <Gold.Chemscore.Internal_Hbond.Weighted>
0.0000

> <Gold.Chemscore.DEClash.Weighted>
0.0310

> <Gold.Chemscore.DEInternal.Weighted>
2.9470

> <Gold.Chemscore.Rot.Weighted>
2.5600

> <Gold.Chemscore.Internal.Correction.Weighted>
   9.000000E+99

> <Gold.Protein.RotatedTorsions>
[ 6907 6896 6895 6894 ] final  124.61 input  -60.11 | X-H torsion
[ 7974 7965 7964 7962 ] final  164.72 input  175.53 | X-H torsion
[ 8008 7997 7996 7995 ] final   55.30 input   59.86 | X-H torsion
[ 10167 10162 10161 10158 ] final    1.75 input  -65.29 | X-H torsion
[ 10718 10713 10712 10709 ] final  156.71 input   66.30 | X-H torsion
[ 10763 10752 10751 10750 ] final -165.27 input  -60.55 | X-H torsion
[ 11005 11000 10999 10996 ] final -105.83 input  -57.11 | X-H torsion

> <Gold.Protein.ActiveResidues>
 VAL166  LYS551  ARG553  GLY616  TRP617  ASP618  TYR619  PRO620  LYS621  CYS622 
 ASP623  PHE694  ASN695  SER759  ASP760  ASP761  ALA762  ILE779  LEU786  VAL792 
 PHE793  MET794  SER795  GLU796  ALA797  LYS798  CYS799  TRP800  GLU811  SER814 

> <Gold.Protein.RotatedAtoms>
  152.4063  133.6894  159.6358 H   0  0  0  0  0  0  0  0  0  0  0  0  # atno 6907 bound_to 6896
  150.7948  133.8703  159.3265 H   0  0  0  0  0  0  0  0  0  0  0  0  # atno 6908 bound_to 6896
  151.6457  135.1009  160.0202 H   0  0  0  0  0  0  0  0  0  0  0  0  # atno 6909 bound_to 6896
  144.7533  139.8367  143.6359 H   0  0  0  0  0  0  0  0  0  0  0  0  # atno 7974 bound_to 7965
  155.4989  140.3474  155.4368 H   0  0  0  0  0  0  0  0  0  0  0  0  # atno 8008 bound_to 7997
  156.0927  140.1415  156.9599 H   0  0  0  0  0  0  0  0  0  0  0  0  # atno 8009 bound_to 7997
  154.4644  140.0923  156.6959 H   0  0  0  0  0  0  0  0  0  0  0  0  # atno 8010 bound_to 7997
  140.6668  143.7158  150.7842 H   0  0  0  0  0  0  0  0  0  0  0  0  # atno 10167 bound_to 10162
  157.2013  131.0677  151.2023 H   0  0  0  0  0  0  0  0  0  0  0  0  # atno 10718 bound_to 10713
  154.6948  135.2977  154.9427 H   0  0  0  0  0  0  0  0  0  0  0  0  # atno 10763 bound_to 10752
  154.0379  135.6661  153.4791 H   0  0  0  0  0  0  0  0  0  0  0  0  # atno 10764 bound_to 10752
  153.0638  135.5100  154.8060 H   0  0  0  0  0  0  0  0  0  0  0  0  # atno 10765 bound_to 10752
  141.1034  133.8842  157.1782 H   0  0  0  0  0  0  0  0  0  0  0  0  # atno 11005 bound_to 11000
  146.1511  139.4595  143.0048 LP  0  0  0  0  0  0  0  0  0  0  0  0  # atno 17320 bound_to 7965
  145.6867  141.0176  143.1577 LP  0  0  0  0  0  0  0  0  0  0  0  0  # atno 17321 bound_to 7965
  140.0837  143.4944  152.2516 LP  0  0  0  0  0  0  0  0  0  0  0  0  # atno 17342 bound_to 10162
  139.5919  144.7553  151.3379 LP  0  0  0  0  0  0  0  0  0  0  0  0  # atno 17343 bound_to 10162
  157.3764  130.7208  149.6600 LP  0  0  0  0  0  0  0  0  0  0  0  0  # atno 17370 bound_to 10713
  155.9700  130.4184  150.4328 LP  0  0  0  0  0  0  0  0  0  0  0  0  # atno 17371 bound_to 10713
  139.9894  135.0070  156.9940 LP  0  0  0  0  0  0  0  0  0  0  0  0  # atno 17394 bound_to 11000
  140.4964  134.1141  155.7242 LP  0  0  0  0  0  0  0  0  0  0  0  0  # atno 17395 bound_to 11000

$$$$
