#       Name:                AV-unprocessed.smi:3032
#       Creating user name   scv26
#       Creation time:       Fri Mar 27 16:53:13 2020


#       File generated by GOLD software.
#

@<TRIPOS>MOLECULE
AV-unprocessed.smi:3032
    41    42     1
SMALL
NO_CHARGES


@<TRIPOS>ATOM
      1 ****        -2.1717   1.5084   1.5205 C.3            1 S1                 0.0000
      2 ****        -1.4559   1.2270   0.1921 C.3            1 S1                 0.0000
      3 ****        -2.0524   2.0612  -0.9565 C.3            1 S1                 0.0000
      4 ****        -1.3244   1.7987  -2.2836 C.3            1 S1                 0.0000
      5 ****        -1.3034   0.2977  -2.6366 C.3            1 S1                 0.0000
      6 ****        -0.7829  -0.6048  -1.4908 C.3            1 S1                 0.0000
      7 ****         0.7478  -0.5837  -1.3238 C.2            1 S1                 0.0000
      8 ****         1.4102   0.4117  -1.6156 O.2            1 S1                 0.0000
      9 ****         1.2987  -1.7062  -0.8372 N.am           1 S1                 0.0000
     10 ****         2.7135  -1.8866  -0.5244 C.3            1 S1                 0.0000
     11 ****         3.1801  -1.0575   0.6908 C.3            1 S1                 0.0000
     12 ****         2.2773  -1.1592   1.8804 C.2            1 S1                 0.0000
     13 ****         2.2059  -2.2161   2.6984 N.2            1 S1                 0.0000
     14 ****         1.2392  -1.8943   3.6384 N.2            1 S1                 0.0000
     15 ****         0.8235  -0.6735   3.2973 C.2            1 S1                 0.0000
     16 ****         1.4336  -0.1715   2.2179 N.pl3          1 S1                 0.0000
     17 ****        -1.5053  -0.2725  -0.1652 C.3            1 S1                 0.0000
     18 ****         1.2905   0.7206   1.7671 H              1 S1                 0.0000
     19 ****        -3.2279   1.2429   1.4662 H              1 S1                 0.0000
     20 ****        -2.1066   2.5641   1.7850 H              1 S1                 0.0000
     21 ****        -1.7262   0.9374   2.3353 H              1 S1                 0.0000
     22 ****        -0.4130   1.5199   0.3193 H              1 S1                 0.0000
     23 ****        -3.1114   1.8257  -1.0713 H              1 S1                 0.0000
     24 ****        -1.9972   3.1232  -0.7154 H              1 S1                 0.0000
     25 ****        -1.8109   2.3549  -3.0851 H              1 S1                 0.0000
     26 ****        -0.3101   2.1915  -2.2242 H              1 S1                 0.0000
     27 ****        -2.3178  -0.0140  -2.8890 H              1 S1                 0.0000
     28 ****        -0.7136   0.1411  -3.5409 H              1 S1                 0.0000
     29 ****        -1.0403  -1.6313  -1.7571 H              1 S1                 0.0000
     30 ****         0.6859  -2.4815  -0.6291 H              1 S1                 0.0000
     31 ****         2.8582  -2.9457  -0.3101 H              1 S1                 0.0000
     32 ****         3.3257  -1.6625  -1.3988 H              1 S1                 0.0000
     33 ****         4.1819  -1.3713   0.9856 H              1 S1                 0.0000
     34 ****         3.2653  -0.0071   0.4088 H              1 S1                 0.0000
     35 ****         0.0608  -0.1382   3.8433 H              1 S1                 0.0000
     36 ****        -1.0805  -0.8606   0.6500 H              1 S1                 0.0000
     37 ****        -2.5462  -0.5891  -0.2428 H              1 S1                 0.0000
     38 ****         0.9552   1.2290  -1.9692 LP             1 S1                 0.0000
     39 ****         2.4033   0.4032  -1.4990 LP             1 S1                 0.0000
     40 ****         2.7383  -3.0608   2.6431 LP             1 S1                 0.0000
     41 ****         0.9229  -2.4543   4.4041 LP             1 S1                 0.0000
@<TRIPOS>BOND
    1    1    2 1     
    2    1   19 1     
    3    1   20 1     
    4    1   21 1     
    5    2   17 1     
    6    2    3 1     
    7    2   22 1     
    8    3    4 1     
    9    3   23 1     
   10    3   24 1     
   11    4    5 1     
   12    4   25 1     
   13    4   26 1     
   14    5    6 1     
   15    5   27 1     
   16    5   28 1     
   17    6    7 1     
   18    6   17 1     
   19    6   29 1     
   20    7    8 2     
   21    7    9 am    
   22    9   10 1     
   23    9   30 1     
   24   10   11 1     
   25   10   31 1     
   26   10   32 1     
   27   11   12 1     
   28   11   33 1     
   29   11   34 1     
   30   12   16 1     
   31   12   13 2     
   32   13   14 1     
   33   14   15 2     
   34   15   16 1     
   35   15   35 1     
   36   16   18 1     
   37   17   36 1     
   38   17   37 1     
   39    8   38 1     
   40    8   39 1     
   41   13   40 1     
   42   14   41 1     
@<TRIPOS>SUBSTRUCTURE
      1 S1             1
@<TRIPOS>SET
LONE_PAIRS      STATIC     ATOMS    <user>   **** ""
4 38 39 40 41
DONOR_HYDROGENS      STATIC     ATOMS    <user>   **** ""
2 30 18
ATOM$BLUE        STATIC     ATOMS    COLORGROUP SYSTEM
4 38 39 40 41
ATOM$RED        STATIC     ATOMS    COLORGROUP SYSTEM
2 30 18
