#       Name:                AV-unprocessed.smi:2795
#       Creating user name   scv26
#       Creation time:       Fri Mar 27 15:21:25 2020


#       File generated by GOLD software.
#

@<TRIPOS>MOLECULE
AV-unprocessed.smi:2795
    41    42     1
SMALL
NO_CHARGES


@<TRIPOS>ATOM
      1 ****        -2.9055   3.3134  -2.0965 C.3            1 S1                 0.0000
      2 ****        -2.2544   3.8486  -0.8985 N.pl3          1 S1                 0.0000
      3 ****        -2.5443   5.0624  -0.4133 C.2            1 S1                 0.0000
      4 ****        -1.7857   5.2365   0.6709 N.pl3          1 S1                 1.0000
      5 ****        -1.0083   4.1311   0.8811 C.2            1 S1                 0.0000
      6 ****        -1.3003   3.2343  -0.1195 C.2            1 S1                 0.0000
      7 ****        -0.7761   1.8624  -0.4162 C.3            1 S1                 0.0000
      8 ****         0.2670   1.3846   0.6102 C.3            1 S1                 0.0000
      9 ****         0.7720   0.0568   0.2821 N.am           1 S1                 0.0000
     10 ****         0.1352  -1.0980   0.5360 C.2            1 S1                 0.0000
     11 ****        -0.9722  -1.1439   1.0732 O.2            1 S1                 0.0000
     12 ****         0.8436  -2.3891   0.0971 C.3            1 S1                 0.0000
     13 ****         0.4453  -3.6082   0.9603 C.3            1 S1                 0.0000
     14 ****         1.2284  -4.8541   0.5304 C.3            1 S1                 0.0000
     15 ****         2.7293  -4.5478   0.5248 C.3            1 S1                 0.0000
     16 ****         3.0139  -3.2939  -0.3160 C.3            1 S1                 0.0000
     17 ****         2.2569  -2.1944   0.1801 O.3            1 S1                 0.0000
     18 ****        -3.5793   4.0572  -2.5241 H              1 S1                 0.0000
     19 ****        -3.4740   2.4232  -1.8260 H              1 S1                 0.0000
     20 ****        -2.1441   3.0523  -2.8318 H              1 S1                 0.0000
     21 ****        -3.2519   5.7652  -0.8162 H              1 S1                 0.0000
     22 ****        -0.3192   4.0649   1.7105 H              1 S1                 0.0000
     23 ****        -1.6186   1.1704  -0.4441 H              1 S1                 0.0000
     24 ****        -0.3370   1.8651  -1.4146 H              1 S1                 0.0000
     25 ****         1.1157   2.0691   0.6281 H              1 S1                 0.0000
     26 ****        -0.1551   1.3809   1.6168 H              1 S1                 0.0000
     27 ****         1.6780   0.0056  -0.1619 H              1 S1                 0.0000
     28 ****         0.5704  -2.5702  -0.9439 H              1 S1                 0.0000
     29 ****         0.6451  -3.3995   2.0125 H              1 S1                 0.0000
     30 ****        -0.6243  -3.8060   0.8778 H              1 S1                 0.0000
     31 ****         1.0127  -5.6888   1.1979 H              1 S1                 0.0000
     32 ****         0.9123  -5.1600  -0.4679 H              1 S1                 0.0000
     33 ****         3.0756  -4.3876   1.5467 H              1 S1                 0.0000
     34 ****         3.2869  -5.3994   0.1343 H              1 S1                 0.0000
     35 ****         4.0735  -3.0423  -0.2661 H              1 S1                 0.0000
     36 ****         2.7771  -3.4673  -1.3668 H              1 S1                 0.0000
     37 ****        -1.7880   6.0664   1.2508 H              1 S1                 0.0000
     38 ****        -1.4342  -0.2979   1.3395 LP             1 S1                 0.0000
     39 ****        -1.4093  -2.0271   1.2431 LP             1 S1                 0.0000
     40 ****         2.5004  -2.0500   1.1393 LP             1 S1                 0.0000
     41 ****         2.4957  -1.3811  -0.3504 LP             1 S1                 0.0000
@<TRIPOS>BOND
    1    1    2 1     
    2    1   18 1     
    3    1   19 1     
    4    1   20 1     
    5    2    6 1     
    6    2    3 1     
    7    3    4 2     
    8    3   21 1     
    9    4    5 1     
   10    4   37 1     
   11    5    6 2     
   12    5   22 1     
   13    6    7 1     
   14    7    8 1     
   15    7   23 1     
   16    7   24 1     
   17    8    9 1     
   18    8   25 1     
   19    8   26 1     
   20    9   10 am    
   21    9   27 1     
   22   10   11 2     
   23   10   12 1     
   24   12   17 1     
   25   12   13 1     
   26   12   28 1     
   27   13   14 1     
   28   13   29 1     
   29   13   30 1     
   30   14   15 1     
   31   14   31 1     
   32   14   32 1     
   33   15   16 1     
   34   15   33 1     
   35   15   34 1     
   36   16   17 1     
   37   16   35 1     
   38   16   36 1     
   39   11   38 1     
   40   11   39 1     
   41   17   40 1     
   42   17   41 1     
@<TRIPOS>SUBSTRUCTURE
      1 S1             1
@<TRIPOS>SET
LONE_PAIRS      STATIC     ATOMS    <user>   **** ""
4 38 39 40 41
DONOR_HYDROGENS      STATIC     ATOMS    <user>   **** ""
2 37 27
ATOM$BLUE        STATIC     ATOMS    COLORGROUP SYSTEM
4 38 39 40 41
ATOM$RED        STATIC     ATOMS    COLORGROUP SYSTEM
2 37 27
