AV-unprocessed.smi:1703|AV-procd|sdf|6877|dock2
  -GOLD-   22720 8 83D 1   1.00000     0.00000
 Structure written by MMmdl.
 50 52  0  0  0  0  0  0  0  0  3 V2000
  145.6607  134.1700  155.2432 C   0  0  0  0  0  0  0  0  0  0  0  0
  146.0401  134.6174  153.8273 C   0  0  2  0  0  0  0  0  0  0  0  0
  145.5855  136.0590  153.5316 C   0  0  0  0  0  0  0  0  0  0  0  0
  145.9052  136.4290  152.1326 N   0  3  2  0  0  0  0  0  0  0  0  0
  145.5461  137.8366  151.8221 C   0  0  0  0  0  0  0  0  0  0  0  0
  146.5507  138.8506  152.4062 C   0  0  2  0  0  0  0  0  0  0  0  0
  147.8628  138.4107  152.1155 O   0  0  0  0  0  0  0  0  0  0  0  0
  146.4132  139.0084  153.9375 C   0  0  0  0  0  0  0  0  0  0  0  0
  147.2596  140.0898  154.4620 N   0  0  0  0  0  0  0  0  0  0  0  0
  147.0731  141.4409  154.4264 C   0  0  0  0  0  0  0  0  0  0  0  0
  145.9200  142.1696  153.8200 C   0  0  0  0  0  0  0  0  0  0  0  0
  144.6815  141.7355  154.3352 O   0  0  0  0  0  0  0  0  0  0  0  0
  148.1433  142.0134  155.0451 N   0  3  0  0  0  0  0  0  0  0  0  0
  149.0199  141.0217  155.4867 C   0  0  0  0  0  0  0  0  0  0  0  0
  150.2318  141.1149  156.1637 C   0  0  0  0  0  0  0  0  0  0  0  0
  150.8817  139.9009  156.4675 C   0  0  0  0  0  0  0  0  0  0  0  0
  150.3238  138.6585  156.1028 C   0  0  0  0  0  0  0  0  0  0  0  0
  149.0933  138.5763  155.4180 C   0  0  0  0  0  0  0  0  0  0  0  0
  148.4579  139.7815  155.1176 C   0  0  0  0  0  0  0  0  0  0  0  0
  145.3204  135.4418  151.1916 C   0  0  0  0  0  0  0  0  0  0  0  0
  145.7812  134.0163  151.5514 C   0  0  2  0  0  0  0  0  0  0  0  0
  145.1379  132.9556  150.6515 C   0  0  0  0  0  0  0  0  0  0  0  0
  145.4174  133.7365  152.8988 O   0  0  0  0  0  0  0  0  0  0  0  0
  146.1237  134.8103  155.9948 H   0  0  0  0  0  0  0  0  0  0  0  0
  145.9902  133.1477  155.4302 H   0  0  0  0  0  0  0  0  0  0  0  0
  144.5814  134.2040  155.3932 H   0  0  0  0  0  0  0  0  0  0  0  0
  147.1240  134.5443  153.7207 H   0  0  0  0  0  0  0  0  0  0  0  0
  144.5116  136.1600  153.6983 H   0  0  0  0  0  0  0  0  0  0  0  0
  146.0830  136.7467  154.2170 H   0  0  0  0  0  0  0  0  0  0  0  0
  145.4677  137.9533  150.7406 H   0  0  0  0  0  0  0  0  0  0  0  0
  144.5567  138.0601  152.2246 H   0  0  0  0  0  0  0  0  0  0  0  0
  146.4279  139.8232  151.9298 H   0  0  0  0  0  0  0  0  0  0  0  0
  148.0609  137.6626  152.6588 H   0  0  0  0  0  0  0  0  0  0  0  0
  145.3795  139.1745  154.2412 H   0  0  0  0  0  0  0  0  0  0  0  0
  146.7199  138.0977  154.4548 H   0  0  0  0  0  0  0  0  0  0  0  0
  146.0286  143.2399  153.9963 H   0  0  0  0  0  0  0  0  0  0  0  0
  145.9254  142.0208  152.7398 H   0  0  0  0  0  0  0  0  0  0  0  0
  144.0983  141.5600  153.6125 H   0  0  0  0  0  0  0  0  0  0  0  0
  150.6612  142.0657  156.4449 H   0  0  0  0  0  0  0  0  0  0  0  0
  151.8274  139.9231  156.9899 H   0  0  0  0  0  0  0  0  0  0  0  0
  150.8525  137.7497  156.3525 H   0  0  0  0  0  0  0  0  0  0  0  0
  148.6818  137.6172  155.1428 H   0  0  0  0  0  0  0  0  0  0  0  0
  144.2315  135.5045  151.2275 H   0  0  0  0  0  0  0  0  0  0  0  0
  145.6183  135.6683  150.1685 H   0  0  0  0  0  0  0  0  0  0  0  0
  146.8655  133.9436  151.4505 H   0  0  0  0  0  0  0  0  0  0  0  0
  145.3982  133.1174  149.6052 H   0  0  0  0  0  0  0  0  0  0  0  0
  144.0507  132.9729  150.7340 H   0  0  0  0  0  0  0  0  0  0  0  0
  145.4762  131.9560  150.9257 H   0  0  0  0  0  0  0  0  0  0  0  0
  146.9100  136.3644  152.0459 H   0  0  0  0  0  0  0  0  0  0  0  0
  148.2637  143.0127  155.1526 H   0  0  0  0  0  0  0  0  0  0  0  0
  1  2  1  0  0  0  0
  1 24  1  0  0  0  0
  1 25  1  0  0  0  0
  1 26  1  0  0  0  0
  2 23  1  0  0  0  0
  2  3  1  0  0  0  0
  2 27  1  0  0  0  0
  3  4  1  0  0  0  0
  3 28  1  0  0  0  0
  3 29  1  0  0  0  0
  4  5  1  0  0  0  0
  4 20  1  0  0  0  0
  4 49  1  0  0  0  0
  5  6  1  0  0  0  0
  5 30  1  0  0  0  0
  5 31  1  0  0  0  0
  6  7  1  0  0  0  0
  6  8  1  0  0  0  0
  6 32  1  0  0  0  0
  7 33  1  0  0  0  0
  8  9  1  0  0  0  0
  8 34  1  0  0  0  0
  8 35  1  0  0  0  0
  9 19  1  0  0  0  0
  9 10  1  0  0  0  0
 10 11  1  0  0  0  0
 10 13  2  0  0  0  0
 11 12  1  0  0  0  0
 11 36  1  0  0  0  0
 11 37  1  0  0  0  0
 12 38  1  0  0  0  0
 13 14  1  0  0  0  0
 13 50  1  0  0  0  0
 14 19  2  0  0  0  0
 14 15  1  0  0  0  0
 15 16  2  0  0  0  0
 15 39  1  0  0  0  0
 16 17  1  0  0  0  0
 16 40  1  0  0  0  0
 17 18  2  0  0  0  0
 17 41  1  0  0  0  0
 18 19  1  0  0  0  0
 18 42  1  0  0  0  0
 20 21  1  0  0  0  0
 20 43  1  0  0  0  0
 20 44  1  0  0  0  0
 21 22  1  0  0  0  0
 21 23  1  0  0  0  0
 21 45  1  0  0  0  0
 22 46  1  0  0  0  0
 22 47  1  0  0  0  0
 22 48  1  0  0  0  0
M  CHG  1   4   1
M  CHG  1  13   1
M  END
> <s_m_source_file>
AV-unprocessed.smi

> <i_m_source_file_index>
1703

> <i_lp_mmshare_version>
43012

> <i_f3d_flags>
0

> <s_epik_input>
W0NIM11bQ0BASF0xW0NIMl1OKFtDSDJdW0NASF0oTzEpW0NIM10pW0NIMl1bQ0BIXShbT0hdKVtDSDJdbihjKG4yKVtDSDJdW09IXSljKGMyMylbY0hdW2NIXVtjSF1bY0hdMw==

> <s_epik_cmdline>
J2VwaWtfcHl0aG9uJywgJy1waCcsICc3LjAnLCAnLXRuJywgJzgnLCAnLW1hJywgJzIwMCcsICctbWV0YWxfYmluZGluZycsICctaW1hZScsICc8aW5maWxlLm1hZT4nLCAnLW9tYWUnLCAnPG91dGZpbGUubWFlPic=

> <r_epik_Ionization_Penalty>
2.22579

> <r_epik_Ionization_Penalty_Charging>
2.22492

> <r_epik_Ionization_Penalty_Neutral>
0.000870007

> <r_epik_State_Penalty>
2.3141

> <r_epik_Charging_Adjusted_Penalty>
4.53902

> <i_epik_Tot_Q>
2

> <i_epik_Tot_abs_Q>
2

> <r_epik_Metal_State_Penalty>
6.36517

> <b_epik_Metal_Only>
0

> <s_lp_Force_Field>
OPLS_2005

> <r_lp_Energy>
31.942

> <b_lp_Chiralities_Consistent>
1

> <s_lp_Variant>
AV-unprocessed.smi:1703-25

> <Gold.Version>
5.8.1

> <Gold.Id.Protein>
6NUR|6NUR_protein|mol2

> <Gold.PLP.Fitness>
56.6573

> <Gold.PLP.PLP>
-37.6489

> <Gold.PLP.part.hbond>
-4.6536

> <Gold.PLP.part.metal>
0.0000

> <Gold.PLP.part.buried>
0.9970

> <Gold.PLP.part.nonpolar>
-35.2294

> <Gold.PLP.part.repulsive>
0.3215

> <Gold.PLP.ligand.clash>
0.0000

> <Gold.PLP.ligand.torsion>
0.5529

> <Gold.PLP.Chemscore.Hbond>
6.6640

> <Gold.PLP.Chemscore.CHOScore>
0.0000

> <Gold.PLP.Chemscore.Metal>
0.0000

> <Gold.Chemscore.Hbonds>
donor molecule, donor type, donor heavy atom, donor atom, acceptor molecule, acceptor atom, score
      L1  H     4    49       P1  7948  1.98
      L1  H     7    33       P1  7948  0.32
      L1  H    12    38       P1 10175  0.42
      L1  H    13    50       P1  8028  2.00
      P1  H  7954  7966       L1     7  0.32

> <Gold.PLP.Chemscore.Internal.Correction>
0.1222

> <Gold.Rescore>
     Score         DG    S(hbond)    S(metal)    S(lipo)     H(rot)  DE(clash)    DE(int)     intcor
     18.49     -20.92       3.82        0.00      89.32       3.04       1.63       0.80       ----

> <Gold.Chemscore.Fitness>
18.4917

> <Gold.Chemscore.DG>
-20.9165

> <Gold.Chemscore.ZeroCoef>
-5.4800

> <Gold.Chemscore.Hbond>
3.8212

> <Gold.Chemscore.Metal>
0.0000

> <Gold.Chemscore.Lipo>
89.3185

> <Gold.Chemscore.Internal_Hbond>
0.0000

> <Gold.Chemscore.DEClash>
1.6264

> <Gold.Chemscore.DEInternal>
0.7983

> <Gold.Chemscore.Rot>
3.0378

> <Gold.Chemscore.Internal.Correction>
   9.000000E+99

> <Gold.Chemscore.Hbonds>
donor molecule, donor type, donor heavy atom, donor atom, acceptor molecule, acceptor atom, score
      L1  H     4    49       P1  7948  0.92
      L1  H     7    33       P1  7948  0.32
      L1  H    12    38       P1 10175  0.01
      L1  H    13    50       P1  8028  0.98
      P1  H  7954  7966       L1     7  0.21

> <Gold.Chemscore.Hbond.Weighted>
-12.7629

> <Gold.Chemscore.Metal.Weighted>
-0.0000

> <Gold.Chemscore.Lipo.Weighted>
-10.4503

> <Gold.Chemscore.Internal_Hbond.Weighted>
0.0000

> <Gold.Chemscore.DEClash.Weighted>
1.6264

> <Gold.Chemscore.DEInternal.Weighted>
0.7983

> <Gold.Chemscore.Rot.Weighted>
7.7767

> <Gold.Chemscore.Internal.Correction.Weighted>
   9.000000E+99

> <Gold.Protein.RotatedTorsions>
[ 6907 6896 6895 6894 ] final  124.39 input  -60.11 | X-H torsion
[ 7974 7965 7964 7962 ] final   53.89 input  175.53 | X-H torsion
[ 8008 7997 7996 7995 ] final  -43.42 input   59.86 | X-H torsion
[ 10167 10162 10161 10158 ] final -125.64 input  -65.29 | X-H torsion
[ 10718 10713 10712 10709 ] final  125.40 input   66.30 | X-H torsion
[ 10763 10752 10751 10750 ] final   70.64 input  -60.55 | X-H torsion
[ 11005 11000 10999 10996 ] final -113.87 input  -57.11 | X-H torsion

> <Gold.Protein.ActiveResidues>
 VAL166  LYS551  ARG553  GLY616  TRP617  ASP618  TYR619  PRO620  LYS621  CYS622 
 ASP623  PHE694  ASN695  SER759  ASP760  ASP761  ALA762  ILE779  LEU786  VAL792 
 PHE793  MET794  SER795  GLU796  ALA797  LYS798  CYS799  TRP800  GLU811  SER814 

> <Gold.Protein.RotatedAtoms>
  152.4082  133.6921  159.6374 H   0  0  0  0  0  0  0  0  0  0  0  0  # atno 6907 bound_to 6896
  150.7964  133.8672  159.3257 H   0  0  0  0  0  0  0  0  0  0  0  0  # atno 6908 bound_to 6896
  151.6421  135.1013  160.0195 H   0  0  0  0  0  0  0  0  0  0  0  0  # atno 6909 bound_to 6896
  145.9665  139.4108  143.0216 H   0  0  0  0  0  0  0  0  0  0  0  0  # atno 7974 bound_to 7965
  154.3997  140.1448  156.3516 H   0  0  0  0  0  0  0  0  0  0  0  0  # atno 8008 bound_to 7997
  155.8263  140.3467  155.5524 H   0  0  0  0  0  0  0  0  0  0  0  0  # atno 8009 bound_to 7997
  155.8235  140.0901  157.1825 H   0  0  0  0  0  0  0  0  0  0  0  0  # atno 8010 bound_to 7997
  139.9799  143.5753  152.2382 H   0  0  0  0  0  0  0  0  0  0  0  0  # atno 10167 bound_to 10162
  157.5506  131.1094  150.8708 H   0  0  0  0  0  0  0  0  0  0  0  0  # atno 10718 bound_to 10713
  153.0353  135.5166  154.7472 H   0  0  0  0  0  0  0  0  0  0  0  0  # atno 10763 bound_to 10752
  154.6453  135.2918  155.0056 H   0  0  0  0  0  0  0  0  0  0  0  0  # atno 10764 bound_to 10752
  154.0959  135.6643  153.4912 H   0  0  0  0  0  0  0  0  0  0  0  0  # atno 10765 bound_to 10752
  141.0587  133.9570  157.2706 H   0  0  0  0  0  0  0  0  0  0  0  0  # atno 11005 bound_to 11000
  145.7967  140.9790  143.1020 LP  0  0  0  0  0  0  0  0  0  0  0  0  # atno 17320 bound_to 7965
  144.6827  139.9750  143.7482 LP  0  0  0  0  0  0  0  0  0  0  0  0  # atno 17321 bound_to 7965
  139.6417  144.7655  151.2325 LP  0  0  0  0  0  0  0  0  0  0  0  0  # atno 17342 bound_to 10162
  140.7492  143.6305  150.8427 LP  0  0  0  0  0  0  0  0  0  0  0  0  # atno 17343 bound_to 10162
  156.9234  130.5323  149.5279 LP  0  0  0  0  0  0  0  0  0  0  0  0  # atno 17370 bound_to 10713
  156.0573  130.5632  150.9119 LP  0  0  0  0  0  0  0  0  0  0  0  0  # atno 17371 bound_to 10713
  139.9413  135.0190  156.8717 LP  0  0  0  0  0  0  0  0  0  0  0  0  # atno 17394 bound_to 11000
  140.5912  134.0260  155.7500 LP  0  0  0  0  0  0  0  0  0  0  0  0  # atno 17395 bound_to 11000

$$$$
