AV-unprocessed.smi:1826|AV-procd|sdf|7416|dock7
  -GOLD-   22720 9 93D 1   1.00000     0.00000
 Structure written by MMmdl.
 39 41  0  0  0  0  0  0  0  0  1 V2000
  150.6939  139.6298  154.4614 O   0  0  0  0  0  0  0  0  0  0  0  0
  151.1170  139.1887  155.7338 C   0  0  0  0  0  0  0  0  0  0  0  0
  151.4296  140.3209  156.6636 C   0  0  0  0  0  0  0  0  0  0  0  0
  150.9849  141.5584  156.4402 N   0  0  0  0  0  0  0  0  0  0  0  0
  151.4975  142.2638  157.5113 C   0  0  0  0  0  0  0  0  0  0  0  0
  151.3814  143.6306  157.8518 C   0  0  0  0  0  0  0  0  0  0  0  0
  152.0025  144.1317  159.0146 C   0  0  0  0  0  0  0  0  0  0  0  0
  152.7474  143.2757  159.8516 C   0  0  0  0  0  0  0  0  0  0  0  0
  152.8757  141.9107  159.5307 C   0  0  0  0  0  0  0  0  0  0  0  0
  152.2532  141.4157  158.3693 C   0  0  0  0  0  0  0  0  0  0  0  0
  152.1818  140.1572  157.7816 N   0  0  0  0  0  0  0  0  0  0  0  0
  152.8031  138.9413  158.2903 C   0  0  0  0  0  0  0  0  0  0  0  0
  152.0549  138.3573  159.5055 C   0  0  1  0  0  0  0  0  0  0  0  0
  151.5493  137.0736  159.1933 O   0  0  0  0  0  0  0  0  0  0  0  0
  152.9381  138.3401  160.7432 C   0  0  0  0  0  0  0  0  0  0  0  0
  153.0526  137.1633  161.5126 C   0  0  0  0  0  0  0  0  0  0  0  0
  153.8655  137.1432  162.6624 C   0  0  0  0  0  0  0  0  0  0  0  0
  154.5735  138.2977  163.0583 C   0  0  0  0  0  0  0  0  0  0  0  0
  155.4432  138.2550  164.3062 C   0  0  0  0  0  0  0  0  0  0  0  0
  156.0130  139.4347  164.5548 F   0  0  0  0  0  0  0  0  0  0  0  0
  154.6934  137.9151  165.3541 F   0  0  0  0  0  0  0  0  0  0  0  0
  156.4075  137.3469  164.1555 F   0  0  0  0  0  0  0  0  0  0  0  0
  154.4519  139.4779  162.2921 C   0  0  0  0  0  0  0  0  0  0  0  0
  153.6393  139.4984  161.1420 C   0  0  0  0  0  0  0  0  0  0  0  0
  149.8572  139.2346  154.2708 H   0  0  0  0  0  0  0  0  0  0  0  0
  150.3289  138.5728  156.1685 H   0  0  0  0  0  0  0  0  0  0  0  0
  151.9904  138.5462  155.6244 H   0  0  0  0  0  0  0  0  0  0  0  0
  150.8135  144.2944  157.2169 H   0  0  0  0  0  0  0  0  0  0  0  0
  151.9075  145.1781  159.2652 H   0  0  0  0  0  0  0  0  0  0  0  0
  153.2204  143.6678  160.7401 H   0  0  0  0  0  0  0  0  0  0  0  0
  153.4453  141.2520  160.1691 H   0  0  0  0  0  0  0  0  0  0  0  0
  152.8773  138.2035  157.4918 H   0  0  0  0  0  0  0  0  0  0  0  0
  153.8290  139.1837  158.5705 H   0  0  0  0  0  0  0  0  0  0  0  0
  151.1883  138.9854  159.7165 H   0  0  0  0  0  0  0  0  0  0  0  0
  151.0789  137.1283  158.3754 H   0  0  0  0  0  0  0  0  0  0  0  0
  152.5166  136.2706  161.2253 H   0  0  0  0  0  0  0  0  0  0  0  0
  153.9448  136.2368  163.2447 H   0  0  0  0  0  0  0  0  0  0  0  0
  154.9776  140.3760  162.5798 H   0  0  0  0  0  0  0  0  0  0  0  0
  153.5536  140.4093  160.5676 H   0  0  0  0  0  0  0  0  0  0  0  0
  1  2  1  0  0  0  0
  1 25  1  0  0  0  0
  2  3  1  0  0  0  0
  2 26  1  0  0  0  0
  2 27  1  0  0  0  0
  3 11  1  0  0  0  0
  3  4  2  0  0  0  0
  4  5  1  0  0  0  0
  5 10  2  0  0  0  0
  5  6  1  0  0  0  0
  6  7  2  0  0  0  0
  6 28  1  0  0  0  0
  7  8  1  0  0  0  0
  7 29  1  0  0  0  0
  8  9  2  0  0  0  0
  8 30  1  0  0  0  0
  9 10  1  0  0  0  0
  9 31  1  0  0  0  0
 10 11  1  0  0  0  0
 11 12  1  0  0  0  0
 12 13  1  0  0  0  0
 12 32  1  0  0  0  0
 12 33  1  0  0  0  0
 13 14  1  0  0  0  0
 13 15  1  0  0  0  0
 13 34  1  0  0  0  0
 14 35  1  0  0  0  0
 15 24  1  0  0  0  0
 15 16  2  0  0  0  0
 16 17  1  0  0  0  0
 16 36  1  0  0  0  0
 17 18  2  0  0  0  0
 17 37  1  0  0  0  0
 18 19  1  0  0  0  0
 18 23  1  0  0  0  0
 19 20  1  0  0  0  0
 19 21  1  0  0  0  0
 19 22  1  0  0  0  0
 23 24  2  0  0  0  0
 23 38  1  0  0  0  0
 24 39  1  0  0  0  0
M  END
> <s_m_source_file>
AV-unprocessed.smi

> <i_m_source_file_index>
1826

> <i_lp_mmshare_version>
43012

> <i_f3d_flags>
0

> <s_epik_input>
W2NIXTFbY0hdW2NIXVtjSF1jKGMxMiluKGMobjIpW0NIMl1bT0hdKVtDSDJdW0NASF0oW09IXSljM1tjSF1bY0hdYyhDKEYpKEYpRilbY0hdW2NIXTM=

> <s_epik_cmdline>
J2VwaWtfcHl0aG9uJywgJy1waCcsICc3LjAnLCAnLXRuJywgJzgnLCAnLW1hJywgJzIwMCcsICctbWV0YWxfYmluZGluZycsICctaW1hZScsICc8aW5maWxlLm1hZT4nLCAnLW9tYWUnLCAnPG91dGZpbGUubWFlPic=

> <r_epik_Ionization_Penalty>
0.0634718

> <r_epik_Ionization_Penalty_Charging>
0

> <r_epik_Ionization_Penalty_Neutral>
0.0634718

> <r_epik_State_Penalty>
0.0551572

> <r_epik_Charging_Adjusted_Penalty>
0.0551572

> <i_epik_Tot_Q>
0

> <i_epik_Tot_abs_Q>
0

> <r_epik_Metal_State_Penalty>
5.78034e-05

> <b_epik_Metal_Only>
0

> <s_lp_Force_Field>
OPLS_2005

> <r_lp_Energy>
14.1967

> <b_lp_Chiralities_Consistent>
1

> <s_lp_Variant>
AV-unprocessed.smi:1826-2

> <Gold.Version>
5.8.1

> <Gold.Id.Protein>
6NUR|6NUR_protein|mol2

> <Gold.PLP.Fitness>
47.3284

> <Gold.PLP.PLP>
-44.3244

> <Gold.PLP.part.hbond>
-2.0000

> <Gold.PLP.part.metal>
0.0000

> <Gold.PLP.part.buried>
-4.9627

> <Gold.PLP.part.nonpolar>
-37.9573

> <Gold.PLP.part.repulsive>
0.0553

> <Gold.PLP.ligand.clash>
0.0341

> <Gold.PLP.ligand.torsion>
1.3341

> <Gold.PLP.Chemscore.Hbond>
1.8613

> <Gold.PLP.Chemscore.CHOScore>
0.0000

> <Gold.PLP.Chemscore.Metal>
0.0000

> <Gold.Chemscore.Hbonds>
donor molecule, donor type, donor heavy atom, donor atom, acceptor molecule, acceptor atom, score
      P1  H  6896  6909       L1    14  0.94
      P1  H  7989  7998       L1     1  1.00

> <Gold.PLP.Chemscore.Internal.Correction>
0.1224

> <Gold.Rescore>
     Score         DG    S(hbond)    S(metal)    S(lipo)     H(rot)  DE(clash)    DE(int)     intcor
     16.87     -18.72       1.88        0.00     123.13       2.91       0.57       1.27       ----

> <Gold.Chemscore.Fitness>
16.8747

> <Gold.Chemscore.DG>
-18.7153

> <Gold.Chemscore.ZeroCoef>
-5.4800

> <Gold.Chemscore.Hbond>
1.8830

> <Gold.Chemscore.Metal>
0.0000

> <Gold.Chemscore.Lipo>
123.1303

> <Gold.Chemscore.Internal_Hbond>
0.0000

> <Gold.Chemscore.DEClash>
0.5661

> <Gold.Chemscore.DEInternal>
1.2744

> <Gold.Chemscore.Rot>
2.9141

> <Gold.Chemscore.Internal.Correction>
   9.000000E+99

> <Gold.Chemscore.Hbonds>
donor molecule, donor type, donor heavy atom, donor atom, acceptor molecule, acceptor atom, score
      P1  H  6896  6909       L1    14  0.73
      P1  H  7989  7998       L1     1  0.99

> <Gold.Chemscore.Hbond.Weighted>
-6.2891

> <Gold.Chemscore.Metal.Weighted>
-0.0000

> <Gold.Chemscore.Lipo.Weighted>
-14.4062

> <Gold.Chemscore.Internal_Hbond.Weighted>
0.0000

> <Gold.Chemscore.DEClash.Weighted>
0.5661

> <Gold.Chemscore.DEInternal.Weighted>
1.2744

> <Gold.Chemscore.Rot.Weighted>
7.4600

> <Gold.Chemscore.Internal.Correction.Weighted>
   9.000000E+99

> <Gold.Protein.RotatedTorsions>
[ 6907 6896 6895 6894 ] final  118.34 input  -60.11 | X-H torsion
[ 7974 7965 7964 7962 ] final   32.34 input  175.53 | X-H torsion
[ 8008 7997 7996 7995 ] final  117.41 input   59.86 | X-H torsion
[ 10167 10162 10161 10158 ] final  -30.13 input  -65.29 | X-H torsion
[ 10718 10713 10712 10709 ] final   82.11 input   66.30 | X-H torsion
[ 10763 10752 10751 10750 ] final  -73.03 input  -60.55 | X-H torsion
[ 11005 11000 10999 10996 ] final  146.25 input  -57.11 | X-H torsion

> <Gold.Protein.ActiveResidues>
 VAL166  LYS551  ARG553  GLY616  TRP617  ASP618  TYR619  PRO620  LYS621  CYS622 
 ASP623  PHE694  ASN695  SER759  ASP760  ASP761  ALA762  ILE779  LEU786  VAL792 
 PHE793  MET794  SER795  GLU796  ALA797  LYS798  CYS799  TRP800  GLU811  SER814 

> <Gold.Protein.RotatedAtoms>
  152.4550  133.7705  159.6795 H   0  0  0  0  0  0  0  0  0  0  0  0  # atno 6907 bound_to 6896
  150.8473  133.7831  159.3044 H   0  0  0  0  0  0  0  0  0  0  0  0  # atno 6908 bound_to 6896
  151.5437  135.1071  159.9984 H   0  0  0  0  0  0  0  0  0  0  0  0  # atno 6909 bound_to 6896
  146.1492  139.6539  142.9110 H   0  0  0  0  0  0  0  0  0  0  0  0  # atno 7974 bound_to 7965
  156.2492  140.2897  156.0674 H   0  0  0  0  0  0  0  0  0  0  0  0  # atno 8008 bound_to 7997
  155.1709  140.0402  157.2880 H   0  0  0  0  0  0  0  0  0  0  0  0  # atno 8009 bound_to 7997
  154.6326  140.2503  155.7422 H   0  0  0  0  0  0  0  0  0  0  0  0  # atno 8010 bound_to 7997
  140.7253  143.3873  151.1492 H   0  0  0  0  0  0  0  0  0  0  0  0  # atno 10167 bound_to 10162
  157.6849  131.0033  150.2326 H   0  0  0  0  0  0  0  0  0  0  0  0  # atno 10718 bound_to 10713
  154.4539  135.5910  153.6210 H   0  0  0  0  0  0  0  0  0  0  0  0  # atno 10763 bound_to 10752
  152.9816  135.6027  154.3571 H   0  0  0  0  0  0  0  0  0  0  0  0  # atno 10764 bound_to 10752
  154.3435  135.2841  155.2389 H   0  0  0  0  0  0  0  0  0  0  0  0  # atno 10765 bound_to 10752
  140.0778  134.9115  157.1451 H   0  0  0  0  0  0  0  0  0  0  0  0  # atno 11005 bound_to 11000
  145.4863  141.0438  143.2618 LP  0  0  0  0  0  0  0  0  0  0  0  0  # atno 17320 bound_to 7965
  144.7884  139.6379  143.7124 LP  0  0  0  0  0  0  0  0  0  0  0  0  # atno 17321 bound_to 7965
  139.7473  143.8833  152.3067 LP  0  0  0  0  0  0  0  0  0  0  0  0  # atno 17342 bound_to 10162
  139.8674  144.7086  150.9027 LP  0  0  0  0  0  0  0  0  0  0  0  0  # atno 17343 bound_to 10162
  156.2956  130.3751  149.7799 LP  0  0  0  0  0  0  0  0  0  0  0  0  # atno 17370 bound_to 10713
  156.5445  130.8315  151.3280 LP  0  0  0  0  0  0  0  0  0  0  0  0  # atno 17371 bound_to 10713
  140.3532  134.2575  155.7196 LP  0  0  0  0  0  0  0  0  0  0  0  0  # atno 17394 bound_to 11000
  141.2036  133.7909  157.0333 LP  0  0  0  0  0  0  0  0  0  0  0  0  # atno 17395 bound_to 11000

$$$$
