AV-unprocessed.smi:1365|AV-procd|sdf|5569|dock10
  -GOLD-   22720 5163D 1   1.00000     0.00000
 Structure written by MMmdl.
 41 42  0  0  0  0  0  0  0  0  3 V2000
  152.2607  140.6547  159.1620 C   0  0  0  0  0  0  0  0  0  0  0  0
  151.9169  140.3986  157.7345 C   0  0  0  0  0  0  0  0  0  0  0  0
  150.8401  140.7364  156.9649 C   0  0  0  0  0  0  0  0  0  0  0  0
  151.1539  140.1676  155.7001 C   0  0  0  0  0  0  0  0  0  0  0  0
  150.3992  140.2382  154.5927 N   0  5  0  0  0  0  0  0  0  0  0  0
  149.0823  139.9334  154.6452 C   0  0  0  0  0  0  0  0  0  0  0  0
  148.4496  139.5837  155.6443 O   0  0  0  0  0  0  0  0  0  0  0  0
  148.4584  140.0388  153.4644 N   0  0  0  0  0  0  0  0  0  0  0  0
  147.0485  139.7571  153.2315 C   0  0  0  0  0  0  0  0  0  0  0  0
  146.7662  138.2584  153.3975 C   0  0  0  0  0  0  0  0  0  0  0  0
  145.7526  137.7405  152.3635 C   0  0  0  0  0  0  0  0  0  0  0  0
  145.8487  136.2726  152.1613 N   0  3  0  0  0  0  0  0  0  0  0  0
  144.8536  135.7757  151.1751 C   0  0  0  0  0  0  0  0  0  0  0  0
  145.0586  134.2800  150.8797 C   0  0  0  0  0  0  0  0  0  0  0  0
  145.0062  133.4514  152.1694 C   0  0  0  0  0  0  0  0  0  0  0  0
  146.0170  134.0003  153.1843 C   0  0  0  0  0  0  0  0  0  0  0  0
  145.7897  135.5013  153.4326 C   0  0  0  0  0  0  0  0  0  0  0  0
  152.3260  139.5552  155.6979 N   0  0  0  0  0  0  0  0  0  0  0  0
  152.8189  139.6925  157.0009 O   0  0  0  0  0  0  0  0  0  0  0  0
  152.1849  141.7174  159.3921 H   0  0  0  0  0  0  0  0  0  0  0  0
  153.2778  140.3324  159.3860 H   0  0  0  0  0  0  0  0  0  0  0  0
  151.5823  140.1157  159.8235 H   0  0  0  0  0  0  0  0  0  0  0  0
  149.9649  141.2955  157.2595 H   0  0  0  0  0  0  0  0  0  0  0  0
  149.0102  140.3301  152.6710 H   0  0  0  0  0  0  0  0  0  0  0  0
  146.4399  140.3290  153.9340 H   0  0  0  0  0  0  0  0  0  0  0  0
  146.7799  140.0863  152.2265 H   0  0  0  0  0  0  0  0  0  0  0  0
  147.6992  137.7011  153.3018 H   0  0  0  0  0  0  0  0  0  0  0  0
  146.4027  138.0820  154.4095 H   0  0  0  0  0  0  0  0  0  0  0  0
  144.7343  138.0115  152.6468 H   0  0  0  0  0  0  0  0  0  0  0  0
  145.9538  138.2470  151.4184 H   0  0  0  0  0  0  0  0  0  0  0  0
  143.8455  135.9511  151.5542 H   0  0  0  0  0  0  0  0  0  0  0  0
  144.9444  136.3365  150.2439 H   0  0  0  0  0  0  0  0  0  0  0  0
  144.2976  133.9301  150.1816 H   0  0  0  0  0  0  0  0  0  0  0  0
  146.0210  134.1319  150.3878 H   0  0  0  0  0  0  0  0  0  0  0  0
  144.0013  133.4881  152.5923 H   0  0  0  0  0  0  0  0  0  0  0  0
  145.2175  132.4033  151.9546 H   0  0  0  0  0  0  0  0  0  0  0  0
  145.9374  133.4505  154.1226 H   0  0  0  0  0  0  0  0  0  0  0  0
  147.0313  133.8392  152.8167 H   0  0  0  0  0  0  0  0  0  0  0  0
  146.5446  135.8592  154.1317 H   0  0  0  0  0  0  0  0  0  0  0  0
  144.8206  135.6582  153.9092 H   0  0  0  0  0  0  0  0  0  0  0  0
  146.7564  136.1007  151.7529 H   0  0  0  0  0  0  0  0  0  0  0  0
  1  2  1  0  0  0  0
  1 20  1  0  0  0  0
  1 21  1  0  0  0  0
  1 22  1  0  0  0  0
  2 19  1  0  0  0  0
  2  3  2  0  0  0  0
  3  4  1  0  0  0  0
  3 23  1  0  0  0  0
  4  5  1  0  0  0  0
  4 18  2  0  0  0  0
  5  6  1  0  0  0  0
  6  7  2  0  0  0  0
  6  8  1  0  0  0  0
  8  9  1  0  0  0  0
  8 24  1  0  0  0  0
  9 10  1  0  0  0  0
  9 25  1  0  0  0  0
  9 26  1  0  0  0  0
 10 11  1  0  0  0  0
 10 27  1  0  0  0  0
 10 28  1  0  0  0  0
 11 12  1  0  0  0  0
 11 29  1  0  0  0  0
 11 30  1  0  0  0  0
 12 17  1  0  0  0  0
 12 13  1  0  0  0  0
 12 41  1  0  0  0  0
 13 14  1  0  0  0  0
 13 31  1  0  0  0  0
 13 32  1  0  0  0  0
 14 15  1  0  0  0  0
 14 33  1  0  0  0  0
 14 34  1  0  0  0  0
 15 16  1  0  0  0  0
 15 35  1  0  0  0  0
 15 36  1  0  0  0  0
 16 17  1  0  0  0  0
 16 37  1  0  0  0  0
 16 38  1  0  0  0  0
 17 39  1  0  0  0  0
 17 40  1  0  0  0  0
 18 19  1  0  0  0  0
M  CHG  1   5  -1
M  CHG  1  12   1
M  END
> <s_m_source_file>
AV-unprocessed.smi

> <i_m_source_file_index>
1365

> <i_lp_mmshare_version>
43012

> <i_f3d_flags>
0

> <s_epik_input>
W0NIM11jMVtjSF1jKG5vMSlbTkhdQyg9TylbTkhdW0NIMl1bQ0gyXVtDSDJdTjJbQ0gyXVtDSDJdW0NIMl1bQ0gyXVtDSDJdMg==

> <s_epik_cmdline>
J2VwaWtfcHl0aG9uJywgJy1waCcsICc3LjAnLCAnLXRuJywgJzgnLCAnLW1hJywgJzIwMCcsICctbWV0YWxfYmluZGluZycsICctaW1hZScsICc8aW5maWxlLm1hZT4nLCAnLW9tYWUnLCAnPG91dGZpbGUubWFlPic=

> <r_epik_Ionization_Penalty>
6.42355

> <r_epik_Ionization_Penalty_Charging>
6.42345

> <r_epik_Ionization_Penalty_Neutral>
0.000108417

> <r_epik_State_Penalty>
6.4233

> <r_epik_Charging_Adjusted_Penalty>
12.8467

> <i_epik_Tot_Q>
0

> <i_epik_Tot_abs_Q>
2

> <r_epik_Metal_State_Penalty>
2.35308

> <b_epik_Metal_Only>
1

> <s_lp_Force_Field>
OPLS_2005

> <r_lp_Energy>
6.88196

> <b_lp_Chiralities_Consistent>
1

> <s_lp_Variant>
AV-unprocessed.smi:1365-2

> <Gold.Version>
5.8.1

> <Gold.Id.Protein>
6NUR|6NUR_protein|mol2

> <Gold.PLP.Fitness>
44.3918

> <Gold.PLP.PLP>
-31.3364

> <Gold.PLP.part.hbond>
-4.7916

> <Gold.PLP.part.metal>
0.0000

> <Gold.PLP.part.buried>
-3.6354

> <Gold.PLP.part.nonpolar>
-23.8311

> <Gold.PLP.part.repulsive>
0.2699

> <Gold.PLP.ligand.clash>
0.0000

> <Gold.PLP.ligand.torsion>
0.8429

> <Gold.PLP.Chemscore.Hbond>
4.8960

> <Gold.PLP.Chemscore.CHOScore>
0.0000

> <Gold.PLP.Chemscore.Metal>
0.0000

> <Gold.Chemscore.Hbonds>
donor molecule, donor type, donor heavy atom, donor atom, acceptor molecule, acceptor atom, score
      L1  H     8    24       P1  7957  1.00
      L1  H    12    41       P1  7948  1.27
      P1  H  7989  7998       L1     5  0.90
      P1  H  7997  8008       L1    19  1.00

> <Gold.PLP.Chemscore.Internal.Correction>
0.0532

> <Gold.Rescore>
     Score         DG    S(hbond)    S(metal)    S(lipo)     H(rot)  DE(clash)    DE(int)     intcor
     16.22     -17.45       2.77        0.00      62.25       1.78       0.16       1.07       ----

> <Gold.Chemscore.Fitness>
16.2220

> <Gold.Chemscore.DG>
-17.4490

> <Gold.Chemscore.ZeroCoef>
-5.4800

> <Gold.Chemscore.Hbond>
2.7654

> <Gold.Chemscore.Metal>
0.0000

> <Gold.Chemscore.Lipo>
62.2507

> <Gold.Chemscore.Internal_Hbond>
0.0000

> <Gold.Chemscore.DEClash>
0.1561

> <Gold.Chemscore.DEInternal>
1.0709

> <Gold.Chemscore.Rot>
1.7776

> <Gold.Chemscore.Internal.Correction>
   9.000000E+99

> <Gold.Chemscore.Hbonds>
donor molecule, donor type, donor heavy atom, donor atom, acceptor molecule, acceptor atom, score
      L1  H     8    24       P1  7957  0.94
      L1  H    12    41       P1  7948  0.62
      P1  H  7989  7998       L1     5  0.18
      P1  H  7997  8008       L1    19  0.50

> <Gold.Chemscore.Hbond.Weighted>
-9.2363

> <Gold.Chemscore.Metal.Weighted>
-0.0000

> <Gold.Chemscore.Lipo.Weighted>
-7.2833

> <Gold.Chemscore.Internal_Hbond.Weighted>
0.0000

> <Gold.Chemscore.DEClash.Weighted>
0.1561

> <Gold.Chemscore.DEInternal.Weighted>
1.0709

> <Gold.Chemscore.Rot.Weighted>
4.5506

> <Gold.Chemscore.Internal.Correction.Weighted>
   9.000000E+99

> <Gold.Protein.RotatedTorsions>
[ 6907 6896 6895 6894 ] final  134.92 input  -60.11 | X-H torsion
[ 7974 7965 7964 7962 ] final  108.60 input  175.53 | X-H torsion
[ 8008 7997 7996 7995 ] final  -71.38 input   59.86 | X-H torsion
[ 10167 10162 10161 10158 ] final -167.88 input  -65.29 | X-H torsion
[ 10718 10713 10712 10709 ] final -149.80 input   66.30 | X-H torsion
[ 10763 10752 10751 10750 ] final -120.63 input  -60.55 | X-H torsion
[ 11005 11000 10999 10996 ] final   73.31 input  -57.11 | X-H torsion

> <Gold.Protein.ActiveResidues>
 VAL166  LYS551  ARG553  GLY616  TRP617  ASP618  TYR619  PRO620  LYS621  CYS622 
 ASP623  PHE694  ASN695  SER759  ASP760  ASP761  ALA762  ILE779  LEU786  VAL792 
 PHE793  MET794  SER795  GLU796  ALA797  LYS798  CYS799  TRP800  GLU811  SER814 

> <Gold.Protein.RotatedAtoms>
  152.3060  133.5704  159.5649 H   0  0  0  0  0  0  0  0  0  0  0  0  # atno 6907 bound_to 6896
  150.7300  134.0221  159.3714 H   0  0  0  0  0  0  0  0  0  0  0  0  # atno 6908 bound_to 6896
  151.8118  135.0679  160.0465 H   0  0  0  0  0  0  0  0  0  0  0  0  # atno 6909 bound_to 6896
  145.2786  139.2640  143.3927 H   0  0  0  0  0  0  0  0  0  0  0  0  # atno 7974 bound_to 7965
  154.5083  140.0816  156.7939 H   0  0  0  0  0  0  0  0  0  0  0  0  # atno 8008 bound_to 7997
  155.3842  140.3429  155.4230 H   0  0  0  0  0  0  0  0  0  0  0  0  # atno 8009 bound_to 7997
  156.1543  140.1568  156.8706 H   0  0  0  0  0  0  0  0  0  0  0  0  # atno 8010 bound_to 7997
  139.6021  144.0989  152.1753 H   0  0  0  0  0  0  0  0  0  0  0  0  # atno 10167 bound_to 10162
  156.4378  130.8107  151.2336 H   0  0  0  0  0  0  0  0  0  0  0  0  # atno 10718 bound_to 10713
  154.8649  135.4196  154.2491 H   0  0  0  0  0  0  0  0  0  0  0  0  # atno 10763 bound_to 10752
  153.3441  135.6995  153.6848 H   0  0  0  0  0  0  0  0  0  0  0  0  # atno 10764 bound_to 10752
  153.5815  135.3572  155.2849 H   0  0  0  0  0  0  0  0  0  0  0  0  # atno 10765 bound_to 10752
  139.9446  134.7335  156.1011 H   0  0  0  0  0  0  0  0  0  0  0  0  # atno 11005 bound_to 11000
  146.3223  140.3248  142.8636 LP  0  0  0  0  0  0  0  0  0  0  0  0  # atno 17320 bound_to 7965
  144.9272  140.7935  143.5711 LP  0  0  0  0  0  0  0  0  0  0  0  0  # atno 17321 bound_to 7965
  140.0588  144.5873  150.7279 LP  0  0  0  0  0  0  0  0  0  0  0  0  # atno 17342 bound_to 10162
  140.7257  143.2634  151.4128 LP  0  0  0  0  0  0  0  0  0  0  0  0  # atno 17343 bound_to 10162
  157.7507  131.0178  150.3599 LP  0  0  0  0  0  0  0  0  0  0  0  0  # atno 17370 bound_to 10713
  156.3950  130.3905  149.7002 LP  0  0  0  0  0  0  0  0  0  0  0  0  # atno 17371 bound_to 10713
  141.1093  133.6649  156.2939 LP  0  0  0  0  0  0  0  0  0  0  0  0  # atno 17394 bound_to 11000
  140.5865  134.5693  157.5491 LP  0  0  0  0  0  0  0  0  0  0  0  0  # atno 17395 bound_to 11000

$$$$
