AV-unprocessed.smi:723|AV-procd|sdf|3505|dock4
  -GOLD-   22720 0503D 1   1.00000     0.00000
 Structure written by MMmdl.
 42 44  0  0  0  0  0  0  0  0  1 V2000
  146.4580  122.3482  148.4346 C   0  0  0  0  0  0  0  0  0  0  0  0
  146.8742  123.6666  148.1266 O   0  0  0  0  0  0  0  0  0  0  0  0
  148.2290  123.9047  148.4733 C   0  0  0  0  0  0  0  0  0  0  0  0
  148.4188  123.7410  149.9880 C   0  0  0  0  0  0  0  0  0  0  0  0
  148.2011  124.9836  150.7056 N   0  0  0  0  0  0  0  0  0  0  0  0
  148.0363  126.2508  150.1828 C   0  0  0  0  0  0  0  0  0  0  0  0
  147.8723  127.0771  151.2536 C   0  0  0  0  0  0  0  0  0  0  0  0
  147.6792  128.4790  151.1724 N   0  0  0  0  0  0  0  0  0  0  0  0
  146.5996  129.1743  151.5653 C   0  0  0  0  0  0  0  0  0  0  0  0
  145.5728  128.6812  152.0327 O   0  0  0  0  0  0  0  0  0  0  0  0
  146.7792  130.4901  151.3884 N   0  0  0  0  0  0  0  0  0  0  0  0
  145.8352  131.5059  151.7255 C   0  0  2  0  0  0  0  0  0  0  0  0
  145.0970  132.1810  150.5786 C   0  0  1  0  0  0  0  0  0  0  0  0
  143.6323  132.5542  150.7587 C   0  0  0  0  0  0  0  0  0  0  0  0
  143.4306  133.9420  151.3887 C   0  0  0  0  0  0  0  0  0  0  0  0
  144.3361  134.1487  152.6096 C   0  0  0  0  0  0  0  0  0  0  0  0
  145.8174  134.1187  152.2011 C   0  0  0  0  0  0  0  0  0  0  0  0
  146.1802  132.9211  151.3367 C   0  0  1  0  0  0  0  0  0  0  0  0
  147.9419  126.2408  152.4035 C   0  0  0  0  0  0  0  0  0  0  0  0
  148.1421  124.9772  152.0604 N   0  0  0  0  0  0  0  0  0  0  0  0
  145.4137  122.2179  148.1510 H   0  0  0  0  0  0  0  0  0  0  0  0
  146.5439  122.1469  149.5032 H   0  0  0  0  0  0  0  0  0  0  0  0
  147.0491  121.6108  147.8901 H   0  0  0  0  0  0  0  0  0  0  0  0
  148.8763  123.2026  147.9457 H   0  0  0  0  0  0  0  0  0  0  0  0
  148.5217  124.9106  148.1676 H   0  0  0  0  0  0  0  0  0  0  0  0
  147.7372  122.9815  150.3737 H   0  0  0  0  0  0  0  0  0  0  0  0
  149.4298  123.3932  150.2033 H   0  0  0  0  0  0  0  0  0  0  0  0
  148.0540  126.4472  149.1208 H   0  0  0  0  0  0  0  0  0  0  0  0
  148.4535  129.0098  150.8015 H   0  0  0  0  0  0  0  0  0  0  0  0
  147.6560  130.8001  150.9956 H   0  0  0  0  0  0  0  0  0  0  0  0
  145.2811  131.3802  152.6546 H   0  0  0  0  0  0  0  0  0  0  0  0
  145.3503  131.8415  149.5756 H   0  0  0  0  0  0  0  0  0  0  0  0
  143.1332  132.5142  149.7901 H   0  0  0  0  0  0  0  0  0  0  0  0
  143.1575  131.7938  151.3798 H   0  0  0  0  0  0  0  0  0  0  0  0
  143.6414  134.7143  150.6479 H   0  0  0  0  0  0  0  0  0  0  0  0
  142.3853  134.0667  151.6727 H   0  0  0  0  0  0  0  0  0  0  0  0
  144.1083  135.1031  153.0851 H   0  0  0  0  0  0  0  0  0  0  0  0
  144.1331  133.3795  153.3554 H   0  0  0  0  0  0  0  0  0  0  0  0
  146.0506  135.0222  151.6368 H   0  0  0  0  0  0  0  0  0  0  0  0
  146.4566  134.1288  153.0841 H   0  0  0  0  0  0  0  0  0  0  0  0
  147.1316  133.0428  150.8213 H   0  0  0  0  0  0  0  0  0  0  0  0
  147.8601  126.4907  153.4508 H   0  0  0  0  0  0  0  0  0  0  0  0
  1  2  1  0  0  0  0
  1 21  1  0  0  0  0
  1 22  1  0  0  0  0
  1 23  1  0  0  0  0
  2  3  1  0  0  0  0
  3  4  1  0  0  0  0
  3 24  1  0  0  0  0
  3 25  1  0  0  0  0
  4  5  1  0  0  0  0
  4 26  1  0  0  0  0
  4 27  1  0  0  0  0
  5 20  1  0  0  0  0
  5  6  1  0  0  0  0
  6  7  2  0  0  0  0
  6 28  1  0  0  0  0
  7  8  1  0  0  0  0
  7 19  1  0  0  0  0
  8  9  1  0  0  0  0
  8 29  1  0  0  0  0
  9 10  2  0  0  0  0
  9 11  1  0  0  0  0
 11 12  1  0  0  0  0
 11 30  1  0  0  0  0
 12 18  1  0  0  0  0
 12 13  1  0  0  0  0
 12 31  1  0  0  0  0
 13 18  1  0  0  0  0
 13 14  1  0  0  0  0
 13 32  1  0  0  0  0
 14 15  1  0  0  0  0
 14 33  1  0  0  0  0
 14 34  1  0  0  0  0
 15 16  1  0  0  0  0
 15 35  1  0  0  0  0
 15 36  1  0  0  0  0
 16 17  1  0  0  0  0
 16 37  1  0  0  0  0
 16 38  1  0  0  0  0
 17 18  1  0  0  0  0
 17 39  1  0  0  0  0
 17 40  1  0  0  0  0
 18 41  1  0  0  0  0
 19 20  2  0  0  0  0
 19 42  1  0  0  0  0
M  END
> <s_m_source_file>
AV-unprocessed.smi

> <i_m_source_file_index>
723

> <i_lp_mmshare_version>
43012

> <i_f3d_flags>
0

> <s_epik_input>
W0NIM11PW0NIMl1bQ0gyXW4xW2NIXWMoW2NIXW4xKVtOSF1DKD1PKVtOSF1bQ0BIXTJbQ0BASF0oW0NAQEhdMjMpW0NIMl1bQ0gyXVtDSDJdW0NIMl0z

> <s_epik_cmdline>
J2VwaWtfcHl0aG9uJywgJy1waCcsICc3LjAnLCAnLXRuJywgJzgnLCAnLW1hJywgJzIwMCcsICctbWV0YWxfYmluZGluZycsICctaW1hZScsICc8aW5maWxlLm1hZT4nLCAnLW9tYWUnLCAnPG91dGZpbGUubWFlPic=

> <r_lp_tautomer_probability>
1

> <r_epik_Ionization_Penalty>
0.00031755

> <r_epik_Ionization_Penalty_Charging>
0

> <r_epik_Ionization_Penalty_Neutral>
0.00031755

> <r_epik_State_Penalty>
-0

> <r_epik_Charging_Adjusted_Penalty>
0

> <i_epik_Tot_Q>
0

> <i_epik_Tot_abs_Q>
0

> <r_epik_Metal_State_Penalty>
-0

> <b_epik_Metal_Only>
0

> <s_lp_Force_Field>
OPLS_2005

> <r_lp_Energy>
35.4859

> <b_lp_Chiralities_Consistent>
1

> <s_lp_Variant>
AV-unprocessed.smi:723-1

> <Gold.Version>
5.8.1

> <Gold.Id.Protein>
6NUR|6NUR_protein|mol2

> <Gold.PLP.Fitness>
42.7680

> <Gold.PLP.PLP>
-40.3134

> <Gold.PLP.part.hbond>
-1.9189

> <Gold.PLP.part.metal>
0.0000

> <Gold.PLP.part.buried>
-6.1522

> <Gold.PLP.part.nonpolar>
-32.0826

> <Gold.PLP.part.repulsive>
0.4051

> <Gold.PLP.ligand.clash>
0.0000

> <Gold.PLP.ligand.torsion>
0.9537

> <Gold.PLP.Chemscore.Hbond>
1.4393

> <Gold.PLP.Chemscore.CHOScore>
0.0000

> <Gold.PLP.Chemscore.Metal>
0.0000

> <Gold.Chemscore.Hbonds>
donor molecule, donor type, donor heavy atom, donor atom, acceptor molecule, acceptor atom, score
      L1  H     8    29       P1 10747  0.40
      L1  H    11    30       P1 10747  0.93

> <Gold.PLP.Chemscore.Internal.Correction>
0.0443

> <Gold.Rescore>
     Score         DG    S(hbond)    S(metal)    S(lipo)     H(rot)  DE(clash)    DE(int)     intcor
     13.68     -14.74       1.02        0.00      84.06       1.56       0.19       0.87       ----

> <Gold.Chemscore.Fitness>
13.6755

> <Gold.Chemscore.DG>
-14.7375

> <Gold.Chemscore.ZeroCoef>
-5.4800

> <Gold.Chemscore.Hbond>
1.0249

> <Gold.Chemscore.Metal>
0.0000

> <Gold.Chemscore.Lipo>
84.0571

> <Gold.Chemscore.Internal_Hbond>
0.0000

> <Gold.Chemscore.DEClash>
0.1945

> <Gold.Chemscore.DEInternal>
0.8675

> <Gold.Chemscore.Rot>
1.5627

> <Gold.Chemscore.Internal.Correction>
   9.000000E+99

> <Gold.Chemscore.Hbonds>
donor molecule, donor type, donor heavy atom, donor atom, acceptor molecule, acceptor atom, score
      L1  H     8    29       P1 10747  0.01
      L1  H    11    30       P1 10747  0.88

> <Gold.Chemscore.Hbond.Weighted>
-3.4233

> <Gold.Chemscore.Metal.Weighted>
-0.0000

> <Gold.Chemscore.Lipo.Weighted>
-9.8347

> <Gold.Chemscore.Internal_Hbond.Weighted>
0.0000

> <Gold.Chemscore.DEClash.Weighted>
0.1945

> <Gold.Chemscore.DEInternal.Weighted>
0.8675

> <Gold.Chemscore.Rot.Weighted>
4.0005

> <Gold.Chemscore.Internal.Correction.Weighted>
   9.000000E+99

> <Gold.Protein.RotatedTorsions>
[ 6907 6896 6895 6894 ] final  152.47 input  -60.11 | X-H torsion
[ 7974 7965 7964 7962 ] final  -12.67 input  175.53 | X-H torsion
[ 8008 7997 7996 7995 ] final  164.96 input   59.86 | X-H torsion
[ 10167 10162 10161 10158 ] final    4.15 input  -65.29 | X-H torsion
[ 10718 10713 10712 10709 ] final  -41.23 input   66.30 | X-H torsion
[ 10763 10752 10751 10750 ] final   28.44 input  -60.55 | X-H torsion
[ 11005 11000 10999 10996 ] final -150.73 input  -57.11 | X-H torsion

> <Gold.Protein.ActiveResidues>
 VAL166  LYS551  ARG553  GLY616  TRP617  ASP618  TYR619  PRO620  LYS621  CYS622 
 ASP623  PHE694  ASN695  SER759  ASP760  ASP761  ALA762  ILE779  LEU786  VAL792 
 PHE793  MET794  SER795  GLU796  ALA797  LYS798  CYS799  TRP800  GLU811  SER814 

> <Gold.Protein.RotatedAtoms>
  152.0863  133.4177  159.4523 H   0  0  0  0  0  0  0  0  0  0  0  0  # atno 6907 bound_to 6896
  150.6862  134.2924  159.4681 H   0  0  0  0  0  0  0  0  0  0  0  0  # atno 6908 bound_to 6896
  152.0771  134.9495  160.0624 H   0  0  0  0  0  0  0  0  0  0  0  0  # atno 6909 bound_to 6896
  146.2143  140.3091  142.8381 H   0  0  0  0  0  0  0  0  0  0  0  0  # atno 7974 bound_to 7965
  156.1839  140.1683  156.8222 H   0  0  0  0  0  0  0  0  0  0  0  0  # atno 8008 bound_to 7997
  154.5391  140.0740  156.8512 H   0  0  0  0  0  0  0  0  0  0  0  0  # atno 8009 bound_to 7997
  155.3250  140.3375  155.4243 H   0  0  0  0  0  0  0  0  0  0  0  0  # atno 8010 bound_to 7997
  140.6549  143.7452  150.7637 H   0  0  0  0  0  0  0  0  0  0  0  0  # atno 10167 bound_to 10162
  156.2727  130.4208  149.8421 H   0  0  0  0  0  0  0  0  0  0  0  0  # atno 10718 bound_to 10713
  153.0492  135.6513  154.0738 H   0  0  0  0  0  0  0  0  0  0  0  0  # atno 10763 bound_to 10752
  154.0429  135.2902  155.3354 H   0  0  0  0  0  0  0  0  0  0  0  0  # atno 10764 bound_to 10752
  154.6769  135.5335  153.8278 H   0  0  0  0  0  0  0  0  0  0  0  0  # atno 10765 bound_to 10752
  140.7371  134.3556  157.5155 H   0  0  0  0  0  0  0  0  0  0  0  0  # atno 11005 bound_to 11000
  144.9001  140.7632  143.5872 LP  0  0  0  0  0  0  0  0  0  0  0  0  # atno 17320 bound_to 7965
  145.3017  139.1848  143.4686 LP  0  0  0  0  0  0  0  0  0  0  0  0  # atno 17321 bound_to 7965
  140.1109  143.4700  152.2370 LP  0  0  0  0  0  0  0  0  0  0  0  0  # atno 17342 bound_to 10162
  139.5770  144.7492  151.3738 LP  0  0  0  0  0  0  0  0  0  0  0  0  # atno 17343 bound_to 10162
  156.5897  130.8501  151.3405 LP  0  0  0  0  0  0  0  0  0  0  0  0  # atno 17370 bound_to 10713
  157.7289  130.9663  150.1763 LP  0  0  0  0  0  0  0  0  0  0  0  0  # atno 17371 bound_to 10713
  139.8814  134.9056  156.2904 LP  0  0  0  0  0  0  0  0  0  0  0  0  # atno 17394 bound_to 11000
  140.9870  133.7232  156.0756 LP  0  0  0  0  0  0  0  0  0  0  0  0  # atno 17395 bound_to 11000

$$$$
