AV-unprocessed.smi:168|AV-procd|sdf|1397|dock5
  -GOLD-   2262019143D 1   1.00000     0.00000
 Structure written by MMmdl.
 62 66  0  0  0  0  0  0  0  0  1 V2000
  146.8080  142.2647  155.8147 C   0  0  0  0  0  0  0  0  0  0  0  0
  147.4178  141.1320  156.6528 C   0  0  0  0  0  0  0  0  0  0  0  0
  148.6186  141.6718  157.4613 C   0  0  0  0  0  0  0  0  0  0  0  0
  147.6807  139.8679  155.7907 C   0  0  1  0  0  0  0  0  0  0  0  0
  146.6732  139.7170  154.7377 N   0  0  0  0  0  0  0  0  0  0  0  0
  146.0515  138.4304  154.6125 C   0  0  0  0  0  0  0  0  0  0  0  0
  145.7295  137.7441  155.7430 N   0  0  0  0  0  0  0  0  0  0  0  0
  145.1669  136.5343  155.6928 C   0  0  0  0  0  0  0  0  0  0  0  0
  144.8479  135.8100  154.6218 N   0  0  0  0  0  0  0  0  0  0  0  0
  145.1827  136.4644  153.4752 C   0  0  0  0  0  0  0  0  0  0  0  0
  145.7877  137.7529  153.3825 C   0  0  0  0  0  0  0  0  0  0  0  0
  146.0039  138.0623  152.0447 N   0  0  0  0  0  0  0  0  0  0  0  0
  145.5552  137.0277  151.3905 C   0  0  0  0  0  0  0  0  0  0  0  0
  145.0149  136.0327  152.1705 N   0  0  0  0  0  0  0  0  0  0  0  0
  144.4960  134.7753  151.7158 C   0  0  0  0  0  0  0  0  0  0  0  0
  145.3130  133.4869  151.8556 C   0  0  0  0  0  0  0  0  0  0  0  0
  144.7696  132.9790  150.5015 C   0  0  0  0  0  0  0  0  0  0  0  0
  145.8272  132.4040  149.5467 C   0  0  0  0  0  0  0  0  0  0  0  0
  146.4724  131.2788  150.1082 O   0  0  0  0  0  0  0  0  0  0  0  0
  143.5996  131.9706  150.5431 C   0  0  0  0  0  0  0  0  0  0  0  0
  142.7821  132.0144  149.3914 O   0  0  0  0  0  0  0  0  0  0  0  0
  144.3931  134.4515  150.2221 C   0  0  0  0  0  0  0  0  0  0  0  0
  147.6240  140.0856  153.6901 C   0  0  0  0  0  0  0  0  0  0  0  0
  148.7625  139.7985  154.6785 C   0  0  0  0  0  0  0  0  0  0  0  0
  149.4330  138.4200  154.4858 C   0  0  0  0  0  0  0  0  0  0  0  0
  150.4531  138.0799  155.5849 C   0  0  0  0  0  0  0  0  0  0  0  0
  151.5568  139.1402  155.6570 C   0  0  0  0  0  0  0  0  0  0  0  0
  150.9586  140.5435  155.8035 C   0  0  0  0  0  0  0  0  0  0  0  0
  149.9145  140.8245  154.7073 C   0  0  0  0  0  0  0  0  0  0  0  0
  147.5148  142.6280  155.0682 H   0  0  0  0  0  0  0  0  0  0  0  0
  146.5260  143.1108  156.4420 H   0  0  0  0  0  0  0  0  0  0  0  0
  145.9097  141.9316  155.2948 H   0  0  0  0  0  0  0  0  0  0  0  0
  146.6527  140.8749  157.3840 H   0  0  0  0  0  0  0  0  0  0  0  0
  149.4147  142.0299  156.8080 H   0  0  0  0  0  0  0  0  0  0  0  0
  149.0477  140.9281  158.1286 H   0  0  0  0  0  0  0  0  0  0  0  0
  148.3143  142.5136  158.0837 H   0  0  0  0  0  0  0  0  0  0  0  0
  147.7791  138.9806  156.4144 H   0  0  0  0  0  0  0  0  0  0  0  0
  144.9411  136.0831  156.6476 H   0  0  0  0  0  0  0  0  0  0  0  0
  145.6051  136.9656  150.3130 H   0  0  0  0  0  0  0  0  0  0  0  0
  143.5242  134.6670  152.1988 H   0  0  0  0  0  0  0  0  0  0  0  0
  146.3883  133.6720  151.8338 H   0  0  0  0  0  0  0  0  0  0  0  0
  145.0416  132.8747  152.7162 H   0  0  0  0  0  0  0  0  0  0  0  0
  145.3840  132.1172  148.5925 H   0  0  0  0  0  0  0  0  0  0  0  0
  146.5932  133.1461  149.3194 H   0  0  0  0  0  0  0  0  0  0  0  0
  147.3815  131.2947  149.8508 H   0  0  0  0  0  0  0  0  0  0  0  0
  143.9733  130.9513  150.6443 H   0  0  0  0  0  0  0  0  0  0  0  0
  142.9555  132.1520  151.4039 H   0  0  0  0  0  0  0  0  0  0  0  0
  142.3152  132.8360  149.3863 H   0  0  0  0  0  0  0  0  0  0  0  0
  143.3984  134.5992  149.8000 H   0  0  0  0  0  0  0  0  0  0  0  0
  145.1446  134.9802  149.6332 H   0  0  0  0  0  0  0  0  0  0  0  0
  147.6508  139.4633  152.7958 H   0  0  0  0  0  0  0  0  0  0  0  0
  147.5379  141.1389  153.4240 H   0  0  0  0  0  0  0  0  0  0  0  0
  148.6849  137.6282  154.4549 H   0  0  0  0  0  0  0  0  0  0  0  0
  149.9296  138.3816  153.5153 H   0  0  0  0  0  0  0  0  0  0  0  0
  149.9477  138.0088  156.5487 H   0  0  0  0  0  0  0  0  0  0  0  0
  150.8925  137.1005  155.3941 H   0  0  0  0  0  0  0  0  0  0  0  0
  152.2297  138.9284  156.4882 H   0  0  0  0  0  0  0  0  0  0  0  0
  152.1607  139.0969  154.7498 H   0  0  0  0  0  0  0  0  0  0  0  0
  150.5024  140.6404  156.7883 H   0  0  0  0  0  0  0  0  0  0  0  0
  151.7528  141.2892  155.7591 H   0  0  0  0  0  0  0  0  0  0  0  0
  150.4176  140.8352  153.7395 H   0  0  0  0  0  0  0  0  0  0  0  0
  149.5395  141.8367  154.8374 H   0  0  0  0  0  0  0  0  0  0  0  0
  1  2  1  0  0  0  0
  1 30  1  0  0  0  0
  1 31  1  0  0  0  0
  1 32  1  0  0  0  0
  2  3  1  0  0  0  0
  2  4  1  0  0  0  0
  2 33  1  0  0  0  0
  3 34  1  0  0  0  0
  3 35  1  0  0  0  0
  3 36  1  0  0  0  0
  4 24  1  0  0  0  0
  4  5  1  0  0  0  0
  4 37  1  0  0  0  0
  5  6  1  0  0  0  0
  5 23  1  0  0  0  0
  6 11  1  0  0  0  0
  6  7  2  0  0  0  0
  7  8  1  0  0  0  0
  8  9  2  0  0  0  0
  8 38  1  0  0  0  0
  9 10  1  0  0  0  0
 10 14  1  0  0  0  0
 10 11  2  0  0  0  0
 11 12  1  0  0  0  0
 12 13  2  0  0  0  0
 13 14  1  0  0  0  0
 13 39  1  0  0  0  0
 14 15  1  0  0  0  0
 15 22  1  0  0  0  0
 15 16  1  0  0  0  0
 15 40  1  0  0  0  0
 16 17  1  0  0  0  0
 16 41  1  0  0  0  0
 16 42  1  0  0  0  0
 17 18  1  0  0  0  0
 17 20  1  0  0  0  0
 17 22  1  0  0  0  0
 18 19  1  0  0  0  0
 18 43  1  0  0  0  0
 18 44  1  0  0  0  0
 19 45  1  0  0  0  0
 20 21  1  0  0  0  0
 20 46  1  0  0  0  0
 20 47  1  0  0  0  0
 21 48  1  0  0  0  0
 22 49  1  0  0  0  0
 22 50  1  0  0  0  0
 23 24  1  0  0  0  0
 23 51  1  0  0  0  0
 23 52  1  0  0  0  0
 24 29  1  0  0  0  0
 24 25  1  0  0  0  0
 25 26  1  0  0  0  0
 25 53  1  0  0  0  0
 25 54  1  0  0  0  0
 26 27  1  0  0  0  0
 26 55  1  0  0  0  0
 26 56  1  0  0  0  0
 27 28  1  0  0  0  0
 27 57  1  0  0  0  0
 27 58  1  0  0  0  0
 28 29  1  0  0  0  0
 28 59  1  0  0  0  0
 28 60  1  0  0  0  0
 29 61  1  0  0  0  0
 29 62  1  0  0  0  0
M  END
> <s_m_source_file>
AV-unprocessed.smi

> <i_m_source_file_index>
168

> <i_lp_mmshare_version>
43012

> <i_f3d_flags>
0

> <s_epik_input>
W0NIMl0xW0NIMl1bQ0gyXVtDSDJdW0NIMl1DMTJbQ0BIXShbQ0hdKFtDSDNdKVtDSDNdKU4oW0NIMl0yKWMobltjSF1uMyljKGMzNCluW2NIXW40W0NIXShbQ0gyXTUpW0NIMl1DNShbQ0gyXVtPSF0pW0NIMl1bT0hd

> <s_epik_cmdline>
J2VwaWtfcHl0aG9uJywgJy1waCcsICc3LjAnLCAnLXRuJywgJzgnLCAnLW1hJywgJzIwMCcsICctbWV0YWxfYmluZGluZycsICctaW1hZScsICc8aW5maWxlLm1hZT4nLCAnLW9tYWUnLCAnPG91dGZpbGUubWFlPic=

> <r_lp_tautomer_probability>
1

> <r_epik_Ionization_Penalty>
0.00324652

> <r_epik_Ionization_Penalty_Charging>
0

> <r_epik_Ionization_Penalty_Neutral>
0.00324652

> <r_epik_State_Penalty>
0.00223464

> <r_epik_Charging_Adjusted_Penalty>
0.00223464

> <i_epik_Tot_Q>
0

> <i_epik_Tot_abs_Q>
0

> <r_epik_Metal_State_Penalty>
-0

> <b_epik_Metal_Only>
0

> <s_lp_Force_Field>
OPLS_2005

> <r_lp_Energy>
69.202

> <b_lp_Chiralities_Consistent>
1

> <s_lp_Variant>
AV-unprocessed.smi:168-2

> <Gold.Version>
5.8.1

> <Gold.Id.Protein>
6NUR|6NUR_protein|mol2

> <Gold.PLP.Fitness>
46.2583

> <Gold.PLP.PLP>
-38.9259

> <Gold.PLP.part.hbond>
-3.8339

> <Gold.PLP.part.metal>
0.0000

> <Gold.PLP.part.buried>
-1.0811

> <Gold.PLP.part.nonpolar>
-34.8248

> <Gold.PLP.part.repulsive>
0.5135

> <Gold.PLP.ligand.clash>
0.0000

> <Gold.PLP.ligand.torsion>
1.4663

> <Gold.PLP.Chemscore.Hbond>
2.8288

> <Gold.PLP.Chemscore.CHOScore>
0.3302

> <Gold.PLP.Chemscore.Metal>
0.0000

> <Gold.Chemscore.Hbonds>
donor molecule, donor type, donor heavy atom, donor atom, acceptor molecule, acceptor atom, score
      L1  H    19    45       P1 10747  0.94
      L1  H    21    48       P1 10186  0.94
      P1  H 10785 10796       L1    21  0.85
      L1  C    13    39       P1 10171  0.37

> <Gold.PLP.Chemscore.Internal.Correction>
0.7883

> <Gold.Rescore>
     Score         DG    S(hbond)    S(metal)    S(lipo)     H(rot)  DE(clash)    DE(int)     intcor
     13.37     -16.02       2.30        0.00      92.68       3.12       0.69       1.95       ----

> <Gold.Chemscore.Fitness>
13.3722

> <Gold.Chemscore.DG>
-16.0157

> <Gold.Chemscore.ZeroCoef>
-5.4800

> <Gold.Chemscore.Hbond>
2.2977

> <Gold.Chemscore.Metal>
0.0000

> <Gold.Chemscore.Lipo>
92.6802

> <Gold.Chemscore.Internal_Hbond>
0.0000

> <Gold.Chemscore.DEClash>
0.6941

> <Gold.Chemscore.DEInternal>
1.9494

> <Gold.Chemscore.Rot>
3.1181

> <Gold.Chemscore.Internal.Correction>
   9.000000E+99

> <Gold.Chemscore.Hbonds>
donor molecule, donor type, donor heavy atom, donor atom, acceptor molecule, acceptor atom, score
      L1  H    19    45       P1 10747  0.91
      L1  H    21    48       P1 10186  0.90
      P1  H 10785 10796       L1    21  0.14

> <Gold.Chemscore.Hbond.Weighted>
-7.6744

> <Gold.Chemscore.Metal.Weighted>
-0.0000

> <Gold.Chemscore.Lipo.Weighted>
-10.8436

> <Gold.Chemscore.Internal_Hbond.Weighted>
0.0000

> <Gold.Chemscore.DEClash.Weighted>
0.6941

> <Gold.Chemscore.DEInternal.Weighted>
1.9494

> <Gold.Chemscore.Rot.Weighted>
7.9823

> <Gold.Chemscore.Internal.Correction.Weighted>
   9.000000E+99

> <Gold.Protein.RotatedTorsions>
[ 6907 6896 6895 6894 ] final  145.13 input  -60.11 | X-H torsion
[ 7974 7965 7964 7962 ] final  111.20 input  175.53 | X-H torsion
[ 8008 7997 7996 7995 ] final  140.06 input   59.86 | X-H torsion
[ 10167 10162 10161 10158 ] final   58.70 input  -65.29 | X-H torsion
[ 10718 10713 10712 10709 ] final  -92.23 input   66.30 | X-H torsion
[ 10763 10752 10751 10750 ] final   -8.77 input  -60.55 | X-H torsion
[ 11005 11000 10999 10996 ] final   37.62 input  -57.11 | X-H torsion

> <Gold.Protein.ActiveResidues>
 VAL166  LYS551  ARG553  GLY616  TRP617  ASP618  TYR619  PRO620  LYS621  CYS622 
 ASP623  PHE694  ASN695  SER759  ASP760  ASP761  ALA762  ILE779  LEU786  VAL792 
 PHE793  MET794  SER795  GLU796  ALA797  LYS798  CYS799  TRP800  GLU811  SER814 

> <Gold.Protein.RotatedAtoms>
  152.1848  133.4732  159.4976 H   0  0  0  0  0  0  0  0  0  0  0  0  # atno 6907 bound_to 6896
  150.6940  134.1788  159.4249 H   0  0  0  0  0  0  0  0  0  0  0  0  # atno 6908 bound_to 6896
  151.9700  135.0081  160.0603 H   0  0  0  0  0  0  0  0  0  0  0  0  # atno 6909 bound_to 6896
  145.2453  139.2762  143.4096 H   0  0  0  0  0  0  0  0  0  0  0  0  # atno 7974 bound_to 7965
  156.2983  140.2351  156.4340 H   0  0  0  0  0  0  0  0  0  0  0  0  # atno 8008 bound_to 7997
  154.8245  140.0436  157.1454 H   0  0  0  0  0  0  0  0  0  0  0  0  # atno 8009 bound_to 7997
  154.9277  140.3012  155.5187 H   0  0  0  0  0  0  0  0  0  0  0  0  # atno 8010 bound_to 7997
  140.1844  144.4149  150.6600 H   0  0  0  0  0  0  0  0  0  0  0  0  # atno 10167 bound_to 10162
  156.0000  130.4979  150.5594 H   0  0  0  0  0  0  0  0  0  0  0  0  # atno 10718 bound_to 10713
  153.4452  135.7014  153.6144 H   0  0  0  0  0  0  0  0  0  0  0  0  # atno 10763 bound_to 10752
  153.4502  135.3760  155.2279 H   0  0  0  0  0  0  0  0  0  0  0  0  # atno 10764 bound_to 10752
  154.8728  135.3995  154.3856 H   0  0  0  0  0  0  0  0  0  0  0  0  # atno 10765 bound_to 10752
  140.2208  134.3644  155.8006 H   0  0  0  0  0  0  0  0  0  0  0  0  # atno 11005 bound_to 11000
  146.3317  140.2828  142.8611 LP  0  0  0  0  0  0  0  0  0  0  0  0  # atno 17320 bound_to 7965
  144.9552  140.8219  143.5547 LP  0  0  0  0  0  0  0  0  0  0  0  0  # atno 17321 bound_to 7965
  140.6498  143.2222  151.6104 LP  0  0  0  0  0  0  0  0  0  0  0  0  # atno 17342 bound_to 10162
  139.5282  144.2995  152.1085 LP  0  0  0  0  0  0  0  0  0  0  0  0  # atno 17343 bound_to 10162
  157.3506  131.0733  151.1716 LP  0  0  0  0  0  0  0  0  0  0  0  0  # atno 17370 bound_to 10713
  157.2534  130.6625  149.5942 LP  0  0  0  0  0  0  0  0  0  0  0  0  # atno 17371 bound_to 10713
  141.2223  133.7192  156.8572 LP  0  0  0  0  0  0  0  0  0  0  0  0  # atno 17394 bound_to 11000
  140.1852  134.9005  157.2996 LP  0  0  0  0  0  0  0  0  0  0  0  0  # atno 17395 bound_to 11000

$$$$
