AV-unprocessed.smi:2857|AV-procd|sdf|10998|dock10
  -GOLD-   2272015453D 1   1.00000     0.00000
 Structure written by MMmdl.
 44 46  0  0  0  0  0  0  0  0  1 V2000
  151.2502  145.8477  160.1507 C   0  0  0  0  0  0  0  0  0  0  0  0
  151.8119  144.4426  160.2244 C   0  0  0  0  0  0  0  0  0  0  0  0
  152.5199  144.0171  161.3648 C   0  0  0  0  0  0  0  0  0  0  0  0
  153.0372  142.7106  161.4230 C   0  0  0  0  0  0  0  0  0  0  0  0
  152.8518  141.8227  160.3429 C   0  0  0  0  0  0  0  0  0  0  0  0
  153.4152  140.4164  160.4234 C   0  0  0  0  0  0  0  0  0  0  0  0
  152.1451  142.2376  159.1904 C   0  0  0  0  0  0  0  0  0  0  0  0
  152.0030  141.3212  158.1680 O   0  0  0  0  0  0  0  0  0  0  0  0
  151.3666  141.7424  156.9699 C   0  0  0  0  0  0  0  0  0  0  0  0
  149.8612  141.4318  157.0563 C   0  0  1  0  0  0  0  0  0  0  0  0
  149.1784  142.6219  157.3946 O   0  0  0  0  0  0  0  0  0  0  0  0
  149.2527  140.9200  155.7337 C   0  0  0  0  0  0  0  0  0  0  0  0
  149.7767  139.6235  155.3300 N   0  0  0  0  0  0  0  0  0  0  0  0
  150.4257  139.5065  154.1429 N   0  0  0  0  0  0  0  0  0  0  0  0
  150.7765  138.2258  154.0454 C   0  0  0  0  0  0  0  0  0  0  0  0
  150.3578  137.4711  155.1752 C   0  0  0  0  0  0  0  0  0  0  0  0
  150.4606  136.0728  155.5811 C   0  0  0  0  0  0  0  0  0  0  0  0
  149.9361  135.7224  156.7138 N   0  0  0  0  0  0  0  0  0  0  0  0
  149.2851  136.6522  157.5325 N   0  0  0  0  0  0  0  0  0  0  0  0
  148.7400  136.1011  158.7711 C   0  0  0  0  0  0  0  0  0  0  0  0
  149.1373  137.9808  157.2470 C   0  0  0  0  0  0  0  0  0  0  0  0
  148.5529  138.7814  157.9770 O   0  0  0  0  0  0  0  0  0  0  0  0
  149.7380  138.3915  155.9544 C   0  0  0  0  0  0  0  0  0  0  0  0
  151.6266  143.5576  159.1437 C   0  0  0  0  0  0  0  0  0  0  0  0
  151.3477  146.3662  161.1049 H   0  0  0  0  0  0  0  0  0  0  0  0
  150.1926  145.8203  159.8864 H   0  0  0  0  0  0  0  0  0  0  0  0
  151.7793  146.4249  159.3919 H   0  0  0  0  0  0  0  0  0  0  0  0
  152.6695  144.6885  162.1978 H   0  0  0  0  0  0  0  0  0  0  0  0
  153.5780  142.3927  162.3022 H   0  0  0  0  0  0  0  0  0  0  0  0
  154.0928  140.2306  159.5896 H   0  0  0  0  0  0  0  0  0  0  0  0
  152.6086  139.6842  160.3797 H   0  0  0  0  0  0  0  0  0  0  0  0
  153.9679  140.2587  161.3500 H   0  0  0  0  0  0  0  0  0  0  0  0
  151.5332  142.8041  156.7778 H   0  0  0  0  0  0  0  0  0  0  0  0
  151.8114  141.1787  156.1507 H   0  0  0  0  0  0  0  0  0  0  0  0
  149.6843  140.6913  157.8375 H   0  0  0  0  0  0  0  0  0  0  0  0
  149.3770  143.2777  156.7439 H   0  0  0  0  0  0  0  0  0  0  0  0
  148.1698  140.8305  155.8351 H   0  0  0  0  0  0  0  0  0  0  0  0
  149.4181  141.6370  154.9301 H   0  0  0  0  0  0  0  0  0  0  0  0
  151.3118  137.8926  153.1685 H   0  0  0  0  0  0  0  0  0  0  0  0
  150.9655  135.3470  154.9439 H   0  0  0  0  0  0  0  0  0  0  0  0
  149.2294  136.5497  159.6368 H   0  0  0  0  0  0  0  0  0  0  0  0
  148.8801  135.0209  158.8342 H   0  0  0  0  0  0  0  0  0  0  0  0
  147.6692  136.2972  158.8435 H   0  0  0  0  0  0  0  0  0  0  0  0
  151.0806  143.9177  158.2848 H   0  0  0  0  0  0  0  0  0  0  0  0
  1  2  1  0  0  0  0
  1 25  1  0  0  0  0
  1 26  1  0  0  0  0
  1 27  1  0  0  0  0
  2 24  1  0  0  0  0
  2  3  2  0  0  0  0
  3  4  1  0  0  0  0
  3 28  1  0  0  0  0
  4  5  2  0  0  0  0
  4 29  1  0  0  0  0
  5  6  1  0  0  0  0
  5  7  1  0  0  0  0
  6 30  1  0  0  0  0
  6 31  1  0  0  0  0
  6 32  1  0  0  0  0
  7  8  1  0  0  0  0
  7 24  2  0  0  0  0
  8  9  1  0  0  0  0
  9 10  1  0  0  0  0
  9 33  1  0  0  0  0
  9 34  1  0  0  0  0
 10 11  1  0  0  0  0
 10 12  1  0  0  0  0
 10 35  1  0  0  0  0
 11 36  1  0  0  0  0
 12 13  1  0  0  0  0
 12 37  1  0  0  0  0
 12 38  1  0  0  0  0
 13 23  1  0  0  0  0
 13 14  1  0  0  0  0
 14 15  2  0  0  0  0
 15 16  1  0  0  0  0
 15 39  1  0  0  0  0
 16 23  2  0  0  0  0
 16 17  1  0  0  0  0
 17 18  2  0  0  0  0
 17 40  1  0  0  0  0
 18 19  1  0  0  0  0
 19 20  1  0  0  0  0
 19 21  1  0  0  0  0
 20 41  1  0  0  0  0
 20 42  1  0  0  0  0
 20 43  1  0  0  0  0
 21 22  2  0  0  0  0
 21 23  1  0  0  0  0
 24 44  1  0  0  0  0
M  END
> <s_m_source_file>
AV-unprocessed.smi

> <i_m_source_file_index>
2857

> <i_lp_mmshare_version>
43012

> <i_f3d_flags>
0

> <s_epik_input>
W0NIM11jMVtjSF1bY0hdYyhbQ0gzXSljKFtjSF0xKU9bQ0gyXVtDQEhdKFtPSF0pW0NIMl1uKG5bY0hdMiljKGMyMyljKD1PKW4oW0NIM10pbltjSF0z

> <s_epik_cmdline>
J2VwaWtfcHl0aG9uJywgJy1waCcsICc3LjAnLCAnLXRuJywgJzgnLCAnLW1hJywgJzIwMCcsICctbWV0YWxfYmluZGluZycsICctaW1hZScsICc8aW5maWxlLm1hZT4nLCAnLW9tYWUnLCAnPG91dGZpbGUubWFlPic=

> <r_lp_tautomer_probability>
1

> <r_epik_Ionization_Penalty>
2.24607e-06

> <r_epik_Ionization_Penalty_Charging>
1.42095e-10

> <r_epik_Ionization_Penalty_Neutral>
2.24593e-06

> <r_epik_State_Penalty>
-0

> <r_epik_Charging_Adjusted_Penalty>
1.42095e-10

> <i_epik_Tot_Q>
0

> <i_epik_Tot_abs_Q>
0

> <r_epik_Metal_State_Penalty>
-0

> <b_epik_Metal_Only>
0

> <s_lp_Force_Field>
OPLS_2005

> <r_lp_Energy>
31.6427

> <b_lp_Chiralities_Consistent>
1

> <s_lp_Variant>
AV-unprocessed.smi:2857-2

> <Gold.Version>
5.8.1

> <Gold.Id.Protein>
6NUR|6NUR_protein|mol2

> <Gold.PLP.Fitness>
48.3339

> <Gold.PLP.PLP>
-40.9184

> <Gold.PLP.part.hbond>
-2.0000

> <Gold.PLP.part.metal>
0.0000

> <Gold.PLP.part.buried>
-6.1308

> <Gold.PLP.part.nonpolar>
-33.6105

> <Gold.PLP.part.repulsive>
0.4936

> <Gold.PLP.ligand.clash>
0.0000

> <Gold.PLP.ligand.torsion>
0.8015

> <Gold.PLP.Chemscore.Hbond>
2.0000

> <Gold.PLP.Chemscore.CHOScore>
0.9961

> <Gold.PLP.Chemscore.Metal>
0.0000

> <Gold.Chemscore.Hbonds>
donor molecule, donor type, donor heavy atom, donor atom, acceptor molecule, acceptor atom, score
      L1  H    11    36       P1  8028  1.00
      P1  H  7989  7998       L1    14  1.00
      L1  C    15    39       P1  7949  0.98

> <Gold.PLP.Chemscore.Internal.Correction>
0.0302

> <Gold.Rescore>
     Score         DG    S(hbond)    S(metal)    S(lipo)     H(rot)  DE(clash)    DE(int)     intcor
     20.07     -20.90       1.94        0.00     127.28       2.32       0.04       0.80       ----

> <Gold.Chemscore.Fitness>
20.0675

> <Gold.Chemscore.DG>
-20.9045

> <Gold.Chemscore.ZeroCoef>
-5.4800

> <Gold.Chemscore.Hbond>
1.9406

> <Gold.Chemscore.Metal>
0.0000

> <Gold.Chemscore.Lipo>
127.2751

> <Gold.Chemscore.Internal_Hbond>
0.0000

> <Gold.Chemscore.DEClash>
0.0362

> <Gold.Chemscore.DEInternal>
0.8008

> <Gold.Chemscore.Rot>
2.3236

> <Gold.Chemscore.Internal.Correction>
   9.000000E+99

> <Gold.Chemscore.Hbonds>
donor molecule, donor type, donor heavy atom, donor atom, acceptor molecule, acceptor atom, score
      L1  H    11    36       P1  8028  0.95
      P1  H  7989  7998       L1    14  0.95

> <Gold.Chemscore.Hbond.Weighted>
-6.4817

> <Gold.Chemscore.Metal.Weighted>
-0.0000

> <Gold.Chemscore.Lipo.Weighted>
-14.8912

> <Gold.Chemscore.Internal_Hbond.Weighted>
0.0000

> <Gold.Chemscore.DEClash.Weighted>
0.0362

> <Gold.Chemscore.DEInternal.Weighted>
0.8008

> <Gold.Chemscore.Rot.Weighted>
5.9484

> <Gold.Chemscore.Internal.Correction.Weighted>
   9.000000E+99

> <Gold.Protein.RotatedTorsions>
[ 6907 6896 6895 6894 ] final  177.18 input  -60.11 | X-H torsion
[ 7974 7965 7964 7962 ] final  168.99 input  175.53 | X-H torsion
[ 8008 7997 7996 7995 ] final   50.09 input   59.86 | X-H torsion
[ 10167 10162 10161 10158 ] final  -54.07 input  -65.29 | X-H torsion
[ 10718 10713 10712 10709 ] final -117.78 input   66.30 | X-H torsion
[ 10763 10752 10751 10750 ] final  -37.50 input  -60.55 | X-H torsion
[ 11005 11000 10999 10996 ] final    4.85 input  -57.11 | X-H torsion

> <Gold.Protein.ActiveResidues>
 VAL166  LYS551  ARG553  GLY616  TRP617  ASP618  TYR619  PRO620  LYS621  CYS622 
 ASP623  PHE694  ASN695  SER759  ASP760  ASP761  ALA762  ILE779  LEU786  VAL792 
 PHE793  MET794  SER795  GLU796  ALA797  LYS798  CYS799  TRP800  GLU811  SER814 

> <Gold.Protein.RotatedAtoms>
  151.7082  133.3312  159.3283 H   0  0  0  0  0  0  0  0  0  0  0  0  # atno 6907 bound_to 6896
  150.7705  134.6555  159.6321 H   0  0  0  0  0  0  0  0  0  0  0  0  # atno 6908 bound_to 6896
  152.3727  134.6712  160.0222 H   0  0  0  0  0  0  0  0  0  0  0  0  # atno 6909 bound_to 6896
  144.7370  139.8988  143.6408 H   0  0  0  0  0  0  0  0  0  0  0  0  # atno 7974 bound_to 7965
  155.4131  140.3443  155.4265 H   0  0  0  0  0  0  0  0  0  0  0  0  # atno 8008 bound_to 7997
  156.1437  140.1550  156.8912 H   0  0  0  0  0  0  0  0  0  0  0  0  # atno 8009 bound_to 7997
  154.4992  140.0819  156.7743 H   0  0  0  0  0  0  0  0  0  0  0  0  # atno 8010 bound_to 7997
  140.6450  143.2530  151.4883 H   0  0  0  0  0  0  0  0  0  0  0  0  # atno 10167 bound_to 10162
  156.1058  130.6209  150.9207 H   0  0  0  0  0  0  0  0  0  0  0  0  # atno 10718 bound_to 10713
  153.8974  135.6806  153.4757 H   0  0  0  0  0  0  0  0  0  0  0  0  # atno 10763 bound_to 10752
  153.1148  135.4766  154.9094 H   0  0  0  0  0  0  0  0  0  0  0  0  # atno 10764 bound_to 10752
  154.7592  135.3206  154.8364 H   0  0  0  0  0  0  0  0  0  0  0  0  # atno 10765 bound_to 10752
  140.5773  134.0046  155.8033 H   0  0  0  0  0  0  0  0  0  0  0  0  # atno 11005 bound_to 11000
  146.1087  139.4090  143.0301 LP  0  0  0  0  0  0  0  0  0  0  0  0  # atno 17320 bound_to 7965
  145.7474  140.9985  143.1268 LP  0  0  0  0  0  0  0  0  0  0  0  0  # atno 17321 bound_to 7965
  139.5661  144.2040  152.1766 LP  0  0  0  0  0  0  0  0  0  0  0  0  # atno 17342 bound_to 10162
  140.1322  144.5278  150.6795 LP  0  0  0  0  0  0  0  0  0  0  0  0  # atno 17343 bound_to 10162
  157.6235  131.0927  150.8578 LP  0  0  0  0  0  0  0  0  0  0  0  0  # atno 17370 bound_to 10713
  156.8697  130.5142  149.5297 LP  0  0  0  0  0  0  0  0  0  0  0  0  # atno 17371 bound_to 10713
  141.1018  133.9756  157.3065 LP  0  0  0  0  0  0  0  0  0  0  0  0  # atno 17394 bound_to 11000
  139.9333  135.0198  156.8474 LP  0  0  0  0  0  0  0  0  0  0  0  0  # atno 17395 bound_to 11000

$$$$
