AV-unprocessed.smi:2188|AV-procd|sdf|8883|dock9
  -GOLD-   2272012 83D 1   1.00000     0.00000
 Structure written by MMmdl.
 39 41  0  0  0  0  0  0  0  0  3 V2000
  152.7912  139.5304  155.5420 O   0  0  0  0  0  0  0  0  0  0  0  0
  151.7325  139.8650  156.0902 C   0  0  0  0  0  0  0  0  0  0  0  0
  150.5007  139.3419  155.7993 N   0  5  0  0  0  0  0  0  0  0  0  0
  150.0380  138.9397  154.4719 C   0  0  0  0  0  0  0  0  0  0  0  0
  148.5038  138.7907  154.4853 C   0  0  0  0  0  0  0  0  0  0  0  0
  147.7630  140.1143  154.6153 C   0  0  0  0  0  0  0  0  0  0  0  0
  146.3493  140.1503  154.6490 C   0  0  0  0  0  0  0  0  0  0  0  0
  145.6892  141.3914  154.7618 C   0  0  0  0  0  0  0  0  0  0  0  0
  146.4558  142.5722  154.8336 C   0  0  0  0  0  0  0  0  0  0  0  0
  147.8044  142.5021  154.7920 N   0  3  0  0  0  0  0  0  0  0  0  0
  148.4744  141.3338  154.6849 C   0  0  0  0  0  0  0  0  0  0  0  0
  151.7624  140.9245  157.1197 C   0  0  0  0  0  0  0  0  0  0  0  0
  150.9042  141.9724  156.9986 C   0  0  0  0  0  0  0  0  0  0  0  0
  150.8593  143.0382  157.9681 C   0  0  0  0  0  0  0  0  0  0  0  0
  151.7180  142.9923  158.9916 C   0  0  0  0  0  0  0  0  0  0  0  0
  152.6476  141.9681  159.1628 N   0  0  0  0  0  0  0  0  0  0  0  0
  153.5861  142.1081  160.2709 C   0  0  0  0  0  0  0  0  0  0  0  0
  153.7909  140.7729  160.9625 C   0  0  0  0  0  0  0  0  0  0  0  0
  154.5576  139.6794  159.7141 S   0  0  0  0  0  0  0  0  0  0  0  0
  155.8315  140.2864  159.2973 O   0  0  0  0  0  0  0  0  0  0  0  0
  154.5519  138.3074  160.2440 O   0  0  0  0  0  0  0  0  0  0  0  0
  153.4464  139.8157  158.4684 N   0  0  0  0  0  0  0  0  0  0  0  0
  152.6842  140.8554  158.2750 C   0  0  0  0  0  0  0  0  0  0  0  0
  150.3074  139.6626  153.7006 H   0  0  0  0  0  0  0  0  0  0  0  0
  150.4850  137.9940  154.1639 H   0  0  0  0  0  0  0  0  0  0  0  0
  148.1717  138.2930  153.5728 H   0  0  0  0  0  0  0  0  0  0  0  0
  148.2012  138.1436  155.3102 H   0  0  0  0  0  0  0  0  0  0  0  0
  145.7774  139.2352  154.5940 H   0  0  0  0  0  0  0  0  0  0  0  0
  144.6103  141.4352  154.7937 H   0  0  0  0  0  0  0  0  0  0  0  0
  146.0343  143.5628  154.9215 H   0  0  0  0  0  0  0  0  0  0  0  0
  149.5522  141.4070  154.6622 H   0  0  0  0  0  0  0  0  0  0  0  0
  150.2286  142.0459  156.1583 H   0  0  0  0  0  0  0  0  0  0  0  0
  150.1528  143.8489  157.8698 H   0  0  0  0  0  0  0  0  0  0  0  0
  151.7335  143.7623  159.7492 H   0  0  0  0  0  0  0  0  0  0  0  0
  154.5309  142.5020  159.8950 H   0  0  0  0  0  0  0  0  0  0  0  0
  153.2168  142.8284  161.0013 H   0  0  0  0  0  0  0  0  0  0  0  0
  154.4632  140.8563  161.8160 H   0  0  0  0  0  0  0  0  0  0  0  0
  152.8506  140.3355  161.3000 H   0  0  0  0  0  0  0  0  0  0  0  0
  148.3405  143.3684  154.8444 H   0  0  0  0  0  0  0  0  0  0  0  0
  1  2  2  0  0  0  0
  2  3  1  0  0  0  0
  2 12  1  0  0  0  0
  3  4  1  0  0  0  0
  4  5  1  0  0  0  0
  4 24  1  0  0  0  0
  4 25  1  0  0  0  0
  5  6  1  0  0  0  0
  5 26  1  0  0  0  0
  5 27  1  0  0  0  0
  6 11  1  0  0  0  0
  6  7  2  0  0  0  0
  7  8  1  0  0  0  0
  7 28  1  0  0  0  0
  8  9  2  0  0  0  0
  8 29  1  0  0  0  0
  9 10  1  0  0  0  0
  9 30  1  0  0  0  0
 10 11  2  0  0  0  0
 10 39  1  0  0  0  0
 11 31  1  0  0  0  0
 12 23  1  0  0  0  0
 12 13  2  0  0  0  0
 13 14  1  0  0  0  0
 13 32  1  0  0  0  0
 14 15  2  0  0  0  0
 14 33  1  0  0  0  0
 15 16  1  0  0  0  0
 15 34  1  0  0  0  0
 16 23  1  0  0  0  0
 16 17  1  0  0  0  0
 17 18  1  0  0  0  0
 17 35  1  0  0  0  0
 17 36  1  0  0  0  0
 18 19  1  0  0  0  0
 18 37  1  0  0  0  0
 18 38  1  0  0  0  0
 19 20  2  0  0  0  0
 19 21  2  0  0  0  0
 19 22  1  0  0  0  0
 22 23  2  0  0  0  0
M  CHG  1   3  -1
M  CHG  1  10   1
M  END
> <s_m_source_file>
AV-unprocessed.smi

> <i_m_source_file_index>
2188

> <i_lp_mmshare_version>
43012

> <i_f3d_flags>
0

> <s_epik_input>
W0NIMl0xW0NIMl1TKD1PKSg9TylOPUMoTjEyKUMoPVtDSF1bQ0hdPVtDSF0yKUMoPU8pW05IXVtDSDJdW0NIMl1jM1tjSF1bY0hdW2NIXW5bY0hdMw==

> <s_epik_cmdline>
J2VwaWtfcHl0aG9uJywgJy1waCcsICc3LjAnLCAnLXRuJywgJzgnLCAnLW1hJywgJzIwMCcsICctbWV0YWxfYmluZGluZycsICctaW1hZScsICc8aW5maWxlLm1hZT4nLCAnLW9tYWUnLCAnPG91dGZpbGUubWFlPic=

> <r_epik_Ionization_Penalty>
7.27179

> <r_epik_Ionization_Penalty_Charging>
7.27179

> <r_epik_Ionization_Penalty_Neutral>
0

> <r_epik_State_Penalty>
7.89047

> <r_epik_Charging_Adjusted_Penalty>
15.1623

> <i_epik_Tot_Q>
0

> <i_epik_Tot_abs_Q>
2

> <r_epik_Metal_State_Penalty>
3.9241

> <b_epik_Metal_Only>
1

> <s_lp_Force_Field>
OPLS_2005

> <r_lp_Energy>
37.465

> <b_lp_Chiralities_Consistent>
1

> <s_lp_Variant>
AV-unprocessed.smi:2188-4

> <Gold.Version>
5.8.1

> <Gold.Id.Protein>
6NUR|6NUR_protein|mol2

> <Gold.PLP.Fitness>
48.8699

> <Gold.PLP.PLP>
-39.5689

> <Gold.PLP.part.hbond>
-4.0000

> <Gold.PLP.part.metal>
0.0000

> <Gold.PLP.part.buried>
-4.2974

> <Gold.PLP.part.nonpolar>
-32.3938

> <Gold.PLP.part.repulsive>
0.1881

> <Gold.PLP.ligand.clash>
0.0000

> <Gold.PLP.ligand.torsion>
1.3199

> <Gold.PLP.Chemscore.Hbond>
3.8808

> <Gold.PLP.Chemscore.CHOScore>
0.0000

> <Gold.PLP.Chemscore.Metal>
0.0000

> <Gold.Chemscore.Hbonds>
donor molecule, donor type, donor heavy atom, donor atom, acceptor molecule, acceptor atom, score
      L1  H    10    39       P1  8028  2.00
      P1  H  7997  8008       L1     1  1.00
      P1  H  7997  8010       L1    20  0.78

> <Gold.PLP.Chemscore.Internal.Correction>
0.2984

> <Gold.Rescore>
     Score         DG    S(hbond)    S(metal)    S(lipo)     H(rot)  DE(clash)    DE(int)     intcor
     17.53     -19.75       2.38        0.00      87.13       1.51       0.01       2.21       ----

> <Gold.Chemscore.Fitness>
17.5264

> <Gold.Chemscore.DG>
-19.7470

> <Gold.Chemscore.ZeroCoef>
-5.4800

> <Gold.Chemscore.Hbond>
2.3776

> <Gold.Chemscore.Metal>
0.0000

> <Gold.Chemscore.Lipo>
87.1277

> <Gold.Chemscore.Internal_Hbond>
0.0000

> <Gold.Chemscore.DEClash>
0.0150

> <Gold.Chemscore.DEInternal>
2.2056

> <Gold.Chemscore.Rot>
1.5109

> <Gold.Chemscore.Internal.Correction>
   9.000000E+99

> <Gold.Chemscore.Hbonds>
donor molecule, donor type, donor heavy atom, donor atom, acceptor molecule, acceptor atom, score
      L1  H    10    39       P1  8028  0.95
      P1  H  7997  8008       L1     1  0.99
      P1  H  7997  8010       L1    20  0.13

> <Gold.Chemscore.Hbond.Weighted>
-7.9411

> <Gold.Chemscore.Metal.Weighted>
-0.0000

> <Gold.Chemscore.Lipo.Weighted>
-10.1939

> <Gold.Chemscore.Internal_Hbond.Weighted>
0.0000

> <Gold.Chemscore.DEClash.Weighted>
0.0150

> <Gold.Chemscore.DEInternal.Weighted>
2.2056

> <Gold.Chemscore.Rot.Weighted>
3.8680

> <Gold.Chemscore.Internal.Correction.Weighted>
   9.000000E+99

> <Gold.Protein.RotatedTorsions>
[ 6907 6896 6895 6894 ] final   65.64 input  -60.11 | X-H torsion
[ 7974 7965 7964 7962 ] final  -31.96 input  175.53 | X-H torsion
[ 8008 7997 7996 7995 ] final  -26.60 input   59.86 | X-H torsion
[ 10167 10162 10161 10158 ] final  135.92 input  -65.29 | X-H torsion
[ 10718 10713 10712 10709 ] final   30.50 input   66.30 | X-H torsion
[ 10763 10752 10751 10750 ] final -120.12 input  -60.55 | X-H torsion
[ 11005 11000 10999 10996 ] final -142.76 input  -57.11 | X-H torsion

> <Gold.Protein.ActiveResidues>
 VAL166  LYS551  ARG553  GLY616  TRP617  ASP618  TYR619  PRO620  LYS621  CYS622 
 ASP623  PHE694  ASN695  SER759  ASP760  ASP761  ALA762  ILE779  LEU786  VAL792 
 PHE793  MET794  SER795  GLU796  ALA797  LYS798  CYS799  TRP800  GLU811  SER814 

> <Gold.Protein.RotatedAtoms>
  152.4422  134.5567  159.9882 H   0  0  0  0  0  0  0  0  0  0  0  0  # atno 6907 bound_to 6896
  151.5661  133.3390  159.2988 H   0  0  0  0  0  0  0  0  0  0  0  0  # atno 6908 bound_to 6896
  150.8331  134.7626  159.6934 H   0  0  0  0  0  0  0  0  0  0  0  0  # atno 6909 bound_to 6896
  146.1027  140.5733  142.8813 H   0  0  0  0  0  0  0  0  0  0  0  0  # atno 7974 bound_to 7965
  154.4417  140.1895  156.0801 H   0  0  0  0  0  0  0  0  0  0  0  0  # atno 8008 bound_to 7997
  156.0445  140.3316  155.7254 H   0  0  0  0  0  0  0  0  0  0  0  0  # atno 8009 bound_to 7997
  155.5650  140.0607  157.2811 H   0  0  0  0  0  0  0  0  0  0  0  0  # atno 8010 bound_to 7997
  139.5199  144.6491  151.5353 H   0  0  0  0  0  0  0  0  0  0  0  0  # atno 10167 bound_to 10162
  157.2603  130.7158  149.6450 H   0  0  0  0  0  0  0  0  0  0  0  0  # atno 10718 bound_to 10713
  154.8636  135.4214  154.2408 H   0  0  0  0  0  0  0  0  0  0  0  0  # atno 10763 bound_to 10752
  153.3374  135.6991  153.6902 H   0  0  0  0  0  0  0  0  0  0  0  0  # atno 10764 bound_to 10752
  153.5894  135.3557  155.2878 H   0  0  0  0  0  0  0  0  0  0  0  0  # atno 10765 bound_to 10752
  140.8193  134.2650  157.4907 H   0  0  0  0  0  0  0  0  0  0  0  0  # atno 11005 bound_to 11000
  144.7446  140.5032  143.6845 LP  0  0  0  0  0  0  0  0  0  0  0  0  # atno 17320 bound_to 7965
  145.5822  139.1489  143.3229 LP  0  0  0  0  0  0  0  0  0  0  0  0  # atno 17321 bound_to 7965
  140.6289  143.9115  150.6588 LP  0  0  0  0  0  0  0  0  0  0  0  0  # atno 17342 bound_to 10162
  140.2412  143.3662  152.1484 LP  0  0  0  0  0  0  0  0  0  0  0  0  # atno 17343 bound_to 10162
  155.9664  130.4399  150.5279 LP  0  0  0  0  0  0  0  0  0  0  0  0  # atno 17370 bound_to 10713
  157.3182  131.0677  151.1951 LP  0  0  0  0  0  0  0  0  0  0  0  0  # atno 17371 bound_to 10713
  139.8709  134.9527  156.4122 LP  0  0  0  0  0  0  0  0  0  0  0  0  # atno 17394 bound_to 11000
  140.9115  133.7708  155.9798 LP  0  0  0  0  0  0  0  0  0  0  0  0  # atno 17395 bound_to 11000

$$$$
