AV-unprocessed.smi:1868|AV-procd|sdf|7586|dock2
  -GOLD-   22720 9293D 1   1.00000     0.00000
 Structure written by MMmdl.
 47 49  0  0  0  0  0  0  0  0  2 V2000
  151.5911  137.8571  158.7359 C   0  0  0  0  0  0  0  0  0  0  0  0
  151.7275  139.3467  158.7448 C   0  0  0  0  0  0  0  0  0  0  0  0
  152.2509  140.0058  159.7782 N   0  0  0  0  0  0  0  0  0  0  0  0
  152.1969  141.3208  159.3587 C   0  0  0  0  0  0  0  0  0  0  0  0
  152.6001  142.5096  160.0077 C   0  0  0  0  0  0  0  0  0  0  0  0
  152.4415  143.7588  159.3726 C   0  0  0  0  0  0  0  0  0  0  0  0
  151.8791  143.8372  158.0821 C   0  0  0  0  0  0  0  0  0  0  0  0
  151.4703  142.6652  157.4177 C   0  0  0  0  0  0  0  0  0  0  0  0
  151.6295  141.4207  158.0567 C   0  0  0  0  0  0  0  0  0  0  0  0
  151.3272  140.1098  157.6980 N   0  0  0  0  0  0  0  0  0  0  0  0
  150.7130  139.6712  156.4525 C   0  0  0  0  0  0  0  0  0  0  0  0
  151.6350  138.7609  155.6140 C   0  0  2  0  0  0  0  0  0  0  0  0
  152.8107  139.4952  155.3373 O   0  0  0  0  0  0  0  0  0  0  0  0
  151.0006  138.3008  154.2811 C   0  0  0  0  0  0  0  0  0  0  0  0
  149.9619  137.2538  154.4573 N   0  3  2  0  0  0  0  0  0  0  0  0
  148.7231  137.7985  155.0710 C   0  0  0  0  0  0  0  0  0  0  0  0
  147.6107  136.7364  155.1240 C   0  0  0  0  0  0  0  0  0  0  0  0
  148.0585  135.4603  155.8586 C   0  0  2  0  0  0  0  0  0  0  0  0
  148.1420  135.6489  157.3837 C   0  0  0  0  0  0  0  0  0  0  0  0
  149.3783  134.9564  155.2473 C   0  0  0  0  0  0  0  0  0  0  0  0
  150.4534  136.0566  155.1907 C   0  0  0  0  0  0  0  0  0  0  0  0
  151.9439  137.4361  159.6779 H   0  0  0  0  0  0  0  0  0  0  0  0
  152.1842  137.4290  157.9277 H   0  0  0  0  0  0  0  0  0  0  0  0
  150.5491  137.5686  158.6031 H   0  0  0  0  0  0  0  0  0  0  0  0
  153.0326  142.4605  160.9963 H   0  0  0  0  0  0  0  0  0  0  0  0
  152.7534  144.6611  159.8779 H   0  0  0  0  0  0  0  0  0  0  0  0
  151.7622  144.7982  157.6027 H   0  0  0  0  0  0  0  0  0  0  0  0
  151.0380  142.7242  156.4301 H   0  0  0  0  0  0  0  0  0  0  0  0
  149.7858  139.1490  156.6925 H   0  0  0  0  0  0  0  0  0  0  0  0
  150.4206  140.5505  155.8773 H   0  0  0  0  0  0  0  0  0  0  0  0
  151.9142  137.9021  156.2216 H   0  0  0  0  0  0  0  0  0  0  0  0
  152.8686  139.6460  154.4065 H   0  0  0  0  0  0  0  0  0  0  0  0
  150.5476  139.1384  153.7504 H   0  0  0  0  0  0  0  0  0  0  0  0
  151.7974  137.9287  153.6347 H   0  0  0  0  0  0  0  0  0  0  0  0
  148.9433  138.1742  156.0712 H   0  0  0  0  0  0  0  0  0  0  0  0
  148.3693  138.6500  154.4883 H   0  0  0  0  0  0  0  0  0  0  0  0
  146.7191  137.1513  155.5956 H   0  0  0  0  0  0  0  0  0  0  0  0
  147.3195  136.4786  154.1048 H   0  0  0  0  0  0  0  0  0  0  0  0
  147.3004  134.6957  155.6838 H   0  0  0  0  0  0  0  0  0  0  0  0
  148.8853  136.3930  157.6685 H   0  0  0  0  0  0  0  0  0  0  0  0
  148.4068  134.7136  157.8772 H   0  0  0  0  0  0  0  0  0  0  0  0
  147.1825  135.9707  157.7894 H   0  0  0  0  0  0  0  0  0  0  0  0
  149.7505  134.0979  155.8075 H   0  0  0  0  0  0  0  0  0  0  0  0
  149.1883  134.5964  154.2352 H   0  0  0  0  0  0  0  0  0  0  0  0
  151.3389  135.6502  154.7044 H   0  0  0  0  0  0  0  0  0  0  0  0
  150.7587  136.3426  156.1982 H   0  0  0  0  0  0  0  0  0  0  0  0
  149.7028  136.9485  153.5303 H   0  0  0  0  0  0  0  0  0  0  0  0
  1  2  1  0  0  0  0
  1 22  1  0  0  0  0
  1 23  1  0  0  0  0
  1 24  1  0  0  0  0
  2 10  1  0  0  0  0
  2  3  2  0  0  0  0
  3  4  1  0  0  0  0
  4  9  2  0  0  0  0
  4  5  1  0  0  0  0
  5  6  2  0  0  0  0
  5 25  1  0  0  0  0
  6  7  1  0  0  0  0
  6 26  1  0  0  0  0
  7  8  2  0  0  0  0
  7 27  1  0  0  0  0
  8  9  1  0  0  0  0
  8 28  1  0  0  0  0
  9 10  1  0  0  0  0
 10 11  1  0  0  0  0
 11 12  1  0  0  0  0
 11 29  1  0  0  0  0
 11 30  1  0  0  0  0
 12 13  1  0  0  0  0
 12 14  1  0  0  0  0
 12 31  1  0  0  0  0
 13 32  1  0  0  0  0
 14 15  1  0  0  0  0
 14 33  1  0  0  0  0
 14 34  1  0  0  0  0
 15 21  1  0  0  0  0
 15 16  1  0  0  0  0
 15 47  1  0  0  0  0
 16 17  1  0  0  0  0
 16 35  1  0  0  0  0
 16 36  1  0  0  0  0
 17 18  1  0  0  0  0
 17 37  1  0  0  0  0
 17 38  1  0  0  0  0
 18 19  1  0  0  0  0
 18 20  1  0  0  0  0
 18 39  1  0  0  0  0
 19 40  1  0  0  0  0
 19 41  1  0  0  0  0
 19 42  1  0  0  0  0
 20 21  1  0  0  0  0
 20 43  1  0  0  0  0
 20 44  1  0  0  0  0
 21 45  1  0  0  0  0
 21 46  1  0  0  0  0
M  CHG  1  15   1
M  END
> <s_m_source_file>
AV-unprocessed.smi

> <i_m_source_file_index>
1868

> <i_lp_mmshare_version>
43012

> <i_f3d_flags>
0

> <s_epik_input>
W2NIXTFbY0hdW2NIXVtjSF1jKGMxMiluKGMobjIpW0NIM10pW0NIMl1bQ0BIXShbT0hdKVtDSDJdTjNbQ0gyXVtDSDJdW0NIXShbQ0gzXSlbQ0gyXVtDSDJdMw==

> <s_epik_cmdline>
J2VwaWtfcHl0aG9uJywgJy1waCcsICc3LjAnLCAnLXRuJywgJzgnLCAnLW1hJywgJzIwMCcsICctbWV0YWxfYmluZGluZycsICctaW1hZScsICc8aW5maWxlLm1hZT4nLCAnLW9tYWUnLCAnPG91dGZpbGUubWFlPic=

> <r_epik_Ionization_Penalty>
0.101157

> <r_epik_Ionization_Penalty_Charging>
0.00181365

> <r_epik_Ionization_Penalty_Neutral>
0.0993436

> <r_epik_State_Penalty>
0.0871902

> <r_epik_Charging_Adjusted_Penalty>
0.0890039

> <i_epik_Tot_Q>
1

> <i_epik_Tot_abs_Q>
1

> <r_epik_Metal_State_Penalty>
9.24346e-05

> <b_epik_Metal_Only>
0

> <s_lp_Force_Field>
OPLS_2005

> <r_lp_Energy>
25.8314

> <b_lp_Chiralities_Consistent>
1

> <s_lp_Variant>
AV-unprocessed.smi:1868-3

> <Gold.Version>
5.8.1

> <Gold.Id.Protein>
6NUR|6NUR_protein|mol2

> <Gold.PLP.Fitness>
48.5519

> <Gold.PLP.PLP>
-39.8263

> <Gold.PLP.part.hbond>
-3.0169

> <Gold.PLP.part.metal>
0.0000

> <Gold.PLP.part.buried>
-5.7150

> <Gold.PLP.part.nonpolar>
-31.1106

> <Gold.PLP.part.repulsive>
0.0394

> <Gold.PLP.ligand.clash>
0.0000

> <Gold.PLP.ligand.torsion>
0.1487

> <Gold.PLP.Chemscore.Hbond>
3.0000

> <Gold.PLP.Chemscore.CHOScore>
0.0000

> <Gold.PLP.Chemscore.Metal>
0.0000

> <Gold.Chemscore.Hbonds>
donor molecule, donor type, donor heavy atom, donor atom, acceptor molecule, acceptor atom, score
      L1  H    15    47       P1  7948  2.00
      P1  H  7997  8009       L1    13  0.95

> <Gold.PLP.Chemscore.Internal.Correction>
0.0230

> <Gold.Rescore>
     Score         DG    S(hbond)    S(metal)    S(lipo)     H(rot)  DE(clash)    DE(int)     intcor
     17.70     -18.97       1.80        0.00     105.98       1.92       0.04       1.23       ----

> <Gold.Chemscore.Fitness>
17.6971

> <Gold.Chemscore.DG>
-18.9667

> <Gold.Chemscore.ZeroCoef>
-5.4800

> <Gold.Chemscore.Hbond>
1.7970

> <Gold.Chemscore.Metal>
0.0000

> <Gold.Chemscore.Lipo>
105.9781

> <Gold.Chemscore.Internal_Hbond>
0.0000

> <Gold.Chemscore.DEClash>
0.0351

> <Gold.Chemscore.DEInternal>
1.2344

> <Gold.Chemscore.Rot>
1.9198

> <Gold.Chemscore.Internal.Correction>
   9.000000E+99

> <Gold.Chemscore.Hbonds>
donor molecule, donor type, donor heavy atom, donor atom, acceptor molecule, acceptor atom, score
      L1  H    15    47       P1  7948  0.65
      P1  H  7997  8009       L1    13  0.21

> <Gold.Chemscore.Hbond.Weighted>
-6.0020

> <Gold.Chemscore.Metal.Weighted>
-0.0000

> <Gold.Chemscore.Lipo.Weighted>
-12.3994

> <Gold.Chemscore.Internal_Hbond.Weighted>
0.0000

> <Gold.Chemscore.DEClash.Weighted>
0.0351

> <Gold.Chemscore.DEInternal.Weighted>
1.2344

> <Gold.Chemscore.Rot.Weighted>
4.9147

> <Gold.Chemscore.Internal.Correction.Weighted>
   9.000000E+99

> <Gold.Protein.RotatedTorsions>
[ 6907 6896 6895 6894 ] final  135.29 input  -60.11 | X-H torsion
[ 7974 7965 7964 7962 ] final   11.28 input  175.53 | X-H torsion
[ 8008 7997 7996 7995 ] final -131.61 input   59.86 | X-H torsion
[ 10167 10162 10161 10158 ] final  -73.72 input  -65.29 | X-H torsion
[ 10718 10713 10712 10709 ] final   15.70 input   66.30 | X-H torsion
[ 10763 10752 10751 10750 ] final  120.20 input  -60.55 | X-H torsion
[ 11005 11000 10999 10996 ] final  -51.48 input  -57.11 | X-H torsion

> <Gold.Protein.ActiveResidues>
 VAL166  LYS551  ARG553  GLY616  TRP617  ASP618  TYR619  PRO620  LYS621  CYS622 
 ASP623  PHE694  ASN695  SER759  ASP760  ASP761  ALA762  ILE779  LEU786  VAL792 
 PHE793  MET794  SER795  GLU796  ALA797  LYS798  CYS799  TRP800  GLU811  SER814 

> <Gold.Protein.RotatedAtoms>
  152.3020  133.5665  159.5624 H   0  0  0  0  0  0  0  0  0  0  0  0  # atno 6907 bound_to 6896
  150.7282  134.0278  159.3732 H   0  0  0  0  0  0  0  0  0  0  0  0  # atno 6908 bound_to 6896
  151.8177  135.0662  160.0472 H   0  0  0  0  0  0  0  0  0  0  0  0  # atno 6909 bound_to 6896
  146.2374  139.9508  142.8471 H   0  0  0  0  0  0  0  0  0  0  0  0  # atno 7974 bound_to 7965
  155.3151  140.0459  157.3037 H   0  0  0  0  0  0  0  0  0  0  0  0  # atno 8008 bound_to 7997
  154.5411  140.2288  155.8606 H   0  0  0  0  0  0  0  0  0  0  0  0  # atno 8009 bound_to 7997
  156.1881  140.3057  155.9285 H   0  0  0  0  0  0  0  0  0  0  0  0  # atno 8010 bound_to 7997
  140.5087  143.2348  151.7630 H   0  0  0  0  0  0  0  0  0  0  0  0  # atno 10167 bound_to 10162
  157.0573  130.6294  149.5779 H   0  0  0  0  0  0  0  0  0  0  0  0  # atno 10718 bound_to 10713
  153.5949  135.3459  155.2924 H   0  0  0  0  0  0  0  0  0  0  0  0  # atno 10763 bound_to 10752
  154.8646  135.4213  154.2476 H   0  0  0  0  0  0  0  0  0  0  0  0  # atno 10764 bound_to 10752
  153.3292  135.7043  153.7034 H   0  0  0  0  0  0  0  0  0  0  0  0  # atno 10765 bound_to 10752
  141.0873  133.6640  156.3883 H   0  0  0  0  0  0  0  0  0  0  0  0  # atno 11005 bound_to 11000
  145.1863  140.9791  143.4237 LP  0  0  0  0  0  0  0  0  0  0  0  0  # atno 17320 bound_to 7965
  144.9897  139.3701  143.6221 LP  0  0  0  0  0  0  0  0  0  0  0  0  # atno 17321 bound_to 7965
  139.4890  144.4421  151.9752 LP  0  0  0  0  0  0  0  0  0  0  0  0  # atno 17342 bound_to 10162
  140.3512  144.3086  150.5949 LP  0  0  0  0  0  0  0  0  0  0  0  0  # atno 17343 bound_to 10162
  155.9989  130.5064  150.7588 LP  0  0  0  0  0  0  0  0  0  0  0  0  # atno 17370 bound_to 10713
  157.4983  131.0916  151.0345 LP  0  0  0  0  0  0  0  0  0  0  0  0  # atno 17371 bound_to 10713
  140.5333  134.6191  157.5357 LP  0  0  0  0  0  0  0  0  0  0  0  0  # atno 17394 bound_to 11000
  139.9693  134.7320  156.0074 LP  0  0  0  0  0  0  0  0  0  0  0  0  # atno 17395 bound_to 11000

$$$$
