#       Name:                AV-unprocessed.smi:31
#       Creating user name   scv26
#       Creation time:       Thu Mar 26 15:46:43 2020


#       File generated by GOLD software.
#

@<TRIPOS>MOLECULE
AV-unprocessed.smi:31
    61    64     1
SMALL
NO_CHARGES


@<TRIPOS>ATOM
      1 ****        -0.0650   0.1025  -1.3933 O.2            1 S1                 0.0000
      2 ****         0.4948  -0.9300  -1.0229 C.2            1 S1                 0.0000
      3 ****         2.0188  -0.9602  -0.8262 C.3            1 S1                 0.0000
      4 ****         2.6274   0.3831  -0.7068 N.am           1 S1                 0.0000
      5 ****         3.1162   1.0193  -1.8749 C.2            1 S1                 0.0000
      6 ****         3.0493   0.4717  -2.9763 O.2            1 S1                 0.0000
      7 ****         3.6863   2.3473  -1.6771 C.2            1 S1                 0.0000
      8 ****         4.1750   3.0249  -2.7297 F              1 S1                 0.0000
      9 ****         3.7311   2.9096  -0.4517 C.2            1 S1                 0.0000
     10 ****         3.2490   2.2770   0.6803 N.am           1 S1                 0.0000
     11 ****         3.2998   2.9250   2.0478 C.3            1 S1                 0.0000
     12 ****         4.3938   2.2739   2.9148 C.3            1 S1                 0.0000
     13 ****         5.1723   3.4708   3.4230 C.3            1 S1                 0.0000
     14 ****         4.9905   4.4660   2.2871 C.3            1 S1                 0.0000
     15 ****         3.6295   4.2793   1.9211 O.3            1 S1                 0.0000
     16 ****         2.6732   0.9928   0.5694 C.2            1 S1                 0.0000
     17 ****         2.2212   0.4195   1.5633 O.2            1 S1                 0.0000
     18 ****        -0.1302  -2.0998  -0.7955 N.am           1 S1                 0.0000
     19 ****        -1.5156  -2.4093  -0.8780 C.ar           1 S1                 0.0000
     20 ****        -1.8612  -3.7691  -0.9920 C.ar           1 S1                 0.0000
     21 ****        -3.2105  -4.1563  -1.0728 C.ar           1 S1                 0.0000
     22 ****        -4.2414  -3.1972  -1.0349 C.ar           1 S1                 0.0000
     23 ****        -3.9050  -1.8236  -0.8528 C.ar           1 S1                 0.0000
     24 ****        -2.5475  -1.4443  -0.7991 C.ar           1 S1                 0.0000
     25 ****        -4.8296  -0.8139  -0.6971 O.3            1 S1                 0.0000
     26 ****        -6.0183  -1.1572  -0.0002 C.3            1 S1                 0.0000
     27 ****        -7.0487  -1.7859  -0.9402 C.3            1 S1                 0.0000
     28 ****        -6.4261  -2.8159  -1.8847 C.3            1 S1                 0.0000
     29 ****        -5.5260  -3.6695  -1.1934 O.3            1 S1                 0.0000
     30 ****         2.2508  -1.5629   0.0536 H              1 S1                 0.0000
     31 ****         2.4566  -1.5228  -1.6520 H              1 S1                 0.0000
     32 ****         4.1631   3.8956  -0.3748 H              1 S1                 0.0000
     33 ****         2.2917   2.8355   2.4566 H              1 S1                 0.0000
     34 ****         3.9566   1.6720   3.7118 H              1 S1                 0.0000
     35 ****         5.0340   1.6384   2.3005 H              1 S1                 0.0000
     36 ****         4.7160   3.8572   4.3354 H              1 S1                 0.0000
     37 ****         6.2183   3.2447   3.6309 H              1 S1                 0.0000
     38 ****         5.1877   5.4947   2.5890 H              1 S1                 0.0000
     39 ****         5.6438   4.2202   1.4486 H              1 S1                 0.0000
     40 ****         0.4718  -2.8814  -0.5813 H              1 S1                 0.0000
     41 ****        -1.0895  -4.5242  -1.0338 H              1 S1                 0.0000
     42 ****        -3.4565  -5.2016  -1.1892 H              1 S1                 0.0000
     43 ****        -2.3229  -0.3989  -0.6563 H              1 S1                 0.0000
     44 ****        -5.7927  -1.8276   0.8316 H              1 S1                 0.0000
     45 ****        -6.4337  -0.2540   0.4468 H              1 S1                 0.0000
     46 ****        -7.8320  -2.2535  -0.3433 H              1 S1                 0.0000
     47 ****        -7.5345  -1.0109  -1.5334 H              1 S1                 0.0000
     48 ****        -7.2122  -3.4260  -2.3297 H              1 S1                 0.0000
     49 ****        -5.9206  -2.3233  -2.7174 H              1 S1                 0.0000
     50 ****         0.4724   0.9276  -1.5679 LP             1 S1                 0.0000
     51 ****        -1.0569   0.1158  -1.5195 LP             1 S1                 0.0000
     52 ****         2.6442  -0.4389  -3.0582 LP             1 S1                 0.0000
     53 ****         3.4001   0.9377  -3.7886 LP             1 S1                 0.0000
     54 ****         3.0440   4.8235   2.5219 LP             1 S1                 0.0000
     55 ****         3.4954   4.5688   0.9734 LP             1 S1                 0.0000
     56 ****         1.8147  -0.4898   1.4743 LP             1 S1                 0.0000
     57 ****         2.2612   0.8639   2.4582 LP             1 S1                 0.0000
     58 ****        -5.0908  -0.4957  -1.6084 LP             1 S1                 0.0000
     59 ****        -4.3872  -0.0689  -0.1980 LP             1 S1                 0.0000
     60 ****        -5.9037  -3.8383  -0.2830 LP             1 S1                 0.0000
     61 ****        -5.4743  -4.5314  -1.6979 LP             1 S1                 0.0000
@<TRIPOS>BOND
    1    1    2 2     
    2    2    3 1     
    3    2   18 am    
    4    3    4 1     
    5    3   30 1     
    6    3   31 1     
    7    4   16 am    
    8    4    5 am    
    9    5    6 2     
   10    5    7 1     
   11    7    8 1     
   12    7    9 2     
   13    9   10 1     
   14    9   32 1     
   15   10   11 1     
   16   10   16 am    
   17   11   15 1     
   18   11   12 1     
   19   11   33 1     
   20   12   13 1     
   21   12   34 1     
   22   12   35 1     
   23   13   14 1     
   24   13   36 1     
   25   13   37 1     
   26   14   15 1     
   27   14   38 1     
   28   14   39 1     
   29   16   17 2     
   30   18   19 1     
   31   18   40 1     
   32   19   24 ar    
   33   19   20 ar    
   34   20   21 ar    
   35   20   41 1     
   36   21   22 ar    
   37   21   42 1     
   38   22   29 1     
   39   22   23 ar    
   40   23   24 ar    
   41   23   25 1     
   42   24   43 1     
   43   25   26 1     
   44   26   27 1     
   45   26   44 1     
   46   26   45 1     
   47   27   28 1     
   48   27   46 1     
   49   27   47 1     
   50   28   29 1     
   51   28   48 1     
   52   28   49 1     
   53    1   50 1     
   54    1   51 1     
   55    6   52 1     
   56    6   53 1     
   57   15   54 1     
   58   15   55 1     
   59   17   56 1     
   60   17   57 1     
   61   25   58 1     
   62   25   59 1     
   63   29   60 1     
   64   29   61 1     
@<TRIPOS>SUBSTRUCTURE
      1 S1             1
@<TRIPOS>SET
LONE_PAIRS      STATIC     ATOMS    <user>   **** ""
12 50 51 52 53 54 55 56 57 58 59 60 61
DONOR_HYDROGENS      STATIC     ATOMS    <user>   **** ""
1 40
ATOM$BLUE        STATIC     ATOMS    COLORGROUP SYSTEM
12 50 51 52 53 54 55 56 57 58 59 60 61
ATOM$RED        STATIC     ATOMS    COLORGROUP SYSTEM
1 40
