AV-unprocessed.smi:897|AV-procd|sdf|4081|dock4
  -GOLD-   22720 1573D 1   1.00000     0.00000
 Structure written by MMmdl.
 35 37  0  0  0  0  0  0  0  0  1 V2000
  151.9390  144.7299  158.7236 C   0  0  0  0  0  0  0  0  0  0  0  0
  152.2867  143.2938  159.0546 C   0  0  0  0  0  0  0  0  0  0  0  0
  152.9947  142.9715  160.2272 C   0  0  0  0  0  0  0  0  0  0  0  0
  153.2930  141.6186  160.4869 C   0  0  0  0  0  0  0  0  0  0  0  0
  154.0554  141.2585  161.7534 C   0  0  0  0  0  0  0  0  0  0  0  0
  152.8699  140.6359  159.5540 C   0  0  0  0  0  0  0  0  0  0  0  0
  153.1638  139.2223  159.7814 C   0  0  0  0  0  0  0  0  0  0  0  0
  153.3970  138.1033  159.9612 N   0  0  0  0  0  0  0  0  0  0  0  0
  152.1616  141.0636  158.3968 C   0  0  0  0  0  0  0  0  0  0  0  0
  151.7175  140.1270  157.4448 N   0  0  0  0  0  0  0  0  0  0  0  0
  151.5173  140.5020  156.0480 C   0  0  2  0  0  0  0  0  0  0  0  0
  150.4232  141.5564  155.8640 C   0  0  0  0  0  0  0  0  0  0  0  0
  149.5090  140.8863  154.8283 C   0  0  2  0  0  0  0  0  0  0  0  0
  148.6743  139.7629  155.4565 C   0  0  0  0  0  0  0  0  0  0  0  0
  149.7281  138.6793  155.6762 C   0  0  0  0  0  0  0  0  0  0  0  0
  151.0014  139.3614  155.1469 C   0  0  1  0  0  0  0  0  0  0  0  0
  150.4494  140.1258  154.0882 O   0  0  0  0  0  0  0  0  0  0  0  0
  151.8799  142.3675  158.1639 N   0  0  0  0  0  0  0  0  0  0  0  0
  152.1777  145.3953  159.5537 H   0  0  0  0  0  0  0  0  0  0  0  0
  150.8742  144.8245  158.5088 H   0  0  0  0  0  0  0  0  0  0  0  0
  152.4977  145.0613  157.8482 H   0  0  0  0  0  0  0  0  0  0  0  0
  153.3015  143.7472  160.9138 H   0  0  0  0  0  0  0  0  0  0  0  0
  154.9918  140.7567  161.5078 H   0  0  0  0  0  0  0  0  0  0  0  0
  153.4607  140.5950  162.3823 H   0  0  0  0  0  0  0  0  0  0  0  0
  154.2965  142.1467  162.3383 H   0  0  0  0  0  0  0  0  0  0  0  0
  151.8158  139.1444  157.6567 H   0  0  0  0  0  0  0  0  0  0  0  0
  152.4493  140.8973  155.6413 H   0  0  0  0  0  0  0  0  0  0  0  0
  149.8873  141.8008  156.7825 H   0  0  0  0  0  0  0  0  0  0  0  0
  150.8512  142.4778  155.4680 H   0  0  0  0  0  0  0  0  0  0  0  0
  148.9267  141.5887  154.2314 H   0  0  0  0  0  0  0  0  0  0  0  0
  148.1864  140.0740  156.3808 H   0  0  0  0  0  0  0  0  0  0  0  0
  147.9068  139.4149  154.7642 H   0  0  0  0  0  0  0  0  0  0  0  0
  149.8090  138.3677  156.7178 H   0  0  0  0  0  0  0  0  0  0  0  0
  149.4927  137.7965  155.0809 H   0  0  0  0  0  0  0  0  0  0  0  0
  151.7756  138.6620  154.8305 H   0  0  0  0  0  0  0  0  0  0  0  0
  1  2  1  0  0  0  0
  1 19  1  0  0  0  0
  1 20  1  0  0  0  0
  1 21  1  0  0  0  0
  2 18  1  0  0  0  0
  2  3  2  0  0  0  0
  3  4  1  0  0  0  0
  3 22  1  0  0  0  0
  4  5  1  0  0  0  0
  4  6  2  0  0  0  0
  5 23  1  0  0  0  0
  5 24  1  0  0  0  0
  5 25  1  0  0  0  0
  6  7  1  0  0  0  0
  6  9  1  0  0  0  0
  7  8  3  0  0  0  0
  9 10  1  0  0  0  0
  9 18  2  0  0  0  0
 10 11  1  0  0  0  0
 10 26  1  0  0  0  0
 11 16  1  0  0  0  0
 11 12  1  0  0  0  0
 11 27  1  0  0  0  0
 12 13  1  0  0  0  0
 12 28  1  0  0  0  0
 12 29  1  0  0  0  0
 13 17  1  0  0  0  0
 13 14  1  0  0  0  0
 13 30  1  0  0  0  0
 14 15  1  0  0  0  0
 14 31  1  0  0  0  0
 14 32  1  0  0  0  0
 15 16  1  0  0  0  0
 15 33  1  0  0  0  0
 15 34  1  0  0  0  0
 16 17  1  0  0  0  0
 16 35  1  0  0  0  0
M  END
> <s_m_source_file>
AV-unprocessed.smi

> <i_m_source_file_index>
897

> <i_lp_mmshare_version>
43012

> <i_f3d_flags>
0

> <s_epik_input>
W0NIM11jMVtjSF1jKFtDSDNdKWMoQyNOKWMobjEpW05IXVtDQEhdKFtDSDJdW0NAQEhdMjMpW0NAQEhdKE8zKVtDSDJdW0NIMl0y

> <s_epik_cmdline>
J2VwaWtfcHl0aG9uJywgJy1waCcsICc3LjAnLCAnLXRuJywgJzgnLCAnLW1hJywgJzIwMCcsICctbWV0YWxfYmluZGluZycsICctaW1hZScsICc8aW5maWxlLm1hZT4nLCAnLW9tYWUnLCAnPG91dGZpbGUubWFlPic=

> <r_lp_tautomer_probability>
1

> <r_epik_Ionization_Penalty>
0.000502654

> <r_epik_Ionization_Penalty_Charging>
0

> <r_epik_Ionization_Penalty_Neutral>
0.000502654

> <r_epik_State_Penalty>
-0

> <r_epik_Charging_Adjusted_Penalty>
0

> <i_epik_Tot_Q>
0

> <i_epik_Tot_abs_Q>
0

> <r_epik_Metal_State_Penalty>
-0

> <b_epik_Metal_Only>
0

> <s_lp_Force_Field>
OPLS_2005

> <r_lp_Energy>
43.9229

> <b_lp_Chiralities_Consistent>
1

> <s_lp_Variant>
AV-unprocessed.smi:897-3

> <Gold.Version>
5.8.1

> <Gold.Id.Protein>
6NUR|6NUR_protein|mol2

> <Gold.PLP.Fitness>
42.2389

> <Gold.PLP.PLP>
-39.5404

> <Gold.PLP.part.hbond>
-0.7788

> <Gold.PLP.part.metal>
0.0000

> <Gold.PLP.part.buried>
-5.0912

> <Gold.PLP.part.nonpolar>
-34.6691

> <Gold.PLP.part.repulsive>
0.7665

> <Gold.PLP.ligand.clash>
0.0000

> <Gold.PLP.ligand.torsion>
0.1558

> <Gold.PLP.Chemscore.Hbond>
1.0000

> <Gold.PLP.Chemscore.CHOScore>
0.0000

> <Gold.PLP.Chemscore.Metal>
0.0000

> <Gold.Chemscore.Hbonds>
donor molecule, donor type, donor heavy atom, donor atom, acceptor molecule, acceptor atom, score
      P1  H  7989  7998       L1    17  0.94

> <Gold.PLP.Chemscore.Internal.Correction>
0.0101

> <Gold.Rescore>
     Score         DG    S(hbond)    S(metal)    S(lipo)     H(rot)  DE(clash)    DE(int)     intcor
     16.31     -17.73       0.87        0.00     101.62       1.00       0.02       1.39       ----

> <Gold.Chemscore.Fitness>
16.3096

> <Gold.Chemscore.DG>
-17.7273

> <Gold.Chemscore.ZeroCoef>
-5.4800

> <Gold.Chemscore.Hbond>
0.8736

> <Gold.Chemscore.Metal>
0.0000

> <Gold.Chemscore.Lipo>
101.6203

> <Gold.Chemscore.Internal_Hbond>
0.0000

> <Gold.Chemscore.DEClash>
0.0237

> <Gold.Chemscore.DEInternal>
1.3940

> <Gold.Chemscore.Rot>
1.0000

> <Gold.Chemscore.Internal.Correction>
   9.000000E+99

> <Gold.Chemscore.Hbonds>
donor molecule, donor type, donor heavy atom, donor atom, acceptor molecule, acceptor atom, score
      P1  H  7989  7998       L1    17  0.46

> <Gold.Chemscore.Hbond.Weighted>
-2.9178

> <Gold.Chemscore.Metal.Weighted>
-0.0000

> <Gold.Chemscore.Lipo.Weighted>
-11.8896

> <Gold.Chemscore.Internal_Hbond.Weighted>
0.0000

> <Gold.Chemscore.DEClash.Weighted>
0.0237

> <Gold.Chemscore.DEInternal.Weighted>
1.3940

> <Gold.Chemscore.Rot.Weighted>
2.5600

> <Gold.Chemscore.Internal.Correction.Weighted>
   9.000000E+99

> <Gold.Protein.RotatedTorsions>
[ 6907 6896 6895 6894 ] final  -48.21 input  -60.11 | X-H torsion
[ 7974 7965 7964 7962 ] final   -0.12 input  175.53 | X-H torsion
[ 8008 7997 7996 7995 ] final  116.81 input   59.86 | X-H torsion
[ 10167 10162 10161 10158 ] final   25.37 input  -65.29 | X-H torsion
[ 10718 10713 10712 10709 ] final  -49.08 input   66.30 | X-H torsion
[ 10763 10752 10751 10750 ] final  -95.94 input  -60.55 | X-H torsion
[ 11005 11000 10999 10996 ] final -178.01 input  -57.11 | X-H torsion

> <Gold.Protein.ActiveResidues>
 VAL166  LYS551  ARG553  GLY616  TRP617  ASP618  TYR619  PRO620  LYS621  CYS622 
 ASP623  PHE694  ASN695  SER759  ASP760  ASP761  ALA762  ILE779  LEU786  VAL792 
 PHE793  MET794  SER795  GLU796  ALA797  LYS798  CYS799  TRP800  GLU811  SER814 

> <Gold.Protein.RotatedAtoms>
  150.8929  134.8334  159.7305 H   0  0  0  0  0  0  0  0  0  0  0  0  # atno 6907 bound_to 6896
  152.4847  134.4621  159.9618 H   0  0  0  0  0  0  0  0  0  0  0  0  # atno 6908 bound_to 6896
  151.4681  133.3537  159.2854 H   0  0  0  0  0  0  0  0  0  0  0  0  # atno 6909 bound_to 6896
  146.2430  140.1222  142.8340 H   0  0  0  0  0  0  0  0  0  0  0  0  # atno 7974 bound_to 7965
  156.2459  140.2910  156.0580 H   0  0  0  0  0  0  0  0  0  0  0  0  # atno 8008 bound_to 7997
  155.1807  140.0404  157.2899 H   0  0  0  0  0  0  0  0  0  0  0  0  # atno 8009 bound_to 7997
  154.6261  140.2488  155.7496 H   0  0  0  0  0  0  0  0  0  0  0  0  # atno 8010 bound_to 7997
  140.5112  144.0158  150.6373 H   0  0  0  0  0  0  0  0  0  0  0  0  # atno 10167 bound_to 10162
  156.1927  130.4153  149.9349 H   0  0  0  0  0  0  0  0  0  0  0  0  # atno 10718 bound_to 10713
  154.7195  135.5102  153.8789 H   0  0  0  0  0  0  0  0  0  0  0  0  # atno 10763 bound_to 10752
  153.0849  135.6642  153.9978 H   0  0  0  0  0  0  0  0  0  0  0  0  # atno 10764 bound_to 10752
  153.9803  135.3029  155.3400 H   0  0  0  0  0  0  0  0  0  0  0  0  # atno 10765 bound_to 10752
  140.4345  134.6488  157.4728 H   0  0  0  0  0  0  0  0  0  0  0  0  # atno 11005 bound_to 11000
  145.0397  140.8935  143.5060 LP  0  0  0  0  0  0  0  0  0  0  0  0  # atno 17320 bound_to 7965
  145.1300  139.2638  143.5544 LP  0  0  0  0  0  0  0  0  0  0  0  0  # atno 17321 bound_to 7965
  140.3481  143.2979  152.0517 LP  0  0  0  0  0  0  0  0  0  0  0  0  # atno 17342 bound_to 10162
  139.4896  144.6394  151.6908 LP  0  0  0  0  0  0  0  0  0  0  0  0  # atno 17343 bound_to 10162
  156.7084  130.8960  151.3607 LP  0  0  0  0  0  0  0  0  0  0  0  0  # atno 17370 bound_to 10713
  157.6939  130.9261  150.0589 LP  0  0  0  0  0  0  0  0  0  0  0  0  # atno 17371 bound_to 10713
  140.0111  134.6689  155.9379 LP  0  0  0  0  0  0  0  0  0  0  0  0  # atno 17394 bound_to 11000
  141.1731  133.6538  156.4727 LP  0  0  0  0  0  0  0  0  0  0  0  0  # atno 17395 bound_to 11000

$$$$
