#       Name:                AV-unprocessed.smi:2525
#       Creating user name   scv26
#       Creation time:       Fri Mar 27 13:56:44 2020


#       File generated by GOLD software.
#

@<TRIPOS>MOLECULE
AV-unprocessed.smi:2525
    50    51     1
SMALL
NO_CHARGES


@<TRIPOS>ATOM
      1 ****        -0.1774   1.5849   1.8290 C.3            1 S1                 0.0000
      2 ****        -0.2405   0.1088   1.4025 C.3            1 S1                 0.0000
      3 ****        -1.2915  -0.2235   0.3096 C.3            1 S1                 0.0000
      4 ****        -2.6980   0.1052   0.8689 C.3            1 S1                 0.0000
      5 ****        -3.1173  -0.6890   2.1178 C.3            1 S1                 0.0000
      6 ****        -1.0429   0.3433  -1.1210 C.3            1 S1                 0.0000
      7 ****         0.3700   0.5866  -1.4127 N.am           1 S1                 0.0000
      8 ****         0.9110   1.7674  -1.7442 C.2            1 S1                 0.0000
      9 ****         0.2540   2.7891  -1.9392 O.2            1 S1                 0.0000
     10 ****         2.4365   1.8040  -1.8427 C.3            1 S1                 0.0000
     11 ****         3.0434   1.5363  -0.5496 N.pl3          1 S1                 0.0000
     12 ****         3.2563   2.4101   0.4969 C.2            1 S1                 0.0000
     13 ****         3.8204   1.6224   1.4591 C.2            1 S1                 0.0000
     14 ****         3.9265   0.3227   0.9671 N.2            1 S1                 0.0000
     15 ****         3.4595   0.2838  -0.2411 N.2            1 S1                 0.0000
     16 ****        -1.5167  -0.9948  -1.7121 C.3            1 S1                 0.0000
     17 ****        -0.9164  -1.5634  -2.9967 C.3            1 S1                 0.0000
     18 ****        -1.1923  -1.6309  -0.3506 C.3            1 S1                 0.0000
     19 ****         0.1218  -2.1783  -0.3558 O.3            1 S1                 0.0000
     20 ****         0.3287  -3.1382   0.6663 C.3            1 S1                 0.0000
     21 ****         0.6755   1.7543   2.4863 H              1 S1                 0.0000
     22 ****        -1.0690   1.8873   2.3771 H              1 S1                 0.0000
     23 ****        -0.0674   2.2493   0.9731 H              1 S1                 0.0000
     24 ****         0.7568  -0.1698   1.0628 H              1 S1                 0.0000
     25 ****        -0.3953  -0.5052   2.2883 H              1 S1                 0.0000
     26 ****        -2.7906   1.1710   1.0753 H              1 S1                 0.0000
     27 ****        -3.4518  -0.0827   0.1046 H              1 S1                 0.0000
     28 ****        -4.1607  -0.4890   2.3621 H              1 S1                 0.0000
     29 ****        -2.5290  -0.4141   2.9925 H              1 S1                 0.0000
     30 ****        -3.0173  -1.7634   1.9667 H              1 S1                 0.0000
     31 ****        -1.7037   1.1727  -1.3793 H              1 S1                 0.0000
     32 ****         0.9944  -0.1962  -1.2798 H              1 S1                 0.0000
     33 ****         2.7810   1.0682  -2.5711 H              1 S1                 0.0000
     34 ****         2.7677   2.7838  -2.1891 H              1 S1                 0.0000
     35 ****         2.9930   3.4572   0.4677 H              1 S1                 0.0000
     36 ****         4.1515   1.8780   2.4550 H              1 S1                 0.0000
     37 ****        -2.6017  -0.9506  -1.8191 H              1 S1                 0.0000
     38 ****         0.1661  -1.6731  -2.9330 H              1 S1                 0.0000
     39 ****        -1.1309  -0.9178  -3.8483 H              1 S1                 0.0000
     40 ****        -1.3292  -2.5474  -3.2185 H              1 S1                 0.0000
     41 ****        -1.9567  -2.3470  -0.0444 H              1 S1                 0.0000
     42 ****         1.3624  -3.4822   0.6398 H              1 S1                 0.0000
     43 ****        -0.3175  -4.0050   0.5229 H              1 S1                 0.0000
     44 ****         0.1371  -2.7232   1.6556 H              1 S1                 0.0000
     45 ****        -0.7420   2.7672  -1.8526 LP             1 S1                 0.0000
     46 ****         0.7160   3.6414  -2.1843 LP             1 S1                 0.0000
     47 ****         4.3035  -0.4568   1.4675 LP             1 S1                 0.0000
     48 ****         3.4146  -0.5198  -0.8346 LP             1 S1                 0.0000
     49 ****         0.7772  -1.4336  -0.2303 LP             1 S1                 0.0000
     50 ****         0.2805  -2.6164  -1.2406 LP             1 S1                 0.0000
@<TRIPOS>BOND
    1    1    2 1     
    2    1   21 1     
    3    1   22 1     
    4    1   23 1     
    5    2    3 1     
    6    2   24 1     
    7    2   25 1     
    8    3   18 1     
    9    3    4 1     
   10    3    6 1     
   11    4    5 1     
   12    4   26 1     
   13    4   27 1     
   14    5   28 1     
   15    5   29 1     
   16    5   30 1     
   17    6    7 1     
   18    6   16 1     
   19    6   31 1     
   20    7    8 am    
   21    7   32 1     
   22    8    9 2     
   23    8   10 1     
   24   10   11 1     
   25   10   33 1     
   26   10   34 1     
   27   11   15 1     
   28   11   12 1     
   29   12   13 2     
   30   12   35 1     
   31   13   14 1     
   32   13   36 1     
   33   14   15 2     
   34   16   17 1     
   35   16   18 1     
   36   16   37 1     
   37   17   38 1     
   38   17   39 1     
   39   17   40 1     
   40   18   19 1     
   41   18   41 1     
   42   19   20 1     
   43   20   42 1     
   44   20   43 1     
   45   20   44 1     
   46    9   45 1     
   47    9   46 1     
   48   14   47 1     
   49   15   48 1     
   50   19   49 1     
   51   19   50 1     
@<TRIPOS>SUBSTRUCTURE
      1 S1             1
@<TRIPOS>SET
LONE_PAIRS      STATIC     ATOMS    <user>   **** ""
6 45 46 47 48 49 50
DONOR_HYDROGENS      STATIC     ATOMS    <user>   **** ""
1 32
ATOM$BLUE        STATIC     ATOMS    COLORGROUP SYSTEM
6 45 46 47 48 49 50
ATOM$RED        STATIC     ATOMS    COLORGROUP SYSTEM
1 32
