AV-unprocessed.smi:1897|AV-procd|sdf|7688|dock2
  -GOLD-   22720 9423D 1   1.00000     0.00000
 Structure written by MMmdl.
 39 41  0  0  0  0  0  0  0  0  2 V2000
  151.4462  140.7328  155.8745 C   0  0  0  0  0  0  0  0  0  0  0  0
  151.3817  139.2772  155.5609 C   0  0  0  0  0  0  0  0  0  0  0  0
  152.3089  138.4052  155.9751 N   0  0  0  0  0  0  0  0  0  0  0  0
  152.0387  137.1119  155.5537 N   0  0  0  0  0  0  0  0  0  0  0  0
  150.9042  137.0406  154.8418 C   0  0  0  0  0  0  0  0  0  0  0  0
  150.3936  135.8436  154.2605 N   0  0  0  0  0  0  0  0  0  0  0  0
  149.7704  134.7838  154.8173 C   0  0  0  0  0  0  0  0  0  0  0  0
  149.5530  134.7360  156.0266 O   0  0  0  0  0  0  0  0  0  0  0  0
  149.4100  133.8020  153.9737 N   0  0  0  0  0  0  0  0  0  0  0  0
  148.6729  132.5922  154.3303 C   0  0  2  0  0  0  0  0  0  0  0  0
  149.5147  131.3121  154.1615 C   0  0  0  0  0  0  0  0  0  0  0  0
  148.5685  130.3047  153.4999 C   0  0  0  0  0  0  0  0  0  0  0  0
  147.7083  131.1564  152.6704 N   0  3  1  0  0  0  0  0  0  0  0  0
  146.4997  130.5597  152.0663 C   0  0  0  0  0  0  0  0  0  0  0  0
  145.8689  131.5942  151.1100 C   0  0  0  0  0  0  0  0  0  0  0  0
  145.6311  132.9579  151.7973 C   0  0  0  0  0  0  0  0  0  0  0  0
  146.8996  133.4655  152.5164 C   0  0  0  0  0  0  0  0  0  0  0  0
  147.4144  132.3639  153.4611 C   0  0  2  0  0  0  0  0  0  0  0  0
  150.0831  138.5741  154.6044 S   0  0  0  0  0  0  0  0  0  0  0  0
  151.9989  140.9003  156.7995 H   0  0  0  0  0  0  0  0  0  0  0  0
  150.4408  141.1371  155.9925 H   0  0  0  0  0  0  0  0  0  0  0  0
  151.9462  141.2652  155.0651 H   0  0  0  0  0  0  0  0  0  0  0  0
  150.6098  135.7346  153.2801 H   0  0  0  0  0  0  0  0  0  0  0  0
  149.6373  133.9231  152.9968 H   0  0  0  0  0  0  0  0  0  0  0  0
  148.3620  132.6548  155.3752 H   0  0  0  0  0  0  0  0  0  0  0  0
  150.3603  131.4992  153.4973 H   0  0  0  0  0  0  0  0  0  0  0  0
  149.9159  130.9461  155.1071 H   0  0  0  0  0  0  0  0  0  0  0  0
  149.0959  129.5560  152.9079 H   0  0  0  0  0  0  0  0  0  0  0  0
  147.9652  129.7920  154.2509 H   0  0  0  0  0  0  0  0  0  0  0  0
  146.7695  129.6558  151.5187 H   0  0  0  0  0  0  0  0  0  0  0  0
  145.7944  130.2690  152.8462 H   0  0  0  0  0  0  0  0  0  0  0  0
  146.5305  131.7388  150.2546 H   0  0  0  0  0  0  0  0  0  0  0  0
  144.9308  131.2092  150.7088 H   0  0  0  0  0  0  0  0  0  0  0  0
  145.2955  133.6931  151.0654 H   0  0  0  0  0  0  0  0  0  0  0  0
  144.8228  132.8571  152.5229 H   0  0  0  0  0  0  0  0  0  0  0  0
  147.6638  133.7276  151.7832 H   0  0  0  0  0  0  0  0  0  0  0  0
  146.6696  134.3729  153.0755 H   0  0  0  0  0  0  0  0  0  0  0  0
  146.6067  132.1134  154.1526 H   0  0  0  0  0  0  0  0  0  0  0  0
  148.2913  131.4614  151.9041 H   0  0  0  0  0  0  0  0  0  0  0  0
  1  2  1  0  0  0  0
  1 20  1  0  0  0  0
  1 21  1  0  0  0  0
  1 22  1  0  0  0  0
  2 19  1  0  0  0  0
  2  3  2  0  0  0  0
  3  4  1  0  0  0  0
  4  5  2  0  0  0  0
  5  6  1  0  0  0  0
  5 19  1  0  0  0  0
  6  7  1  0  0  0  0
  6 23  1  0  0  0  0
  7  8  2  0  0  0  0
  7  9  1  0  0  0  0
  9 10  1  0  0  0  0
  9 24  1  0  0  0  0
 10 18  1  0  0  0  0
 10 11  1  0  0  0  0
 10 25  1  0  0  0  0
 11 12  1  0  0  0  0
 11 26  1  0  0  0  0
 11 27  1  0  0  0  0
 12 13  1  0  0  0  0
 12 28  1  0  0  0  0
 12 29  1  0  0  0  0
 13 18  1  0  0  0  0
 13 14  1  0  0  0  0
 13 39  1  0  0  0  0
 14 15  1  0  0  0  0
 14 30  1  0  0  0  0
 14 31  1  0  0  0  0
 15 16  1  0  0  0  0
 15 32  1  0  0  0  0
 15 33  1  0  0  0  0
 16 17  1  0  0  0  0
 16 34  1  0  0  0  0
 16 35  1  0  0  0  0
 17 18  1  0  0  0  0
 17 36  1  0  0  0  0
 17 37  1  0  0  0  0
 18 38  1  0  0  0  0
M  CHG  1  13   1
M  END
> <s_m_source_file>
AV-unprocessed.smi

> <i_m_source_file_index>
1897

> <i_lp_mmshare_version>
43012

> <i_f3d_flags>
0

> <s_epik_input>
W0NIM11jMW5uYyhzMSlbTkhdQyg9TylbTkhdW0NASF0oW0NIMl1bQ0gyXTIpW0NAQEhdKE4yMylbQ0gyXVtDSDJdW0NIMl1bQ0gyXTM=

> <s_epik_cmdline>
J2VwaWtfcHl0aG9uJywgJy1waCcsICc3LjAnLCAnLXRuJywgJzgnLCAnLW1hJywgJzIwMCcsICctbWV0YWxfYmluZGluZycsICctaW1hZScsICc8aW5maWxlLm1hZT4nLCAnLW9tYWUnLCAnPG91dGZpbGUubWFlPic=

> <r_lp_tautomer_probability>
1

> <r_epik_Ionization_Penalty>
0.00228891

> <r_epik_Ionization_Penalty_Charging>
0.00107044

> <r_epik_Ionization_Penalty_Neutral>
0.00121847

> <r_epik_State_Penalty>
-0

> <r_epik_Charging_Adjusted_Penalty>
0.00107044

> <i_epik_Tot_Q>
1

> <i_epik_Tot_abs_Q>
1

> <r_epik_Metal_State_Penalty>
0.304057

> <b_epik_Metal_Only>
0

> <s_lp_Force_Field>
OPLS_2005

> <r_lp_Energy>
42.5593

> <b_lp_Chiralities_Consistent>
1

> <s_lp_Variant>
AV-unprocessed.smi:1897-5

> <Gold.Version>
5.8.1

> <Gold.Id.Protein>
6NUR|6NUR_protein|mol2

> <Gold.PLP.Fitness>
37.1524

> <Gold.PLP.PLP>
-32.3483

> <Gold.PLP.part.hbond>
-4.3363

> <Gold.PLP.part.metal>
0.0000

> <Gold.PLP.part.buried>
-1.8861

> <Gold.PLP.part.nonpolar>
-25.6062

> <Gold.PLP.part.repulsive>
0.1676

> <Gold.PLP.ligand.clash>
0.0000

> <Gold.PLP.ligand.torsion>
0.7365

> <Gold.PLP.Chemscore.Hbond>
2.0920

> <Gold.PLP.Chemscore.CHOScore>
0.0000

> <Gold.PLP.Chemscore.Metal>
0.0000

> <Gold.Chemscore.Hbonds>
donor molecule, donor type, donor heavy atom, donor atom, acceptor molecule, acceptor atom, score
      L1  H     6    23       P1  7949  0.25
      L1  H    13    39       P1 10747  0.82
      P1  H 10752 10765       L1     4  0.96

> <Gold.PLP.Chemscore.Internal.Correction>
0.0011

> <Gold.Rescore>
     Score         DG    S(hbond)    S(metal)    S(lipo)     H(rot)  DE(clash)    DE(int)     intcor
     16.15     -17.46       1.90        0.00      70.13       1.00       0.56       0.75       ----

> <Gold.Chemscore.Fitness>
16.1485

> <Gold.Chemscore.DG>
-17.4609

> <Gold.Chemscore.ZeroCoef>
-5.4800

> <Gold.Chemscore.Hbond>
1.8970

> <Gold.Chemscore.Metal>
0.0000

> <Gold.Chemscore.Lipo>
70.1284

> <Gold.Chemscore.Internal_Hbond>
0.0000

> <Gold.Chemscore.DEClash>
0.5635

> <Gold.Chemscore.DEInternal>
0.7489

> <Gold.Chemscore.Rot>
1.0000

> <Gold.Chemscore.Internal.Correction>
   9.000000E+99

> <Gold.Chemscore.Hbonds>
donor molecule, donor type, donor heavy atom, donor atom, acceptor molecule, acceptor atom, score
      L1  H    13    39       P1 10747  0.81
      P1  H 10752 10765       L1     4  0.27

> <Gold.Chemscore.Hbond.Weighted>
-6.3359

> <Gold.Chemscore.Metal.Weighted>
-0.0000

> <Gold.Chemscore.Lipo.Weighted>
-8.2050

> <Gold.Chemscore.Internal_Hbond.Weighted>
0.0000

> <Gold.Chemscore.DEClash.Weighted>
0.5635

> <Gold.Chemscore.DEInternal.Weighted>
0.7489

> <Gold.Chemscore.Rot.Weighted>
2.5600

> <Gold.Chemscore.Internal.Correction.Weighted>
   9.000000E+99

> <Gold.Protein.RotatedTorsions>
[ 6907 6896 6895 6894 ] final   19.23 input  -60.11 | X-H torsion
[ 7974 7965 7964 7962 ] final   -7.26 input  175.53 | X-H torsion
[ 8008 7997 7996 7995 ] final  121.80 input   59.86 | X-H torsion
[ 10167 10162 10161 10158 ] final   14.37 input  -65.29 | X-H torsion
[ 10718 10713 10712 10709 ] final  118.63 input   66.30 | X-H torsion
[ 10763 10752 10751 10750 ] final -164.11 input  -60.55 | X-H torsion
[ 11005 11000 10999 10996 ] final   97.46 input  -57.11 | X-H torsion

> <Gold.Protein.ActiveResidues>
 VAL166  LYS551  ARG553  GLY616  TRP617  ASP618  TYR619  PRO620  LYS621  CYS622 
 ASP623  PHE694  ASN695  SER759  ASP760  ASP761  ALA762  ILE779  LEU786  VAL792 
 PHE793  MET794  SER795  GLU796  ALA797  LYS798  CYS799  TRP800  GLU811  SER814 

> <Gold.Protein.RotatedAtoms>
  151.8777  135.0465  160.0485 H   0  0  0  0  0  0  0  0  0  0  0  0  # atno 6907 bound_to 6896
  152.2538  133.5233  159.5349 H   0  0  0  0  0  0  0  0  0  0  0  0  # atno 6908 bound_to 6896
  150.7093  134.0840  159.3950 H   0  0  0  0  0  0  0  0  0  0  0  0  # atno 6909 bound_to 6896
  146.2311  140.2293  142.8339 H   0  0  0  0  0  0  0  0  0  0  0  0  # atno 7974 bound_to 7965
  156.2701  140.2800  156.1365 H   0  0  0  0  0  0  0  0  0  0  0  0  # atno 8008 bound_to 7997
  155.0998  140.0389  157.2711 H   0  0  0  0  0  0  0  0  0  0  0  0  # atno 8009 bound_to 7997
  154.6824  140.2611  155.6901 H   0  0  0  0  0  0  0  0  0  0  0  0  # atno 8010 bound_to 7997
  140.5940  143.8739  150.6900 H   0  0  0  0  0  0  0  0  0  0  0  0  # atno 10167 bound_to 10162
  157.6017  131.1050  150.7783 H   0  0  0  0  0  0  0  0  0  0  0  0  # atno 10718 bound_to 10713
  154.7059  135.2997  154.9271 H   0  0  0  0  0  0  0  0  0  0  0  0  # atno 10763 bound_to 10752
  154.0188  135.6685  153.4775 H   0  0  0  0  0  0  0  0  0  0  0  0  # atno 10764 bound_to 10752
  153.0717  135.5057  154.8229 H   0  0  0  0  0  0  0  0  0  0  0  0  # atno 10765 bound_to 10752
  139.8776  134.9002  156.4310 H   0  0  0  0  0  0  0  0  0  0  0  0  # atno 11005 bound_to 11000
  144.9570  140.8237  143.5537 LP  0  0  0  0  0  0  0  0  0  0  0  0  # atno 17320 bound_to 7965
  145.2260  139.2137  143.5068 LP  0  0  0  0  0  0  0  0  0  0  0  0  # atno 17321 bound_to 7965
  140.2269  143.3766  152.1597 LP  0  0  0  0  0  0  0  0  0  0  0  0  # atno 17342 bound_to 10162
  139.5246  144.7085  151.5279 LP  0  0  0  0  0  0  0  0  0  0  0  0  # atno 17343 bound_to 10162
  156.8181  130.4974  149.5347 LP  0  0  0  0  0  0  0  0  0  0  0  0  # atno 17370 bound_to 10713
  156.1092  130.6027  151.0020 LP  0  0  0  0  0  0  0  0  0  0  0  0  # atno 17371 bound_to 10713
  140.9066  133.7741  155.9743 LP  0  0  0  0  0  0  0  0  0  0  0  0  # atno 17394 bound_to 11000
  140.8592  134.2861  157.5242 LP  0  0  0  0  0  0  0  0  0  0  0  0  # atno 17395 bound_to 11000

$$$$
