AV-unprocessed.smi:2198|AV-procd|sdf|8916|dock3
  -GOLD-   2272012133D 1   1.00000     0.00000
 Structure written by MMmdl.
 43 44  0  0  0  0  0  0  0  0  1 V2000
  146.6152  138.6638  151.7397 C   0  0  0  0  0  0  0  0  0  0  0  0
  146.9074  139.4253  153.0142 C   0  0  0  0  0  0  0  0  0  0  0  0
  146.6590  140.7847  152.9204 N   0  0  0  0  0  0  0  0  0  0  0  0
  146.9030  141.5659  154.0360 C   0  0  0  0  0  0  0  0  0  0  0  0
  146.6089  143.0439  153.8484 C   0  0  0  0  0  0  0  0  0  0  0  0
  147.3639  141.0187  155.1895 C   0  0  0  0  0  0  0  0  0  0  0  0
  147.6419  141.8448  156.4451 C   0  0  0  0  0  0  0  0  0  0  0  0
  149.0661  141.7738  157.0031 C   0  0  0  0  0  0  0  0  0  0  0  0
  149.5022  140.7272  157.4835 O   0  0  0  0  0  0  0  0  0  0  0  0
  149.7787  142.9084  156.9380 N   0  0  0  0  0  0  0  0  0  0  0  0
  151.1426  143.0780  157.4303 C   0  0  1  0  0  0  0  0  0  0  0  0
  151.4493  144.5774  157.5956 C   0  0  0  0  0  0  0  0  0  0  0  0
  152.8550  144.8011  158.1742 C   0  0  0  0  0  0  0  0  0  0  0  0
  153.0367  144.0530  159.5041 C   0  0  0  0  0  0  0  0  0  0  0  0
  152.7427  142.5485  159.3501 C   0  0  1  0  0  0  0  0  0  0  0  0
  152.9188  141.8016  160.6801 C   0  0  0  0  0  0  0  0  0  0  0  0
  151.3330  142.3308  158.7668 C   0  0  0  0  0  0  0  0  0  0  0  0
  147.5986  139.5561  155.2329 C   0  0  0  0  0  0  0  0  0  0  0  0
  147.9990  138.9981  156.2538 O   0  0  0  0  0  0  0  0  0  0  0  0
  147.3459  138.8101  154.0702 N   0  0  0  0  0  0  0  0  0  0  0  0
  146.3119  141.2321  152.0844 H   0  0  0  0  0  0  0  0  0  0  0  0
  146.9803  137.6382  151.8066 H   0  0  0  0  0  0  0  0  0  0  0  0
  147.1001  139.1417  150.8880 H   0  0  0  0  0  0  0  0  0  0  0  0
  145.5408  138.6333  151.5557 H   0  0  0  0  0  0  0  0  0  0  0  0
  147.5189  143.6314  153.9704 H   0  0  0  0  0  0  0  0  0  0  0  0
  145.8776  143.3838  154.5820 H   0  0  0  0  0  0  0  0  0  0  0  0
  146.2072  143.2512  152.8559 H   0  0  0  0  0  0  0  0  0  0  0  0
  146.9609  141.5159  157.2304 H   0  0  0  0  0  0  0  0  0  0  0  0
  147.3868  142.8917  156.2776 H   0  0  0  0  0  0  0  0  0  0  0  0
  149.3407  143.7186  156.5243 H   0  0  0  0  0  0  0  0  0  0  0  0
  151.8383  142.6692  156.6946 H   0  0  0  0  0  0  0  0  0  0  0  0
  151.3631  145.0852  156.6341 H   0  0  0  0  0  0  0  0  0  0  0  0
  150.7113  145.0363  158.2555 H   0  0  0  0  0  0  0  0  0  0  0  0
  153.6039  144.4607  157.4580 H   0  0  0  0  0  0  0  0  0  0  0  0
  153.0301  145.8671  158.3207 H   0  0  0  0  0  0  0  0  0  0  0  0
  154.0540  144.1997  159.8688 H   0  0  0  0  0  0  0  0  0  0  0  0
  152.3742  144.4838  160.2563 H   0  0  0  0  0  0  0  0  0  0  0  0
  153.4647  142.1355  158.6441 H   0  0  0  0  0  0  0  0  0  0  0  0
  152.2227  142.1678  161.4355 H   0  0  0  0  0  0  0  0  0  0  0  0
  153.9294  141.9253  161.0700 H   0  0  0  0  0  0  0  0  0  0  0  0
  152.7430  140.7329  160.5555 H   0  0  0  0  0  0  0  0  0  0  0  0
  150.5851  142.6693  159.4858 H   0  0  0  0  0  0  0  0  0  0  0  0
  151.1590  141.2637  158.6228 H   0  0  0  0  0  0  0  0  0  0  0  0
  1 22  1  0  0  0  0
  1 23  1  0  0  0  0
  1 24  1  0  0  0  0
  1  2  1  0  0  0  0
  2  3  1  0  0  0  0
  2 20  2  0  0  0  0
  3  4  1  0  0  0  0
  3 21  1  0  0  0  0
  4  6  2  0  0  0  0
  4  5  1  0  0  0  0
  5 25  1  0  0  0  0
  5 26  1  0  0  0  0
  5 27  1  0  0  0  0
  6 18  1  0  0  0  0
  6  7  1  0  0  0  0
  7  8  1  0  0  0  0
  7 28  1  0  0  0  0
  7 29  1  0  0  0  0
  8  9  2  0  0  0  0
  8 10  1  0  0  0  0
 10 11  1  0  0  0  0
 10 30  1  0  0  0  0
 11 17  1  0  0  0  0
 11 12  1  0  0  0  0
 11 31  1  0  0  0  0
 12 13  1  0  0  0  0
 12 32  1  0  0  0  0
 12 33  1  0  0  0  0
 13 14  1  0  0  0  0
 13 34  1  0  0  0  0
 13 35  1  0  0  0  0
 14 15  1  0  0  0  0
 14 36  1  0  0  0  0
 14 37  1  0  0  0  0
 15 16  1  0  0  0  0
 15 17  1  0  0  0  0
 15 38  1  0  0  0  0
 16 39  1  0  0  0  0
 16 40  1  0  0  0  0
 16 41  1  0  0  0  0
 17 42  1  0  0  0  0
 17 43  1  0  0  0  0
 18 19  2  0  0  0  0
 18 20  1  0  0  0  0
M  END
> <s_m_source_file>
AV-unprocessed.smi

> <i_m_source_file_index>
2198

> <i_lp_mmshare_version>
43012

> <i_f3d_flags>
0

> <s_epik_input>
W0NIM11jMW5jKFtDSDNdKWMoYyg9TylbbkhdMSlbQ0gyXUMoPU8pW05IXVtDQEBIXTJbQ0gyXVtDSDJdW0NIMl1bQ0BASF0oW0NIM10pW0NIMl0y

> <s_epik_cmdline>
J2VwaWtfcHl0aG9uJywgJy1waCcsICc3LjAnLCAnLXRuJywgJzgnLCAnLW1hJywgJzIwMCcsICctbWV0YWxfYmluZGluZycsICctaW1hZScsICc8aW5maWxlLm1hZT4nLCAnLW9tYWUnLCAnPG91dGZpbGUubWFlPic=

> <r_lp_tautomer_probability>
0.156392

> <r_epik_Ionization_Penalty>
0.0136514

> <r_epik_Ionization_Penalty_Charging>
0.0135207

> <r_epik_Ionization_Penalty_Neutral>
0.000130657

> <r_epik_State_Penalty>
1.15342

> <r_epik_Charging_Adjusted_Penalty>
1.16694

> <i_epik_Tot_Q>
0

> <i_epik_Tot_abs_Q>
0

> <r_epik_Metal_State_Penalty>
1.31404

> <b_epik_Metal_Only>
0

> <s_lp_Force_Field>
OPLS_2005

> <r_lp_Energy>
13.5708

> <b_lp_Chiralities_Consistent>
1

> <s_lp_Variant>
AV-unprocessed.smi:2198-6

> <Gold.Version>
5.8.1

> <Gold.Id.Protein>
6NUR|6NUR_protein|mol2

> <Gold.PLP.Fitness>
44.6585

> <Gold.PLP.PLP>
-42.2861

> <Gold.PLP.part.hbond>
-2.0000

> <Gold.PLP.part.metal>
0.0000

> <Gold.PLP.part.buried>
-4.8564

> <Gold.PLP.part.nonpolar>
-36.8746

> <Gold.PLP.part.repulsive>
0.2219

> <Gold.PLP.ligand.clash>
0.0000

> <Gold.PLP.ligand.torsion>
0.3166

> <Gold.PLP.Chemscore.Hbond>
1.0000

> <Gold.PLP.Chemscore.CHOScore>
0.0000

> <Gold.PLP.Chemscore.Metal>
0.0000

> <Gold.Chemscore.Hbonds>
donor molecule, donor type, donor heavy atom, donor atom, acceptor molecule, acceptor atom, score
      L1  H    10    30       P1  8028  0.65

> <Gold.PLP.Chemscore.Internal.Correction>
0.0056

> <Gold.Rescore>
     Score         DG    S(hbond)    S(metal)    S(lipo)     H(rot)  DE(clash)    DE(int)     intcor
     15.35     -18.06       0.97        0.00     112.22       1.48       0.07       2.64       ----

> <Gold.Chemscore.Fitness>
15.3503

> <Gold.Chemscore.DG>
-18.0579

> <Gold.Chemscore.ZeroCoef>
-5.4800

> <Gold.Chemscore.Hbond>
0.9692

> <Gold.Chemscore.Metal>
0.0000

> <Gold.Chemscore.Lipo>
112.2207

> <Gold.Chemscore.Internal_Hbond>
0.0000

> <Gold.Chemscore.DEClash>
0.0688

> <Gold.Chemscore.DEInternal>
2.6387

> <Gold.Chemscore.Rot>
1.4801

> <Gold.Chemscore.Internal.Correction>
   9.000000E+99

> <Gold.Chemscore.Hbonds>
donor molecule, donor type, donor heavy atom, donor atom, acceptor molecule, acceptor atom, score
      L1  H    10    30       P1  8028  0.64

> <Gold.Chemscore.Hbond.Weighted>
-3.2372

> <Gold.Chemscore.Metal.Weighted>
-0.0000

> <Gold.Chemscore.Lipo.Weighted>
-13.1298

> <Gold.Chemscore.Internal_Hbond.Weighted>
0.0000

> <Gold.Chemscore.DEClash.Weighted>
0.0688

> <Gold.Chemscore.DEInternal.Weighted>
2.6387

> <Gold.Chemscore.Rot.Weighted>
3.7891

> <Gold.Chemscore.Internal.Correction.Weighted>
   9.000000E+99

> <Gold.Protein.RotatedTorsions>
[ 6907 6896 6895 6894 ] final -137.13 input  -60.11 | X-H torsion
[ 7974 7965 7964 7962 ] final   17.84 input  175.53 | X-H torsion
[ 8008 7997 7996 7995 ] final  135.30 input   59.86 | X-H torsion
[ 10167 10162 10161 10158 ] final  169.08 input  -65.29 | X-H torsion
[ 10718 10713 10712 10709 ] final  -31.40 input   66.30 | X-H torsion
[ 10763 10752 10751 10750 ] final  179.20 input  -60.55 | X-H torsion
[ 11005 11000 10999 10996 ] final   96.05 input  -57.11 | X-H torsion

> <Gold.Protein.ActiveResidues>
 VAL166  LYS551  ARG553  GLY616  TRP617  ASP618  TYR619  PRO620  LYS621  CYS622 
 ASP623  PHE694  ASN695  SER759  ASP760  ASP761  ALA762  ILE779  LEU786  VAL792 
 PHE793  MET794  SER795  GLU796  ALA797  LYS798  CYS799  TRP800  GLU811  SER814 

> <Gold.Protein.RotatedAtoms>
  151.0186  133.5898  159.2673 H   0  0  0  0  0  0  0  0  0  0  0  0  # atno 6907 bound_to 6896
  151.3023  135.0771  159.9252 H   0  0  0  0  0  0  0  0  0  0  0  0  # atno 6908 bound_to 6896
  152.5317  133.9865  159.7885 H   0  0  0  0  0  0  0  0  0  0  0  0  # atno 6909 bound_to 6896
  146.2205  139.8543  142.8616 H   0  0  0  0  0  0  0  0  0  0  0  0  # atno 7974 bound_to 7965
  156.3002  140.2474  156.3558 H   0  0  0  0  0  0  0  0  0  0  0  0  # atno 8008 bound_to 7997
  154.8923  140.0409  157.1865 H   0  0  0  0  0  0  0  0  0  0  0  0  # atno 8009 bound_to 7997
  154.8585  140.2917  155.5557 H   0  0  0  0  0  0  0  0  0  0  0  0  # atno 8010 bound_to 7997
  139.4983  144.3745  151.9689 H   0  0  0  0  0  0  0  0  0  0  0  0  # atno 10167 bound_to 10162
  156.3877  130.4367  149.7419 H   0  0  0  0  0  0  0  0  0  0  0  0  # atno 10718 bound_to 10713
  154.5176  135.2792  155.1290 H   0  0  0  0  0  0  0  0  0  0  0  0  # atno 10763 bound_to 10752
  154.2860  135.6276  153.5370 H   0  0  0  0  0  0  0  0  0  0  0  0  # atno 10764 bound_to 10752
  152.9930  135.5662  154.5657 H   0  0  0  0  0  0  0  0  0  0  0  0  # atno 10765 bound_to 10752
  139.8784  134.8931  156.4102 H   0  0  0  0  0  0  0  0  0  0  0  0  # atno 11005 bound_to 11000
  145.2769  141.0126  143.3740 LP  0  0  0  0  0  0  0  0  0  0  0  0  # atno 17320 bound_to 7965
  144.9180  139.4447  143.6555 LP  0  0  0  0  0  0  0  0  0  0  0  0  # atno 17321 bound_to 7965
  140.3181  144.3460  150.6016 LP  0  0  0  0  0  0  0  0  0  0  0  0  # atno 17342 bound_to 10162
  140.5745  143.2178  151.7540 LP  0  0  0  0  0  0  0  0  0  0  0  0  # atno 17343 bound_to 10162
  156.4485  130.7895  151.2916 LP  0  0  0  0  0  0  0  0  0  0  0  0  # atno 17370 bound_to 10713
  157.7497  131.0103  150.3300 LP  0  0  0  0  0  0  0  0  0  0  0  0  # atno 17371 bound_to 10713
  140.9206  133.7648  155.9902 LP  0  0  0  0  0  0  0  0  0  0  0  0  # atno 17394 bound_to 11000
  140.8444  134.3028  157.5301 LP  0  0  0  0  0  0  0  0  0  0  0  0  # atno 17395 bound_to 11000

$$$$
