AV-unprocessed.smi:312|AV-procd|sdf|2305|dock4
  -GOLD-   2262022203D 1   1.00000     0.00000
 Structure written by MMmdl.
 36 37  0  0  0  0  0  0  0  0  2 V2000
  150.3094  139.5197  156.0335 C   0  0  0  0  0  0  0  0  0  0  0  0
  149.8856  140.9907  156.1407 C   0  0  2  0  0  0  0  0  0  0  0  0
  149.4956  141.5621  154.7602 C   0  0  0  0  0  0  0  0  0  0  0  0
  148.0456  141.5822  154.5380 N   0  0  0  0  0  0  0  0  0  0  0  0
  147.1024  142.2503  155.2759 C   0  0  0  0  0  0  0  0  0  0  0  0
  145.8908  141.9896  154.6896 C   0  0  0  0  0  0  0  0  0  0  0  0
  146.1446  141.1689  153.6232 N   0  3  0  0  0  0  0  0  0  0  0  0
  147.4548  140.9181  153.5358 C   0  0  0  0  0  0  0  0  0  0  0  0
  150.9804  141.7542  156.7388 N   0  0  0  0  0  0  0  0  0  0  0  0
  150.9166  142.4505  157.8851 C   0  0  0  0  0  0  0  0  0  0  0  0
  149.8961  142.5276  158.5705 O   0  0  0  0  0  0  0  0  0  0  0  0
  152.1981  143.1859  158.3100 C   0  0  0  0  0  0  0  0  0  0  0  0
  152.6626  142.7771  159.7267 C   0  0  0  0  0  0  0  0  0  0  0  0
  152.4988  144.0082  160.6307 C   0  0  0  0  0  0  0  0  0  0  0  0
  151.6286  144.9900  159.8486 C   0  0  0  0  0  0  0  0  0  0  0  0
  151.9731  144.7063  158.3877 C   0  0  0  0  0  0  0  0  0  0  0  0
  149.5042  138.9080  155.6256 H   0  0  0  0  0  0  0  0  0  0  0  0
  150.5664  139.1124  157.0120 H   0  0  0  0  0  0  0  0  0  0  0  0
  151.1778  139.4015  155.3845 H   0  0  0  0  0  0  0  0  0  0  0  0
  149.0134  141.0257  156.7962 H   0  0  0  0  0  0  0  0  0  0  0  0
  149.8848  142.5736  154.6313 H   0  0  0  0  0  0  0  0  0  0  0  0
  149.9293  140.9545  153.9649 H   0  0  0  0  0  0  0  0  0  0  0  0
  147.3581  142.8526  156.1358 H   0  0  0  0  0  0  0  0  0  0  0  0
  144.8938  142.3190  154.9437 H   0  0  0  0  0  0  0  0  0  0  0  0
  147.9404  140.3096  152.7938 H   0  0  0  0  0  0  0  0  0  0  0  0
  151.8609  141.7456  156.2441 H   0  0  0  0  0  0  0  0  0  0  0  0
  152.9840  142.9701  157.5843 H   0  0  0  0  0  0  0  0  0  0  0  0
  152.0845  141.9405  160.1230 H   0  0  0  0  0  0  0  0  0  0  0  0
  153.7036  142.4526  159.7154 H   0  0  0  0  0  0  0  0  0  0  0  0
  152.0670  143.7579  161.6003 H   0  0  0  0  0  0  0  0  0  0  0  0
  153.4764  144.4561  160.8140 H   0  0  0  0  0  0  0  0  0  0  0  0
  150.5745  144.7778  160.0304 H   0  0  0  0  0  0  0  0  0  0  0  0
  151.8118  146.0274  160.1294 H   0  0  0  0  0  0  0  0  0  0  0  0
  152.8968  145.2230  158.1234 H   0  0  0  0  0  0  0  0  0  0  0  0
  151.1989  145.0667  157.7084 H   0  0  0  0  0  0  0  0  0  0  0  0
  145.4438  140.8042  152.9902 H   0  0  0  0  0  0  0  0  0  0  0  0
  1  2  1  0  0  0  0
  1 17  1  0  0  0  0
  1 18  1  0  0  0  0
  1 19  1  0  0  0  0
  2  3  1  0  0  0  0
  2  9  1  0  0  0  0
  2 20  1  0  0  0  0
  3  4  1  0  0  0  0
  3 21  1  0  0  0  0
  3 22  1  0  0  0  0
  4  8  1  0  0  0  0
  4  5  1  0  0  0  0
  5  6  2  0  0  0  0
  5 23  1  0  0  0  0
  6  7  1  0  0  0  0
  6 24  1  0  0  0  0
  7  8  2  0  0  0  0
  7 36  1  0  0  0  0
  8 25  1  0  0  0  0
  9 10  1  0  0  0  0
  9 26  1  0  0  0  0
 10 11  2  0  0  0  0
 10 12  1  0  0  0  0
 12 16  1  0  0  0  0
 12 13  1  0  0  0  0
 12 27  1  0  0  0  0
 13 14  1  0  0  0  0
 13 28  1  0  0  0  0
 13 29  1  0  0  0  0
 14 15  1  0  0  0  0
 14 30  1  0  0  0  0
 14 31  1  0  0  0  0
 15 16  1  0  0  0  0
 15 32  1  0  0  0  0
 15 33  1  0  0  0  0
 16 34  1  0  0  0  0
 16 35  1  0  0  0  0
M  CHG  1   7   1
M  END
> <s_m_source_file>
AV-unprocessed.smi

> <i_m_source_file_index>
312

> <i_lp_mmshare_version>
43012

> <i_f3d_flags>
0

> <s_epik_input>
W2NIXTFuW2NIXVtjSF1uMVtDSDJdW0NAQEhdKFtDSDNdKVtOSF1DKD1PKVtDSF0yW0NIMl1bQ0gyXVtDSDJdW0NIMl0y

> <s_epik_cmdline>
J2VwaWtfcHl0aG9uJywgJy1waCcsICc3LjAnLCAnLXRuJywgJzgnLCAnLW1hJywgJzIwMCcsICctbWV0YWxfYmluZGluZycsICctaW1hZScsICc8aW5maWxlLm1hZT4nLCAnLW9tYWUnLCAnPG91dGZpbGUubWFlPic=

> <r_lp_tautomer_probability>
1

> <r_epik_Ionization_Penalty>
0.244425

> <r_epik_Ionization_Penalty_Charging>
0

> <r_epik_Ionization_Penalty_Neutral>
0.244425

> <r_epik_State_Penalty>
0.23553

> <r_epik_Charging_Adjusted_Penalty>
0.23553

> <i_epik_Tot_Q>
1

> <i_epik_Tot_abs_Q>
1

> <r_epik_Metal_State_Penalty>
0.528799

> <b_epik_Metal_Only>
0

> <s_lp_Force_Field>
OPLS_2005

> <r_lp_Energy>
22.6864

> <b_lp_Chiralities_Consistent>
1

> <s_lp_Variant>
AV-unprocessed.smi:312-1

> <Gold.Version>
5.8.1

> <Gold.Id.Protein>
6NUR|6NUR_protein|mol2

> <Gold.PLP.Fitness>
47.2224

> <Gold.PLP.PLP>
-37.6567

> <Gold.PLP.part.hbond>
-1.0000

> <Gold.PLP.part.metal>
0.0000

> <Gold.PLP.part.buried>
-2.5297

> <Gold.PLP.part.nonpolar>
-33.2208

> <Gold.PLP.part.repulsive>
0.1969

> <Gold.PLP.ligand.clash>
0.0000

> <Gold.PLP.ligand.torsion>
0.5739

> <Gold.PLP.Chemscore.Hbond>
2.0000

> <Gold.PLP.Chemscore.CHOScore>
1.5637

> <Gold.PLP.Chemscore.Metal>
0.0000

> <Gold.Chemscore.Hbonds>
donor molecule, donor type, donor heavy atom, donor atom, acceptor molecule, acceptor atom, score
      L1  H     7    36       P1 10175  2.00
      L1  C     5    23       P1  8028  0.53
      L1  C     8    25       P1  7957  1.00

> <Gold.PLP.Chemscore.Internal.Correction>
0.0225

> <Gold.Rescore>
     Score         DG    S(hbond)    S(metal)    S(lipo)     H(rot)  DE(clash)    DE(int)     intcor
     13.77     -14.37       0.94        0.00      89.07       1.82       0.02       0.58       ----

> <Gold.Chemscore.Fitness>
13.7653

> <Gold.Chemscore.DG>
-14.3663

> <Gold.Chemscore.ZeroCoef>
-5.4800

> <Gold.Chemscore.Hbond>
0.9383

> <Gold.Chemscore.Metal>
0.0000

> <Gold.Chemscore.Lipo>
89.0656

> <Gold.Chemscore.Internal_Hbond>
0.0000

> <Gold.Chemscore.DEClash>
0.0208

> <Gold.Chemscore.DEInternal>
0.5801

> <Gold.Chemscore.Rot>
1.8235

> <Gold.Chemscore.Internal.Correction>
   9.000000E+99

> <Gold.Chemscore.Hbonds>
donor molecule, donor type, donor heavy atom, donor atom, acceptor molecule, acceptor atom, score
      L1  H     7    36       P1 10175  0.54

> <Gold.Chemscore.Hbond.Weighted>
-3.1339

> <Gold.Chemscore.Metal.Weighted>
-0.0000

> <Gold.Chemscore.Lipo.Weighted>
-10.4207

> <Gold.Chemscore.Internal_Hbond.Weighted>
0.0000

> <Gold.Chemscore.DEClash.Weighted>
0.0208

> <Gold.Chemscore.DEInternal.Weighted>
0.5801

> <Gold.Chemscore.Rot.Weighted>
4.6683

> <Gold.Chemscore.Internal.Correction.Weighted>
   9.000000E+99

> <Gold.Protein.RotatedTorsions>
[ 6907 6896 6895 6894 ] final  129.19 input  -60.11 | X-H torsion
[ 7974 7965 7964 7962 ] final -143.35 input  175.53 | X-H torsion
[ 8008 7997 7996 7995 ] final   75.00 input   59.86 | X-H torsion
[ 10167 10162 10161 10158 ] final   26.05 input  -65.29 | X-H torsion
[ 10718 10713 10712 10709 ] final  160.00 input   66.30 | X-H torsion
[ 10763 10752 10751 10750 ] final  142.31 input  -60.55 | X-H torsion
[ 11005 11000 10999 10996 ] final  159.73 input  -57.11 | X-H torsion

> <Gold.Protein.ActiveResidues>
 VAL166  LYS551  ARG553  GLY616  TRP617  ASP618  TYR619  PRO620  LYS621  CYS622 
 ASP623  PHE694  ASN695  SER759  ASP760  ASP761  ALA762  ILE779  LEU786  VAL792 
 PHE793  MET794  SER795  GLU796  ALA797  LYS798  CYS799  TRP800  GLU811  SER814 

> <Gold.Protein.RotatedAtoms>
  152.3648  133.6342  159.6041 H   0  0  0  0  0  0  0  0  0  0  0  0  # atno 6907 bound_to 6896
  150.7626  133.9366  159.3452 H   0  0  0  0  0  0  0  0  0  0  0  0  # atno 6908 bound_to 6896
  151.7199  135.0897  160.0333 H   0  0  0  0  0  0  0  0  0  0  0  0  # atno 6909 bound_to 6896
  144.8376  140.5846  143.5473 H   0  0  0  0  0  0  0  0  0  0  0  0  # atno 7974 bound_to 7965
  155.8065  140.3474  155.5432 H   0  0  0  0  0  0  0  0  0  0  0  0  # atno 8008 bound_to 7997
  155.8485  140.0952  157.1710 H   0  0  0  0  0  0  0  0  0  0  0  0  # atno 8009 bound_to 7997
  154.4007  140.1381  156.3802 H   0  0  0  0  0  0  0  0  0  0  0  0  # atno 8010 bound_to 7997
  140.5055  144.0246  150.6350 H   0  0  0  0  0  0  0  0  0  0  0  0  # atno 10167 bound_to 10162
  157.1564  131.0576  151.2254 H   0  0  0  0  0  0  0  0  0  0  0  0  # atno 10718 bound_to 10713
  153.9537  135.2967  155.3437 H   0  0  0  0  0  0  0  0  0  0  0  0  # atno 10763 bound_to 10752
  154.7412  135.5023  153.9130 H   0  0  0  0  0  0  0  0  0  0  0  0  # atno 10764 bound_to 10752
  153.0981  135.6727  153.9833 H   0  0  0  0  0  0  0  0  0  0  0  0  # atno 10765 bound_to 10752
  140.1990  134.8352  157.2996 H   0  0  0  0  0  0  0  0  0  0  0  0  # atno 11005 bound_to 11000
  145.4762  139.1499  143.3787 LP  0  0  0  0  0  0  0  0  0  0  0  0  # atno 17320 bound_to 7965
  146.2673  140.4896  142.8829 LP  0  0  0  0  0  0  0  0  0  0  0  0  # atno 17321 bound_to 7965
  140.3554  143.2939  152.0442 LP  0  0  0  0  0  0  0  0  0  0  0  0  # atno 17342 bound_to 10162
  139.4882  144.6343  151.7007 LP  0  0  0  0  0  0  0  0  0  0  0  0  # atno 17343 bound_to 10162
  157.4173  130.7418  149.6886 LP  0  0  0  0  0  0  0  0  0  0  0  0  # atno 17370 bound_to 10713
  155.9761  130.4079  150.3800 LP  0  0  0  0  0  0  0  0  0  0  0  0  # atno 17371 bound_to 10713
  140.2075  134.4179  155.7630 LP  0  0  0  0  0  0  0  0  0  0  0  0  # atno 17394 bound_to 11000
  141.2227  133.7102  156.8285 LP  0  0  0  0  0  0  0  0  0  0  0  0  # atno 17395 bound_to 11000

$$$$
