AV-unprocessed.smi:3047|AV-procd|sdf|11621|dock2
  -GOLD-   2272017 03D 1   1.00000     0.00000
 Structure written by MMmdl.
 38 39  0  0  0  0  0  0  0  0  2 V2000
  150.1937  128.5507  153.4520 C   0  0  0  0  0  0  0  0  0  0  0  0
  149.2052  127.0004  153.4362 S   0  0  0  0  0  0  0  0  0  0  0  0
  150.1348  125.8614  153.3853 O   0  0  0  0  0  0  0  0  0  0  0  0
  148.1841  127.0669  154.4928 O   0  0  0  0  0  0  0  0  0  0  0  0
  148.3929  127.0774  151.9103 N   0  0  0  0  0  0  0  0  0  0  0  0
  148.4894  125.9297  150.9980 C   0  0  0  0  0  0  0  0  0  0  0  0
  148.2403  126.4919  149.6007 C   0  0  0  0  0  0  0  0  0  0  0  0
  148.7736  127.9142  149.7029 C   0  0  0  0  0  0  0  0  0  0  0  0
  148.4466  128.3348  151.1467 C   0  0  1  0  0  0  0  0  0  0  0  0
  147.1525  129.1523  151.2664 C   0  0  0  0  0  0  0  0  0  0  0  0
  146.0595  128.6415  151.0187 O   0  0  0  0  0  0  0  0  0  0  0  0
  147.2909  130.4264  151.6644 N   0  0  0  0  0  0  0  0  0  0  0  0
  146.1929  131.3608  151.8780 C   0  0  0  0  0  0  0  0  0  0  0  0
  146.6966  132.8046  152.0407 C   0  0  0  0  0  0  0  0  0  0  0  0
  145.6421  133.7788  151.7555 N   0  0  0  0  0  0  0  0  0  0  0  0
  145.7424  135.1455  151.8045 C   0  0  0  0  0  0  0  0  0  0  0  0
  144.5114  135.6400  151.4573 C   0  0  0  0  0  0  0  0  0  0  0  0
  143.7128  134.5549  151.2114 N   0  3  0  0  0  0  0  0  0  0  0  0
  144.4026  133.4238  151.3928 C   0  0  0  0  0  0  0  0  0  0  0  0
  150.7901  128.5894  154.3632 H   0  0  0  0  0  0  0  0  0  0  0  0
  149.5273  129.4122  153.4217 H   0  0  0  0  0  0  0  0  0  0  0  0
  150.8546  128.5707  152.5858 H   0  0  0  0  0  0  0  0  0  0  0  0
  149.4912  125.5026  151.0557 H   0  0  0  0  0  0  0  0  0  0  0  0
  147.7711  125.1558  151.2696 H   0  0  0  0  0  0  0  0  0  0  0  0
  148.7291  125.9114  148.8180 H   0  0  0  0  0  0  0  0  0  0  0  0
  147.1701  126.5078  149.3905 H   0  0  0  0  0  0  0  0  0  0  0  0
  149.8550  127.9132  149.5588 H   0  0  0  0  0  0  0  0  0  0  0  0
  148.3477  128.5717  148.9434 H   0  0  0  0  0  0  0  0  0  0  0  0
  149.2716  128.9459  151.5172 H   0  0  0  0  0  0  0  0  0  0  0  0
  148.2234  130.7611  151.8622 H   0  0  0  0  0  0  0  0  0  0  0  0
  145.4834  131.2917  151.0514 H   0  0  0  0  0  0  0  0  0  0  0  0
  145.6552  131.0506  152.7745 H   0  0  0  0  0  0  0  0  0  0  0  0
  147.0635  132.9774  153.0537 H   0  0  0  0  0  0  0  0  0  0  0  0
  147.5244  133.0094  151.3602 H   0  0  0  0  0  0  0  0  0  0  0  0
  146.6589  135.6509  152.0744 H   0  0  0  0  0  0  0  0  0  0  0  0
  144.1536  136.6556  151.3691 H   0  0  0  0  0  0  0  0  0  0  0  0
  144.0306  132.4220  151.2693 H   0  0  0  0  0  0  0  0  0  0  0  0
  142.7408  134.5994  150.9316 H   0  0  0  0  0  0  0  0  0  0  0  0
  1  2  1  0  0  0  0
  1 20  1  0  0  0  0
  1 21  1  0  0  0  0
  1 22  1  0  0  0  0
  2  3  2  0  0  0  0
  2  4  2  0  0  0  0
  2  5  1  0  0  0  0
  5  9  1  0  0  0  0
  5  6  1  0  0  0  0
  6  7  1  0  0  0  0
  6 23  1  0  0  0  0
  6 24  1  0  0  0  0
  7  8  1  0  0  0  0
  7 25  1  0  0  0  0
  7 26  1  0  0  0  0
  8  9  1  0  0  0  0
  8 27  1  0  0  0  0
  8 28  1  0  0  0  0
  9 10  1  0  0  0  0
  9 29  1  0  0  0  0
 10 11  2  0  0  0  0
 10 12  1  0  0  0  0
 12 13  1  0  0  0  0
 12 30  1  0  0  0  0
 13 14  1  0  0  0  0
 13 31  1  0  0  0  0
 13 32  1  0  0  0  0
 14 15  1  0  0  0  0
 14 33  1  0  0  0  0
 14 34  1  0  0  0  0
 15 19  1  0  0  0  0
 15 16  1  0  0  0  0
 16 17  2  0  0  0  0
 16 35  1  0  0  0  0
 17 18  1  0  0  0  0
 17 36  1  0  0  0  0
 18 19  2  0  0  0  0
 18 38  1  0  0  0  0
 19 37  1  0  0  0  0
M  CHG  1  18   1
M  END
> <s_m_source_file>
AV-unprocessed.smi

> <i_m_source_file_index>
3047

> <i_lp_mmshare_version>
43012

> <i_f3d_flags>
0

> <s_epik_input>
W0NIM11TKD1PKSg9TylOMVtDSDJdW0NIMl1bQ0gyXVtDQEhdMUMoPU8pW05IXVtDSDJdW0NIMl1uMltjSF1bY0hdbltjSF0y

> <s_epik_cmdline>
J2VwaWtfcHl0aG9uJywgJy1waCcsICc3LjAnLCAnLXRuJywgJzgnLCAnLW1hJywgJzIwMCcsICctbWV0YWxfYmluZGluZycsICctaW1hZScsICc8aW5maWxlLm1hZT4nLCAnLW9tYWUnLCAnPG91dGZpbGUubWFlPic=

> <r_lp_tautomer_probability>
1

> <r_epik_Ionization_Penalty>
0.281738

> <r_epik_Ionization_Penalty_Charging>
0

> <r_epik_Ionization_Penalty_Neutral>
0.281738

> <r_epik_State_Penalty>
0.274352

> <r_epik_Charging_Adjusted_Penalty>
0.274352

> <i_epik_Tot_Q>
1

> <i_epik_Tot_abs_Q>
1

> <r_epik_Metal_State_Penalty>
0.555562

> <b_epik_Metal_Only>
0

> <s_lp_Force_Field>
OPLS_2005

> <r_lp_Energy>
11.1573

> <b_lp_Chiralities_Consistent>
1

> <s_lp_Variant>
AV-unprocessed.smi:3047-1

> <Gold.Version>
5.8.1

> <Gold.Id.Protein>
6NUR|6NUR_protein|mol2

> <Gold.PLP.Fitness>
43.4717

> <Gold.PLP.PLP>
-34.2148

> <Gold.PLP.part.hbond>
-1.9827

> <Gold.PLP.part.metal>
0.0000

> <Gold.PLP.part.buried>
-4.4507

> <Gold.PLP.part.nonpolar>
-28.0136

> <Gold.PLP.part.repulsive>
0.2502

> <Gold.PLP.ligand.clash>
0.0000

> <Gold.PLP.ligand.torsion>
0.5214

> <Gold.PLP.Chemscore.Hbond>
2.2400

> <Gold.PLP.Chemscore.CHOScore>
1.0000

> <Gold.PLP.Chemscore.Metal>
0.0000

> <Gold.Chemscore.Hbonds>
donor molecule, donor type, donor heavy atom, donor atom, acceptor molecule, acceptor atom, score
      L1  H    12    30       P1 10747  0.10
      L1  H    18    38       P1 10186  0.88
      L1  C    16    35       P1  7948  1.00

> <Gold.PLP.Chemscore.Internal.Correction>
0.5797

> <Gold.Rescore>
     Score         DG    S(hbond)    S(metal)    S(lipo)     H(rot)  DE(clash)    DE(int)     intcor
     10.38     -10.82       1.32        0.00      61.89       2.47       0.07       0.38       ----

> <Gold.Chemscore.Fitness>
10.3781

> <Gold.Chemscore.DG>
-10.8214

> <Gold.Chemscore.ZeroCoef>
-5.4800

> <Gold.Chemscore.Hbond>
1.3235

> <Gold.Chemscore.Metal>
0.0000

> <Gold.Chemscore.Lipo>
61.8923

> <Gold.Chemscore.Internal_Hbond>
0.0000

> <Gold.Chemscore.DEClash>
0.0679

> <Gold.Chemscore.DEInternal>
0.3754

> <Gold.Chemscore.Rot>
2.4689

> <Gold.Chemscore.Internal.Correction>
   9.000000E+99

> <Gold.Chemscore.Hbonds>
donor molecule, donor type, donor heavy atom, donor atom, acceptor molecule, acceptor atom, score
      L1  H    12    30       P1 10747  0.10
      L1  H    18    38       P1 10186  0.07

> <Gold.Chemscore.Hbond.Weighted>
-4.4204

> <Gold.Chemscore.Metal.Weighted>
-0.0000

> <Gold.Chemscore.Lipo.Weighted>
-7.2414

> <Gold.Chemscore.Internal_Hbond.Weighted>
0.0000

> <Gold.Chemscore.DEClash.Weighted>
0.0679

> <Gold.Chemscore.DEInternal.Weighted>
0.3754

> <Gold.Chemscore.Rot.Weighted>
6.3204

> <Gold.Chemscore.Internal.Correction.Weighted>
   9.000000E+99

> <Gold.Protein.RotatedTorsions>
[ 6907 6896 6895 6894 ] final  143.14 input  -60.11 | X-H torsion
[ 7974 7965 7964 7962 ] final  168.58 input  175.53 | X-H torsion
[ 8008 7997 7996 7995 ] final -100.94 input   59.86 | X-H torsion
[ 10167 10162 10161 10158 ] final   -6.17 input  -65.29 | X-H torsion
[ 10718 10713 10712 10709 ] final  -24.24 input   66.30 | X-H torsion
[ 10763 10752 10751 10750 ] final -158.62 input  -60.55 | X-H torsion
[ 11005 11000 10999 10996 ] final -146.15 input  -57.11 | X-H torsion

> <Gold.Protein.ActiveResidues>
 VAL166  LYS551  ARG553  GLY616  TRP617  ASP618  TYR619  PRO620  LYS621  CYS622 
 ASP623  PHE694  ASN695  SER759  ASP760  ASP761  ALA762  ILE779  LEU786  VAL792 
 PHE793  MET794  SER795  GLU796  ALA797  LYS798  CYS799  TRP800  GLU811  SER814 

> <Gold.Protein.RotatedAtoms>
  152.2100  133.4904  159.5104 H   0  0  0  0  0  0  0  0  0  0  0  0  # atno 6907 bound_to 6896
  150.6988  134.1480  159.4139 H   0  0  0  0  0  0  0  0  0  0  0  0  # atno 6908 bound_to 6896
  151.9399  135.0218  160.0586 H   0  0  0  0  0  0  0  0  0  0  0  0  # atno 6909 bound_to 6896
  144.7383  139.8929  143.6404 H   0  0  0  0  0  0  0  0  0  0  0  0  # atno 7974 bound_to 7965
  154.8356  140.0437  157.1507 H   0  0  0  0  0  0  0  0  0  0  0  0  # atno 8008 bound_to 7997
  154.9104  140.3013  155.5249 H   0  0  0  0  0  0  0  0  0  0  0  0  # atno 8009 bound_to 7997
  156.2989  140.2359  156.4142 H   0  0  0  0  0  0  0  0  0  0  0  0  # atno 8010 bound_to 7997
  140.6988  143.6224  150.8600 H   0  0  0  0  0  0  0  0  0  0  0  0  # atno 10167 bound_to 10162
  156.4803  130.4543  149.6816 H   0  0  0  0  0  0  0  0  0  0  0  0  # atno 10718 bound_to 10713
  154.7542  135.3100  154.8501 H   0  0  0  0  0  0  0  0  0  0  0  0  # atno 10763 bound_to 10752
  153.9280  135.6788  153.4750 H   0  0  0  0  0  0  0  0  0  0  0  0  # atno 10764 bound_to 10752
  153.1138  135.4854  154.9010 H   0  0  0  0  0  0  0  0  0  0  0  0  # atno 10765 bound_to 10752
  140.7849  134.3036  157.5033 H   0  0  0  0  0  0  0  0  0  0  0  0  # atno 11005 bound_to 11000
  146.1129  139.4136  143.0276 LP  0  0  0  0  0  0  0  0  0  0  0  0  # atno 17320 bound_to 7965
  145.7417  141.0005  143.1297 LP  0  0  0  0  0  0  0  0  0  0  0  0  # atno 17321 bound_to 7965
  139.9944  143.5811  152.2898 LP  0  0  0  0  0  0  0  0  0  0  0  0  # atno 17342 bound_to 10162
  139.6478  144.7659  151.2208 LP  0  0  0  0  0  0  0  0  0  0  0  0  # atno 17343 bound_to 10162
  156.3528  130.7441  151.2403 LP  0  0  0  0  0  0  0  0  0  0  0  0  # atno 17370 bound_to 10713
  157.7484  131.0372  150.4445 LP  0  0  0  0  0  0  0  0  0  0  0  0  # atno 17371 bound_to 10713
  139.8738  134.9340  156.3596 LP  0  0  0  0  0  0  0  0  0  0  0  0  # atno 17394 bound_to 11000
  140.9446  133.7491  156.0192 LP  0  0  0  0  0  0  0  0  0  0  0  0  # atno 17395 bound_to 11000

$$$$
