AV-unprocessed.smi:196|AV-procd|sdf|1541|dock7
  -GOLD-   2262019403D 1   1.00000     0.00000
 Structure written by MMmdl.
 47 50  0  0  0  0  0  0  0  0  1 V2000
  148.8776  137.6876  155.4920 C   0  0  0  0  0  0  0  0  0  0  0  0
  148.6653  139.1947  155.7102 C   0  0  1  0  0  0  0  0  0  0  0  0
  149.4035  139.6473  156.8360 O   0  0  0  0  0  0  0  0  0  0  0  0
  149.4769  141.0583  156.7420 C   0  0  0  0  0  0  0  0  0  0  0  0
  149.8078  141.2800  155.2711 C   0  0  0  0  0  0  0  0  0  0  0  0
  149.0766  140.1422  154.5516 C   0  0  1  0  0  0  0  0  0  0  0  0
  149.9930  139.5222  153.6642 O   0  0  0  0  0  0  0  0  0  0  0  0
  147.8723  140.6556  153.7240 C   0  0  0  0  0  0  0  0  0  0  0  0
  147.0744  139.5897  153.1365 N   0  0  0  0  0  0  0  0  0  0  0  0
  146.9536  139.2917  151.7984 C   0  0  0  0  0  0  0  0  0  0  0  0
  146.1771  138.2807  151.5216 N   0  0  0  0  0  0  0  0  0  0  0  0
  145.7213  137.8479  152.7619 C   0  0  0  0  0  0  0  0  0  0  0  0
  144.8500  136.8061  153.1946 C   0  0  0  0  0  0  0  0  0  0  0  0
  144.2483  135.9316  152.3435 N   0  0  0  0  0  0  0  0  0  0  0  0
  144.9470  135.5254  151.1289 C   0  0  0  0  0  0  0  0  0  0  0  0
  144.5363  134.0739  150.8811 C   0  0  1  0  0  0  0  0  0  0  0  0
  145.4092  133.2578  151.4747 F   0  0  0  0  0  0  0  0  0  0  0  0
  143.1849  133.9666  151.5804 C   0  0  0  0  0  0  0  0  0  0  0  0
  143.3333  134.8824  152.8061 C   0  0  2  0  0  0  0  0  0  0  0  0
  141.9710  135.4332  153.2578 C   0  0  0  0  0  0  0  0  0  0  0  0
  141.7726  136.7444  153.1053 N   0  0  0  0  0  0  0  0  0  0  0  0
  141.1173  134.6948  153.7468 O   0  0  0  0  0  0  0  0  0  0  0  0
  144.6180  136.7062  154.5307 N   0  0  0  0  0  0  0  0  0  0  0  0
  145.1989  137.5514  155.3862 C   0  0  0  0  0  0  0  0  0  0  0  0
  146.0336  138.5582  155.1257 N   0  0  0  0  0  0  0  0  0  0  0  0
  146.2682  138.6716  153.7874 C   0  0  0  0  0  0  0  0  0  0  0  0
  144.5029  133.8084  149.8241 H   0  0  0  0  0  0  0  0  0  0  0  0
  143.8055  134.3241  153.6169 H   0  0  0  0  0  0  0  0  0  0  0  0
  148.3263  137.3346  154.6202 H   0  0  0  0  0  0  0  0  0  0  0  0
  148.5281  137.1207  156.3549 H   0  0  0  0  0  0  0  0  0  0  0  0
  149.9309  137.4472  155.3469 H   0  0  0  0  0  0  0  0  0  0  0  0
  147.6163  139.3617  155.9574 H   0  0  0  0  0  0  0  0  0  0  0  0
  148.5110  141.4970  156.9977 H   0  0  0  0  0  0  0  0  0  0  0  0
  150.2326  141.4696  157.4114 H   0  0  0  0  0  0  0  0  0  0  0  0
  149.5138  142.2728  154.9281 H   0  0  0  0  0  0  0  0  0  0  0  0
  150.8882  141.1981  155.1393 H   0  0  0  0  0  0  0  0  0  0  0  0
  149.6301  139.5478  152.7921 H   0  0  0  0  0  0  0  0  0  0  0  0
  147.2202  141.2634  154.3526 H   0  0  0  0  0  0  0  0  0  0  0  0
  148.2127  141.3100  152.9203 H   0  0  0  0  0  0  0  0  0  0  0  0
  147.4670  139.8480  151.0278 H   0  0  0  0  0  0  0  0  0  0  0  0
  144.6095  136.1606  150.3092 H   0  0  0  0  0  0  0  0  0  0  0  0
  146.0314  135.6213  151.2072 H   0  0  0  0  0  0  0  0  0  0  0  0
  142.4056  134.3346  150.9103 H   0  0  0  0  0  0  0  0  0  0  0  0
  142.9327  132.9404  151.8496 H   0  0  0  0  0  0  0  0  0  0  0  0
  140.8979  137.1592  153.3917 H   0  0  0  0  0  0  0  0  0  0  0  0
  142.5032  137.3177  152.7090 H   0  0  0  0  0  0  0  0  0  0  0  0
  144.9615  137.3982  156.4285 H   0  0  0  0  0  0  0  0  0  0  0  0
  1  2  1  0  0  0  0
  1 29  1  0  0  0  0
  1 30  1  0  0  0  0
  1 31  1  0  0  0  0
  2  6  1  0  0  0  0
  2  3  1  0  0  0  0
  2 32  1  0  0  0  0
  3  4  1  0  0  0  0
  4  5  1  0  0  0  0
  4 33  1  0  0  0  0
  4 34  1  0  0  0  0
  5  6  1  0  0  0  0
  5 35  1  0  0  0  0
  5 36  1  0  0  0  0
  6  7  1  0  0  0  0
  6  8  1  0  0  0  0
  7 37  1  0  0  0  0
  8  9  1  0  0  0  0
  8 38  1  0  0  0  0
  8 39  1  0  0  0  0
  9 26  1  0  0  0  0
  9 10  1  0  0  0  0
 10 11  2  0  0  0  0
 10 40  1  0  0  0  0
 11 12  1  0  0  0  0
 12 26  2  0  0  0  0
 12 13  1  0  0  0  0
 13 14  1  0  0  0  0
 13 23  2  0  0  0  0
 14 19  1  0  0  0  0
 14 15  1  0  0  0  0
 15 16  1  0  0  0  0
 15 41  1  0  0  0  0
 15 42  1  0  0  0  0
 16 27  1  0  0  0  0
 16 17  1  0  0  0  0
 16 18  1  0  0  0  0
 18 19  1  0  0  0  0
 18 43  1  0  0  0  0
 18 44  1  0  0  0  0
 19 28  1  0  0  0  0
 19 20  1  0  0  0  0
 20 21  1  0  0  0  0
 20 22  2  0  0  0  0
 21 45  1  0  0  0  0
 21 46  1  0  0  0  0
 23 24  1  0  0  0  0
 24 25  2  0  0  0  0
 24 47  1  0  0  0  0
 25 26  1  0  0  0  0
M  END
> <s_m_source_file>
AV-unprocessed.smi

> <i_m_source_file_index>
196

> <i_lp_mmshare_version>
43012

> <i_f3d_flags>
0

> <s_epik_input>
W0NIMl0xW0NIMl1PW0NAQEhdKFtDSDNdKVtDQEBdMShbT0hdKVtDSDJdbihbY0hdbjIpYyhjMjMpbltjSF1uYzNONFtDSDJdW0NASF0oRilbQ0gyXVtDQEhdNEMoPU8pW05IMl0=

> <s_epik_cmdline>
J2VwaWtfcHl0aG9uJywgJy1waCcsICc3LjAnLCAnLXRuJywgJzgnLCAnLW1hJywgJzIwMCcsICctbWV0YWxfYmluZGluZycsICctaW1hZScsICc8aW5maWxlLm1hZT4nLCAnLW9tYWUnLCAnPG91dGZpbGUubWFlPic=

> <r_lp_tautomer_probability>
1

> <r_epik_Ionization_Penalty>
0.000857933

> <r_epik_Ionization_Penalty_Charging>
0

> <r_epik_Ionization_Penalty_Neutral>
0.000857933

> <r_epik_State_Penalty>
0.000462053

> <r_epik_Charging_Adjusted_Penalty>
0.000462053

> <i_epik_Tot_Q>
0

> <i_epik_Tot_abs_Q>
0

> <r_epik_Metal_State_Penalty>
-0

> <b_epik_Metal_Only>
0

> <s_lp_Force_Field>
OPLS_2005

> <r_lp_Energy>
42.8122

> <b_lp_Chiralities_Consistent>
1

> <s_lp_Variant>
AV-unprocessed.smi:196-14

> <Gold.Version>
5.8.1

> <Gold.Id.Protein>
6NUR|6NUR_protein|mol2

> <Gold.PLP.Fitness>
46.8051

> <Gold.PLP.PLP>
-36.2656

> <Gold.PLP.part.hbond>
-3.1901

> <Gold.PLP.part.metal>
0.0000

> <Gold.PLP.part.buried>
-4.8611

> <Gold.PLP.part.nonpolar>
-30.2470

> <Gold.PLP.part.repulsive>
1.4598

> <Gold.PLP.ligand.clash>
0.0000

> <Gold.PLP.ligand.torsion>
0.3851

> <Gold.PLP.Chemscore.Hbond>
2.8713

> <Gold.PLP.Chemscore.CHOScore>
0.8080

> <Gold.PLP.Chemscore.Metal>
0.0000

> <Gold.Chemscore.Hbonds>
donor molecule, donor type, donor heavy atom, donor atom, acceptor molecule, acceptor atom, score
      L1  H     7    37       P1  7957  1.00
      P1  H  7989  7998       L1     7  0.68
      P1  H 11000 11005       L1    22  0.73
      L1  C    10    40       P1  7957  0.80

> <Gold.PLP.Chemscore.Internal.Correction>
0.2718

> <Gold.Rescore>
     Score         DG    S(hbond)    S(metal)    S(lipo)     H(rot)  DE(clash)    DE(int)     intcor
     11.04     -13.18       2.45        0.00      52.66       2.60       0.64       1.50       ----

> <Gold.Chemscore.Fitness>
11.0438

> <Gold.Chemscore.DG>
-13.1850

> <Gold.Chemscore.ZeroCoef>
-5.4800

> <Gold.Chemscore.Hbond>
2.4525

> <Gold.Chemscore.Metal>
0.0000

> <Gold.Chemscore.Lipo>
52.6602

> <Gold.Chemscore.Internal_Hbond>
0.0000

> <Gold.Chemscore.DEClash>
0.6393

> <Gold.Chemscore.DEInternal>
1.5018

> <Gold.Chemscore.Rot>
2.5968

> <Gold.Chemscore.Internal.Correction>
   9.000000E+99

> <Gold.Chemscore.Hbonds>
donor molecule, donor type, donor heavy atom, donor atom, acceptor molecule, acceptor atom, score
      L1  H     7    37       P1  7957  0.98
      P1  H  7989  7998       L1     7  0.11
      P1  H 11000 11005       L1    22  0.73

> <Gold.Chemscore.Hbond.Weighted>
-8.1915

> <Gold.Chemscore.Metal.Weighted>
-0.0000

> <Gold.Chemscore.Lipo.Weighted>
-6.1612

> <Gold.Chemscore.Internal_Hbond.Weighted>
0.0000

> <Gold.Chemscore.DEClash.Weighted>
0.6393

> <Gold.Chemscore.DEInternal.Weighted>
1.5018

> <Gold.Chemscore.Rot.Weighted>
6.6477

> <Gold.Chemscore.Internal.Correction.Weighted>
   9.000000E+99

> <Gold.Protein.RotatedTorsions>
[ 6907 6896 6895 6894 ] final -129.17 input  -60.11 | X-H torsion
[ 7974 7965 7964 7962 ] final -106.83 input  175.53 | X-H torsion
[ 8008 7997 7996 7995 ] final  161.32 input   59.86 | X-H torsion
[ 10167 10162 10161 10158 ] final -159.71 input  -65.29 | X-H torsion
[ 10718 10713 10712 10709 ] final  178.62 input   66.30 | X-H torsion
[ 10763 10752 10751 10750 ] final  116.71 input  -60.55 | X-H torsion
[ 11005 11000 10999 10996 ] final   16.60 input  -57.11 | X-H torsion

> <Gold.Protein.ActiveResidues>
 VAL166  LYS551  ARG553  GLY616  TRP617  ASP618  TYR619  PRO620  LYS621  CYS622 
 ASP623  PHE694  ASN695  SER759  ASP760  ASP761  ALA762  ILE779  LEU786  VAL792 
 PHE793  MET794  SER795  GLU796  ALA797  LYS798  CYS799  TRP800  GLU811  SER814 

> <Gold.Protein.RotatedAtoms>
  150.9258  133.6826  159.2821 H   0  0  0  0  0  0  0  0  0  0  0  0  # atno 6907 bound_to 6896
  151.4265  135.1003  159.9639 H   0  0  0  0  0  0  0  0  0  0  0  0  # atno 6908 bound_to 6896
  152.5002  133.8697  159.7347 H   0  0  0  0  0  0  0  0  0  0  0  0  # atno 6909 bound_to 6896
  145.2129  140.9103  143.3304 H   0  0  0  0  0  0  0  0  0  0  0  0  # atno 7974 bound_to 7965
  156.2111  140.1780  156.7692 H   0  0  0  0  0  0  0  0  0  0  0  0  # atno 8008 bound_to 7997
  154.5724  140.0680  156.9014 H   0  0  0  0  0  0  0  0  0  0  0  0  # atno 8009 bound_to 7997
  155.2648  140.3338  155.4272 H   0  0  0  0  0  0  0  0  0  0  0  0  # atno 8010 bound_to 7997
  139.6594  143.9939  152.2215 H   0  0  0  0  0  0  0  0  0  0  0  0  # atno 10167 bound_to 10162
  156.8878  130.9837  151.3053 H   0  0  0  0  0  0  0  0  0  0  0  0  # atno 10718 bound_to 10713
  153.5414  135.3558  155.2720 H   0  0  0  0  0  0  0  0  0  0  0  0  # atno 10763 bound_to 10752
  154.8717  135.4092  154.3039 H   0  0  0  0  0  0  0  0  0  0  0  0  # atno 10764 bound_to 10752
  153.3747  135.7066  153.6679 H   0  0  0  0  0  0  0  0  0  0  0  0  # atno 10765 bound_to 10752
  140.4453  134.1279  155.7695 H   0  0  0  0  0  0  0  0  0  0  0  0  # atno 11005 bound_to 11000
  144.9838  139.3756  143.6248 LP  0  0  0  0  0  0  0  0  0  0  0  0  # atno 17320 bound_to 7965
  146.3393  139.8991  142.8797 LP  0  0  0  0  0  0  0  0  0  0  0  0  # atno 17321 bound_to 7965
  139.9674  144.6516  150.8021 LP  0  0  0  0  0  0  0  0  0  0  0  0  # atno 17342 bound_to 10162
  140.7573  143.3084  151.2904 LP  0  0  0  0  0  0  0  0  0  0  0  0  # atno 17343 bound_to 10162
  157.6102  130.8577  149.8939 LP  0  0  0  0  0  0  0  0  0  0  0  0  # atno 17370 bound_to 10713
  156.0644  130.3694  150.0911 LP  0  0  0  0  0  0  0  0  0  0  0  0  # atno 17371 bound_to 10713
  141.1688  133.8651  157.1635 LP  0  0  0  0  0  0  0  0  0  0  0  0  # atno 17394 bound_to 11000
  140.0042  135.0015  157.0257 LP  0  0  0  0  0  0  0  0  0  0  0  0  # atno 17395 bound_to 11000

$$$$
