AV-unprocessed.smi:1469|AV-procd|sdf|5958|dock1
  -GOLD-   22720 6 43D 1   1.00000     0.00000
 Structure written by MMmdl.
 41 42  0  0  0  0  0  0  0  0  2 V2000
  151.1303  139.2861  155.1672 C   0  0  0  0  0  0  0  0  0  0  0  0
  150.0780  140.3854  154.8941 C   0  0  2  0  0  0  0  0  0  0  0  0
  149.4447  140.8999  156.2133 C   0  0  0  0  0  0  0  0  0  0  0  0
  150.1555  142.0442  156.7787 N   0  0  0  0  0  0  0  0  0  0  0  0
  151.2813  141.9840  157.5068 C   0  0  0  0  0  0  0  0  0  0  0  0
  151.8681  140.9294  157.7538 O   0  0  0  0  0  0  0  0  0  0  0  0
  151.8243  143.3309  158.0071 C   0  0  0  0  0  0  0  0  0  0  0  0
  152.1784  143.3340  159.4366 N   0  0  0  0  0  0  0  0  0  0  0  0
  152.9646  142.2620  159.9042 C   0  0  0  0  0  0  0  0  0  0  0  0
  153.3479  142.1694  161.1875 C   0  0  0  0  0  0  0  0  0  0  0  0
  152.9327  143.2079  162.1007 C   0  0  0  0  0  0  0  0  0  0  0  0
  152.1772  144.2357  161.6649 C   0  0  0  0  0  0  0  0  0  0  0  0
  151.7543  144.3397  160.2634 C   0  0  0  0  0  0  0  0  0  0  0  0
  151.0614  145.2730  159.8570 O   0  0  0  0  0  0  0  0  0  0  0  0
  149.0187  139.8969  153.9627 N   0  3  0  0  0  0  0  0  0  0  0  0
  148.3819  138.6100  154.3455 C   0  0  0  0  0  0  0  0  0  0  0  0
  146.8900  138.7161  154.0006 C   0  0  0  0  0  0  0  0  0  0  0  0
  146.7736  139.9825  153.1615 C   0  0  0  0  0  0  0  0  0  0  0  0
  147.9169  140.8446  153.6833 C   0  0  0  0  0  0  0  0  0  0  0  0
  151.9244  139.6422  155.8227 H   0  0  0  0  0  0  0  0  0  0  0  0
  151.6257  138.9526  154.2558 H   0  0  0  0  0  0  0  0  0  0  0  0
  150.6770  138.4147  155.6410 H   0  0  0  0  0  0  0  0  0  0  0  0
  150.5873  141.2192  154.4077 H   0  0  0  0  0  0  0  0  0  0  0  0
  148.4217  141.2354  156.0462 H   0  0  0  0  0  0  0  0  0  0  0  0
  149.3751  140.0868  156.9383 H   0  0  0  0  0  0  0  0  0  0  0  0
  149.7484  142.9548  156.6200 H   0  0  0  0  0  0  0  0  0  0  0  0
  152.6916  143.5950  157.3999 H   0  0  0  0  0  0  0  0  0  0  0  0
  151.0869  144.1096  157.8033 H   0  0  0  0  0  0  0  0  0  0  0  0
  153.2289  141.5249  159.1598 H   0  0  0  0  0  0  0  0  0  0  0  0
  153.9487  141.3390  161.5285 H   0  0  0  0  0  0  0  0  0  0  0  0
  153.2284  143.1598  163.1385 H   0  0  0  0  0  0  0  0  0  0  0  0
  151.8749  145.0027  162.3628 H   0  0  0  0  0  0  0  0  0  0  0  0
  148.8590  137.7976  153.7961 H   0  0  0  0  0  0  0  0  0  0  0  0
  148.4951  138.4025  155.4107 H   0  0  0  0  0  0  0  0  0  0  0  0
  146.5153  137.8349  153.4787 H   0  0  0  0  0  0  0  0  0  0  0  0
  146.3094  138.8298  154.9170 H   0  0  0  0  0  0  0  0  0  0  0  0
  146.9366  139.7469  152.1089 H   0  0  0  0  0  0  0  0  0  0  0  0
  145.8005  140.4660  153.2530 H   0  0  0  0  0  0  0  0  0  0  0  0
  147.6120  141.3398  154.6070 H   0  0  0  0  0  0  0  0  0  0  0  0
  148.2080  141.6103  152.9633 H   0  0  0  0  0  0  0  0  0  0  0  0
  149.4653  139.7307  153.0719 H   0  0  0  0  0  0  0  0  0  0  0  0
  1  2  1  0  0  0  0
  1 20  1  0  0  0  0
  1 21  1  0  0  0  0
  1 22  1  0  0  0  0
  2  3  1  0  0  0  0
  2 15  1  0  0  0  0
  2 23  1  0  0  0  0
  3  4  1  0  0  0  0
  3 24  1  0  0  0  0
  3 25  1  0  0  0  0
  4  5  1  0  0  0  0
  4 26  1  0  0  0  0
  5  6  2  0  0  0  0
  5  7  1  0  0  0  0
  7  8  1  0  0  0  0
  7 27  1  0  0  0  0
  7 28  1  0  0  0  0
  8 13  1  0  0  0  0
  8  9  1  0  0  0  0
  9 10  2  0  0  0  0
  9 29  1  0  0  0  0
 10 11  1  0  0  0  0
 10 30  1  0  0  0  0
 11 12  2  0  0  0  0
 11 31  1  0  0  0  0
 12 13  1  0  0  0  0
 12 32  1  0  0  0  0
 13 14  2  0  0  0  0
 15 19  1  0  0  0  0
 15 16  1  0  0  0  0
 15 41  1  0  0  0  0
 16 17  1  0  0  0  0
 16 33  1  0  0  0  0
 16 34  1  0  0  0  0
 17 18  1  0  0  0  0
 17 35  1  0  0  0  0
 17 36  1  0  0  0  0
 18 19  1  0  0  0  0
 18 37  1  0  0  0  0
 18 38  1  0  0  0  0
 19 39  1  0  0  0  0
 19 40  1  0  0  0  0
M  CHG  1  15   1
M  END
> <s_m_source_file>
AV-unprocessed.smi

> <i_m_source_file_index>
1469

> <i_lp_mmshare_version>
43012

> <i_f3d_flags>
0

> <s_epik_input>
W0NIMl0xW0NIMl1bQ0gyXVtDSDJdTjFbQ0BIXShbQ0gzXSlbQ0gyXVtOSF1DKD1PKVtDSDJdbjJbY0hdW2NIXVtjSF1bY0hdYzI9Tw==

> <s_epik_cmdline>
J2VwaWtfcHl0aG9uJywgJy1waCcsICc3LjAnLCAnLXRuJywgJzgnLCAnLW1hJywgJzIwMCcsICctbWV0YWxfYmluZGluZycsICctaW1hZScsICc8aW5maWxlLm1hZT4nLCAnLW9tYWUnLCAnPG91dGZpbGUubWFlPic=

> <r_lp_tautomer_probability>
1

> <r_epik_Ionization_Penalty>
0.00497231

> <r_epik_Ionization_Penalty_Charging>
0.00497223

> <r_epik_Ionization_Penalty_Neutral>
8.2288e-08

> <r_epik_State_Penalty>
0.0036131

> <r_epik_Charging_Adjusted_Penalty>
0.00858533

> <i_epik_Tot_Q>
1

> <i_epik_Tot_abs_Q>
1

> <r_epik_Metal_State_Penalty>
-0

> <b_epik_Metal_Only>
0

> <s_lp_Force_Field>
OPLS_2005

> <r_lp_Energy>
39.8185

> <b_lp_Chiralities_Consistent>
1

> <s_lp_Variant>
AV-unprocessed.smi:1469-1

> <Gold.Version>
5.8.1

> <Gold.Id.Protein>
6NUR|6NUR_protein|mol2

> <Gold.PLP.Fitness>
48.9769

> <Gold.PLP.PLP>
-44.6391

> <Gold.PLP.part.hbond>
-2.0000

> <Gold.PLP.part.metal>
0.0000

> <Gold.PLP.part.buried>
-0.4929

> <Gold.PLP.part.nonpolar>
-40.3423

> <Gold.PLP.part.repulsive>
0.3786

> <Gold.PLP.ligand.clash>
0.0000

> <Gold.PLP.ligand.torsion>
0.9031

> <Gold.PLP.Chemscore.Hbond>
2.0000

> <Gold.PLP.Chemscore.CHOScore>
0.0000

> <Gold.PLP.Chemscore.Metal>
0.0000

> <Gold.Chemscore.Hbonds>
donor molecule, donor type, donor heavy atom, donor atom, acceptor molecule, acceptor atom, score
      L1  H     4    26       P1  8028  0.62
      L1  H    15    41       P1  7957  1.00

> <Gold.PLP.Chemscore.Internal.Correction>
0.1441

> <Gold.Rescore>
     Score         DG    S(hbond)    S(metal)    S(lipo)     H(rot)  DE(clash)    DE(int)     intcor
     15.36     -18.81       1.99        0.00      98.50       1.89       1.74       1.71       ----

> <Gold.Chemscore.Fitness>
15.3631

> <Gold.Chemscore.DG>
-18.8111

> <Gold.Chemscore.ZeroCoef>
-5.4800

> <Gold.Chemscore.Hbond>
1.9883

> <Gold.Chemscore.Metal>
0.0000

> <Gold.Chemscore.Lipo>
98.4958

> <Gold.Chemscore.Internal_Hbond>
0.0000

> <Gold.Chemscore.DEClash>
1.7386

> <Gold.Chemscore.DEInternal>
1.7094

> <Gold.Chemscore.Rot>
1.8882

> <Gold.Chemscore.Internal.Correction>
   9.000000E+99

> <Gold.Chemscore.Hbonds>
donor molecule, donor type, donor heavy atom, donor atom, acceptor molecule, acceptor atom, score
      L1  H     4    26       P1  8028  0.60
      L1  H    15    41       P1  7957  0.95

> <Gold.Chemscore.Hbond.Weighted>
-6.6409

> <Gold.Chemscore.Metal.Weighted>
-0.0000

> <Gold.Chemscore.Lipo.Weighted>
-11.5240

> <Gold.Chemscore.Internal_Hbond.Weighted>
0.0000

> <Gold.Chemscore.DEClash.Weighted>
1.7386

> <Gold.Chemscore.DEInternal.Weighted>
1.7094

> <Gold.Chemscore.Rot.Weighted>
4.8338

> <Gold.Chemscore.Internal.Correction.Weighted>
   9.000000E+99

> <Gold.Protein.RotatedTorsions>
[ 6907 6896 6895 6894 ] final -144.64 input  -60.11 | X-H torsion
[ 7974 7965 7964 7962 ] final  155.92 input  175.53 | X-H torsion
[ 8008 7997 7996 7995 ] final   57.36 input   59.86 | X-H torsion
[ 10167 10162 10161 10158 ] final -168.99 input  -65.29 | X-H torsion
[ 10718 10713 10712 10709 ] final   73.43 input   66.30 | X-H torsion
[ 10763 10752 10751 10750 ] final    6.43 input  -60.55 | X-H torsion
[ 11005 11000 10999 10996 ] final   11.71 input  -57.11 | X-H torsion

> <Gold.Protein.ActiveResidues>
 VAL166  LYS551  ARG553  GLY616  TRP617  ASP618  TYR619  PRO620  LYS621  CYS622 
 ASP623  PHE694  ASN695  SER759  ASP760  ASP761  ALA762  ILE779  LEU786  VAL792 
 PHE793  MET794  SER795  GLU796  ALA797  LYS798  CYS799  TRP800  GLU811  SER814 

> <Gold.Protein.RotatedAtoms>
  151.1168  133.5133  159.2603 H   0  0  0  0  0  0  0  0  0  0  0  0  # atno 6907 bound_to 6896
  151.1906  135.0400  159.8841 H   0  0  0  0  0  0  0  0  0  0  0  0  # atno 6908 bound_to 6896
  152.5453  134.1009  159.8370 H   0  0  0  0  0  0  0  0  0  0  0  0  # atno 6909 bound_to 6896
  144.7995  139.7133  143.6188 H   0  0  0  0  0  0  0  0  0  0  0  0  # atno 7974 bound_to 7965
  155.5324  140.3482  155.4429 H   0  0  0  0  0  0  0  0  0  0  0  0  # atno 8008 bound_to 7997
  156.0709  140.1362  156.9857 H   0  0  0  0  0  0  0  0  0  0  0  0  # atno 8009 bound_to 7997
  154.4527  140.0966  156.6642 H   0  0  0  0  0  0  0  0  0  0  0  0  # atno 8010 bound_to 7997
  139.5950  144.1131  152.1679 H   0  0  0  0  0  0  0  0  0  0  0  0  # atno 10167 bound_to 10162
  157.6547  130.9628  150.1068 H   0  0  0  0  0  0  0  0  0  0  0  0  # atno 10718 bound_to 10713
  153.2478  135.6910  153.7712 H   0  0  0  0  0  0  0  0  0  0  0  0  # atno 10763 bound_to 10752
  153.6818  135.3327  155.3181 H   0  0  0  0  0  0  0  0  0  0  0  0  # atno 10764 bound_to 10752
  154.8382  135.4524  154.1424 H   0  0  0  0  0  0  0  0  0  0  0  0  # atno 10765 bound_to 10752
  140.5002  134.0754  155.7792 H   0  0  0  0  0  0  0  0  0  0  0  0  # atno 11005 bound_to 11000
  146.2272  139.5746  142.9579 LP  0  0  0  0  0  0  0  0  0  0  0  0  # atno 17320 bound_to 7965
  145.5589  141.0406  143.2237 LP  0  0  0  0  0  0  0  0  0  0  0  0  # atno 17321 bound_to 7965
  140.0714  144.5776  150.7189 LP  0  0  0  0  0  0  0  0  0  0  0  0  # atno 17342 bound_to 10162
  140.7204  143.2584  151.4296 LP  0  0  0  0  0  0  0  0  0  0  0  0  # atno 17343 bound_to 10162
  156.1975  130.3658  149.8830 LP  0  0  0  0  0  0  0  0  0  0  0  0  # atno 17370 bound_to 10713
  156.6742  130.8832  151.3566 LP  0  0  0  0  0  0  0  0  0  0  0  0  # atno 17371 bound_to 10713
  141.1439  133.9089  157.2261 LP  0  0  0  0  0  0  0  0  0  0  0  0  # atno 17394 bound_to 11000
  139.9718  135.0126  156.9531 LP  0  0  0  0  0  0  0  0  0  0  0  0  # atno 17395 bound_to 11000

$$$$
