AV-unprocessed.smi:933|AV-procd|sdf|4203|dock5
  -GOLD-   22720 2113D 1   1.00000     0.00000
 Structure written by MMmdl.
 42 43  0  0  0  0  0  0  0  0  1 V2000
  145.9793  137.8460  152.9776 C   0  0  0  0  0  0  0  0  0  0  0  0
  146.6675  139.0103  152.2571 C   0  0  0  0  0  0  0  0  0  0  0  0
  147.5230  139.8213  153.1715 C   0  0  0  0  0  0  0  0  0  0  0  0
  148.6169  139.3447  153.7712 N   0  0  0  0  0  0  0  0  0  0  0  0
  149.2753  140.3098  154.5406 C   0  0  0  0  0  0  0  0  0  0  0  0
  150.5352  139.9576  155.2784 C   0  0  0  0  0  0  0  0  0  0  0  0
  150.2819  139.3187  156.6551 C   0  0  0  0  0  0  0  0  0  0  0  0
  150.5697  140.2484  157.7464 N   0  0  0  0  0  0  0  0  0  0  0  0
  151.7767  140.6552  158.1736 C   0  0  0  0  0  0  0  0  0  0  0  0
  152.8187  140.2585  157.6554 O   0  0  0  0  0  0  0  0  0  0  0  0
  151.7401  141.5190  159.2017 N   0  0  0  0  0  0  0  0  0  0  0  0
  152.9089  142.1075  159.8537 C   0  0  2  0  0  0  0  0  0  0  0  0
  153.1402  141.4762  161.2439 C   0  0  0  0  0  0  0  0  0  0  0  0
  153.1150  142.6251  162.2569 C   0  0  0  0  0  0  0  0  0  0  0  0
  152.3260  143.7367  161.5703 C   0  0  0  0  0  0  0  0  0  0  0  0
  152.7381  143.6241  160.1016 C   0  0  2  0  0  0  0  0  0  0  0  0
  151.8105  144.3823  159.1355 C   0  0  0  0  0  0  0  0  0  0  0  0
  148.6582  141.5357  154.5119 C   0  0  0  0  0  0  0  0  0  0  0  0
  147.2337  141.5238  153.5090 S   0  0  0  0  0  0  0  0  0  0  0  0
  145.3627  137.2709  152.2865 H   0  0  0  0  0  0  0  0  0  0  0  0
  145.3340  138.2064  153.7796 H   0  0  0  0  0  0  0  0  0  0  0  0
  146.7112  137.1671  153.4163 H   0  0  0  0  0  0  0  0  0  0  0  0
  147.2871  138.6309  151.4442 H   0  0  0  0  0  0  0  0  0  0  0  0
  145.9198  139.6615  151.8027 H   0  0  0  0  0  0  0  0  0  0  0  0
  151.1348  139.2732  154.6772 H   0  0  0  0  0  0  0  0  0  0  0  0
  151.1511  140.8490  155.4054 H   0  0  0  0  0  0  0  0  0  0  0  0
  149.2420  138.9942  156.7200 H   0  0  0  0  0  0  0  0  0  0  0  0
  150.9043  138.4294  156.7646 H   0  0  0  0  0  0  0  0  0  0  0  0
  149.7657  140.6204  158.2322 H   0  0  0  0  0  0  0  0  0  0  0  0
  150.8362  141.7892  159.5606 H   0  0  0  0  0  0  0  0  0  0  0  0
  153.7839  141.9548  159.2190 H   0  0  0  0  0  0  0  0  0  0  0  0
  152.3509  140.7627  161.4859 H   0  0  0  0  0  0  0  0  0  0  0  0
  154.0835  140.9311  161.2870 H   0  0  0  0  0  0  0  0  0  0  0  0
  152.6795  142.3313  163.2124 H   0  0  0  0  0  0  0  0  0  0  0  0
  154.1330  142.9664  162.4483 H   0  0  0  0  0  0  0  0  0  0  0  0
  151.2563  143.5502  161.6770 H   0  0  0  0  0  0  0  0  0  0  0  0
  152.5379  144.7199  161.9917 H   0  0  0  0  0  0  0  0  0  0  0  0
  153.7299  144.0714  160.0160 H   0  0  0  0  0  0  0  0  0  0  0  0
  150.7770  144.0434  159.2134 H   0  0  0  0  0  0  0  0  0  0  0  0
  152.1310  144.2506  158.1018 H   0  0  0  0  0  0  0  0  0  0  0  0
  151.8204  145.4513  159.3501 H   0  0  0  0  0  0  0  0  0  0  0  0
  148.9590  142.4446  155.0112 H   0  0  0  0  0  0  0  0  0  0  0  0
  1  2  1  0  0  0  0
  1 20  1  0  0  0  0
  1 21  1  0  0  0  0
  1 22  1  0  0  0  0
  2  3  1  0  0  0  0
  2 23  1  0  0  0  0
  2 24  1  0  0  0  0
  3 19  1  0  0  0  0
  3  4  2  0  0  0  0
  4  5  1  0  0  0  0
  5  6  1  0  0  0  0
  5 18  2  0  0  0  0
  6  7  1  0  0  0  0
  6 25  1  0  0  0  0
  6 26  1  0  0  0  0
  7  8  1  0  0  0  0
  7 27  1  0  0  0  0
  7 28  1  0  0  0  0
  8  9  1  0  0  0  0
  8 29  1  0  0  0  0
  9 10  2  0  0  0  0
  9 11  1  0  0  0  0
 11 12  1  0  0  0  0
 11 30  1  0  0  0  0
 12 16  1  0  0  0  0
 12 13  1  0  0  0  0
 12 31  1  0  0  0  0
 13 14  1  0  0  0  0
 13 32  1  0  0  0  0
 13 33  1  0  0  0  0
 14 15  1  0  0  0  0
 14 34  1  0  0  0  0
 14 35  1  0  0  0  0
 15 16  1  0  0  0  0
 15 36  1  0  0  0  0
 15 37  1  0  0  0  0
 16 17  1  0  0  0  0
 16 38  1  0  0  0  0
 17 39  1  0  0  0  0
 17 40  1  0  0  0  0
 17 41  1  0  0  0  0
 18 19  1  0  0  0  0
 18 42  1  0  0  0  0
M  END
> <s_m_source_file>
AV-unprocessed.smi

> <i_m_source_file_index>
933

> <i_lp_mmshare_version>
43012

> <i_f3d_flags>
0

> <s_epik_input>
W0NIM11bQ0gyXWMxbmMoW2NIXXMxKVtDSDJdW0NIMl1bTkhdQyg9TylbTkhdW0NAQEhdMltDSDJdW0NIMl1bQ0gyXVtDQEhdMltDSDNd

> <s_epik_cmdline>
J2VwaWtfcHl0aG9uJywgJy1waCcsICc3LjAnLCAnLXRuJywgJzgnLCAnLW1hJywgJzIwMCcsICctbWV0YWxfYmluZGluZycsICctaW1hZScsICc8aW5maWxlLm1hZT4nLCAnLW9tYWUnLCAnPG91dGZpbGUubWFlPic=

> <r_epik_Ionization_Penalty>
0.00203408

> <r_epik_Ionization_Penalty_Charging>
0

> <r_epik_Ionization_Penalty_Neutral>
0.00203408

> <r_epik_State_Penalty>
0.0013452

> <r_epik_Charging_Adjusted_Penalty>
0.0013452

> <i_epik_Tot_Q>
0

> <i_epik_Tot_abs_Q>
0

> <r_epik_Metal_State_Penalty>
-0

> <b_epik_Metal_Only>
0

> <s_lp_Force_Field>
OPLS_2005

> <r_lp_Energy>
20.7198

> <b_lp_Chiralities_Consistent>
1

> <s_lp_Variant>
AV-unprocessed.smi:933-3

> <Gold.Version>
5.8.1

> <Gold.Id.Protein>
6NUR|6NUR_protein|mol2

> <Gold.PLP.Fitness>
47.8433

> <Gold.PLP.PLP>
-43.6950

> <Gold.PLP.part.hbond>
-1.0000

> <Gold.PLP.part.metal>
0.0000

> <Gold.PLP.part.buried>
-3.5177

> <Gold.PLP.part.nonpolar>
-40.2524

> <Gold.PLP.part.repulsive>
1.5500

> <Gold.PLP.ligand.clash>
0.0000

> <Gold.PLP.ligand.torsion>
0.9349

> <Gold.PLP.Chemscore.Hbond>
0.9920

> <Gold.PLP.Chemscore.CHOScore>
1.0000

> <Gold.PLP.Chemscore.Metal>
0.0000

> <Gold.Chemscore.Hbonds>
donor molecule, donor type, donor heavy atom, donor atom, acceptor molecule, acceptor atom, score
      P1  H  7997  8008       L1    10  0.96
      L1  C    18    42       P1  8028  1.00

> <Gold.PLP.Chemscore.Internal.Correction>
0.0421

> <Gold.Rescore>
     Score         DG    S(hbond)    S(metal)    S(lipo)     H(rot)  DE(clash)    DE(int)     intcor
     17.96     -18.82       0.98        0.00     119.82       1.55       0.11       0.75       ----

> <Gold.Chemscore.Fitness>
17.9615

> <Gold.Chemscore.DG>
-18.8225

> <Gold.Chemscore.ZeroCoef>
-5.4800

> <Gold.Chemscore.Hbond>
0.9843

> <Gold.Chemscore.Metal>
0.0000

> <Gold.Chemscore.Lipo>
119.8159

> <Gold.Chemscore.Internal_Hbond>
0.0000

> <Gold.Chemscore.DEClash>
0.1147

> <Gold.Chemscore.DEInternal>
0.7464

> <Gold.Chemscore.Rot>
1.5482

> <Gold.Chemscore.Internal.Correction>
   9.000000E+99

> <Gold.Chemscore.Hbonds>
donor molecule, donor type, donor heavy atom, donor atom, acceptor molecule, acceptor atom, score
      P1  H  7997  8008       L1    10  0.92

> <Gold.Chemscore.Hbond.Weighted>
-3.2875

> <Gold.Chemscore.Metal.Weighted>
-0.0000

> <Gold.Chemscore.Lipo.Weighted>
-14.0185

> <Gold.Chemscore.Internal_Hbond.Weighted>
0.0000

> <Gold.Chemscore.DEClash.Weighted>
0.1147

> <Gold.Chemscore.DEInternal.Weighted>
0.7464

> <Gold.Chemscore.Rot.Weighted>
3.9635

> <Gold.Chemscore.Internal.Correction.Weighted>
   9.000000E+99

> <Gold.Protein.RotatedTorsions>
[ 6907 6896 6895 6894 ] final  -36.38 input  -60.11 | X-H torsion
[ 7974 7965 7964 7962 ] final -160.31 input  175.53 | X-H torsion
[ 8008 7997 7996 7995 ] final  -72.87 input   59.86 | X-H torsion
[ 10167 10162 10161 10158 ] final   46.51 input  -65.29 | X-H torsion
[ 10718 10713 10712 10709 ] final  -70.21 input   66.30 | X-H torsion
[ 10763 10752 10751 10750 ] final -150.31 input  -60.55 | X-H torsion
[ 11005 11000 10999 10996 ] final  -16.54 input  -57.11 | X-H torsion

> <Gold.Protein.ActiveResidues>
 VAL166  LYS551  ARG553  GLY616  TRP617  ASP618  TYR619  PRO620  LYS621  CYS622 
 ASP623  PHE694  ASN695  SER759  ASP760  ASP761  ALA762  ILE779  LEU786  VAL792 
 PHE793  MET794  SER795  GLU796  ALA797  LYS798  CYS799  TRP800  GLU811  SER814 

> <Gold.Protein.RotatedAtoms>
  151.0279  134.9518  159.8095 H   0  0  0  0  0  0  0  0  0  0  0  0  # atno 6907 bound_to 6896
  152.5339  134.2818  159.9020 H   0  0  0  0  0  0  0  0  0  0  0  0  # atno 6908 bound_to 6896
  151.2826  133.4160  159.2662 H   0  0  0  0  0  0  0  0  0  0  0  0  # atno 6909 bound_to 6896
  144.7432  140.3559  143.6106 H   0  0  0  0  0  0  0  0  0  0  0  0  # atno 7974 bound_to 7965
  154.5201  140.0789  156.8156 H   0  0  0  0  0  0  0  0  0  0  0  0  # atno 8008 bound_to 7997
  155.3594  140.3417  155.4222 H   0  0  0  0  0  0  0  0  0  0  0  0  # atno 8009 bound_to 7997
  156.1672  140.1607  156.8498 H   0  0  0  0  0  0  0  0  0  0  0  0  # atno 8010 bound_to 7997
  140.3132  144.2795  150.6196 H   0  0  0  0  0  0  0  0  0  0  0  0  # atno 10167 bound_to 10162
  156.0418  130.4327  150.2262 H   0  0  0  0  0  0  0  0  0  0  0  0  # atno 10718 bound_to 10713
  154.8126  135.3287  154.7264 H   0  0  0  0  0  0  0  0  0  0  0  0  # atno 10763 bound_to 10752
  153.7910  135.6911  153.4876 H   0  0  0  0  0  0  0  0  0  0  0  0  # atno 10764 bound_to 10752
  153.1917  135.4548  155.0103 H   0  0  0  0  0  0  0  0  0  0  0  0  # atno 10765 bound_to 10752
  140.8078  133.8164  155.9533 H   0  0  0  0  0  0  0  0  0  0  0  0  # atno 11005 bound_to 11000
  145.7227  139.1714  143.2475 LP  0  0  0  0  0  0  0  0  0  0  0  0  # atno 17320 bound_to 7965
  146.1265  140.7242  142.9433 LP  0  0  0  0  0  0  0  0  0  0  0  0  # atno 17321 bound_to 7965
  140.5549  143.2200  151.7864 LP  0  0  0  0  0  0  0  0  0  0  0  0  # atno 17342 bound_to 10162
  139.4889  144.4426  151.9746 LP  0  0  0  0  0  0  0  0  0  0  0  0  # atno 17343 bound_to 10162
  157.0356  131.0020  151.3299 LP  0  0  0  0  0  0  0  0  0  0  0  0  # atno 17370 bound_to 10713
  157.5246  130.8020  149.7847 LP  0  0  0  0  0  0  0  0  0  0  0  0  # atno 17371 bound_to 10713
  140.9229  134.2119  157.4915 LP  0  0  0  0  0  0  0  0  0  0  0  0  # atno 17394 bound_to 11000
  139.8716  134.9800  156.5058 LP  0  0  0  0  0  0  0  0  0  0  0  0  # atno 17395 bound_to 11000

$$$$
