AV-unprocessed.smi:1518|AV-procd|sdf|6126|dock10
  -GOLD-   22720 6263D 1   1.00000     0.00000
 Structure written by MMmdl.
 46 48  0  0  0  0  0  0  0  0  2 V2000
  154.2507  140.4114  160.9067 C   0  0  0  0  0  0  0  0  0  0  0  0
  153.8903  141.7623  161.5229 C   0  0  0  0  0  0  0  0  0  0  0  0
  154.3299  142.0366  162.6391 O   0  0  0  0  0  0  0  0  0  0  0  0
  153.0201  142.6809  160.7334 C   0  0  0  0  0  0  0  0  0  0  0  0
  152.6936  143.9486  161.2657 C   0  0  0  0  0  0  0  0  0  0  0  0
  151.8733  144.8346  160.5447 C   0  0  0  0  0  0  0  0  0  0  0  0
  151.3728  144.4636  159.2841 C   0  0  0  0  0  0  0  0  0  0  0  0
  151.6845  143.2073  158.7286 C   0  0  0  0  0  0  0  0  0  0  0  0
  151.1539  142.9286  157.4874 O   0  0  0  0  0  0  0  0  0  0  0  0
  151.3751  141.6400  156.9292 C   0  0  0  0  0  0  0  0  0  0  0  0
  150.0861  140.8165  157.0615 C   0  0  2  0  0  0  0  0  0  0  0  0
  149.4780  141.1266  158.2994 O   0  0  0  0  0  0  0  0  0  0  0  0
  150.3457  139.2998  156.9612 C   0  0  0  0  0  0  0  0  0  0  0  0
  149.5469  138.6530  155.9081 N   0  0  0  0  0  0  0  0  0  0  0  0
  149.9317  138.1760  154.6892 C   0  0  0  0  0  0  0  0  0  0  0  0
  151.3095  138.1939  154.1137 C   0  0  0  0  0  0  0  0  0  0  0  0
  151.7643  136.9034  153.7726 O   0  0  0  0  0  0  0  0  0  0  0  0
  148.8222  137.6621  154.0877 N   0  3  0  0  0  0  0  0  0  0  0  0
  147.7172  137.8133  154.9262 C   0  0  0  0  0  0  0  0  0  0  0  0
  146.3854  137.4500  154.7507 C   0  0  0  0  0  0  0  0  0  0  0  0
  145.5029  137.7496  155.8089 C   0  0  0  0  0  0  0  0  0  0  0  0
  145.9547  138.3862  156.9831 C   0  0  0  0  0  0  0  0  0  0  0  0
  147.3074  138.7495  157.1497 C   0  0  0  0  0  0  0  0  0  0  0  0
  148.1745  138.4491  156.0990 C   0  0  0  0  0  0  0  0  0  0  0  0
  152.5101  142.3179  159.4631 C   0  0  0  0  0  0  0  0  0  0  0  0
  154.7805  140.5493  159.9639 H   0  0  0  0  0  0  0  0  0  0  0  0
  153.3515  139.8234  160.7222 H   0  0  0  0  0  0  0  0  0  0  0  0
  154.8950  139.8451  161.5795 H   0  0  0  0  0  0  0  0  0  0  0  0
  153.0677  144.2551  162.2321 H   0  0  0  0  0  0  0  0  0  0  0  0
  151.6276  145.8011  160.9594 H   0  0  0  0  0  0  0  0  0  0  0  0
  150.7439  145.1509  158.7374 H   0  0  0  0  0  0  0  0  0  0  0  0
  151.6639  141.7147  155.8792 H   0  0  0  0  0  0  0  0  0  0  0  0
  152.1845  141.1468  157.4707 H   0  0  0  0  0  0  0  0  0  0  0  0
  149.3927  141.1209  156.2769 H   0  0  0  0  0  0  0  0  0  0  0  0
  149.6984  140.4500  158.9208 H   0  0  0  0  0  0  0  0  0  0  0  0
  151.3939  139.1168  156.7222 H   0  0  0  0  0  0  0  0  0  0  0  0
  150.1648  138.8014  157.9135 H   0  0  0  0  0  0  0  0  0  0  0  0
  151.3232  138.8228  153.2232 H   0  0  0  0  0  0  0  0  0  0  0  0
  152.0009  138.6383  154.8294 H   0  0  0  0  0  0  0  0  0  0  0  0
  151.7379  136.8141  152.8319 H   0  0  0  0  0  0  0  0  0  0  0  0
  146.0369  136.9630  153.8517 H   0  0  0  0  0  0  0  0  0  0  0  0
  144.4588  137.4869  155.7176 H   0  0  0  0  0  0  0  0  0  0  0  0
  145.2491  138.6012  157.7727 H   0  0  0  0  0  0  0  0  0  0  0  0
  147.6390  139.2393  158.0527 H   0  0  0  0  0  0  0  0  0  0  0  0
  152.7543  141.3514  159.0526 H   0  0  0  0  0  0  0  0  0  0  0  0
  148.8253  137.2351  153.1704 H   0  0  0  0  0  0  0  0  0  0  0  0
  1  2  1  0  0  0  0
  1 26  1  0  0  0  0
  1 27  1  0  0  0  0
  1 28  1  0  0  0  0
  2  3  2  0  0  0  0
  2  4  1  0  0  0  0
  4 25  1  0  0  0  0
  4  5  2  0  0  0  0
  5  6  1  0  0  0  0
  5 29  1  0  0  0  0
  6  7  2  0  0  0  0
  6 30  1  0  0  0  0
  7  8  1  0  0  0  0
  7 31  1  0  0  0  0
  8  9  1  0  0  0  0
  8 25  2  0  0  0  0
  9 10  1  0  0  0  0
 10 11  1  0  0  0  0
 10 32  1  0  0  0  0
 10 33  1  0  0  0  0
 11 12  1  0  0  0  0
 11 13  1  0  0  0  0
 11 34  1  0  0  0  0
 12 35  1  0  0  0  0
 13 14  1  0  0  0  0
 13 36  1  0  0  0  0
 13 37  1  0  0  0  0
 14 24  1  0  0  0  0
 14 15  1  0  0  0  0
 15 16  1  0  0  0  0
 15 18  2  0  0  0  0
 16 17  1  0  0  0  0
 16 38  1  0  0  0  0
 16 39  1  0  0  0  0
 17 40  1  0  0  0  0
 18 19  1  0  0  0  0
 18 46  1  0  0  0  0
 19 24  2  0  0  0  0
 19 20  1  0  0  0  0
 20 21  2  0  0  0  0
 20 41  1  0  0  0  0
 21 22  1  0  0  0  0
 21 42  1  0  0  0  0
 22 23  2  0  0  0  0
 22 43  1  0  0  0  0
 23 24  1  0  0  0  0
 23 44  1  0  0  0  0
 25 45  1  0  0  0  0
M  CHG  1  18   1
M  END
> <s_m_source_file>
AV-unprocessed.smi

> <i_m_source_file_index>
1518

> <i_lp_mmshare_version>
43012

> <i_f3d_flags>
0

> <s_epik_input>
W0NIM11DKD1PKWMxW2NIXVtjSF1bY0hdYyhbY0hdMSlPW0NIMl1bQ0BIXShbT0hdKVtDSDJdbihjKG4yKVtDSDJdW09IXSljKGMyMylbY0hdW2NIXVtjSF1bY0hdMw==

> <s_epik_cmdline>
J2VwaWtfcHl0aG9uJywgJy1waCcsICc3LjAnLCAnLXRuJywgJzgnLCAnLW1hJywgJzIwMCcsICctbWV0YWxfYmluZGluZycsICctaW1hZScsICc8aW5maWxlLm1hZT4nLCAnLW9tYWUnLCAnPG91dGZpbGUubWFlPic=

> <r_lp_tautomer_probability>
0.99995

> <r_epik_Ionization_Penalty>
1.40416

> <r_epik_Ionization_Penalty_Charging>
1.4033

> <r_epik_Ionization_Penalty_Neutral>
0.000858184

> <r_epik_State_Penalty>
1.48564

> <r_epik_Charging_Adjusted_Penalty>
2.88894

> <i_epik_Tot_Q>
1

> <i_epik_Tot_abs_Q>
1

> <r_epik_Metal_State_Penalty>
5.52809

> <b_epik_Metal_Only>
0

> <s_lp_Force_Field>
OPLS_2005

> <r_lp_Energy>
23.9778

> <b_lp_Chiralities_Consistent>
1

> <s_lp_Variant>
AV-unprocessed.smi:1518-3

> <Gold.Version>
5.8.1

> <Gold.Id.Protein>
6NUR|6NUR_protein|mol2

> <Gold.PLP.Fitness>
52.1522

> <Gold.PLP.PLP>
-42.9407

> <Gold.PLP.part.hbond>
-4.0000

> <Gold.PLP.part.metal>
0.0000

> <Gold.PLP.part.buried>
-7.5629

> <Gold.PLP.part.nonpolar>
-29.9507

> <Gold.PLP.part.repulsive>
0.1602

> <Gold.PLP.ligand.clash>
0.0000

> <Gold.PLP.ligand.torsion>
1.4495

> <Gold.PLP.Chemscore.Hbond>
3.9920

> <Gold.PLP.Chemscore.CHOScore>
0.0000

> <Gold.PLP.Chemscore.Metal>
0.0000

> <Gold.Chemscore.Hbonds>
donor molecule, donor type, donor heavy atom, donor atom, acceptor molecule, acceptor atom, score
      L1  H    17    40       P1  7949  0.98
      L1  H    18    46       P1  7948  2.00
      P1  H 10752 10765       L1    17  0.91

> <Gold.PLP.Chemscore.Internal.Correction>
0.1346

> <Gold.Rescore>
     Score         DG    S(hbond)    S(metal)    S(lipo)     H(rot)  DE(clash)    DE(int)     intcor
     15.76     -17.88       2.65        0.00     103.47       3.34       0.03       2.09       ----

> <Gold.Chemscore.Fitness>
15.7574

> <Gold.Chemscore.DG>
-17.8815

> <Gold.Chemscore.ZeroCoef>
-5.4800

> <Gold.Chemscore.Hbond>
2.6477

> <Gold.Chemscore.Metal>
0.0000

> <Gold.Chemscore.Lipo>
103.4655

> <Gold.Chemscore.Internal_Hbond>
0.0000

> <Gold.Chemscore.DEClash>
0.0308

> <Gold.Chemscore.DEInternal>
2.0932

> <Gold.Chemscore.Rot>
3.3387

> <Gold.Chemscore.Internal.Correction>
   9.000000E+99

> <Gold.Chemscore.Hbonds>
donor molecule, donor type, donor heavy atom, donor atom, acceptor molecule, acceptor atom, score
      L1  H    17    40       P1  7949  0.93
      L1  H    18    46       P1  7948  1.00
      P1  H 10752 10765       L1    17  0.58

> <Gold.Chemscore.Hbond.Weighted>
-8.8432

> <Gold.Chemscore.Metal.Weighted>
-0.0000

> <Gold.Chemscore.Lipo.Weighted>
-12.1055

> <Gold.Chemscore.Internal_Hbond.Weighted>
0.0000

> <Gold.Chemscore.DEClash.Weighted>
0.0308

> <Gold.Chemscore.DEInternal.Weighted>
2.0932

> <Gold.Chemscore.Rot.Weighted>
8.5471

> <Gold.Chemscore.Internal.Correction.Weighted>
   9.000000E+99

> <Gold.Protein.RotatedTorsions>
[ 6907 6896 6895 6894 ] final    6.07 input  -60.11 | X-H torsion
[ 7974 7965 7964 7962 ] final   70.06 input  175.53 | X-H torsion
[ 8008 7997 7996 7995 ] final    7.79 input   59.86 | X-H torsion
[ 10167 10162 10161 10158 ] final  -34.61 input  -65.29 | X-H torsion
[ 10718 10713 10712 10709 ] final  -32.54 input   66.30 | X-H torsion
[ 10763 10752 10751 10750 ] final  171.79 input  -60.55 | X-H torsion
[ 11005 11000 10999 10996 ] final -146.06 input  -57.11 | X-H torsion

> <Gold.Protein.ActiveResidues>
 VAL166  LYS551  ARG553  GLY616  TRP617  ASP618  TYR619  PRO620  LYS621  CYS622 
 ASP623  PHE694  ASN695  SER759  ASP760  ASP761  ALA762  ILE779  LEU786  VAL792 
 PHE793  MET794  SER795  GLU796  ALA797  LYS798  CYS799  TRP800  GLU811  SER814 

> <Gold.Protein.RotatedAtoms>
  151.6678  135.0980  160.0191 H   0  0  0  0  0  0  0  0  0  0  0  0  # atno 6907 bound_to 6896
  152.3909  133.6674  159.6245 H   0  0  0  0  0  0  0  0  0  0  0  0  # atno 6908 bound_to 6896
  150.7825  133.8872  159.3344 H   0  0  0  0  0  0  0  0  0  0  0  0  # atno 6909 bound_to 6896
  145.7828  139.2896  143.1256 H   0  0  0  0  0  0  0  0  0  0  0  0  # atno 7974 bound_to 7965
  154.7584  140.2780  155.6234 H   0  0  0  0  0  0  0  0  0  0  0  0  # atno 8008 bound_to 7997
  156.2910  140.2664  156.2283 H   0  0  0  0  0  0  0  0  0  0  0  0  # atno 8009 bound_to 7997
  155.0048  140.0372  157.2365 H   0  0  0  0  0  0  0  0  0  0  0  0  # atno 8010 bound_to 7997
  140.7182  143.3536  151.2105 H   0  0  0  0  0  0  0  0  0  0  0  0  # atno 10167 bound_to 10162
  156.3736  130.4344  149.7525 H   0  0  0  0  0  0  0  0  0  0  0  0  # atno 10718 bound_to 10713
  154.4169  135.2757  155.2001 H   0  0  0  0  0  0  0  0  0  0  0  0  # atno 10763 bound_to 10752
  154.3963  135.6055  153.5875 H   0  0  0  0  0  0  0  0  0  0  0  0  # atno 10764 bound_to 10752
  152.9832  135.5915  154.4459 H   0  0  0  0  0  0  0  0  0  0  0  0  # atno 10765 bound_to 10752
  140.7859  134.3025  157.5030 H   0  0  0  0  0  0  0  0  0  0  0  0  # atno 11005 bound_to 11000
  146.0057  140.8481  142.9996 LP  0  0  0  0  0  0  0  0  0  0  0  0  # atno 17320 bound_to 7965
  144.6794  140.2416  143.7343 LP  0  0  0  0  0  0  0  0  0  0  0  0  # atno 17321 bound_to 7965
  139.7072  143.9435  152.2932 LP  0  0  0  0  0  0  0  0  0  0  0  0  # atno 17342 bound_to 10162
  139.9148  144.6835  150.8523 LP  0  0  0  0  0  0  0  0  0  0  0  0  # atno 17343 bound_to 10162
  156.4643  130.7967  151.2986 LP  0  0  0  0  0  0  0  0  0  0  0  0  # atno 17370 bound_to 10713
  157.7486  131.0056  150.3119 LP  0  0  0  0  0  0  0  0  0  0  0  0  # atno 17371 bound_to 10713
  139.8737  134.9346  156.3611 LP  0  0  0  0  0  0  0  0  0  0  0  0  # atno 17394 bound_to 11000
  140.9437  133.7497  156.0180 LP  0  0  0  0  0  0  0  0  0  0  0  0  # atno 17395 bound_to 11000

$$$$
