AV-unprocessed.smi:3150|AV-procd|sdf|12014|dock9
  -GOLD-   2272017423D 1   1.00000     0.00000
 Structure written by MMmdl.
 32 33  0  0  0  0  0  0  0  0  2 V2000
  147.4591  138.8188  157.7797 C   0  0  0  0  0  0  0  0  0  0  0  0
  148.6912  137.9072  157.6757 C   0  0  1  0  0  0  0  0  0  0  0  0
  149.8397  138.7453  157.5725 O   0  0  0  0  0  0  0  0  0  0  0  0
  149.7605  139.7663  156.5852 C   0  0  0  0  0  0  0  0  0  0  0  0
  150.9540  140.6845  156.7358 C   0  0  0  0  0  0  0  0  0  0  0  0
  151.0337  141.6447  157.9012 C   0  0  0  0  0  0  0  0  0  0  0  0
  150.8161  142.1728  156.5063 C   0  0  0  0  0  0  0  0  0  0  0  0
  148.8130  136.9805  158.8969 C   0  0  0  0  0  0  0  0  0  0  0  0
  149.9040  136.8400  159.4514 O   0  0  0  0  0  0  0  0  0  0  0  0
  147.6781  136.3603  159.2692 N   0  0  0  0  0  0  0  0  0  0  0  0
  147.4723  135.4403  160.3339 C   0  0  0  0  0  0  0  0  0  0  0  0
  147.3311  134.1050  160.1374 N   0  0  0  0  0  0  0  0  0  0  0  0
  147.1385  133.2972  161.2003 C   0  0  0  0  0  0  0  0  0  0  0  0
  147.0745  133.7665  162.5240 C   0  0  0  0  0  0  0  0  0  0  0  0
  147.2187  135.1474  162.7436 C   0  0  0  0  0  0  0  0  0  0  0  0
  147.4203  135.9985  161.6387 C   0  0  0  0  0  0  0  0  0  0  0  0
  147.5590  137.3433  161.8534 O   0  5  0  0  0  0  0  0  0  0  0  0
  146.5428  138.2363  157.8810 H   0  0  0  0  0  0  0  0  0  0  0  0
  147.3594  139.4355  156.8864 H   0  0  0  0  0  0  0  0  0  0  0  0
  147.5271  139.4907  158.6363 H   0  0  0  0  0  0  0  0  0  0  0  0
  148.5960  137.3099  156.7666 H   0  0  0  0  0  0  0  0  0  0  0  0
  149.7479  139.3519  155.5764 H   0  0  0  0  0  0  0  0  0  0  0  0
  148.8488  140.3498  156.7185 H   0  0  0  0  0  0  0  0  0  0  0  0
  151.8968  140.2346  156.4303 H   0  0  0  0  0  0  0  0  0  0  0  0
  150.1899  141.6808  158.5876 H   0  0  0  0  0  0  0  0  0  0  0  0
  152.0100  141.8057  158.3536 H   0  0  0  0  0  0  0  0  0  0  0  0
  151.6475  142.6847  156.0258 H   0  0  0  0  0  0  0  0  0  0  0  0
  149.8281  142.5584  156.2624 H   0  0  0  0  0  0  0  0  0  0  0  0
  146.8544  136.5584  158.7195 H   0  0  0  0  0  0  0  0  0  0  0  0
  147.0323  132.2437  160.9877 H   0  0  0  0  0  0  0  0  0  0  0  0
  146.9189  133.0862  163.3479 H   0  0  0  0  0  0  0  0  0  0  0  0
  147.1745  135.5462  163.7468 H   0  0  0  0  0  0  0  0  0  0  0  0
  1  2  1  0  0  0  0
  1 18  1  0  0  0  0
  1 19  1  0  0  0  0
  1 20  1  0  0  0  0
  2  3  1  0  0  0  0
  2  8  1  0  0  0  0
  2 21  1  0  0  0  0
  3  4  1  0  0  0  0
  4  5  1  0  0  0  0
  4 22  1  0  0  0  0
  4 23  1  0  0  0  0
  5  7  1  0  0  0  0
  5  6  1  0  0  0  0
  5 24  1  0  0  0  0
  6  7  1  0  0  0  0
  6 25  1  0  0  0  0
  6 26  1  0  0  0  0
  7 27  1  0  0  0  0
  7 28  1  0  0  0  0
  8  9  2  0  0  0  0
  8 10  1  0  0  0  0
 10 29  1  0  0  0  0
 10 11  1  0  0  0  0
 11 16  2  0  0  0  0
 11 12  1  0  0  0  0
 12 13  2  0  0  0  0
 13 30  1  0  0  0  0
 13 14  1  0  0  0  0
 14 31  1  0  0  0  0
 14 15  2  0  0  0  0
 15 16  1  0  0  0  0
 15 32  1  0  0  0  0
 16 17  1  0  0  0  0
M  CHG  1  17  -1
M  END
> <s_m_source_file>
AV-unprocessed.smi

> <i_m_source_file_index>
3150

> <i_lp_mmshare_version>
43012

> <i_f3d_flags>
0

> <s_epik_input>
W0NIMl0xW0NIMl1bQ0hdMVtDSDJdT1tDQEBIXShbQ0gzXSlDKD1PKVtOSF1jMm5bY0hdW2NIXVtjSF1jMltPSF0=

> <s_epik_cmdline>
J2VwaWtfcHl0aG9uJywgJy1waCcsICc3LjAnLCAnLXRuJywgJzgnLCAnLW1hJywgJzIwMCcsICctbWV0YWxfYmluZGluZycsICctaW1hZScsICc8aW5maWxlLm1hZT4nLCAnLW9tYWUnLCAnPG91dGZpbGUubWFlPic=

> <r_epik_Ionization_Penalty>
4.12024

> <r_epik_Ionization_Penalty_Charging>
2.08551

> <r_epik_Ionization_Penalty_Neutral>
2.03473

> <r_epik_State_Penalty>
2.65726

> <r_epik_Charging_Adjusted_Penalty>
4.74277

> <i_epik_Tot_Q>
-1

> <i_epik_Tot_abs_Q>
1

> <r_epik_Metal_State_Penalty>
0.600747

> <b_epik_Metal_Only>
0

> <s_lp_Force_Field>
OPLS_2005

> <r_lp_Energy>
13.8702

> <b_lp_Chiralities_Consistent>
1

> <s_lp_Variant>
AV-unprocessed.smi:3150-8

> <Gold.Version>
5.8.1

> <Gold.Id.Protein>
6NUR|6NUR_protein|mol2

> <Gold.PLP.Fitness>
40.8579

> <Gold.PLP.PLP>
-29.3242

> <Gold.PLP.part.hbond>
-3.1386

> <Gold.PLP.part.metal>
0.0000

> <Gold.PLP.part.buried>
-4.6853

> <Gold.PLP.part.nonpolar>
-21.6175

> <Gold.PLP.part.repulsive>
0.1192

> <Gold.PLP.ligand.clash>
0.0000

> <Gold.PLP.ligand.torsion>
1.4039

> <Gold.PLP.Chemscore.Hbond>
4.5840

> <Gold.PLP.Chemscore.CHOScore>
0.0000

> <Gold.PLP.Chemscore.Metal>
0.0000

> <Gold.Chemscore.Hbonds>
donor molecule, donor type, donor heavy atom, donor atom, acceptor molecule, acceptor atom, score
      P1  H  6896  6907       L1     9  0.65
      P1  H  6931  6943       L1    17  1.79
      P1  H  6934  6947       L1    17  1.34

> <Gold.PLP.Chemscore.Internal.Correction>
0.5895

> <Gold.Rescore>
     Score         DG    S(hbond)    S(metal)    S(lipo)     H(rot)  DE(clash)    DE(int)     intcor
     15.70     -17.33       2.75        0.00      58.71       1.64       0.00       1.63       ----

> <Gold.Chemscore.Fitness>
15.7003

> <Gold.Chemscore.DG>
-17.3348

> <Gold.Chemscore.ZeroCoef>
-5.4800

> <Gold.Chemscore.Hbond>
2.7487

> <Gold.Chemscore.Metal>
0.0000

> <Gold.Chemscore.Lipo>
58.7118

> <Gold.Chemscore.Internal_Hbond>
0.0000

> <Gold.Chemscore.DEClash>
0.0000

> <Gold.Chemscore.DEInternal>
1.6345

> <Gold.Chemscore.Rot>
1.6387

> <Gold.Chemscore.Internal.Correction>
   9.000000E+99

> <Gold.Chemscore.Hbonds>
donor molecule, donor type, donor heavy atom, donor atom, acceptor molecule, acceptor atom, score
      P1  H  6896  6907       L1     9  0.65
      P1  H  6931  6943       L1    17  0.86
      P1  H  6934  6947       L1    17  0.67

> <Gold.Chemscore.Hbond.Weighted>
-9.1806

> <Gold.Chemscore.Metal.Weighted>
-0.0000

> <Gold.Chemscore.Lipo.Weighted>
-6.8693

> <Gold.Chemscore.Internal_Hbond.Weighted>
0.0000

> <Gold.Chemscore.DEClash.Weighted>
0.0000

> <Gold.Chemscore.DEInternal.Weighted>
1.6345

> <Gold.Chemscore.Rot.Weighted>
4.1950

> <Gold.Chemscore.Internal.Correction.Weighted>
   9.000000E+99

> <Gold.Protein.RotatedTorsions>
[ 6907 6896 6895 6894 ] final  -27.72 input  -60.11 | X-H torsion
[ 7974 7965 7964 7962 ] final   65.92 input  175.53 | X-H torsion
[ 8008 7997 7996 7995 ] final  126.13 input   59.86 | X-H torsion
[ 10167 10162 10161 10158 ] final  -68.13 input  -65.29 | X-H torsion
[ 10718 10713 10712 10709 ] final  172.82 input   66.30 | X-H torsion
[ 10763 10752 10751 10750 ] final  133.42 input  -60.55 | X-H torsion
[ 11005 11000 10999 10996 ] final  143.11 input  -57.11 | X-H torsion

> <Gold.Protein.ActiveResidues>
 VAL166  LYS551  ARG553  GLY616  TRP617  ASP618  TYR619  PRO620  LYS621  CYS622 
 ASP623  PHE694  ASN695  SER759  ASP760  ASP761  ALA762  ILE779  LEU786  VAL792 
 PHE793  MET794  SER795  GLU796  ALA797  LYS798  CYS799  TRP800  GLU811  SER814 

> <Gold.Protein.RotatedAtoms>
  151.1430  135.0189  159.8633 H   0  0  0  0  0  0  0  0  0  0  0  0  # atno 6907 bound_to 6896
  152.5452  134.1477  159.8515 H   0  0  0  0  0  0  0  0  0  0  0  0  # atno 6908 bound_to 6896
  151.1554  133.4834  159.2627 H   0  0  0  0  0  0  0  0  0  0  0  0  # atno 6909 bound_to 6896
  145.8327  139.3149  143.0977 H   0  0  0  0  0  0  0  0  0  0  0  0  # atno 7974 bound_to 7965
  156.2855  140.2700  156.2061 H   0  0  0  0  0  0  0  0  0  0  0  0  # atno 8008 bound_to 7997
  155.0311  140.0386  157.2492 H   0  0  0  0  0  0  0  0  0  0  0  0  # atno 8009 bound_to 7997
  154.7353  140.2714  155.6425 H   0  0  0  0  0  0  0  0  0  0  0  0  # atno 8010 bound_to 7997
  140.5530  143.2312  151.6874 H   0  0  0  0  0  0  0  0  0  0  0  0  # atno 10167 bound_to 10162
  156.9733  131.0097  151.2900 H   0  0  0  0  0  0  0  0  0  0  0  0  # atno 10718 bound_to 10713
  153.8069  135.3134  155.3396 H   0  0  0  0  0  0  0  0  0  0  0  0  # atno 10763 bound_to 10752
  154.8067  135.4693  154.0413 H   0  0  0  0  0  0  0  0  0  0  0  0  # atno 10764 bound_to 10752
  153.1779  135.6888  153.8606 H   0  0  0  0  0  0  0  0  0  0  0  0  # atno 10765 bound_to 10752
  140.0529  134.9246  157.1048 H   0  0  0  0  0  0  0  0  0  0  0  0  # atno 11005 bound_to 11000
  145.9552  140.8878  143.0238 LP  0  0  0  0  0  0  0  0  0  0  0  0  # atno 17320 bound_to 7965
  144.6738  140.1736  143.7412 LP  0  0  0  0  0  0  0  0  0  0  0  0  # atno 17321 bound_to 7965
  139.5036  144.3787  152.0398 LP  0  0  0  0  0  0  0  0  0  0  0  0  # atno 17342 bound_to 10162
  140.2905  144.3759  150.6090 LP  0  0  0  0  0  0  0  0  0  0  0  0  # atno 17343 bound_to 10162
  157.5577  130.8225  149.8226 LP  0  0  0  0  0  0  0  0  0  0  0  0  # atno 17370 bound_to 10713
  156.0274  130.3775  150.1785 LP  0  0  0  0  0  0  0  0  0  0  0  0  # atno 17371 bound_to 10713
  140.3890  134.2205  155.7167 LP  0  0  0  0  0  0  0  0  0  0  0  0  # atno 17394 bound_to 11000
  141.1938  133.8142  157.0782 LP  0  0  0  0  0  0  0  0  0  0  0  0  # atno 17395 bound_to 11000

$$$$
