AV-unprocessed.smi:328|AV-procd|sdf|2347|dock5
  -GOLD-   2262022253D 1   1.00000     0.00000
 Structure written by MMmdl.
 23 24  0  0  0  0  0  0  0  0  2 V2000
  151.2125  140.0247  155.0152 O   0  0  0  0  0  0  0  0  0  0  0  0
  151.5262  140.2431  156.2061 C   0  0  0  0  0  0  0  0  0  0  0  0
  152.6022  139.9058  156.7480 O   0  5  0  0  0  0  0  0  0  0  0  0
  150.5120  140.9917  157.0743 C   0  0  0  0  0  0  0  0  0  0  0  0
  151.2386  142.0696  157.8283 C   0  0  0  0  0  0  0  0  0  0  0  0
  151.2808  143.4086  157.5207 C   0  0  0  0  0  0  0  0  0  0  0  0
  152.2376  144.3135  158.6607 S   0  0  0  0  0  0  0  0  0  0  0  0
  152.5389  142.8179  159.5429 C   0  0  0  0  0  0  0  0  0  0  0  0
  153.3305  142.7549  160.7285 N   0  0  0  0  0  0  0  0  0  0  0  0
  153.1051  143.6764  161.8353 C   0  0  0  0  0  0  0  0  0  0  0  0
  154.1559  143.2757  162.8663 C   0  0  0  0  0  0  0  0  0  0  0  0
  154.8250  142.1788  162.2076 N   0  0  0  0  0  0  0  0  0  0  0  0
  154.3391  141.8990  160.9960 C   0  0  0  0  0  0  0  0  0  0  0  0
  154.7660  140.9983  160.2753 O   0  0  0  0  0  0  0  0  0  0  0  0
  151.9523  141.7502  158.9890 N   0  0  0  0  0  0  0  0  0  0  0  0
  149.7293  141.4184  156.4460 H   0  0  0  0  0  0  0  0  0  0  0  0
  150.0258  140.2885  157.7522 H   0  0  0  0  0  0  0  0  0  0  0  0
  150.8138  143.9106  156.6864 H   0  0  0  0  0  0  0  0  0  0  0  0
  153.2386  144.7093  161.5108 H   0  0  0  0  0  0  0  0  0  0  0  0
  152.0952  143.5622  162.2319 H   0  0  0  0  0  0  0  0  0  0  0  0
  154.8577  144.0844  163.0729 H   0  0  0  0  0  0  0  0  0  0  0  0
  153.7068  142.9451  163.8035 H   0  0  0  0  0  0  0  0  0  0  0  0
  155.5883  141.6747  162.6354 H   0  0  0  0  0  0  0  0  0  0  0  0
  1  2  2  0  0  0  0
  2  3  1  0  0  0  0
  2  4  1  0  0  0  0
  4  5  1  0  0  0  0
  4 16  1  0  0  0  0
  4 17  1  0  0  0  0
  5 15  1  0  0  0  0
  5  6  2  0  0  0  0
  6  7  1  0  0  0  0
  6 18  1  0  0  0  0
  7  8  1  0  0  0  0
  8  9  1  0  0  0  0
  8 15  2  0  0  0  0
  9 13  1  0  0  0  0
  9 10  1  0  0  0  0
 10 11  1  0  0  0  0
 10 19  1  0  0  0  0
 10 20  1  0  0  0  0
 11 12  1  0  0  0  0
 11 21  1  0  0  0  0
 11 22  1  0  0  0  0
 12 13  1  0  0  0  0
 12 23  1  0  0  0  0
 13 14  2  0  0  0  0
M  CHG  1   3  -1
M  END
> <s_m_source_file>
AV-unprocessed.smi

> <i_m_source_file_index>
328

> <i_lp_mmshare_version>
43012

> <i_f3d_flags>
0

> <s_epik_input>
Tz1DKFtPSF0pW0NIMl1jMVtjSF1zYyhuMSlOMltDSDJdW0NIMl1bTkhdQzI9Tw==

> <s_epik_cmdline>
J2VwaWtfcHl0aG9uJywgJy1waCcsICc3LjAnLCAnLXRuJywgJzgnLCAnLW1hJywgJzIwMCcsICctbWV0YWxfYmluZGluZycsICctaW1hZScsICc8aW5maWxlLm1hZT4nLCAnLW9tYWUnLCAnPG91dGZpbGUubWFlPic=

> <r_lp_tautomer_probability>
1

> <r_epik_Ionization_Penalty>
0.000968476

> <r_epik_Ionization_Penalty_Charging>
0.000722293

> <r_epik_Ionization_Penalty_Neutral>
0.000246183

> <r_epik_State_Penalty>
0.000460635

> <r_epik_Charging_Adjusted_Penalty>
0.00118293

> <i_epik_Tot_Q>
-1

> <i_epik_Tot_abs_Q>
1

> <r_epik_Metal_State_Penalty>
-0

> <b_epik_Metal_Only>
0

> <s_lp_Force_Field>
OPLS_2005

> <r_lp_Energy>
33.9917

> <b_lp_Chiralities_Consistent>
1

> <s_lp_Variant>
AV-unprocessed.smi:328-1

> <Gold.Version>
5.8.1

> <Gold.Id.Protein>
6NUR|6NUR_protein|mol2

> <Gold.PLP.Fitness>
48.7339

> <Gold.PLP.PLP>
-39.3310

> <Gold.PLP.part.hbond>
-2.9876

> <Gold.PLP.part.metal>
0.0000

> <Gold.PLP.part.buried>
-5.1998

> <Gold.PLP.part.nonpolar>
-30.4084

> <Gold.PLP.part.repulsive>
0.0707

> <Gold.PLP.ligand.clash>
0.0000

> <Gold.PLP.ligand.torsion>
1.2995

> <Gold.PLP.Chemscore.Hbond>
3.0000

> <Gold.PLP.Chemscore.CHOScore>
1.0000

> <Gold.PLP.Chemscore.Metal>
0.0000

> <Gold.Chemscore.Hbonds>
donor molecule, donor type, donor heavy atom, donor atom, acceptor molecule, acceptor atom, score
      P1  H  7989  7998       L1     1  1.00
      P1  H  7997  8009       L1     3  2.00
      L1  C     6    18       P1  8028  1.00

> <Gold.PLP.Chemscore.Internal.Correction>
0.0020

> <Gold.Rescore>
     Score         DG    S(hbond)    S(metal)    S(lipo)     H(rot)  DE(clash)    DE(int)     intcor
     12.90     -15.52       1.99        0.00      63.20       1.57       0.00       2.61       ----

> <Gold.Chemscore.Fitness>
12.9041

> <Gold.Chemscore.DG>
-15.5181

> <Gold.Chemscore.ZeroCoef>
-5.4800

> <Gold.Chemscore.Hbond>
1.9914

> <Gold.Chemscore.Metal>
0.0000

> <Gold.Chemscore.Lipo>
63.1999

> <Gold.Chemscore.Internal_Hbond>
0.0000

> <Gold.Chemscore.DEClash>
0.0042

> <Gold.Chemscore.DEInternal>
2.6098

> <Gold.Chemscore.Rot>
1.5654

> <Gold.Chemscore.Internal.Correction>
   9.000000E+99

> <Gold.Chemscore.Hbonds>
donor molecule, donor type, donor heavy atom, donor atom, acceptor molecule, acceptor atom, score
      P1  H  7989  7998       L1     1  1.00
      P1  H  7997  8009       L1     3  1.00

> <Gold.Chemscore.Hbond.Weighted>
-6.6513

> <Gold.Chemscore.Metal.Weighted>
-0.0000

> <Gold.Chemscore.Lipo.Weighted>
-7.3944

> <Gold.Chemscore.Internal_Hbond.Weighted>
0.0000

> <Gold.Chemscore.DEClash.Weighted>
0.0042

> <Gold.Chemscore.DEInternal.Weighted>
2.6098

> <Gold.Chemscore.Rot.Weighted>
4.0075

> <Gold.Chemscore.Internal.Correction.Weighted>
   9.000000E+99

> <Gold.Protein.RotatedTorsions>
[ 6907 6896 6895 6894 ] final  138.85 input  -60.11 | X-H torsion
[ 7974 7965 7964 7962 ] final   68.16 input  175.53 | X-H torsion
[ 8008 7997 7996 7995 ] final -170.42 input   59.86 | X-H torsion
[ 10167 10162 10161 10158 ] final  -92.73 input  -65.29 | X-H torsion
[ 10718 10713 10712 10709 ] final  103.16 input   66.30 | X-H torsion
[ 10763 10752 10751 10750 ] final   86.94 input  -60.55 | X-H torsion
[ 11005 11000 10999 10996 ] final  -84.17 input  -57.11 | X-H torsion

> <Gold.Protein.ActiveResidues>
 VAL166  LYS551  ARG553  GLY616  TRP617  ASP618  TYR619  PRO620  LYS621  CYS622 
 ASP623  PHE694  ASN695  SER759  ASP760  ASP761  ALA762  ILE779  LEU786  VAL792 
 PHE793  MET794  SER795  GLU796  ALA797  LYS798  CYS799  TRP800  GLU811  SER814 

> <Gold.Protein.RotatedAtoms>
  152.2617  133.5304  159.5385 H   0  0  0  0  0  0  0  0  0  0  0  0  # atno 6907 bound_to 6896
  150.7127  134.0820  159.3910 H   0  0  0  0  0  0  0  0  0  0  0  0  # atno 6908 bound_to 6896
  151.8737  135.0480  160.0532 H   0  0  0  0  0  0  0  0  0  0  0  0  # atno 6909 bound_to 6896
  145.8060  139.3007  143.1127 H   0  0  0  0  0  0  0  0  0  0  0  0  # atno 7974 bound_to 7965
  155.9181  140.1069  157.1228 H   0  0  0  0  0  0  0  0  0  0  0  0  # atno 8008 bound_to 7997
  154.4050  140.1261  156.4709 H   0  0  0  0  0  0  0  0  0  0  0  0  # atno 8009 bound_to 7997
  155.7229  140.3469  155.5026 H   0  0  0  0  0  0  0  0  0  0  0  0  # atno 8010 bound_to 7997
  140.3318  143.2990  151.9933 H   0  0  0  0  0  0  0  0  0  0  0  0  # atno 10167 bound_to 10162
  157.6781  131.0772  150.5514 H   0  0  0  0  0  0  0  0  0  0  0  0  # atno 10718 bound_to 10713
  153.1619  135.4562  154.9784 H   0  0  0  0  0  0  0  0  0  0  0  0  # atno 10763 bound_to 10752
  154.7904  135.3218  154.7793 H   0  0  0  0  0  0  0  0  0  0  0  0  # atno 10764 bound_to 10752
  153.8282  135.6941  153.4872 H   0  0  0  0  0  0  0  0  0  0  0  0  # atno 10765 bound_to 10752
  141.1652  133.7332  156.8828 H   0  0  0  0  0  0  0  0  0  0  0  0  # atno 11005 bound_to 11000
  145.9828  140.8668  143.0106 LP  0  0  0  0  0  0  0  0  0  0  0  0  # atno 17320 bound_to 7965
  144.6763  140.2104  143.7377 LP  0  0  0  0  0  0  0  0  0  0  0  0  # atno 17321 bound_to 7965
  139.4855  144.6228  151.7221 LP  0  0  0  0  0  0  0  0  0  0  0  0  # atno 17342 bound_to 10162
  140.5390  144.0610  150.6081 LP  0  0  0  0  0  0  0  0  0  0  0  0  # atno 17343 bound_to 10162
  156.5818  130.4306  149.5974 LP  0  0  0  0  0  0  0  0  0  0  0  0  # atno 17370 bound_to 10713
  156.2655  130.6987  151.1768 LP  0  0  0  0  0  0  0  0  0  0  0  0  # atno 17371 bound_to 10713
  140.1703  134.9104  157.2825 LP  0  0  0  0  0  0  0  0  0  0  0  0  # atno 17394 bound_to 11000
  140.2510  134.3683  155.7442 LP  0  0  0  0  0  0  0  0  0  0  0  0  # atno 17395 bound_to 11000

$$$$
