AV-unprocessed.smi:1543|AV-procd|sdf|6211|dock1
  -GOLD-   22720 6383D 1   1.00000     0.00000
 Structure written by MMmdl.
 49 50  0  0  0  0  0  0  0  0  2 V2000
  151.2674  137.6814  155.8437 C   0  0  0  0  0  0  0  0  0  0  0  0
  151.1349  138.6179  154.6291 C   0  0  1  0  0  0  0  0  0  0  0  0
  149.7589  138.5385  153.9389 C   0  0  0  0  0  0  0  0  0  0  0  0
  148.7059  139.1986  154.7611 N   0  3  2  0  0  0  0  0  0  0  0  0
  147.2862  139.0125  154.2887 C   0  0  0  0  0  0  0  0  0  0  0  0
  146.3841  140.1278  154.8744 C   0  0  0  0  0  0  0  0  0  0  0  0
  147.2327  139.1856  152.7497 C   0  0  0  0  0  0  0  0  0  0  0  0
  146.7313  137.6163  154.7036 C   0  0  0  0  0  0  0  0  0  0  0  0
  146.8226  136.6121  153.6439 N   0  0  0  0  0  0  0  0  0  0  0  0
  145.8098  135.8557  153.1962 C   0  0  0  0  0  0  0  0  0  0  0  0
  144.6658  135.9195  153.6453 O   0  0  0  0  0  0  0  0  0  0  0  0
  146.2112  135.0464  152.2013 N   0  0  0  0  0  0  0  0  0  0  0  0
  145.4520  134.0816  151.4853 C   0  0  0  0  0  0  0  0  0  0  0  0
  145.9903  133.2066  150.5107 C   0  0  0  0  0  0  0  0  0  0  0  0
  145.1282  132.3060  149.8558 C   0  0  0  0  0  0  0  0  0  0  0  0
  143.7606  132.3183  150.1919 C   0  0  0  0  0  0  0  0  0  0  0  0
  143.2314  133.1564  151.1076 N   0  0  0  0  0  0  0  0  0  0  0  0
  144.0639  134.0170  151.7316 C   0  0  0  0  0  0  0  0  0  0  0  0
  149.1151  140.6012  155.0486 C   0  0  0  0  0  0  0  0  0  0  0  0
  150.4803  140.6312  155.7580 C   0  0  2  0  0  0  0  0  0  0  0  0
  150.9685  142.0637  156.0010 C   0  0  0  0  0  0  0  0  0  0  0  0
  151.4498  139.9710  154.9509 O   0  0  0  0  0  0  0  0  0  0  0  0
  151.1559  136.6397  155.5419 H   0  0  0  0  0  0  0  0  0  0  0  0
  150.5131  137.8784  156.6049 H   0  0  0  0  0  0  0  0  0  0  0  0
  152.2481  137.7848  156.3088 H   0  0  0  0  0  0  0  0  0  0  0  0
  151.8865  138.2996  153.9059 H   0  0  0  0  0  0  0  0  0  0  0  0
  149.8211  139.0251  152.9650 H   0  0  0  0  0  0  0  0  0  0  0  0
  149.5371  137.4895  153.7535 H   0  0  0  0  0  0  0  0  0  0  0  0
  145.4078  140.1537  154.3889 H   0  0  0  0  0  0  0  0  0  0  0  0
  146.8321  141.1133  154.7414 H   0  0  0  0  0  0  0  0  0  0  0  0
  146.1874  139.9872  155.9371 H   0  0  0  0  0  0  0  0  0  0  0  0
  146.2078  139.2742  152.3877 H   0  0  0  0  0  0  0  0  0  0  0  0
  147.6659  138.3378  152.2196 H   0  0  0  0  0  0  0  0  0  0  0  0
  147.7590  140.0863  152.4321 H   0  0  0  0  0  0  0  0  0  0  0  0
  147.2305  137.2463  155.5996 H   0  0  0  0  0  0  0  0  0  0  0  0
  145.6759  137.6902  154.9633 H   0  0  0  0  0  0  0  0  0  0  0  0
  147.7275  136.4920  153.2123 H   0  0  0  0  0  0  0  0  0  0  0  0
  147.1608  135.1708  151.8822 H   0  0  0  0  0  0  0  0  0  0  0  0
  147.0355  133.2164  150.2428 H   0  0  0  0  0  0  0  0  0  0  0  0
  145.5066  131.6242  149.1084 H   0  0  0  0  0  0  0  0  0  0  0  0
  143.0727  131.6413  149.7070 H   0  0  0  0  0  0  0  0  0  0  0  0
  143.6049  134.6741  152.4561 H   0  0  0  0  0  0  0  0  0  0  0  0
  149.1738  141.1724  154.1214 H   0  0  0  0  0  0  0  0  0  0  0  0
  148.3955  141.1053  155.6901 H   0  0  0  0  0  0  0  0  0  0  0  0
  150.4024  140.1336  156.7248 H   0  0  0  0  0  0  0  0  0  0  0  0
  150.2649  142.6185  156.6223 H   0  0  0  0  0  0  0  0  0  0  0  0
  151.0857  142.6063  155.0626 H   0  0  0  0  0  0  0  0  0  0  0  0
  151.9331  142.0660  156.5093 H   0  0  0  0  0  0  0  0  0  0  0  0
  148.7373  138.7269  155.6538 H   0  0  0  0  0  0  0  0  0  0  0  0
  1  2  1  0  0  0  0
  1 23  1  0  0  0  0
  1 24  1  0  0  0  0
  1 25  1  0  0  0  0
  2 22  1  0  0  0  0
  2  3  1  0  0  0  0
  2 26  1  0  0  0  0
  3  4  1  0  0  0  0
  3 27  1  0  0  0  0
  3 28  1  0  0  0  0
  4  5  1  0  0  0  0
  4 19  1  0  0  0  0
  4 49  1  0  0  0  0
  5  6  1  0  0  0  0
  5  7  1  0  0  0  0
  5  8  1  0  0  0  0
  6 29  1  0  0  0  0
  6 30  1  0  0  0  0
  6 31  1  0  0  0  0
  7 32  1  0  0  0  0
  7 33  1  0  0  0  0
  7 34  1  0  0  0  0
  8  9  1  0  0  0  0
  8 35  1  0  0  0  0
  8 36  1  0  0  0  0
  9 10  1  0  0  0  0
  9 37  1  0  0  0  0
 10 11  2  0  0  0  0
 10 12  1  0  0  0  0
 12 13  1  0  0  0  0
 12 38  1  0  0  0  0
 13 18  1  0  0  0  0
 13 14  2  0  0  0  0
 14 15  1  0  0  0  0
 14 39  1  0  0  0  0
 15 16  2  0  0  0  0
 15 40  1  0  0  0  0
 16 17  1  0  0  0  0
 16 41  1  0  0  0  0
 17 18  2  0  0  0  0
 18 42  1  0  0  0  0
 19 20  1  0  0  0  0
 19 43  1  0  0  0  0
 19 44  1  0  0  0  0
 20 21  1  0  0  0  0
 20 22  1  0  0  0  0
 20 45  1  0  0  0  0
 21 46  1  0  0  0  0
 21 47  1  0  0  0  0
 21 48  1  0  0  0  0
M  CHG  1   4   1
M  END
> <s_m_source_file>
AV-unprocessed.smi

> <i_m_source_file_index>
1543

> <i_lp_mmshare_version>
43012

> <i_f3d_flags>
0

> <s_epik_input>
W0NIM11bQ0BASF0xW0NIMl1OKFtDSDJdW0NASF0oTzEpW0NIM10pQyhbQ0gzXSkoW0NIM10pW0NIMl1bTkhdQyg9TylbTkhdYzJbY0hdW2NIXVtjSF1uW2NIXTI=

> <s_epik_cmdline>
J2VwaWtfcHl0aG9uJywgJy1waCcsICc3LjAnLCAnLXRuJywgJzgnLCAnLW1hJywgJzIwMCcsICctbWV0YWxfYmluZGluZycsICctaW1hZScsICc8aW5maWxlLm1hZT4nLCAnLW9tYWUnLCAnPG91dGZpbGUubWFlPic=

> <r_epik_Ionization_Penalty>
0.60676

> <r_epik_Ionization_Penalty_Charging>
0.602531

> <r_epik_Ionization_Penalty_Neutral>
0.00422967

> <r_epik_State_Penalty>
0.607492

> <r_epik_Charging_Adjusted_Penalty>
1.21002

> <i_epik_Tot_Q>
1

> <i_epik_Tot_abs_Q>
1

> <r_epik_Metal_State_Penalty>
0.604589

> <b_epik_Metal_Only>
0

> <s_lp_Force_Field>
OPLS_2005

> <r_lp_Energy>
30.6823

> <b_lp_Chiralities_Consistent>
1

> <s_lp_Variant>
AV-unprocessed.smi:1543-7

> <Gold.Version>
5.8.1

> <Gold.Id.Protein>
6NUR|6NUR_protein|mol2

> <Gold.PLP.Fitness>
41.7524

> <Gold.PLP.PLP>
-33.4605

> <Gold.PLP.part.hbond>
-3.0000

> <Gold.PLP.part.metal>
0.0000

> <Gold.PLP.part.buried>
-5.6774

> <Gold.PLP.part.nonpolar>
-25.7073

> <Gold.PLP.part.repulsive>
0.3422

> <Gold.PLP.ligand.clash>
0.0000

> <Gold.PLP.ligand.torsion>
1.5982

> <Gold.PLP.Chemscore.Hbond>
2.9913

> <Gold.PLP.Chemscore.CHOScore>
0.7994

> <Gold.PLP.Chemscore.Metal>
0.0000

> <Gold.Chemscore.Hbonds>
donor molecule, donor type, donor heavy atom, donor atom, acceptor molecule, acceptor atom, score
      L1  H     9    37       P1  7948  1.00
      L1  H    12    38       P1  7948  0.98
      P1  H  7989  7998       L1    22  1.00
      L1  C    16    41       P1 10952  0.82

> <Gold.PLP.Chemscore.Internal.Correction>
0.1164

> <Gold.Rescore>
     Score         DG    S(hbond)    S(metal)    S(lipo)     H(rot)  DE(clash)    DE(int)     intcor
     18.18     -21.19       2.60        0.00      92.10       1.46       0.37       2.65       ----

> <Gold.Chemscore.Fitness>
18.1777

> <Gold.Chemscore.DG>
-21.1945

> <Gold.Chemscore.ZeroCoef>
-5.4800

> <Gold.Chemscore.Hbond>
2.6001

> <Gold.Chemscore.Metal>
0.0000

> <Gold.Chemscore.Lipo>
92.1036

> <Gold.Chemscore.Internal_Hbond>
0.0000

> <Gold.Chemscore.DEClash>
0.3681

> <Gold.Chemscore.DEInternal>
2.6487

> <Gold.Chemscore.Rot>
1.4632

> <Gold.Chemscore.Internal.Correction>
   9.000000E+99

> <Gold.Chemscore.Hbonds>
donor molecule, donor type, donor heavy atom, donor atom, acceptor molecule, acceptor atom, score
      L1  H     9    37       P1  7948  0.99
      L1  H    12    38       P1  7948  0.87
      P1  H  7989  7998       L1    22  0.49

> <Gold.Chemscore.Hbond.Weighted>
-8.6842

> <Gold.Chemscore.Metal.Weighted>
-0.0000

> <Gold.Chemscore.Lipo.Weighted>
-10.7761

> <Gold.Chemscore.Internal_Hbond.Weighted>
0.0000

> <Gold.Chemscore.DEClash.Weighted>
0.3681

> <Gold.Chemscore.DEInternal.Weighted>
2.6487

> <Gold.Chemscore.Rot.Weighted>
3.7459

> <Gold.Chemscore.Internal.Correction.Weighted>
   9.000000E+99

> <Gold.Protein.RotatedTorsions>
[ 6907 6896 6895 6894 ] final   66.22 input  -60.11 | X-H torsion
[ 7974 7965 7964 7962 ] final   62.82 input  175.53 | X-H torsion
[ 8008 7997 7996 7995 ] final  155.97 input   59.86 | X-H torsion
[ 10167 10162 10161 10158 ] final -145.72 input  -65.29 | X-H torsion
[ 10718 10713 10712 10709 ] final    7.75 input   66.30 | X-H torsion
[ 10763 10752 10751 10750 ] final -156.99 input  -60.55 | X-H torsion
[ 11005 11000 10999 10996 ] final -177.31 input  -57.11 | X-H torsion

> <Gold.Protein.ActiveResidues>
 VAL166  LYS551  ARG553  GLY616  TRP617  ASP618  TYR619  PRO620  LYS621  CYS622 
 ASP623  PHE694  ASN695  SER759  ASP760  ASP761  ALA762  ILE779  LEU786  VAL792 
 PHE793  MET794  SER795  GLU796  ALA797  LYS798  CYS799  TRP800  GLU811  SER814 

> <Gold.Protein.RotatedAtoms>
  152.4465  134.5483  159.9859 H   0  0  0  0  0  0  0  0  0  0  0  0  # atno 6907 bound_to 6896
  151.5567  133.3403  159.2971 H   0  0  0  0  0  0  0  0  0  0  0  0  # atno 6908 bound_to 6896
  150.8383  134.7697  159.6975 H   0  0  0  0  0  0  0  0  0  0  0  0  # atno 6909 bound_to 6896
  145.8690  139.3365  143.0774 H   0  0  0  0  0  0  0  0  0  0  0  0  # atno 7974 bound_to 7965
  156.2449  140.1925  156.6883 H   0  0  0  0  0  0  0  0  0  0  0  0  # atno 8008 bound_to 7997
  154.6270  140.0601  156.9712 H   0  0  0  0  0  0  0  0  0  0  0  0  # atno 8009 bound_to 7997
  155.1771  140.3273  155.4384 H   0  0  0  0  0  0  0  0  0  0  0  0  # atno 8010 bound_to 7997
  139.7779  143.8143  152.2634 H   0  0  0  0  0  0  0  0  0  0  0  0  # atno 10167 bound_to 10162
  156.9416  130.5863  149.5653 H   0  0  0  0  0  0  0  0  0  0  0  0  # atno 10718 bound_to 10713
  154.7670  135.3134  154.8265 H   0  0  0  0  0  0  0  0  0  0  0  0  # atno 10763 bound_to 10752
  153.9011  135.6815  153.4759 H   0  0  0  0  0  0  0  0  0  0  0  0  # atno 10764 bound_to 10752
  153.1278  135.4793  154.9233 H   0  0  0  0  0  0  0  0  0  0  0  0  # atno 10765 bound_to 10752
  140.4424  134.6419  157.4763 H   0  0  0  0  0  0  0  0  0  0  0  0  # atno 11005 bound_to 11000
  145.9160  140.9148  143.0430 LP  0  0  0  0  0  0  0  0  0  0  0  0  # atno 17320 bound_to 7965
  144.6726  140.1224  143.7449 LP  0  0  0  0  0  0  0  0  0  0  0  0  # atno 17321 bound_to 7965
  139.8197  144.7301  150.9589 LP  0  0  0  0  0  0  0  0  0  0  0  0  # atno 17342 bound_to 10162
  140.7817  143.4171  151.0900 LP  0  0  0  0  0  0  0  0  0  0  0  0  # atno 17343 bound_to 10162
  156.0402  130.5485  150.8752 LP  0  0  0  0  0  0  0  0  0  0  0  0  # atno 17370 bound_to 10713
  157.5781  131.0946  150.9313 LP  0  0  0  0  0  0  0  0  0  0  0  0  # atno 17371 bound_to 10713
  140.0061  134.6762  155.9453 LP  0  0  0  0  0  0  0  0  0  0  0  0  # atno 17394 bound_to 11000
  141.1700  133.6537  156.4616 LP  0  0  0  0  0  0  0  0  0  0  0  0  # atno 17395 bound_to 11000

$$$$
