AV-unprocessed.smi:102|AV-procd|sdf|945|dock3
  -GOLD-   2262017463D 1   1.00000     0.00000
 Structure written by MMmdl.
 44 45  0  0  0  0  0  0  0  0  1 V2000
  146.6298  135.2588  162.2279 C   0  0  0  0  0  0  0  0  0  0  0  0
  147.3993  136.0656  161.1901 C   0  0  0  0  0  0  0  0  0  0  0  0
  147.7963  137.2062  161.4288 O   0  0  0  0  0  0  0  0  0  0  0  0
  147.5719  135.3951  160.0415 O   0  0  0  0  0  0  0  0  0  0  0  0
  148.7193  135.6506  159.2461 C   0  0  0  0  0  0  0  0  0  0  0  0
  148.3054  136.1844  157.8689 C   0  0  2  0  0  0  0  0  0  0  0  0
  147.5273  137.3659  158.0024 O   0  0  0  0  0  0  0  0  0  0  0  0
  146.7607  137.5232  156.8542 C   0  0  1  0  0  0  0  0  0  0  0  0
  147.5382  138.4112  155.8838 N   0  0  0  0  0  0  0  0  0  0  0  0
  148.8004  138.0778  155.3996 C   0  0  0  0  0  0  0  0  0  0  0  0
  149.5367  138.8936  154.6096 C   0  0  0  0  0  0  0  0  0  0  0  0
  150.7448  138.4890  154.1817 F   0  0  0  0  0  0  0  0  0  0  0  0
  149.0435  140.2149  154.2400 C   0  0  0  0  0  0  0  0  0  0  0  0
  149.6289  141.0196  153.5182 O   0  0  0  0  0  0  0  0  0  0  0  0
  147.8052  140.5400  154.7974 N   0  0  0  0  0  0  0  0  0  0  0  0
  147.0425  139.7117  155.6226 C   0  0  0  0  0  0  0  0  0  0  0  0
  145.9828  140.1321  156.0852 O   0  0  0  0  0  0  0  0  0  0  0  0
  146.4045  136.1040  156.3559 C   0  0  1  0  0  0  0  0  0  0  0  0
  146.3332  135.9919  154.9361 O   0  0  0  0  0  0  0  0  0  0  0  0
  145.5008  136.7782  154.2342 C   0  0  0  0  0  0  0  0  0  0  0  0
  145.5836  136.5170  152.7366 C   0  0  0  0  0  0  0  0  0  0  0  0
  144.7477  137.6337  154.6989 O   0  0  0  0  0  0  0  0  0  0  0  0
  147.4635  135.2132  157.0214 C   0  0  1  0  0  0  0  0  0  0  0  0
  148.3052  134.5420  156.0888 O   0  0  0  0  0  0  0  0  0  0  0  0
  149.3069  133.7543  156.5181 C   0  0  0  0  0  0  0  0  0  0  0  0
  150.0765  133.1189  155.3684 C   0  0  0  0  0  0  0  0  0  0  0  0
  149.6019  133.5308  157.6920 O   0  0  0  0  0  0  0  0  0  0  0  0
  147.4362  141.4582  154.5970 H   0  0  0  0  0  0  0  0  0  0  0  0
  146.7722  134.1893  162.0696 H   0  0  0  0  0  0  0  0  0  0  0  0
  145.5644  135.4804  162.1623 H   0  0  0  0  0  0  0  0  0  0  0  0
  146.9737  135.5068  163.2322 H   0  0  0  0  0  0  0  0  0  0  0  0
  149.3638  136.3730  159.7487 H   0  0  0  0  0  0  0  0  0  0  0  0
  149.2922  134.7301  159.1251 H   0  0  0  0  0  0  0  0  0  0  0  0
  149.2091  136.4601  157.3242 H   0  0  0  0  0  0  0  0  0  0  0  0
  145.8424  138.0635  157.0868 H   0  0  0  0  0  0  0  0  0  0  0  0
  149.2445  137.1307  155.6551 H   0  0  0  0  0  0  0  0  0  0  0  0
  145.4420  135.8366  156.7954 H   0  0  0  0  0  0  0  0  0  0  0  0
  145.4992  135.4495  152.5309 H   0  0  0  0  0  0  0  0  0  0  0  0
  146.5367  136.8726  152.3445 H   0  0  0  0  0  0  0  0  0  0  0  0
  144.7790  137.0340  152.2131 H   0  0  0  0  0  0  0  0  0  0  0  0
  146.9617  134.4952  157.6714 H   0  0  0  0  0  0  0  0  0  0  0  0
  150.4108  133.8839  154.6669 H   0  0  0  0  0  0  0  0  0  0  0  0
  149.4416  132.4116  154.8343 H   0  0  0  0  0  0  0  0  0  0  0  0
  150.9517  132.5859  155.7411 H   0  0  0  0  0  0  0  0  0  0  0  0
  1  2  1  0  0  0  0
  1 29  1  0  0  0  0
  1 30  1  0  0  0  0
  1 31  1  0  0  0  0
  2  3  2  0  0  0  0
  2  4  1  0  0  0  0
  4  5  1  0  0  0  0
  5  6  1  0  0  0  0
  5 32  1  0  0  0  0
  5 33  1  0  0  0  0
  6 23  1  0  0  0  0
  6  7  1  0  0  0  0
  6 34  1  0  0  0  0
  7  8  1  0  0  0  0
  8  9  1  0  0  0  0
  8 18  1  0  0  0  0
  8 35  1  0  0  0  0
  9 16  1  0  0  0  0
  9 10  1  0  0  0  0
 10 11  2  0  0  0  0
 10 36  1  0  0  0  0
 11 12  1  0  0  0  0
 11 13  1  0  0  0  0
 13 14  2  0  0  0  0
 13 15  1  0  0  0  0
 15 28  1  0  0  0  0
 15 16  1  0  0  0  0
 16 17  2  0  0  0  0
 18 19  1  0  0  0  0
 18 23  1  0  0  0  0
 18 37  1  0  0  0  0
 19 20  1  0  0  0  0
 20 21  1  0  0  0  0
 20 22  2  0  0  0  0
 21 38  1  0  0  0  0
 21 39  1  0  0  0  0
 21 40  1  0  0  0  0
 23 24  1  0  0  0  0
 23 41  1  0  0  0  0
 24 25  1  0  0  0  0
 25 26  1  0  0  0  0
 25 27  2  0  0  0  0
 26 42  1  0  0  0  0
 26 43  1  0  0  0  0
 26 44  1  0  0  0  0
M  END
> <s_m_source_file>
AV-unprocessed.smi

> <i_m_source_file_index>
102

> <i_lp_mmshare_version>
43012

> <i_f3d_flags>
0

> <s_epik_input>
W0NIM11DKD1PKU9bQ0gyXVtDQEBIXTFPW0NASF0oW0NAQEhdKE9DKD1PKVtDSDNdKVtDQEhdMU9DKD1PKVtDSDNdKW4yW2NIXWMoRiljKD1PKVtuSF1jMj1P

> <s_epik_cmdline>
J2VwaWtfcHl0aG9uJywgJy1waCcsICc3LjAnLCAnLXRuJywgJzgnLCAnLW1hJywgJzIwMCcsICctbWV0YWxfYmluZGluZycsICctaW1hZScsICc8aW5maWxlLm1hZT4nLCAnLW9tYWUnLCAnPG91dGZpbGUubWFlPic=

> <r_lp_tautomer_probability>
0.999537

> <r_epik_Ionization_Penalty>
0.058267

> <r_epik_Ionization_Penalty_Charging>
0.058267

> <r_epik_Ionization_Penalty_Neutral>
6.57791e-16

> <r_epik_State_Penalty>
0.0503774

> <r_epik_Charging_Adjusted_Penalty>
0.108644

> <i_epik_Tot_Q>
0

> <i_epik_Tot_abs_Q>
0

> <r_epik_Metal_State_Penalty>
2.6644

> <b_epik_Metal_Only>
0

> <s_epik_Chemistry_Notes>
This compound has an ester and may undergo hydrolysis at high or low pH. This compound contains an acetal/aminal-like group ( X-CH(R)-Y where X, Y are N, S, or O) that may be acid/base labile, releasing an aldehyde.

> <s_lp_Force_Field>
OPLS_2005

> <r_lp_Energy>
14.9607

> <b_lp_Chiralities_Consistent>
1

> <s_lp_Variant>
AV-unprocessed.smi:102-1

> <Gold.Version>
5.8.1

> <Gold.Id.Protein>
6NUR|6NUR_protein|mol2

> <Gold.PLP.Fitness>
34.1328

> <Gold.PLP.PLP>
-24.1716

> <Gold.PLP.part.hbond>
-5.0000

> <Gold.PLP.part.metal>
0.0000

> <Gold.PLP.part.buried>
-3.0897

> <Gold.PLP.part.nonpolar>
-16.9895

> <Gold.PLP.part.repulsive>
1.6312

> <Gold.PLP.ligand.clash>
0.0000

> <Gold.PLP.ligand.torsion>
0.8332

> <Gold.PLP.Chemscore.Hbond>
3.7560

> <Gold.PLP.Chemscore.CHOScore>
0.0000

> <Gold.PLP.Chemscore.Metal>
0.0000

> <Gold.Chemscore.Hbonds>
donor molecule, donor type, donor heavy atom, donor atom, acceptor molecule, acceptor atom, score
      P1  H  6896  6907       L1    27  0.94
      P1  H  6931  6943       L1     3  1.00
      P1  H  6934  6947       L1     3  0.75
      P1  H  7989  7998       L1    14  0.26
      P1  H  8011  8017       L1    14  1.00

> <Gold.PLP.Chemscore.Internal.Correction>
0.3595

> <Gold.Rescore>
     Score         DG    S(hbond)    S(metal)    S(lipo)     H(rot)  DE(clash)    DE(int)     intcor
      8.59     -10.74       3.62        0.00      30.21       4.05       0.07       2.09       ----

> <Gold.Chemscore.Fitness>
8.5871

> <Gold.Chemscore.DG>
-10.7410

> <Gold.Chemscore.ZeroCoef>
-5.4800

> <Gold.Chemscore.Hbond>
3.6225

> <Gold.Chemscore.Metal>
0.0000

> <Gold.Chemscore.Lipo>
30.2132

> <Gold.Chemscore.Internal_Hbond>
0.0000

> <Gold.Chemscore.DEClash>
0.0659

> <Gold.Chemscore.DEInternal>
2.0881

> <Gold.Chemscore.Rot>
4.0520

> <Gold.Chemscore.Internal.Correction>
   9.000000E+99

> <Gold.Chemscore.Hbonds>
donor molecule, donor type, donor heavy atom, donor atom, acceptor molecule, acceptor atom, score
      P1  H  6896  6907       L1    27  0.86
      P1  H  6931  6943       L1     3  0.95
      P1  H  6934  6947       L1     3  0.72
      P1  H  7989  7998       L1    14  0.24
      P1  H  8011  8017       L1    14  0.97

> <Gold.Chemscore.Hbond.Weighted>
-12.0993

> <Gold.Chemscore.Metal.Weighted>
-0.0000

> <Gold.Chemscore.Lipo.Weighted>
-3.5349

> <Gold.Chemscore.Internal_Hbond.Weighted>
0.0000

> <Gold.Chemscore.DEClash.Weighted>
0.0659

> <Gold.Chemscore.DEInternal.Weighted>
2.0881

> <Gold.Chemscore.Rot.Weighted>
10.3732

> <Gold.Chemscore.Internal.Correction.Weighted>
   9.000000E+99

> <Gold.Protein.RotatedTorsions>
[ 6907 6896 6895 6894 ] final  -98.14 input  -60.11 | X-H torsion
[ 7974 7965 7964 7962 ] final  115.73 input  175.53 | X-H torsion
[ 8008 7997 7996 7995 ] final    1.70 input   59.86 | X-H torsion
[ 10167 10162 10161 10158 ] final  167.13 input  -65.29 | X-H torsion
[ 10718 10713 10712 10709 ] final   47.34 input   66.30 | X-H torsion
[ 10763 10752 10751 10750 ] final  -18.67 input  -60.55 | X-H torsion
[ 11005 11000 10999 10996 ] final  -96.25 input  -57.11 | X-H torsion

> <Gold.Protein.ActiveResidues>
 VAL166  LYS551  ARG553  GLY616  TRP617  ASP618  TYR619  PRO620  LYS621  CYS622 
 ASP623  PHE694  ASN695  SER759  ASP760  ASP761  ALA762  ILE779  LEU786  VAL792 
 PHE793  MET794  SER795  GLU796  ALA797  LYS798  CYS799  TRP800  GLU811  SER814 

> <Gold.Protein.RotatedAtoms>
  150.7037  134.1241  159.4045 H   0  0  0  0  0  0  0  0  0  0  0  0  # atno 6907 bound_to 6896
  151.9227  135.0289  160.0532 H   0  0  0  0  0  0  0  0  0  0  0  0  # atno 6908 bound_to 6896
  152.2243  133.4972  159.5216 H   0  0  0  0  0  0  0  0  0  0  0  0  # atno 6909 bound_to 6896
  145.1884  139.3013  143.4381 H   0  0  0  0  0  0  0  0  0  0  0  0  # atno 7974 bound_to 7965
  154.6828  140.2636  155.6891 H   0  0  0  0  0  0  0  0  0  0  0  0  # atno 8008 bound_to 7997
  156.2703  140.2807  156.1301 H   0  0  0  0  0  0  0  0  0  0  0  0  # atno 8009 bound_to 7997
  155.1007  140.0374  157.2686 H   0  0  0  0  0  0  0  0  0  0  0  0  # atno 8010 bound_to 7997
  139.4939  144.3955  151.9469 H   0  0  0  0  0  0  0  0  0  0  0  0  # atno 10167 bound_to 10162
  157.4575  130.8176  149.7851 H   0  0  0  0  0  0  0  0  0  0  0  0  # atno 10718 bound_to 10713
  153.5929  135.7002  153.5416 H   0  0  0  0  0  0  0  0  0  0  0  0  # atno 10763 bound_to 10752
  153.3163  135.4087  155.1378 H   0  0  0  0  0  0  0  0  0  0  0  0  # atno 10764 bound_to 10752
  154.8597  135.3684  154.5462 H   0  0  0  0  0  0  0  0  0  0  0  0  # atno 10765 bound_to 10752
  141.1417  133.8084  157.0545 H   0  0  0  0  0  0  0  0  0  0  0  0  # atno 11005 bound_to 11000
  146.3441  140.2087  142.8590 LP  0  0  0  0  0  0  0  0  0  0  0  0  # atno 17320 bound_to 7965
  145.0066  140.8678  143.5249 LP  0  0  0  0  0  0  0  0  0  0  0  0  # atno 17321 bound_to 7965
  140.3393  144.3223  150.5970 LP  0  0  0  0  0  0  0  0  0  0  0  0  # atno 17342 bound_to 10162
  140.5579  143.2196  151.7815 LP  0  0  0  0  0  0  0  0  0  0  0  0  # atno 17343 bound_to 10162
  156.0014  130.3878  150.2593 LP  0  0  0  0  0  0  0  0  0  0  0  0  # atno 17370 bound_to 10713
  157.0769  131.0132  151.3170 LP  0  0  0  0  0  0  0  0  0  0  0  0  # atno 17371 bound_to 10713
  140.0610  134.9754  157.1305 LP  0  0  0  0  0  0  0  0  0  0  0  0  # atno 17394 bound_to 11000
  140.3848  134.2248  155.7169 LP  0  0  0  0  0  0  0  0  0  0  0  0  # atno 17395 bound_to 11000

$$$$
