AV-unprocessed.smi:3163|AV-procd|sdf|12077|dock2
  -GOLD-   2272017503D 1   1.00000     0.00000
 Structure written by MMmdl.
 37 38  0  0  0  0  0  0  0  0  3 V2000
  143.5535  132.1749  150.4469 C   0  0  0  0  0  0  0  0  0  0  0  0
  143.4446  133.6274  150.6977 N   0  3  1  0  0  0  0  0  0  0  0  0
  143.4384  133.9959  152.1299 C   0  0  0  0  0  0  0  0  0  0  0  0
  144.1068  135.3667  152.1995 C   0  0  0  0  0  0  0  0  0  0  0  0
  145.1760  135.2720  151.1141 C   0  0  2  0  0  0  0  0  0  0  0  0
  145.7226  136.6384  150.6577 C   0  0  0  0  0  0  0  0  0  0  0  0
  146.7512  137.1500  151.5591 N   0  0  0  0  0  0  0  0  0  0  0  0
  146.7939  138.3882  152.0723 C   0  0  0  0  0  0  0  0  0  0  0  0
  145.9660  139.2597  151.8095 O   0  0  0  0  0  0  0  0  0  0  0  0
  147.8588  138.5453  152.8779 N   0  0  0  0  0  0  0  0  0  0  0  0
  148.2547  139.6971  153.6119 C   0  0  0  0  0  0  0  0  0  0  0  0
  147.4681  140.8623  153.4717 C   0  0  0  0  0  0  0  0  0  0  0  0
  147.8282  142.0338  154.1686 C   0  0  0  0  0  0  0  0  0  0  0  0
  148.9253  142.0375  154.9554 N   0  3  0  0  0  0  0  0  0  0  0  0
  149.7165  140.9541  155.1096 C   0  0  0  0  0  0  0  0  0  0  0  0
  149.4064  139.7537  154.4383 C   0  0  0  0  0  0  0  0  0  0  0  0
  144.4790  134.4451  150.0217 C   0  0  0  0  0  0  0  0  0  0  0  0
  144.5039  131.7833  150.8116 H   0  0  0  0  0  0  0  0  0  0  0  0
  143.4841  131.9665  149.3788 H   0  0  0  0  0  0  0  0  0  0  0  0
  142.7455  131.6404  150.9473 H   0  0  0  0  0  0  0  0  0  0  0  0
  142.4273  134.0005  152.5379 H   0  0  0  0  0  0  0  0  0  0  0  0
  144.0277  133.2775  152.7026 H   0  0  0  0  0  0  0  0  0  0  0  0
  143.3845  136.1474  151.9553 H   0  0  0  0  0  0  0  0  0  0  0  0
  144.5201  135.5847  153.1848 H   0  0  0  0  0  0  0  0  0  0  0  0
  146.0000  134.6793  151.5158 H   0  0  0  0  0  0  0  0  0  0  0  0
  146.0953  136.5838  149.6333 H   0  0  0  0  0  0  0  0  0  0  0  0
  144.9108  137.3662  150.6453 H   0  0  0  0  0  0  0  0  0  0  0  0
  147.4765  136.5006  151.8274 H   0  0  0  0  0  0  0  0  0  0  0  0
  148.4912  137.7601  152.9324 H   0  0  0  0  0  0  0  0  0  0  0  0
  146.5914  140.8620  152.8399 H   0  0  0  0  0  0  0  0  0  0  0  0
  147.2767  142.9614  154.1186 H   0  0  0  0  0  0  0  0  0  0  0  0
  150.5724  141.0802  155.7566 H   0  0  0  0  0  0  0  0  0  0  0  0
  150.0652  138.9079  154.5613 H   0  0  0  0  0  0  0  0  0  0  0  0
  145.1933  133.8436  149.4576 H   0  0  0  0  0  0  0  0  0  0  0  0
  143.9662  135.0954  149.3124 H   0  0  0  0  0  0  0  0  0  0  0  0
  142.5584  133.9287  150.3179 H   0  0  0  0  0  0  0  0  0  0  0  0
  149.1701  142.8961  155.4498 H   0  0  0  0  0  0  0  0  0  0  0  0
  1  2  1  0  0  0  0
  1 18  1  0  0  0  0
  1 19  1  0  0  0  0
  1 20  1  0  0  0  0
  2 17  1  0  0  0  0
  2  3  1  0  0  0  0
  2 36  1  0  0  0  0
  3  4  1  0  0  0  0
  3 21  1  0  0  0  0
  3 22  1  0  0  0  0
  4  5  1  0  0  0  0
  4 23  1  0  0  0  0
  4 24  1  0  0  0  0
  5  6  1  0  0  0  0
  5 17  1  0  0  0  0
  5 25  1  0  0  0  0
  6  7  1  0  0  0  0
  6 26  1  0  0  0  0
  6 27  1  0  0  0  0
  7  8  1  0  0  0  0
  7 28  1  0  0  0  0
  8  9  2  0  0  0  0
  8 10  1  0  0  0  0
 10 11  1  0  0  0  0
 10 29  1  0  0  0  0
 11 16  1  0  0  0  0
 11 12  2  0  0  0  0
 12 13  1  0  0  0  0
 12 30  1  0  0  0  0
 13 14  2  0  0  0  0
 13 31  1  0  0  0  0
 14 15  1  0  0  0  0
 14 37  1  0  0  0  0
 15 16  2  0  0  0  0
 15 32  1  0  0  0  0
 16 33  1  0  0  0  0
 17 34  1  0  0  0  0
 17 35  1  0  0  0  0
M  CHG  1   2   1
M  CHG  1  14   1
M  END
> <s_m_source_file>
AV-unprocessed.smi

> <i_m_source_file_index>
3163

> <i_lp_mmshare_version>
43012

> <i_f3d_flags>
0

> <s_epik_input>
W0NIM11OMVtDSDJdW0NIMl1bQ0BIXShbQ0gyXTEpW0NIMl1bTkhdQyg9TylbTkhdYzJbY0hdW2NIXW5bY0hdW2NIXTI=

> <s_epik_cmdline>
J2VwaWtfcHl0aG9uJywgJy1waCcsICc3LjAnLCAnLXRuJywgJzgnLCAnLW1hJywgJzIwMCcsICctbWV0YWxfYmluZGluZycsICctaW1hZScsICc8aW5maWxlLm1hZT4nLCAnLW9tYWUnLCAnPG91dGZpbGUubWFlPic=

> <r_epik_Ionization_Penalty>
1.09034

> <r_epik_Ionization_Penalty_Charging>
1.09032

> <r_epik_Ionization_Penalty_Neutral>
1.86664e-05

> <r_epik_State_Penalty>
1.14521

> <r_epik_Charging_Adjusted_Penalty>
2.23553

> <i_epik_Tot_Q>
2

> <i_epik_Tot_abs_Q>
2

> <r_epik_Metal_State_Penalty>
1.23399

> <b_epik_Metal_Only>
0

> <s_lp_Force_Field>
OPLS_2005

> <r_lp_Energy>
39.8127

> <b_lp_Chiralities_Consistent>
1

> <s_lp_Variant>
AV-unprocessed.smi:3163-7

> <Gold.Version>
5.8.1

> <Gold.Id.Protein>
6NUR|6NUR_protein|mol2

> <Gold.PLP.Fitness>
45.6280

> <Gold.PLP.PLP>
-29.3802

> <Gold.PLP.part.hbond>
-4.6816

> <Gold.PLP.part.metal>
0.0000

> <Gold.PLP.part.buried>
3.2682

> <Gold.PLP.part.nonpolar>
-33.7399

> <Gold.PLP.part.repulsive>
5.1725

> <Gold.PLP.ligand.clash>
0.0000

> <Gold.PLP.ligand.torsion>
0.2657

> <Gold.PLP.Chemscore.Hbond>
5.5916

> <Gold.PLP.Chemscore.CHOScore>
0.0000

> <Gold.PLP.Chemscore.Metal>
0.0000

> <Gold.Chemscore.Hbonds>
donor molecule, donor type, donor heavy atom, donor atom, acceptor molecule, acceptor atom, score
      L1  H     2    36       P1 10186  2.00
      L1  H     7    28       P1  7948  0.77
      L1  H    10    29       P1  7948  0.75
      L1  H    14    37       P1  8028  1.86

> <Gold.PLP.Chemscore.Internal.Correction>
0.0044

> <Gold.Rescore>
     Score         DG    S(hbond)    S(metal)    S(lipo)     H(rot)  DE(clash)    DE(int)     intcor
     16.26     -22.71       3.42        0.00      77.33       1.27       4.76       1.69       ----

> <Gold.Chemscore.Fitness>
16.2588

> <Gold.Chemscore.DG>
-22.7056

> <Gold.Chemscore.ZeroCoef>
-5.4800

> <Gold.Chemscore.Hbond>
3.4234

> <Gold.Chemscore.Metal>
0.0000

> <Gold.Chemscore.Lipo>
77.3337

> <Gold.Chemscore.Internal_Hbond>
0.0000

> <Gold.Chemscore.DEClash>
4.7608

> <Gold.Chemscore.DEInternal>
1.6860

> <Gold.Chemscore.Rot>
1.2721

> <Gold.Chemscore.Internal.Correction>
   9.000000E+99

> <Gold.Chemscore.Hbonds>
donor molecule, donor type, donor heavy atom, donor atom, acceptor molecule, acceptor atom, score
      L1  H     2    36       P1 10186  0.97
      L1  H     7    28       P1  7948  0.74
      L1  H    10    29       P1  7948  0.76
      L1  H    14    37       P1  8028  0.91

> <Gold.Chemscore.Hbond.Weighted>
-11.4340

> <Gold.Chemscore.Metal.Weighted>
-0.0000

> <Gold.Chemscore.Lipo.Weighted>
-9.0480

> <Gold.Chemscore.Internal_Hbond.Weighted>
0.0000

> <Gold.Chemscore.DEClash.Weighted>
4.7608

> <Gold.Chemscore.DEInternal.Weighted>
1.6860

> <Gold.Chemscore.Rot.Weighted>
3.2565

> <Gold.Chemscore.Internal.Correction.Weighted>
   9.000000E+99

> <Gold.Protein.RotatedTorsions>
[ 6907 6896 6895 6894 ] final -132.78 input  -60.11 | X-H torsion
[ 7974 7965 7964 7962 ] final -141.04 input  175.53 | X-H torsion
[ 8008 7997 7996 7995 ] final  155.25 input   59.86 | X-H torsion
[ 10167 10162 10161 10158 ] final -147.16 input  -65.29 | X-H torsion
[ 10718 10713 10712 10709 ] final -153.31 input   66.30 | X-H torsion
[ 10763 10752 10751 10750 ] final    8.13 input  -60.55 | X-H torsion
[ 11005 11000 10999 10996 ] final  177.46 input  -57.11 | X-H torsion

> <Gold.Protein.ActiveResidues>
 VAL166  LYS551  ARG553  GLY616  TRP617  ASP618  TYR619  PRO620  LYS621  CYS622 
 ASP623  PHE694  ASN695  SER759  ASP760  ASP761  ALA762  ILE779  LEU786  VAL792 
 PHE793  MET794  SER795  GLU796  ALA797  LYS798  CYS799  TRP800  GLU811  SER814 

> <Gold.Protein.RotatedAtoms>
  150.9664  133.6391  159.2745 H   0  0  0  0  0  0  0  0  0  0  0  0  # atno 6907 bound_to 6896
  151.3695  135.0918  159.9470 H   0  0  0  0  0  0  0  0  0  0  0  0  # atno 6908 bound_to 6896
  152.5167  133.9221  159.7594 H   0  0  0  0  0  0  0  0  0  0  0  0  # atno 6909 bound_to 6896
  144.8550  140.6128  143.5365 H   0  0  0  0  0  0  0  0  0  0  0  0  # atno 7974 bound_to 7965
  156.2488  140.1944  156.6773 H   0  0  0  0  0  0  0  0  0  0  0  0  # atno 8008 bound_to 7997
  154.6348  140.0591  156.9801 H   0  0  0  0  0  0  0  0  0  0  0  0  # atno 8009 bound_to 7997
  155.1654  140.3263  155.4406 H   0  0  0  0  0  0  0  0  0  0  0  0  # atno 8010 bound_to 7997
  139.7647  143.8325  152.2614 H   0  0  0  0  0  0  0  0  0  0  0  0  # atno 10167 bound_to 10162
  156.4841  130.8317  151.2543 H   0  0  0  0  0  0  0  0  0  0  0  0  # atno 10718 bound_to 10713
  153.2284  135.6890  153.7918 H   0  0  0  0  0  0  0  0  0  0  0  0  # atno 10763 bound_to 10752
  153.7091  135.3285  155.3243 H   0  0  0  0  0  0  0  0  0  0  0  0  # atno 10764 bound_to 10752
  154.8303  135.4586  154.1160 H   0  0  0  0  0  0  0  0  0  0  0  0  # atno 10765 bound_to 10752
  140.3843  134.6918  157.4470 H   0  0  0  0  0  0  0  0  0  0  0  0  # atno 11005 bound_to 11000
  145.4423  139.1534  143.3963 LP  0  0  0  0  0  0  0  0  0  0  0  0  # atno 17320 bound_to 7965
  146.2816  140.4545  142.8774 LP  0  0  0  0  0  0  0  0  0  0  0  0  # atno 17321 bound_to 7965
  139.8342  144.7240  150.9412 LP  0  0  0  0  0  0  0  0  0  0  0  0  # atno 17342 bound_to 10162
  140.7810  143.4042  151.1098 LP  0  0  0  0  0  0  0  0  0  0  0  0  # atno 17343 bound_to 10162
  157.7480  131.0035  150.3041 LP  0  0  0  0  0  0  0  0  0  0  0  0  # atno 17370 bound_to 10713
  156.3492  130.3828  149.7343 LP  0  0  0  0  0  0  0  0  0  0  0  0  # atno 17371 bound_to 10713
  140.0454  134.6206  155.8927 LP  0  0  0  0  0  0  0  0  0  0  0  0  # atno 17394 bound_to 11000
  141.1913  133.6571  156.5449 LP  0  0  0  0  0  0  0  0  0  0  0  0  # atno 17395 bound_to 11000

$$$$
