#       Name:                AV-unprocessed.smi:2119
#       Creating user name   scv26
#       Creation time:       Fri Mar 27 11:37:49 2020


#       File generated by GOLD software.
#

@<TRIPOS>MOLECULE
AV-unprocessed.smi:2119
    55    57     1
SMALL
NO_CHARGES


@<TRIPOS>ATOM
      1 ****        -1.5102   0.7598   1.8109 O.2            1 S1                 0.0000
      2 ****        -1.7763   1.2011   0.6933 C.2            1 S1                 0.0000
      3 ****        -1.6714   0.4771  -0.4297 N.am           1 S1                 0.0000
      4 ****        -1.1924  -0.9012  -0.4978 C.3            1 S1                 0.0000
      5 ****         0.3514  -1.0347  -0.3044 C.3            1 S1                 0.0000
      6 ****         1.0764  -0.0685  -1.3036 C.3            1 S1                 0.0000
      7 ****         2.5922  -0.0732  -1.4033 C.3            1 S1                 0.0000
      8 ****         2.8121   0.7565  -2.6622 C.3            1 S1                 0.0000
      9 ****         1.7385   0.4012  -3.5270 O.3            1 S1                 0.0000
     10 ****         0.7058  -0.2407  -2.7819 C.3            1 S1                 0.0000
     11 ****         0.8723  -2.4255  -0.3338 N.3            1 S1                 0.0000
     12 ****         2.0346  -2.5890   0.5494 C.3            1 S1                 0.0000
     13 ****         2.6485  -3.9950   0.4511 C.3            1 S1                 0.0000
     14 ****         1.6627  -4.9618   0.7928 O.3            1 S1                 0.0000
     15 ****         0.5092  -4.8779  -0.0350 C.3            1 S1                 0.0000
     16 ****        -0.0930  -3.4629   0.0455 C.3            1 S1                 0.0000
     17 ****        -2.2125   2.4442   0.4282 N.am           1 S1                 0.0000
     18 ****        -2.4061   3.5307   1.3240 C.ar           1 S1                 0.0000
     19 ****        -1.8354   3.6156   2.6175 C.ar           1 S1                 0.0000
     20 ****        -2.0923   4.7580   3.3999 C.ar           1 S1                 0.0000
     21 ****        -2.9018   5.7761   2.8598 C.ar           1 S1                 0.0000
     22 ****        -3.4413   5.7143   1.6243 N.ar           1 S1                 0.0000
     23 ****        -3.1912   4.6160   0.8802 C.ar           1 S1                 0.0000
     24 ****        -1.9197   0.9156  -1.3046 H              1 S1                 0.0000
     25 ****        -1.7350  -1.4650   0.2621 H              1 S1                 0.0000
     26 ****        -1.4956  -1.3141  -1.4602 H              1 S1                 0.0000
     27 ****         0.5465  -0.6451   0.6959 H              1 S1                 0.0000
     28 ****         0.8095   0.9515  -1.0225 H              1 S1                 0.0000
     29 ****         3.0887   0.3433  -0.5265 H              1 S1                 0.0000
     30 ****         2.9766  -1.0753  -1.5929 H              1 S1                 0.0000
     31 ****         2.7442   1.8213  -2.4357 H              1 S1                 0.0000
     32 ****         3.7803   0.5684  -3.1267 H              1 S1                 0.0000
     33 ****         0.6860  -1.2964  -3.0559 H              1 S1                 0.0000
     34 ****        -0.2664   0.1893  -3.0233 H              1 S1                 0.0000
     35 ****         2.8090  -1.8559   0.3504 H              1 S1                 0.0000
     36 ****         1.7316  -2.4128   1.5829 H              1 S1                 0.0000
     37 ****         3.0278  -4.1838  -0.5542 H              1 S1                 0.0000
     38 ****         3.4908  -4.0900   1.1365 H              1 S1                 0.0000
     39 ****         0.7751  -5.1251  -1.0638 H              1 S1                 0.0000
     40 ****        -0.2192  -5.6189   0.2938 H              1 S1                 0.0000
     41 ****        -0.4601  -3.2813   1.0570 H              1 S1                 0.0000
     42 ****        -0.9564  -3.4401  -0.6189 H              1 S1                 0.0000
     43 ****        -2.4654   2.6285  -0.5318 H              1 S1                 0.0000
     44 ****        -1.1992   2.8431   3.0201 H              1 S1                 0.0000
     45 ****        -1.6738   4.8538   4.3908 H              1 S1                 0.0000
     46 ****        -3.1165   6.6656   3.4332 H              1 S1                 0.0000
     47 ****        -3.6365   4.6027  -0.1039 H              1 S1                 0.0000
     48 ****        -1.1976  -0.1844   1.9142 LP             1 S1                 0.0000
     49 ****        -1.6067   1.3454   2.6157 LP             1 S1                 0.0000
     50 ****         2.0741  -0.2222  -4.2331 LP             1 S1                 0.0000
     51 ****         1.3726   1.2264  -3.9574 LP             1 S1                 0.0000
     52 ****         1.1102  -2.5544  -1.2965 LP             1 S1                 0.0000
     53 ****         1.3869  -4.8169   1.7431 LP             1 S1                 0.0000
     54 ****         2.0609  -5.8740   0.6967 LP             1 S1                 0.0000
     55 ****        -4.0084   6.4585   1.2712 LP             1 S1                 0.0000
@<TRIPOS>BOND
    1    1    2 2     
    2    2    3 am    
    3    2   17 am    
    4    3    4 1     
    5    3   24 1     
    6    4    5 1     
    7    4   25 1     
    8    4   26 1     
    9    5    6 1     
   10    5   11 1     
   11    5   27 1     
   12    6   10 1     
   13    6    7 1     
   14    6   28 1     
   15    7    8 1     
   16    7   29 1     
   17    7   30 1     
   18    8    9 1     
   19    8   31 1     
   20    8   32 1     
   21    9   10 1     
   22   10   33 1     
   23   10   34 1     
   24   11   16 1     
   25   11   12 1     
   26   12   13 1     
   27   12   35 1     
   28   12   36 1     
   29   13   14 1     
   30   13   37 1     
   31   13   38 1     
   32   14   15 1     
   33   15   16 1     
   34   15   39 1     
   35   15   40 1     
   36   16   41 1     
   37   16   42 1     
   38   17   18 1     
   39   17   43 1     
   40   18   23 ar    
   41   18   19 ar    
   42   19   20 ar    
   43   19   44 1     
   44   20   21 ar    
   45   20   45 1     
   46   21   22 ar    
   47   21   46 1     
   48   22   23 ar    
   49   23   47 1     
   50    1   48 1     
   51    1   49 1     
   52    9   50 1     
   53    9   51 1     
   54   11   52 1     
   55   14   53 1     
   56   14   54 1     
   57   22   55 1     
@<TRIPOS>SUBSTRUCTURE
      1 S1             1
@<TRIPOS>SET
LONE_PAIRS      STATIC     ATOMS    <user>   **** ""
8 48 49 50 51 52 53 54 55
DONOR_HYDROGENS      STATIC     ATOMS    <user>   **** ""
2 24 43
ATOM$BLUE        STATIC     ATOMS    COLORGROUP SYSTEM
8 48 49 50 51 52 53 54 55
ATOM$RED        STATIC     ATOMS    COLORGROUP SYSTEM
2 24 43
