#       Name:                AV-unprocessed.smi:702
#       Creating user name   scv26
#       Creation time:       Fri Mar 27 00:40:20 2020


#       File generated by GOLD software.
#

@<TRIPOS>MOLECULE
AV-unprocessed.smi:702
    55    57     1
SMALL
NO_CHARGES


@<TRIPOS>ATOM
      1 ****        -1.0940  -0.6297   2.3232 C.3            1 S1                 0.0000
      2 ****        -0.5864  -0.0125   1.0051 C.3            1 S1                 0.0000
      3 ****         0.8800   0.0397   1.0502 N.am           1 S1                 0.0000
      4 ****         1.6445   1.1413   1.0954 C.2            1 S1                 0.0000
      5 ****         1.1938   2.2861   1.1282 O.2            1 S1                 0.0000
      6 ****         2.9493   0.8183   1.0729 N.am           1 S1                 0.0000
      7 ****         4.0804   1.6790   1.0692 C.ar           1 S1                 0.0000
      8 ****         5.3050   1.1489   0.6126 C.ar           1 S1                 0.0000
      9 ****         6.4454   1.9765   0.6114 C.ar           1 S1                 0.0000
     10 ****         6.4325   3.2575   1.0357 N.ar           1 S1                 0.0000
     11 ****         5.2631   3.7591   1.4858 C.ar           1 S1                 0.0000
     12 ****         4.0650   3.0181   1.5286 C.ar           1 S1                 0.0000
     13 ****        -1.1209  -0.7446  -0.2839 C.3            1 S1                 0.0000
     14 ****        -2.6158  -0.7939  -0.2998 N.3            1 S1                 0.0000
     15 ****        -3.2131  -1.5843  -1.3890 C.3            1 S1                 0.0000
     16 ****        -4.7426  -1.6823  -1.2664 C.3            1 S1                 0.0000
     17 ****        -5.3025  -0.3760  -1.2472 O.3            1 S1                 0.0000
     18 ****        -4.8058   0.4063  -0.1691 C.3            1 S1                 0.0000
     19 ****        -3.2742   0.5193  -0.2630 C.3            1 S1                 0.0000
     20 ****        -0.5291  -0.0472  -1.5511 C.3            1 S1                 0.0000
     21 ****         0.5445  -0.9734  -2.1263 C.3            1 S1                 0.0000
     22 ****         0.0829  -2.3692  -1.7344 C.3            1 S1                 0.0000
     23 ****        -0.5022  -2.1813  -0.3339 C.3            1 S1                 0.0000
     24 ****        -2.1821  -0.6097   2.3839 H              1 S1                 0.0000
     25 ****        -0.7158  -0.0752   3.1826 H              1 S1                 0.0000
     26 ****        -0.7756  -1.6659   2.4364 H              1 S1                 0.0000
     27 ****        -0.9360   1.0184   0.9870 H              1 S1                 0.0000
     28 ****         1.3529  -0.8517   1.0224 H              1 S1                 0.0000
     29 ****         3.1574  -0.1646   0.9766 H              1 S1                 0.0000
     30 ****         5.3737   0.1293   0.2625 H              1 S1                 0.0000
     31 ****         7.3941   1.5978   0.2610 H              1 S1                 0.0000
     32 ****         5.2835   4.7828   1.8293 H              1 S1                 0.0000
     33 ****         3.1742   3.4844   1.9194 H              1 S1                 0.0000
     34 ****        -2.9758  -1.1490  -2.3586 H              1 S1                 0.0000
     35 ****        -2.8212  -2.5988  -1.4029 H              1 S1                 0.0000
     36 ****        -5.1555  -2.2326  -2.1119 H              1 S1                 0.0000
     37 ****        -5.0254  -2.2237  -0.3623 H              1 S1                 0.0000
     38 ****        -5.2604   1.3962  -0.2087 H              1 S1                 0.0000
     39 ****        -5.1006  -0.0422   0.7809 H              1 S1                 0.0000
     40 ****        -2.9502   1.0986   0.5979 H              1 S1                 0.0000
     41 ****        -3.0111   1.0977  -1.1489 H              1 S1                 0.0000
     42 ****        -1.2825   0.1110  -2.3204 H              1 S1                 0.0000
     43 ****        -0.1265   0.9447  -1.3434 H              1 S1                 0.0000
     44 ****         0.6639  -0.8585  -3.2039 H              1 S1                 0.0000
     45 ****         1.5077  -0.7598  -1.6613 H              1 S1                 0.0000
     46 ****        -0.6897  -2.7097  -2.4243 H              1 S1                 0.0000
     47 ****         0.8925  -3.0993  -1.7562 H              1 S1                 0.0000
     48 ****         0.3158  -2.3029   0.3747 H              1 S1                 0.0000
     49 ****        -1.2047  -2.9710  -0.0682 H              1 S1                 0.0000
     50 ****         0.2048   2.4345   1.1219 LP             1 S1                 0.0000
     51 ****         1.8165   3.0678   1.1612 LP             1 S1                 0.0000
     52 ****         7.2615   3.8163   1.0173 LP             1 S1                 0.0000
     53 ****        -2.7940  -1.2705   0.5611 LP             1 S1                 0.0000
     54 ****        -6.2956  -0.4528  -1.1584 LP             1 S1                 0.0000
     55 ****        -5.0792   0.0826  -2.1073 LP             1 S1                 0.0000
@<TRIPOS>BOND
    1    1    2 1     
    2    1   24 1     
    3    1   25 1     
    4    1   26 1     
    5    2    3 1     
    6    2   13 1     
    7    2   27 1     
    8    3    4 am    
    9    3   28 1     
   10    4    5 2     
   11    4    6 am    
   12    6    7 1     
   13    6   29 1     
   14    7   12 ar    
   15    7    8 ar    
   16    8    9 ar    
   17    8   30 1     
   18    9   10 ar    
   19    9   31 1     
   20   10   11 ar    
   21   11   12 ar    
   22   11   32 1     
   23   12   33 1     
   24   13   23 1     
   25   13   14 1     
   26   13   20 1     
   27   14   19 1     
   28   14   15 1     
   29   15   16 1     
   30   15   34 1     
   31   15   35 1     
   32   16   17 1     
   33   16   36 1     
   34   16   37 1     
   35   17   18 1     
   36   18   19 1     
   37   18   38 1     
   38   18   39 1     
   39   19   40 1     
   40   19   41 1     
   41   20   21 1     
   42   20   42 1     
   43   20   43 1     
   44   21   22 1     
   45   21   44 1     
   46   21   45 1     
   47   22   23 1     
   48   22   46 1     
   49   22   47 1     
   50   23   48 1     
   51   23   49 1     
   52    5   50 1     
   53    5   51 1     
   54   10   52 1     
   55   14   53 1     
   56   17   54 1     
   57   17   55 1     
@<TRIPOS>SUBSTRUCTURE
      1 S1             1
@<TRIPOS>SET
LONE_PAIRS      STATIC     ATOMS    <user>   **** ""
6 50 51 52 53 54 55
DONOR_HYDROGENS      STATIC     ATOMS    <user>   **** ""
2 28 29
ATOM$BLUE        STATIC     ATOMS    COLORGROUP SYSTEM
6 50 51 52 53 54 55
ATOM$RED        STATIC     ATOMS    COLORGROUP SYSTEM
2 28 29
