AV-unprocessed.smi:48|AV-procd|sdf|455|dock7
  -GOLD-   2262016323D 1   1.00000     0.00000
 Structure written by MMmdl.
 30 32  0  0  0  0  0  0  0  0  1 V2000
  148.7718  140.4070  153.4419 O   0  0  0  0  0  0  0  0  0  0  0  0
  148.8304  139.1559  154.0927 C   0  0  0  0  0  0  0  0  0  0  0  0
  150.2630  138.8817  154.5836 C   0  0  1  0  0  0  0  0  0  0  0  0
  150.8087  140.0236  155.2276 O   0  0  0  0  0  0  0  0  0  0  0  0
  151.8929  139.6284  156.0060 C   0  0  1  0  0  0  0  0  0  0  0  0
  151.9249  140.4845  157.2292 N   0  0  0  0  0  0  0  0  0  0  0  0
  151.1083  141.5164  157.5231 C   0  0  0  0  0  0  0  0  0  0  0  0
  151.3155  142.1554  158.6737 N   0  0  0  0  0  0  0  0  0  0  0  0
  152.3932  141.4538  159.1886 C   0  0  0  0  0  0  0  0  0  0  0  0
  153.1398  141.5851  160.3848 C   0  0  0  0  0  0  0  0  0  0  0  0
  152.7623  142.8127  161.5372 Cl  0  0  0  0  0  0  0  0  0  0  0  0
  154.1612  140.7237  160.6060 N   0  0  0  0  0  0  0  0  0  0  0  0
  154.4318  139.7806  159.6955 C   0  0  0  0  0  0  0  0  0  0  0  0
  153.8199  139.5366  158.5314 N   0  0  0  0  0  0  0  0  0  0  0  0
  152.7910  140.4070  158.3085 C   0  0  0  0  0  0  0  0  0  0  0  0
  151.6949  138.1477  156.3745 C   0  0  2  0  0  0  0  0  0  0  0  0
  152.7570  137.3569  155.8805 O   0  0  0  0  0  0  0  0  0  0  0  0
  150.4043  137.7801  155.6455 C   0  0  1  0  0  0  0  0  0  0  0  0
  149.3128  137.7782  156.5465 O   0  0  0  0  0  0  0  0  0  0  0  0
  150.9067  138.6224  153.7407 H   0  0  0  0  0  0  0  0  0  0  0  0
  152.8320  139.8329  155.4886 H   0  0  0  0  0  0  0  0  0  0  0  0
  151.6199  138.0113  157.4549 H   0  0  0  0  0  0  0  0  0  0  0  0
  150.4482  136.7914  155.1862 H   0  0  0  0  0  0  0  0  0  0  0  0
  148.9729  140.2800  152.5272 H   0  0  0  0  0  0  0  0  0  0  0  0
  148.1151  139.1238  154.9154 H   0  0  0  0  0  0  0  0  0  0  0  0
  148.5295  138.3990  153.3678 H   0  0  0  0  0  0  0  0  0  0  0  0
  150.3180  141.8186  156.8512 H   0  0  0  0  0  0  0  0  0  0  0  0
  155.2580  139.1270  159.9331 H   0  0  0  0  0  0  0  0  0  0  0  0
  153.3593  137.9201  155.4186 H   0  0  0  0  0  0  0  0  0  0  0  0
  149.6499  137.8179  157.4282 H   0  0  0  0  0  0  0  0  0  0  0  0
  1  2  1  0  0  0  0
  1 24  1  0  0  0  0
  2  3  1  0  0  0  0
  2 25  1  0  0  0  0
  2 26  1  0  0  0  0
  3 20  1  0  0  0  0
  3 18  1  0  0  0  0
  3  4  1  0  0  0  0
  4  5  1  0  0  0  0
  5 21  1  0  0  0  0
  5  6  1  0  0  0  0
  5 16  1  0  0  0  0
  6 15  1  0  0  0  0
  6  7  1  0  0  0  0
  7  8  2  0  0  0  0
  7 27  1  0  0  0  0
  8  9  1  0  0  0  0
  9 15  2  0  0  0  0
  9 10  1  0  0  0  0
 10 11  1  0  0  0  0
 10 12  2  0  0  0  0
 12 13  1  0  0  0  0
 13 14  2  0  0  0  0
 13 28  1  0  0  0  0
 14 15  1  0  0  0  0
 16 22  1  0  0  0  0
 16 17  1  0  0  0  0
 16 18  1  0  0  0  0
 17 29  1  0  0  0  0
 18 23  1  0  0  0  0
 18 19  1  0  0  0  0
 19 30  1  0  0  0  0
M  END
> <s_m_source_file>
AV-unprocessed.smi

> <i_m_source_file_index>
48

> <i_lp_mmshare_version>
43012

> <i_f3d_flags>
0

> <s_epik_input>
W09IXVtDSDJdW0NASF0xT1tDQEhdKFtDQEhdKFtPSF0pW0NAQEhdMVtPSF0pbihbY0hdbjIpYyhjMjMpbltjSF1uYzNDbA==

> <s_epik_cmdline>
J2VwaWtfcHl0aG9uJywgJy1waCcsICc3LjAnLCAnLXRuJywgJzgnLCAnLW1hJywgJzIwMCcsICctbWV0YWxfYmluZGluZycsICctaW1hZScsICc8aW5maWxlLm1hZT4nLCAnLW9tYWUnLCAnPG91dGZpbGUubWFlPic=

> <r_lp_tautomer_probability>
1

> <r_epik_Ionization_Penalty>
3.45505e-06

> <r_epik_Ionization_Penalty_Charging>
0

> <r_epik_Ionization_Penalty_Neutral>
3.45505e-06

> <r_epik_State_Penalty>
-0

> <r_epik_Charging_Adjusted_Penalty>
0

> <i_epik_Tot_Q>
0

> <i_epik_Tot_abs_Q>
0

> <r_epik_Metal_State_Penalty>
-0

> <b_epik_Metal_Only>
0

> <s_epik_Chemistry_Notes>
This compound contains an acetal/aminal-like group ( X-CH(R)-Y where X, Y are N, S, or O) that may be acid/base labile, releasing an aldehyde.

> <s_lp_Force_Field>
OPLS_2005

> <r_lp_Energy>
33.2991

> <b_lp_Chiralities_Consistent>
1

> <s_lp_Variant>
AV-unprocessed.smi:48-9

> <Gold.Version>
5.8.1

> <Gold.Id.Protein>
6NUR|6NUR_protein|mol2

> <Gold.PLP.Fitness>
40.4698

> <Gold.PLP.PLP>
-31.0375

> <Gold.PLP.part.hbond>
-3.7016

> <Gold.PLP.part.metal>
0.0000

> <Gold.PLP.part.buried>
-4.0991

> <Gold.PLP.part.nonpolar>
-22.7088

> <Gold.PLP.part.repulsive>
0.0572

> <Gold.PLP.ligand.clash>
0.0000

> <Gold.PLP.ligand.torsion>
0.1333

> <Gold.PLP.Chemscore.Hbond>
3.2311

> <Gold.PLP.Chemscore.CHOScore>
0.0000

> <Gold.PLP.Chemscore.Metal>
0.0000

> <Gold.Chemscore.Hbonds>
donor molecule, donor type, donor heavy atom, donor atom, acceptor molecule, acceptor atom, score
      L1  H     1    24       P1  7957  0.99
      P1  H  7989  7998       L1     4  0.68
      P1  H  7997  8008       L1    14  1.00
      P1  H 10752 10765       L1    17  0.58

> <Gold.PLP.Chemscore.Internal.Correction>
0.0057

> <Gold.Rescore>
     Score         DG    S(hbond)    S(metal)    S(lipo)     H(rot)  DE(clash)    DE(int)     intcor
      8.06      -8.31       1.87        0.00      54.13       3.80       0.15       0.11       ----

> <Gold.Chemscore.Fitness>
8.0604

> <Gold.Chemscore.DG>
-8.3113

> <Gold.Chemscore.ZeroCoef>
-5.4800

> <Gold.Chemscore.Hbond>
1.8654

> <Gold.Chemscore.Metal>
0.0000

> <Gold.Chemscore.Lipo>
54.1305

> <Gold.Chemscore.Internal_Hbond>
0.0000

> <Gold.Chemscore.DEClash>
0.1454

> <Gold.Chemscore.DEInternal>
0.1055

> <Gold.Chemscore.Rot>
3.8017

> <Gold.Chemscore.Internal.Correction>
   9.000000E+99

> <Gold.Chemscore.Hbonds>
donor molecule, donor type, donor heavy atom, donor atom, acceptor molecule, acceptor atom, score
      L1  H     1    24       P1  7957  0.92
      P1  H  7989  7998       L1     4  0.05
      P1  H  7997  8008       L1    14  0.15
      P1  H 10752 10765       L1    17  0.19

> <Gold.Chemscore.Hbond.Weighted>
-6.2304

> <Gold.Chemscore.Metal.Weighted>
-0.0000

> <Gold.Chemscore.Lipo.Weighted>
-6.3333

> <Gold.Chemscore.Internal_Hbond.Weighted>
0.0000

> <Gold.Chemscore.DEClash.Weighted>
0.1454

> <Gold.Chemscore.DEInternal.Weighted>
0.1055

> <Gold.Chemscore.Rot.Weighted>
9.7324

> <Gold.Chemscore.Internal.Correction.Weighted>
   9.000000E+99

> <Gold.Protein.RotatedTorsions>
[ 6907 6896 6895 6894 ] final   -3.61 input  -60.11 | X-H torsion
[ 7974 7965 7964 7962 ] final  -98.45 input  175.53 | X-H torsion
[ 8008 7997 7996 7995 ] final -109.73 input   59.86 | X-H torsion
[ 10167 10162 10161 10158 ] final  -94.95 input  -65.29 | X-H torsion
[ 10718 10713 10712 10709 ] final  164.44 input   66.30 | X-H torsion
[ 10763 10752 10751 10750 ] final -151.81 input  -60.55 | X-H torsion
[ 11005 11000 10999 10996 ] final  -37.80 input  -57.11 | X-H torsion

> <Gold.Protein.ActiveResidues>
 VAL166  LYS551  ARG553  GLY616  TRP617  ASP618  TYR619  PRO620  LYS621  CYS622 
 ASP623  PHE694  ASN695  SER759  ASP760  ASP761  ALA762  ILE779  LEU786  VAL792 
 PHE793  MET794  SER795  GLU796  ALA797  LYS798  CYS799  TRP800  GLU811  SER814 

> <Gold.Protein.RotatedAtoms>
  151.5109  135.1065  159.9853 H   0  0  0  0  0  0  0  0  0  0  0  0  # atno 6907 bound_to 6896
  152.4662  133.7923  159.6919 H   0  0  0  0  0  0  0  0  0  0  0  0  # atno 6908 bound_to 6896
  150.8646  133.7529  159.3006 H   0  0  0  0  0  0  0  0  0  0  0  0  # atno 6909 bound_to 6896
  145.3205  140.9420  143.2718 H   0  0  0  0  0  0  0  0  0  0  0  0  # atno 7974 bound_to 7965
  154.9638  140.0398  157.2202 H   0  0  0  0  0  0  0  0  0  0  0  0  # atno 8008 bound_to 7997
  154.7864  140.2828  155.6002 H   0  0  0  0  0  0  0  0  0  0  0  0  # atno 8009 bound_to 7997
  156.2943  140.2582  156.2702 H   0  0  0  0  0  0  0  0  0  0  0  0  # atno 8010 bound_to 7997
  140.3092  143.3115  152.0166 H   0  0  0  0  0  0  0  0  0  0  0  0  # atno 10167 bound_to 10162
  157.0943  131.0426  151.2524 H   0  0  0  0  0  0  0  0  0  0  0  0  # atno 10718 bound_to 10713
  154.8034  135.3251  154.7492 H   0  0  0  0  0  0  0  0  0  0  0  0  # atno 10763 bound_to 10752
  153.8155  135.6892  153.4839 H   0  0  0  0  0  0  0  0  0  0  0  0  # atno 10764 bound_to 10752
  153.1765  135.4603  154.9915 H   0  0  0  0  0  0  0  0  0  0  0  0  # atno 10765 bound_to 10752
  140.9979  133.6970  156.1969 H   0  0  0  0  0  0  0  0  0  0  0  0  # atno 11005 bound_to 11000
  144.8943  139.4733  143.6663 LP  0  0  0  0  0  0  0  0  0  0  0  0  # atno 17320 bound_to 7965
  146.3084  139.7660  142.9038 LP  0  0  0  0  0  0  0  0  0  0  0  0  # atno 17321 bound_to 7965
  139.4897  144.6397  151.6902 LP  0  0  0  0  0  0  0  0  0  0  0  0  # atno 17342 bound_to 10162
  140.5583  144.0311  150.6158 LP  0  0  0  0  0  0  0  0  0  0  0  0  # atno 17343 bound_to 10162
  157.4695  130.7700  149.7310 LP  0  0  0  0  0  0  0  0  0  0  0  0  # atno 17370 bound_to 10713
  155.9890  130.3955  150.3093 LP  0  0  0  0  0  0  0  0  0  0  0  0  # atno 17371 bound_to 10713
  140.6935  134.4640  157.5588 LP  0  0  0  0  0  0  0  0  0  0  0  0  # atno 17394 bound_to 11000
  139.9024  134.8525  156.1841 LP  0  0  0  0  0  0  0  0  0  0  0  0  # atno 17395 bound_to 11000

$$$$
