AV-unprocessed.smi:652|AV-procd|sdf|3200|dock5
  -GOLD-   22720 0133D 1   1.00000     0.00000
 Structure written by MMmdl.
 49 50  0  0  0  0  0  0  0  0  3 V2000
  146.9932  135.4375  162.8153 C   0  0  0  0  0  0  0  0  0  0  0  0
  146.4120  134.7859  161.5536 C   0  0  0  0  0  0  0  0  0  0  0  0
  146.2580  133.2657  161.7214 C   0  0  0  0  0  0  0  0  0  0  0  0
  147.2694  135.0909  160.4114 N   0  0  0  0  0  0  0  0  0  0  0  0
  147.6794  136.3174  160.0516 C   0  0  0  0  0  0  0  0  0  0  0  0
  147.3734  137.3412  160.6630 O   0  0  0  0  0  0  0  0  0  0  0  0
  148.5749  136.4020  158.8127 C   0  0  0  0  0  0  0  0  0  0  0  0
  149.1457  137.8185  158.6024 C   0  0  0  0  0  0  0  0  0  0  0  0
  149.1801  138.2068  157.1673 N   0  3  1  0  0  0  0  0  0  0  0  0
  147.8513  138.5745  156.6213 C   0  0  0  0  0  0  0  0  0  0  0  0
  147.4473  139.9948  157.0540 C   0  0  0  0  0  0  0  0  0  0  0  0
  148.4493  140.9150  156.6385 O   0  0  0  0  0  0  0  0  0  0  0  0
  149.7135  140.6602  157.2438 C   0  0  2  0  0  0  0  0  0  0  0  0
  150.6928  141.7447  156.7707 C   0  0  0  0  0  0  0  0  0  0  0  0
  150.2536  143.0749  157.1657 N   0  0  0  0  0  0  0  0  0  0  0  0
  150.8864  143.7455  158.2208 C   0  0  0  0  0  0  0  0  0  0  0  0
  151.9653  143.2142  158.9652 C   0  0  0  0  0  0  0  0  0  0  0  0
  152.5122  143.9961  159.9968 C   0  0  0  0  0  0  0  0  0  0  0  0
  151.9472  145.2636  160.2230 C   0  0  0  0  0  0  0  0  0  0  0  0
  150.9143  145.7531  159.5013 N   0  0  0  0  0  0  0  0  0  0  0  0
  150.4126  144.9806  158.5214 N   0  3  0  0  0  0  0  0  0  0  0  0
  150.1852  139.2478  156.8283 C   0  0  0  0  0  0  0  0  0  0  0  0
  146.3561  135.2516  163.6806 H   0  0  0  0  0  0  0  0  0  0  0  0
  147.0788  136.5183  162.6968 H   0  0  0  0  0  0  0  0  0  0  0  0
  147.9857  135.0475  163.0440 H   0  0  0  0  0  0  0  0  0  0  0  0
  145.4246  135.2186  161.3815 H   0  0  0  0  0  0  0  0  0  0  0  0
  145.6183  133.0295  162.5722 H   0  0  0  0  0  0  0  0  0  0  0  0
  147.2224  132.7844  161.8877 H   0  0  0  0  0  0  0  0  0  0  0  0
  145.8067  132.8118  160.8386 H   0  0  0  0  0  0  0  0  0  0  0  0
  147.5718  134.3064  159.8521 H   0  0  0  0  0  0  0  0  0  0  0  0
  149.3754  135.6720  158.9309 H   0  0  0  0  0  0  0  0  0  0  0  0
  148.0036  136.1027  157.9322 H   0  0  0  0  0  0  0  0  0  0  0  0
  148.5065  138.5220  159.1386 H   0  0  0  0  0  0  0  0  0  0  0  0
  150.1363  137.9094  159.0482 H   0  0  0  0  0  0  0  0  0  0  0  0
  147.9040  138.5320  155.5325 H   0  0  0  0  0  0  0  0  0  0  0  0
  147.0949  137.8473  156.9182 H   0  0  0  0  0  0  0  0  0  0  0  0
  146.5013  140.2724  156.5889 H   0  0  0  0  0  0  0  0  0  0  0  0
  147.2994  140.0555  158.1333 H   0  0  0  0  0  0  0  0  0  0  0  0
  149.6211  140.7195  158.3295 H   0  0  0  0  0  0  0  0  0  0  0  0
  151.6750  141.5639  157.2093 H   0  0  0  0  0  0  0  0  0  0  0  0
  150.8074  141.6986  155.6870 H   0  0  0  0  0  0  0  0  0  0  0  0
  149.6460  143.5886  156.5433 H   0  0  0  0  0  0  0  0  0  0  0  0
  152.3719  142.2345  158.7633 H   0  0  0  0  0  0  0  0  0  0  0  0
  153.3369  143.6381  160.5954 H   0  0  0  0  0  0  0  0  0  0  0  0
  152.3324  145.9033  161.0037 H   0  0  0  0  0  0  0  0  0  0  0  0
  151.1513  139.0170  157.2755 H   0  0  0  0  0  0  0  0  0  0  0  0
  150.3398  139.2228  155.7488 H   0  0  0  0  0  0  0  0  0  0  0  0
  149.4548  137.3679  156.6757 H   0  0  0  0  0  0  0  0  0  0  0  0
  149.6331  145.3440  157.9725 H   0  0  0  0  0  0  0  0  0  0  0  0
  1  2  1  0  0  0  0
  1 23  1  0  0  0  0
  1 24  1  0  0  0  0
  1 25  1  0  0  0  0
  2  3  1  0  0  0  0
  2  4  1  0  0  0  0
  2 26  1  0  0  0  0
  3 27  1  0  0  0  0
  3 28  1  0  0  0  0
  3 29  1  0  0  0  0
  4  5  1  0  0  0  0
  4 30  1  0  0  0  0
  5  6  2  0  0  0  0
  5  7  1  0  0  0  0
  7  8  1  0  0  0  0
  7 31  1  0  0  0  0
  7 32  1  0  0  0  0
  8  9  1  0  0  0  0
  8 33  1  0  0  0  0
  8 34  1  0  0  0  0
  9 22  1  0  0  0  0
  9 10  1  0  0  0  0
  9 48  1  0  0  0  0
 10 11  1  0  0  0  0
 10 35  1  0  0  0  0
 10 36  1  0  0  0  0
 11 12  1  0  0  0  0
 11 37  1  0  0  0  0
 11 38  1  0  0  0  0
 12 13  1  0  0  0  0
 13 14  1  0  0  0  0
 13 22  1  0  0  0  0
 13 39  1  0  0  0  0
 14 15  1  0  0  0  0
 14 40  1  0  0  0  0
 14 41  1  0  0  0  0
 15 16  1  0  0  0  0
 15 42  1  0  0  0  0
 16 21  1  0  0  0  0
 16 17  2  0  0  0  0
 17 18  1  0  0  0  0
 17 43  1  0  0  0  0
 18 19  2  0  0  0  0
 18 44  1  0  0  0  0
 19 20  1  0  0  0  0
 19 45  1  0  0  0  0
 20 21  2  0  0  0  0
 21 49  1  0  0  0  0
 22 46  1  0  0  0  0
 22 47  1  0  0  0  0
M  CHG  1   9   1
M  CHG  1  21   1
M  END
> <s_m_source_file>
AV-unprocessed.smi

> <i_m_source_file_index>
652

> <i_lp_mmshare_version>
43012

> <i_f3d_flags>
0

> <s_epik_input>
W0NIM11bQ0hdKFtDSDNdKVtOSF1DKD1PKVtDSDJdW0NIMl1OMVtDSDJdW0NIMl1PW0NASF0oW0NIMl0xKVtDSDJdW05IXWMyW2NIXVtjSF1bY0hdbm4y

> <s_epik_cmdline>
J2VwaWtfcHl0aG9uJywgJy1waCcsICc3LjAnLCAnLXRuJywgJzgnLCAnLW1hJywgJzIwMCcsICctbWV0YWxfYmluZGluZycsICctaW1hZScsICc8aW5maWxlLm1hZT4nLCAnLW9tYWUnLCAnPG91dGZpbGUubWFlPic=

> <r_lp_tautomer_probability>
0.966961

> <r_epik_Ionization_Penalty>
2.79885

> <r_epik_Ionization_Penalty_Charging>
2.79884

> <r_epik_Ionization_Penalty_Neutral>
3.2567e-06

> <r_epik_State_Penalty>
2.43203

> <r_epik_Charging_Adjusted_Penalty>
5.23087

> <i_epik_Tot_Q>
2

> <i_epik_Tot_abs_Q>
2

> <r_epik_Metal_State_Penalty>
2.43963

> <b_epik_Metal_Only>
0

> <s_lp_Force_Field>
OPLS_2005

> <r_lp_Energy>
31.8364

> <b_lp_Chiralities_Consistent>
1

> <s_lp_Variant>
AV-unprocessed.smi:652-9

> <Gold.Version>
5.8.1

> <Gold.Id.Protein>
6NUR|6NUR_protein|mol2

> <Gold.PLP.Fitness>
55.8483

> <Gold.PLP.PLP>
-39.7346

> <Gold.PLP.part.hbond>
-6.3597

> <Gold.PLP.part.metal>
0.0000

> <Gold.PLP.part.buried>
-5.5084

> <Gold.PLP.part.nonpolar>
-29.6274

> <Gold.PLP.part.repulsive>
0.5459

> <Gold.PLP.ligand.clash>
0.0000

> <Gold.PLP.ligand.torsion>
0.6690

> <Gold.PLP.Chemscore.Hbond>
5.7760

> <Gold.PLP.Chemscore.CHOScore>
0.0000

> <Gold.PLP.Chemscore.Metal>
0.0000

> <Gold.Chemscore.Hbonds>
donor molecule, donor type, donor heavy atom, donor atom, acceptor molecule, acceptor atom, score
      L1  H    15    42       P1  8028  2.00
      L1  H    21    49       P1  8029  1.80
      P1  H  6931  6943       L1     6  0.31
      P1  H  6934  6947       L1     6  1.00

> <Gold.PLP.Chemscore.Internal.Correction>
0.1238

> <Gold.Rescore>
     Score         DG    S(hbond)    S(metal)    S(lipo)     H(rot)  DE(clash)    DE(int)     intcor
     18.95     -19.88       3.34        0.00      78.68       2.33       0.34       0.59       ----

> <Gold.Chemscore.Fitness>
18.9479

> <Gold.Chemscore.DG>
-19.8779

> <Gold.Chemscore.ZeroCoef>
-5.4800

> <Gold.Chemscore.Hbond>
3.3423

> <Gold.Chemscore.Metal>
0.0000

> <Gold.Chemscore.Lipo>
78.6832

> <Gold.Chemscore.Internal_Hbond>
0.0000

> <Gold.Chemscore.DEClash>
0.3423

> <Gold.Chemscore.DEInternal>
0.5877

> <Gold.Chemscore.Rot>
2.3326

> <Gold.Chemscore.Internal.Correction>
   9.000000E+99

> <Gold.Chemscore.Hbonds>
donor molecule, donor type, donor heavy atom, donor atom, acceptor molecule, acceptor atom, score
      L1  H    15    42       P1  8028  0.99
      L1  H    21    49       P1  8029  0.18
      P1  H  6931  6943       L1     6  0.28
      P1  H  6934  6947       L1     6  0.98

> <Gold.Chemscore.Hbond.Weighted>
-11.1634

> <Gold.Chemscore.Metal.Weighted>
-0.0000

> <Gold.Chemscore.Lipo.Weighted>
-9.2059

> <Gold.Chemscore.Internal_Hbond.Weighted>
0.0000

> <Gold.Chemscore.DEClash.Weighted>
0.3423

> <Gold.Chemscore.DEInternal.Weighted>
0.5877

> <Gold.Chemscore.Rot.Weighted>
5.9714

> <Gold.Chemscore.Internal.Correction.Weighted>
   9.000000E+99

> <Gold.Protein.RotatedTorsions>
[ 6907 6896 6895 6894 ] final   91.10 input  -60.11 | X-H torsion
[ 7974 7965 7964 7962 ] final -170.59 input  175.53 | X-H torsion
[ 8008 7997 7996 7995 ] final   47.12 input   59.86 | X-H torsion
[ 10167 10162 10161 10158 ] final  124.77 input  -65.29 | X-H torsion
[ 10718 10713 10712 10709 ] final -145.46 input   66.30 | X-H torsion
[ 10763 10752 10751 10750 ] final -116.07 input  -60.55 | X-H torsion
[ 11005 11000 10999 10996 ] final  168.90 input  -57.11 | X-H torsion

> <Gold.Protein.ActiveResidues>
 VAL166  LYS551  ARG553  GLY616  TRP617  ASP618  TYR619  PRO620  LYS621  CYS622 
 ASP623  PHE694  ASN695  SER759  ASP760  ASP761  ALA762  ILE779  LEU786  VAL792 
 PHE793  MET794  SER795  GLU796  ALA797  LYS798  CYS799  TRP800  GLU811  SER814 

> <Gold.Protein.RotatedAtoms>
  152.5448  134.1709  159.8596 H   0  0  0  0  0  0  0  0  0  0  0  0  # atno 6907 bound_to 6896
  151.1719  133.4771  159.2601 H   0  0  0  0  0  0  0  0  0  0  0  0  # atno 6908 bound_to 6896
  151.1266  135.0119  159.8618 H   0  0  0  0  0  0  0  0  0  0  0  0  # atno 6909 bound_to 6896
  144.7168  140.2049  143.6334 H   0  0  0  0  0  0  0  0  0  0  0  0  # atno 7974 bound_to 7965
  155.3638  140.3420  155.4241 H   0  0  0  0  0  0  0  0  0  0  0  0  # atno 8008 bound_to 7997
  156.1699  140.1628  156.8500 H   0  0  0  0  0  0  0  0  0  0  0  0  # atno 8009 bound_to 7997
  154.5223  140.0764  156.8176 H   0  0  0  0  0  0  0  0  0  0  0  0  # atno 8010 bound_to 7997
  139.5723  144.6945  151.3745 H   0  0  0  0  0  0  0  0  0  0  0  0  # atno 10167 bound_to 10162
  156.3827  130.7845  151.2039 H   0  0  0  0  0  0  0  0  0  0  0  0  # atno 10718 bound_to 10713
  154.8505  135.4359  154.1763 H   0  0  0  0  0  0  0  0  0  0  0  0  # atno 10763 bound_to 10752
  153.2864  135.6958  153.7341 H   0  0  0  0  0  0  0  0  0  0  0  0  # atno 10764 bound_to 10752
  153.6525  135.3449  155.3079 H   0  0  0  0  0  0  0  0  0  0  0  0  # atno 10765 bound_to 10752
  140.2921  134.7664  157.3847 H   0  0  0  0  0  0  0  0  0  0  0  0  # atno 11005 bound_to 11000
  145.8645  139.2240  143.1697 LP  0  0  0  0  0  0  0  0  0  0  0  0  # atno 17320 bound_to 7965
  146.0142  140.8407  142.9955 LP  0  0  0  0  0  0  0  0  0  0  0  0  # atno 17321 bound_to 7965
  140.7007  143.7638  150.7398 LP  0  0  0  0  0  0  0  0  0  0  0  0  # atno 17342 bound_to 10162
  140.1148  143.4666  152.2348 LP  0  0  0  0  0  0  0  0  0  0  0  0  # atno 17343 bound_to 10162
  157.7493  131.0339  150.4294 LP  0  0  0  0  0  0  0  0  0  0  0  0  # atno 17370 bound_to 10713
  156.4540  130.4018  149.6618 LP  0  0  0  0  0  0  0  0  0  0  0  0  # atno 17371 bound_to 10713
  140.1185  134.5250  155.8204 LP  0  0  0  0  0  0  0  0  0  0  0  0  # atno 17394 bound_to 11000
  141.2144  133.6748  156.6822 LP  0  0  0  0  0  0  0  0  0  0  0  0  # atno 17395 bound_to 11000

$$$$
