AV-unprocessed.smi:3156|AV-procd|sdf|12032|dock8
  -GOLD-   2272017453D 1   1.00000     0.00000
 Structure written by MMmdl.
 41 42  0  0  0  0  0  0  0  0  2 V2000
  148.3730  140.9059  155.7717 C   0  0  0  0  0  0  0  0  0  0  0  0
  149.7555  141.2180  155.1709 C   0  0  1  0  0  0  0  0  0  0  0  0
  150.4035  142.2637  155.9937 N   0  3  0  0  0  0  0  0  0  0  0  0
  150.2721  142.0800  157.4544 C   0  0  0  0  0  0  0  0  0  0  0  0
  151.3856  142.8155  158.2146 C   0  0  1  0  0  0  0  0  0  0  0  0
  151.2198  144.3490  158.1680 C   0  0  0  0  0  0  0  0  0  0  0  0
  152.2920  145.0347  159.0226 C   0  0  0  0  0  0  0  0  0  0  0  0
  152.2811  144.4448  160.4366 C   0  0  0  0  0  0  0  0  0  0  0  0
  152.3866  142.9129  160.3762 C   0  0  0  0  0  0  0  0  0  0  0  0
  151.3354  142.3847  159.5725 O   0  0  0  0  0  0  0  0  0  0  0  0
  150.6669  139.9643  155.0671 C   0  0  2  0  0  0  0  0  0  0  0  0
  149.9911  138.7839  154.3432 C   0  0  0  0  0  0  0  0  0  0  0  0
  151.1535  139.5318  156.3710 N   0  0  0  0  0  0  0  0  0  0  0  0
  150.4302  139.0064  157.4222 C   0  0  0  0  0  0  0  0  0  0  0  0
  151.3080  138.7583  158.4383 C   0  0  0  0  0  0  0  0  0  0  0  0
  152.5625  139.1720  157.9103 C   0  0  0  0  0  0  0  0  0  0  0  0
  152.4673  139.6354  156.6748 N   0  0  0  0  0  0  0  0  0  0  0  0
  147.8042  140.2166  155.1475 H   0  0  0  0  0  0  0  0  0  0  0  0
  147.7761  141.8134  155.8682 H   0  0  0  0  0  0  0  0  0  0  0  0
  148.4634  140.4605  156.7630 H   0  0  0  0  0  0  0  0  0  0  0  0
  149.5849  141.6116  154.1670 H   0  0  0  0  0  0  0  0  0  0  0  0
  151.3887  142.2739  155.7711 H   0  0  0  0  0  0  0  0  0  0  0  0
  149.2946  142.4233  157.7946 H   0  0  0  0  0  0  0  0  0  0  0  0
  150.3253  141.0118  157.6688 H   0  0  0  0  0  0  0  0  0  0  0  0
  152.3515  142.5300  157.7935 H   0  0  0  0  0  0  0  0  0  0  0  0
  151.2798  144.7110  157.1412 H   0  0  0  0  0  0  0  0  0  0  0  0
  150.2309  144.6236  158.5376 H   0  0  0  0  0  0  0  0  0  0  0  0
  153.2736  144.8866  158.5705 H   0  0  0  0  0  0  0  0  0  0  0  0
  152.1212  146.1112  159.0576 H   0  0  0  0  0  0  0  0  0  0  0  0
  153.1013  144.8576  161.0246 H   0  0  0  0  0  0  0  0  0  0  0  0
  151.3587  144.7269  160.9454 H   0  0  0  0  0  0  0  0  0  0  0  0
  153.3544  142.6047  159.9775 H   0  0  0  0  0  0  0  0  0  0  0  0
  152.3084  142.4925  161.3790 H   0  0  0  0  0  0  0  0  0  0  0  0
  151.5476  140.2406  154.4849 H   0  0  0  0  0  0  0  0  0  0  0  0
  149.7600  139.0284  153.3064 H   0  0  0  0  0  0  0  0  0  0  0  0
  149.0607  138.4940  154.8326 H   0  0  0  0  0  0  0  0  0  0  0  0
  150.6435  137.9101  154.3285 H   0  0  0  0  0  0  0  0  0  0  0  0
  149.3626  138.8545  157.3614 H   0  0  0  0  0  0  0  0  0  0  0  0
  151.0874  138.3462  159.4119 H   0  0  0  0  0  0  0  0  0  0  0  0
  153.5324  139.1513  158.3848 H   0  0  0  0  0  0  0  0  0  0  0  0
  150.0082  143.1577  155.7394 H   0  0  0  0  0  0  0  0  0  0  0  0
  1  2  1  0  0  0  0
  1 18  1  0  0  0  0
  1 19  1  0  0  0  0
  1 20  1  0  0  0  0
  2  3  1  0  0  0  0
  2 11  1  0  0  0  0
  2 21  1  0  0  0  0
  3  4  1  0  0  0  0
  3 22  1  0  0  0  0
  3 41  1  0  0  0  0
  4  5  1  0  0  0  0
  4 23  1  0  0  0  0
  4 24  1  0  0  0  0
  5 10  1  0  0  0  0
  5  6  1  0  0  0  0
  5 25  1  0  0  0  0
  6  7  1  0  0  0  0
  6 26  1  0  0  0  0
  6 27  1  0  0  0  0
  7  8  1  0  0  0  0
  7 28  1  0  0  0  0
  7 29  1  0  0  0  0
  8  9  1  0  0  0  0
  8 30  1  0  0  0  0
  8 31  1  0  0  0  0
  9 10  1  0  0  0  0
  9 32  1  0  0  0  0
  9 33  1  0  0  0  0
 11 12  1  0  0  0  0
 11 13  1  0  0  0  0
 11 34  1  0  0  0  0
 12 35  1  0  0  0  0
 12 36  1  0  0  0  0
 12 37  1  0  0  0  0
 13 17  1  0  0  0  0
 13 14  1  0  0  0  0
 14 15  2  0  0  0  0
 14 38  1  0  0  0  0
 15 16  1  0  0  0  0
 15 39  1  0  0  0  0
 16 17  2  0  0  0  0
 16 40  1  0  0  0  0
M  CHG  1   3   1
M  END
> <s_m_source_file>
AV-unprocessed.smi

> <i_m_source_file_index>
3156

> <i_lp_mmshare_version>
43012

> <i_f3d_flags>
0

> <s_epik_input>
bjFbY0hdW2NIXVtjSF1uMVtDQEBIXShbQ0gzXSlbQ0BIXShbQ0gzXSlbTkhdW0NIMl1bQ0BASF0yW0NIMl1bQ0gyXVtDSDJdW0NIMl1PMg==

> <s_epik_cmdline>
J2VwaWtfcHl0aG9uJywgJy1waCcsICc3LjAnLCAnLXRuJywgJzgnLCAnLW1hJywgJzIwMCcsICctbWV0YWxfYmluZGluZycsICctaW1hZScsICc8aW5maWxlLm1hZT4nLCAnLW9tYWUnLCAnPG91dGZpbGUubWFlPic=

> <r_lp_tautomer_probability>
1

> <r_epik_Ionization_Penalty>
0.00658015

> <r_epik_Ionization_Penalty_Charging>
0.00656881

> <r_epik_Ionization_Penalty_Neutral>
1.13431e-05

> <r_epik_State_Penalty>
0.0048654

> <r_epik_Charging_Adjusted_Penalty>
0.0114342

> <i_epik_Tot_Q>
1

> <i_epik_Tot_abs_Q>
1

> <r_epik_Metal_State_Penalty>
-0

> <b_epik_Metal_Only>
0

> <s_lp_Force_Field>
OPLS_2005

> <r_lp_Energy>
19.0125

> <b_lp_Chiralities_Consistent>
1

> <s_lp_Variant>
AV-unprocessed.smi:3156-4

> <Gold.Version>
5.8.1

> <Gold.Id.Protein>
6NUR|6NUR_protein|mol2

> <Gold.PLP.Fitness>
44.9094

> <Gold.PLP.PLP>
-36.8144

> <Gold.PLP.part.hbond>
-2.5927

> <Gold.PLP.part.metal>
0.0000

> <Gold.PLP.part.buried>
-3.6915

> <Gold.PLP.part.nonpolar>
-30.5894

> <Gold.PLP.part.repulsive>
0.1251

> <Gold.PLP.ligand.clash>
0.0000

> <Gold.PLP.ligand.torsion>
0.4950

> <Gold.PLP.Chemscore.Hbond>
3.0000

> <Gold.PLP.Chemscore.CHOScore>
0.0000

> <Gold.PLP.Chemscore.Metal>
0.0000

> <Gold.Chemscore.Hbonds>
donor molecule, donor type, donor heavy atom, donor atom, acceptor molecule, acceptor atom, score
      L1  H     3    41       P1  8028  2.00
      P1  H  7997  8008       L1    17  1.00

> <Gold.PLP.Chemscore.Internal.Correction>
0.0850

> <Gold.Rescore>
     Score         DG    S(hbond)    S(metal)    S(lipo)     H(rot)  DE(clash)    DE(int)     intcor
     17.06     -18.83       1.66        0.00     101.67       1.59       0.02       1.75       ----

> <Gold.Chemscore.Fitness>
17.0586

> <Gold.Chemscore.DG>
-18.8296

> <Gold.Chemscore.ZeroCoef>
-5.4800

> <Gold.Chemscore.Hbond>
1.6570

> <Gold.Chemscore.Metal>
0.0000

> <Gold.Chemscore.Lipo>
101.6721

> <Gold.Chemscore.Internal_Hbond>
0.0000

> <Gold.Chemscore.DEClash>
0.0234

> <Gold.Chemscore.DEInternal>
1.7476

> <Gold.Chemscore.Rot>
1.5938

> <Gold.Chemscore.Internal.Correction>
   9.000000E+99

> <Gold.Chemscore.Hbonds>
donor molecule, donor type, donor heavy atom, donor atom, acceptor molecule, acceptor atom, score
      L1  H     3    41       P1  8028  0.99
      P1  H  7997  8008       L1    17  0.38

> <Gold.Chemscore.Hbond.Weighted>
-5.5343

> <Gold.Chemscore.Metal.Weighted>
-0.0000

> <Gold.Chemscore.Lipo.Weighted>
-11.8956

> <Gold.Chemscore.Internal_Hbond.Weighted>
0.0000

> <Gold.Chemscore.DEClash.Weighted>
0.0234

> <Gold.Chemscore.DEInternal.Weighted>
1.7476

> <Gold.Chemscore.Rot.Weighted>
4.0802

> <Gold.Chemscore.Internal.Correction.Weighted>
   9.000000E+99

> <Gold.Protein.RotatedTorsions>
[ 6907 6896 6895 6894 ] final  126.21 input  -60.11 | X-H torsion
[ 7974 7965 7964 7962 ] final  159.13 input  175.53 | X-H torsion
[ 8008 7997 7996 7995 ] final  -35.41 input   59.86 | X-H torsion
[ 10167 10162 10161 10158 ] final  148.88 input  -65.29 | X-H torsion
[ 10718 10713 10712 10709 ] final  141.96 input   66.30 | X-H torsion
[ 10763 10752 10751 10750 ] final   57.08 input  -60.55 | X-H torsion
[ 11005 11000 10999 10996 ] final    6.76 input  -57.11 | X-H torsion

> <Gold.Protein.ActiveResidues>
 VAL166  LYS551  ARG553  GLY616  TRP617  ASP618  TYR619  PRO620  LYS621  CYS622 
 ASP623  PHE694  ASN695  SER759  ASP760  ASP761  ALA762  ILE779  LEU786  VAL792 
 PHE793  MET794  SER795  GLU796  ALA797  LYS798  CYS799  TRP800  GLU811  SER814 

> <Gold.Protein.RotatedAtoms>
  152.3923  133.6697  159.6247 H   0  0  0  0  0  0  0  0  0  0  0  0  # atno 6907 bound_to 6896
  150.7829  133.8932  159.3328 H   0  0  0  0  0  0  0  0  0  0  0  0  # atno 6908 bound_to 6896
  151.6716  135.0976  160.0250 H   0  0  0  0  0  0  0  0  0  0  0  0  # atno 6909 bound_to 6896
  144.7807  139.7574  143.6261 H   0  0  0  0  0  0  0  0  0  0  0  0  # atno 7974 bound_to 7965
  154.4096  140.1658  156.2206 H   0  0  0  0  0  0  0  0  0  0  0  0  # atno 8008 bound_to 7997
  155.9367  140.3411  155.6270 H   0  0  0  0  0  0  0  0  0  0  0  0  # atno 8009 bound_to 7997
  155.7040  140.0748  157.2389 H   0  0  0  0  0  0  0  0  0  0  0  0  # atno 8010 bound_to 7997
  139.4869  144.5645  151.7170 H   0  0  0  0  0  0  0  0  0  0  0  0  # atno 10167 bound_to 10162
  157.3861  131.0998  151.0692 H   0  0  0  0  0  0  0  0  0  0  0  0  # atno 10718 bound_to 10713
  152.9843  135.5654  154.5333 H   0  0  0  0  0  0  0  0  0  0  0  0  # atno 10763 bound_to 10752
  154.4800  135.2788  155.1580 H   0  0  0  0  0  0  0  0  0  0  0  0  # atno 10764 bound_to 10752
  154.3092  135.6292  153.5511 H   0  0  0  0  0  0  0  0  0  0  0  0  # atno 10765 bound_to 10752
  140.5558  134.0239  155.7953 H   0  0  0  0  0  0  0  0  0  0  0  0  # atno 11005 bound_to 11000
  146.2014  139.5310  142.9741 LP  0  0  0  0  0  0  0  0  0  0  0  0  # atno 17320 bound_to 7965
  145.6058  141.0348  143.1993 LP  0  0  0  0  0  0  0  0  0  0  0  0  # atno 17321 bound_to 7965
  140.5221  144.0863  150.6026 LP  0  0  0  0  0  0  0  0  0  0  0  0  # atno 17342 bound_to 10162
  140.3825  143.2795  152.0154 LP  0  0  0  0  0  0  0  0  0  0  0  0  # atno 17343 bound_to 10162
  157.1743  130.6281  149.5651 LP  0  0  0  0  0  0  0  0  0  0  0  0  # atno 17370 bound_to 10713
  155.9787  130.4775  150.6671 LP  0  0  0  0  0  0  0  0  0  0  0  0  # atno 17371 bound_to 10713
  141.1144  133.9564  157.2850 LP  0  0  0  0  0  0  0  0  0  0  0  0  # atno 17394 bound_to 11000
  139.9432  135.0188  156.8772 LP  0  0  0  0  0  0  0  0  0  0  0  0  # atno 17395 bound_to 11000

$$$$
