AV-unprocessed.smi:67|AV-procd|sdf|635|dock1
  -GOLD-   2262016533D 1   1.00000     0.00000
 Structure written by MMmdl.
 48 50  0  0  0  0  0  0  0  0  2 V2000
  149.3821  138.9379  153.1814 O   0  0  0  0  0  0  0  0  0  0  0  0
  148.4255  139.2952  154.1630 C   0  0  1  0  0  0  0  0  0  0  0  0
  148.7678  138.5456  155.4786 C   0  0  0  0  0  0  0  0  0  0  0  0
  149.8390  139.1808  156.3002 N   0  3  2  0  0  0  0  0  0  0  0  0
  151.1505  139.1625  155.5952 C   0  0  0  0  0  0  0  0  0  0  0  0
  152.2202  139.9646  156.3537 C   0  0  0  0  0  0  0  0  0  0  0  0
  152.3476  139.4534  157.8002 C   0  0  1  0  0  0  0  0  0  0  0  0
  153.4145  140.0328  158.5553 O   0  0  0  0  0  0  0  0  0  0  0  0
  153.2268  140.9828  159.5410 C   0  0  0  0  0  0  0  0  0  0  0  0
  153.6286  140.8716  160.8955 C   0  0  0  0  0  0  0  0  0  0  0  0
  153.3809  141.9196  161.8028 C   0  0  0  0  0  0  0  0  0  0  0  0
  152.7266  143.0893  161.3764 C   0  0  0  0  0  0  0  0  0  0  0  0
  152.3123  143.2157  160.0343 C   0  0  0  0  0  0  0  0  0  0  0  0
  151.6046  144.4710  159.5454 C   0  0  0  0  0  0  0  0  0  0  0  0
  152.2233  144.9289  158.4578 F   0  0  0  0  0  0  0  0  0  0  0  0
  150.3396  144.1887  159.2333 F   0  0  0  0  0  0  0  0  0  0  0  0
  151.6030  145.4302  160.4717 F   0  0  0  0  0  0  0  0  0  0  0  0
  152.5724  142.1635  159.1313 C   0  0  0  0  0  0  0  0  0  0  0  0
  150.9873  139.4021  158.5201 C   0  0  0  0  0  0  0  0  0  0  0  0
  149.9549  138.6302  157.6793 C   0  0  0  0  0  0  0  0  0  0  0  0
  148.3131  140.8288  154.3065 C   0  0  0  0  0  0  0  0  0  0  0  0
  146.9723  141.1936  153.6733 C   0  0  0  0  0  0  0  0  0  0  0  0
  146.1545  140.0104  153.8562 N   0  0  0  0  0  0  0  0  0  0  0  0
  147.0383  138.8813  153.6208 C   0  0  0  0  0  0  0  0  0  0  0  0
  149.2871  138.0176  152.9871 H   0  0  0  0  0  0  0  0  0  0  0  0
  147.8738  138.3808  156.0822 H   0  0  0  0  0  0  0  0  0  0  0  0
  149.1143  137.5504  155.1960 H   0  0  0  0  0  0  0  0  0  0  0  0
  151.4759  138.1289  155.4664 H   0  0  0  0  0  0  0  0  0  0  0  0
  151.0441  139.5864  154.5960 H   0  0  0  0  0  0  0  0  0  0  0  0
  153.1794  139.8667  155.8443 H   0  0  0  0  0  0  0  0  0  0  0  0
  151.9630  141.0199  156.3091 H   0  0  0  0  0  0  0  0  0  0  0  0
  152.6636  138.4131  157.7103 H   0  0  0  0  0  0  0  0  0  0  0  0
  154.1307  140.0015  161.2797 H   0  0  0  0  0  0  0  0  0  0  0  0
  153.6951  141.8257  162.8318 H   0  0  0  0  0  0  0  0  0  0  0  0
  152.5478  143.8842  162.0855 H   0  0  0  0  0  0  0  0  0  0  0  0
  152.2623  142.2628  158.1013 H   0  0  0  0  0  0  0  0  0  0  0  0
  151.1041  138.9158  159.4891 H   0  0  0  0  0  0  0  0  0  0  0  0
  150.5940  140.3932  158.7302 H   0  0  0  0  0  0  0  0  0  0  0  0
  149.0012  138.6914  158.1969 H   0  0  0  0  0  0  0  0  0  0  0  0
  150.2239  137.5740  157.6277 H   0  0  0  0  0  0  0  0  0  0  0  0
  148.2704  141.1126  155.3584 H   0  0  0  0  0  0  0  0  0  0  0  0
  149.1441  141.3697  153.8517 H   0  0  0  0  0  0  0  0  0  0  0  0
  146.5203  142.0775  154.1238 H   0  0  0  0  0  0  0  0  0  0  0  0
  147.1072  141.3900  152.6087 H   0  0  0  0  0  0  0  0  0  0  0  0
  145.3782  140.0038  153.2016 H   0  0  0  0  0  0  0  0  0  0  0  0
  147.0907  138.6945  152.5468 H   0  0  0  0  0  0  0  0  0  0  0  0
  146.6499  137.9717  154.0797 H   0  0  0  0  0  0  0  0  0  0  0  0
  149.5800  140.1530  156.3916 H   0  0  0  0  0  0  0  0  0  0  0  0
  1  2  1  0  0  0  0
  1 25  1  0  0  0  0
  2 24  1  0  0  0  0
  2  3  1  0  0  0  0
  2 21  1  0  0  0  0
  3  4  1  0  0  0  0
  3 26  1  0  0  0  0
  3 27  1  0  0  0  0
  4 20  1  0  0  0  0
  4  5  1  0  0  0  0
  4 48  1  0  0  0  0
  5  6  1  0  0  0  0
  5 28  1  0  0  0  0
  5 29  1  0  0  0  0
  6  7  1  0  0  0  0
  6 30  1  0  0  0  0
  6 31  1  0  0  0  0
  7  8  1  0  0  0  0
  7 19  1  0  0  0  0
  7 32  1  0  0  0  0
  8  9  1  0  0  0  0
  9 18  1  0  0  0  0
  9 10  2  0  0  0  0
 10 11  1  0  0  0  0
 10 33  1  0  0  0  0
 11 12  2  0  0  0  0
 11 34  1  0  0  0  0
 12 13  1  0  0  0  0
 12 35  1  0  0  0  0
 13 14  1  0  0  0  0
 13 18  2  0  0  0  0
 14 15  1  0  0  0  0
 14 16  1  0  0  0  0
 14 17  1  0  0  0  0
 18 36  1  0  0  0  0
 19 20  1  0  0  0  0
 19 37  1  0  0  0  0
 19 38  1  0  0  0  0
 20 39  1  0  0  0  0
 20 40  1  0  0  0  0
 21 22  1  0  0  0  0
 21 41  1  0  0  0  0
 21 42  1  0  0  0  0
 22 23  1  0  0  0  0
 22 43  1  0  0  0  0
 22 44  1  0  0  0  0
 23 24  1  0  0  0  0
 23 45  1  0  0  0  0
 24 46  1  0  0  0  0
 24 47  1  0  0  0  0
M  CHG  1   4   1
M  END
> <s_m_source_file>
AV-unprocessed.smi

> <i_m_source_file_index>
67

> <i_lp_mmshare_version>
43012

> <i_f3d_flags>
0

> <s_epik_input>
W0NIMl0xW05IXVtDSDJdW0NIMl1bQ0BAXTEoW09IXSlbQ0gyXU4yW0NIMl1bQ0gyXVtDSF0oW0NIMl1bQ0gyXTIpT2MzW2NIXVtjSF1bY0hdYyhDKEYpKEYpRilbY0hdMw==

> <s_epik_cmdline>
J2VwaWtfcHl0aG9uJywgJy1waCcsICc3LjAnLCAnLXRuJywgJzgnLCAnLW1hJywgJzIwMCcsICctbWV0YWxfYmluZGluZycsICctaW1hZScsICc8aW5maWxlLm1hZT4nLCAnLW9tYWUnLCAnPG91dGZpbGUubWFlPic=

> <r_epik_Ionization_Penalty>
2.37709

> <r_epik_Ionization_Penalty_Charging>
0.0305656

> <r_epik_Ionization_Penalty_Neutral>
2.34653

> <r_epik_State_Penalty>
2.56959

> <r_epik_Charging_Adjusted_Penalty>
2.60016

> <i_epik_Tot_Q>
1

> <i_epik_Tot_abs_Q>
1

> <r_epik_Metal_State_Penalty>
2.56925

> <b_epik_Metal_Only>
0

> <s_lp_Force_Field>
OPLS_2005

> <r_lp_Energy>
55.5379

> <b_lp_Chiralities_Consistent>
1

> <s_lp_Variant>
AV-unprocessed.smi:67-7

> <Gold.Version>
5.8.1

> <Gold.Id.Protein>
6NUR|6NUR_protein|mol2

> <Gold.PLP.Fitness>
64.2923

> <Gold.PLP.PLP>
-56.7970

> <Gold.PLP.part.hbond>
-3.5198

> <Gold.PLP.part.metal>
0.0000

> <Gold.PLP.part.buried>
-6.3110

> <Gold.PLP.part.nonpolar>
-45.7933

> <Gold.PLP.part.repulsive>
0.0112

> <Gold.PLP.ligand.clash>
0.0106

> <Gold.PLP.ligand.torsion>
1.0322

> <Gold.PLP.Chemscore.Hbond>
2.9760

> <Gold.PLP.Chemscore.CHOScore>
0.0000

> <Gold.PLP.Chemscore.Metal>
0.0000

> <Gold.Chemscore.Hbonds>
donor molecule, donor type, donor heavy atom, donor atom, acceptor molecule, acceptor atom, score
      L1  H     1    25       P1  7948  0.81
      L1  H    23    45       P1 10175  1.00
      P1  H  7997  8009       L1     8  0.96

> <Gold.PLP.Chemscore.Internal.Correction>
0.6422

> <Gold.Rescore>
     Score         DG    S(hbond)    S(metal)    S(lipo)     H(rot)  DE(clash)    DE(int)     intcor
     21.35     -23.41       2.61        0.00     126.33       2.17       0.13       1.92       ----

> <Gold.Chemscore.Fitness>
21.3472

> <Gold.Chemscore.DG>
-23.4060

> <Gold.Chemscore.ZeroCoef>
-5.4800

> <Gold.Chemscore.Hbond>
2.6075

> <Gold.Chemscore.Metal>
0.0000

> <Gold.Chemscore.Lipo>
126.3315

> <Gold.Chemscore.Internal_Hbond>
0.0000

> <Gold.Chemscore.DEClash>
0.1345

> <Gold.Chemscore.DEInternal>
1.9243

> <Gold.Chemscore.Rot>
2.1734

> <Gold.Chemscore.Internal.Correction>
   9.000000E+99

> <Gold.Chemscore.Hbonds>
donor molecule, donor type, donor heavy atom, donor atom, acceptor molecule, acceptor atom, score
      L1  H     1    25       P1  7948  0.77
      L1  H    23    45       P1 10175  0.99
      P1  H  7997  8009       L1     8  0.23

> <Gold.Chemscore.Hbond.Weighted>
-8.7092

> <Gold.Chemscore.Metal.Weighted>
-0.0000

> <Gold.Chemscore.Lipo.Weighted>
-14.7808

> <Gold.Chemscore.Internal_Hbond.Weighted>
0.0000

> <Gold.Chemscore.DEClash.Weighted>
0.1345

> <Gold.Chemscore.DEInternal.Weighted>
1.9243

> <Gold.Chemscore.Rot.Weighted>
5.5640

> <Gold.Chemscore.Internal.Correction.Weighted>
   9.000000E+99

> <Gold.Protein.RotatedTorsions>
[ 6907 6896 6895 6894 ] final  138.39 input  -60.11 | X-H torsion
[ 7974 7965 7964 7962 ] final   85.13 input  175.53 | X-H torsion
[ 8008 7997 7996 7995 ] final  136.65 input   59.86 | X-H torsion
[ 10167 10162 10161 10158 ] final  -75.38 input  -65.29 | X-H torsion
[ 10718 10713 10712 10709 ] final   71.62 input   66.30 | X-H torsion
[ 10763 10752 10751 10750 ] final  123.66 input  -60.55 | X-H torsion
[ 11005 11000 10999 10996 ] final -117.62 input  -57.11 | X-H torsion

> <Gold.Protein.ActiveResidues>
 VAL166  LYS551  ARG553  GLY616  TRP617  ASP618  TYR619  PRO620  LYS621  CYS622 
 ASP623  PHE694  ASN695  SER759  ASP760  ASP761  ALA762  ILE779  LEU786  VAL792 
 PHE793  MET794  SER795  GLU796  ALA797  LYS798  CYS799  TRP800  GLU811  SER814 

> <Gold.Protein.RotatedAtoms>
  152.2671  133.5349  159.5416 H   0  0  0  0  0  0  0  0  0  0  0  0  # atno 6907 bound_to 6896
  150.7146  134.0749  159.3886 H   0  0  0  0  0  0  0  0  0  0  0  0  # atno 6908 bound_to 6896
  151.8665  135.0505  160.0525 H   0  0  0  0  0  0  0  0  0  0  0  0  # atno 6909 bound_to 6896
  145.5896  139.2336  143.2307 H   0  0  0  0  0  0  0  0  0  0  0  0  # atno 7974 bound_to 7965
  156.3004  140.2439  156.3781 H   0  0  0  0  0  0  0  0  0  0  0  0  # atno 8008 bound_to 7997
  154.8726  140.0415  157.1754 H   0  0  0  0  0  0  0  0  0  0  0  0  # atno 8009 bound_to 7997
  154.8779  140.2945  155.5446 H   0  0  0  0  0  0  0  0  0  0  0  0  # atno 8010 bound_to 7997
  140.4947  143.2373  151.7850 H   0  0  0  0  0  0  0  0  0  0  0  0  # atno 10167 bound_to 10162
  157.6461  130.9538  150.0815 H   0  0  0  0  0  0  0  0  0  0  0  0  # atno 10718 bound_to 10713
  153.6491  135.3366  155.3094 H   0  0  0  0  0  0  0  0  0  0  0  0  # atno 10763 bound_to 10752
  154.8542  135.4336  154.1923 H   0  0  0  0  0  0  0  0  0  0  0  0  # atno 10764 bound_to 10752
  153.2861  135.7013  153.7412 H   0  0  0  0  0  0  0  0  0  0  0  0  # atno 10765 bound_to 10752
  141.0342  133.9935  157.3097 H   0  0  0  0  0  0  0  0  0  0  0  0  # atno 11005 bound_to 11000
  146.1657  140.6722  142.9257 LP  0  0  0  0  0  0  0  0  0  0  0  0  # atno 17320 bound_to 7965
  144.7357  140.4802  143.6905 LP  0  0  0  0  0  0  0  0  0  0  0  0  # atno 17321 bound_to 7965
  139.4859  144.4602  151.9550 LP  0  0  0  0  0  0  0  0  0  0  0  0  # atno 17342 bound_to 10162
  140.3690  144.2879  150.5922 LP  0  0  0  0  0  0  0  0  0  0  0  0  # atno 17343 bound_to 10162
  156.1790  130.3649  149.9061 LP  0  0  0  0  0  0  0  0  0  0  0  0  # atno 17370 bound_to 10713
  156.7018  130.8936  151.3600 LP  0  0  0  0  0  0  0  0  0  0  0  0  # atno 17371 bound_to 10713
  139.9229  135.0201  156.8129 LP  0  0  0  0  0  0  0  0  0  0  0  0  # atno 17394 bound_to 11000
  140.6352  133.9868  155.7681 LP  0  0  0  0  0  0  0  0  0  0  0  0  # atno 17395 bound_to 11000

$$$$
