AV-unprocessed.smi:2140|AV-procd|sdf|8715|dock3
  -GOLD-   2272011483D 1   1.00000     0.00000
 Structure written by MMmdl.
 39 40  0  0  0  0  0  0  0  0  1 V2000
  147.4507  141.8589  153.7238 C   0  0  0  0  0  0  0  0  0  0  0  0
  148.1085  140.5772  154.2966 C   0  0  1  0  0  0  0  0  0  0  0  0
  149.6043  140.8760  154.6079 C   0  0  0  0  0  0  0  0  0  0  0  0
  149.7970  142.0126  155.5046 N   0  0  0  0  0  0  0  0  0  0  0  0
  150.4555  141.9694  156.6712 C   0  0  0  0  0  0  0  0  0  0  0  0
  150.9704  140.9464  157.1221 O   0  0  0  0  0  0  0  0  0  0  0  0
  150.4922  143.1805  157.2524 N   0  0  0  0  0  0  0  0  0  0  0  0
  151.0938  143.5501  158.4855 C   0  0  0  0  0  0  0  0  0  0  0  0
  151.9916  142.7300  159.2108 C   0  0  0  0  0  0  0  0  0  0  0  0
  152.5069  143.2023  160.4334 C   0  0  0  0  0  0  0  0  0  0  0  0
  152.1011  144.4716  160.8890 C   0  0  0  0  0  0  0  0  0  0  0  0
  151.2353  145.2577  160.2151 N   0  0  0  0  0  0  0  0  0  0  0  0
  150.7446  144.7977  159.0446 C   0  0  0  0  0  0  0  0  0  0  0  0
  147.3708  140.0233  155.4559 N   0  0  0  0  0  0  0  0  0  0  0  0
  148.0849  138.9160  156.1024 C   0  0  0  0  0  0  0  0  0  0  0  0
  147.3337  138.3521  157.3206 C   0  0  0  0  0  0  0  0  0  0  0  0
  147.1025  139.3911  158.2614 O   0  0  0  0  0  0  0  0  0  0  0  0
  146.3469  140.4565  157.7025 C   0  0  0  0  0  0  0  0  0  0  0  0
  147.0842  141.0339  156.4811 C   0  0  0  0  0  0  0  0  0  0  0  0
  148.0236  142.2919  152.9047 H   0  0  0  0  0  0  0  0  0  0  0  0
  147.3466  142.6259  154.4920 H   0  0  0  0  0  0  0  0  0  0  0  0
  146.4644  141.6646  153.3050 H   0  0  0  0  0  0  0  0  0  0  0  0
  148.0878  139.8294  153.5023 H   0  0  0  0  0  0  0  0  0  0  0  0
  150.0684  140.0021  155.0661 H   0  0  0  0  0  0  0  0  0  0  0  0
  150.1764  141.0897  153.7061 H   0  0  0  0  0  0  0  0  0  0  0  0
  149.4088  142.8959  155.2079 H   0  0  0  0  0  0  0  0  0  0  0  0
  150.0969  143.9409  156.7190 H   0  0  0  0  0  0  0  0  0  0  0  0
  152.2819  141.7501  158.8649 H   0  0  0  0  0  0  0  0  0  0  0  0
  153.1945  142.6025  161.0112 H   0  0  0  0  0  0  0  0  0  0  0  0
  152.4776  144.8634  161.8224 H   0  0  0  0  0  0  0  0  0  0  0  0
  150.0528  145.4523  158.5345 H   0  0  0  0  0  0  0  0  0  0  0  0
  148.2255  138.0909  155.4066 H   0  0  0  0  0  0  0  0  0  0  0  0
  149.0788  139.2452  156.4098 H   0  0  0  0  0  0  0  0  0  0  0  0
  146.3853  137.9053  157.0174 H   0  0  0  0  0  0  0  0  0  0  0  0
  147.9199  137.5657  157.7961 H   0  0  0  0  0  0  0  0  0  0  0  0
  145.3540  140.1012  157.4221 H   0  0  0  0  0  0  0  0  0  0  0  0
  146.2080  141.2282  158.4598 H   0  0  0  0  0  0  0  0  0  0  0  0
  148.0134  141.5035  156.8075 H   0  0  0  0  0  0  0  0  0  0  0  0
  146.4534  141.8241  156.0798 H   0  0  0  0  0  0  0  0  0  0  0  0
  1  2  1  0  0  0  0
  1 20  1  0  0  0  0
  1 21  1  0  0  0  0
  1 22  1  0  0  0  0
  2  3  1  0  0  0  0
  2 14  1  0  0  0  0
  2 23  1  0  0  0  0
  3  4  1  0  0  0  0
  3 24  1  0  0  0  0
  3 25  1  0  0  0  0
  4  5  1  0  0  0  0
  4 26  1  0  0  0  0
  5  6  2  0  0  0  0
  5  7  1  0  0  0  0
  7  8  1  0  0  0  0
  7 27  1  0  0  0  0
  8 13  1  0  0  0  0
  8  9  2  0  0  0  0
  9 10  1  0  0  0  0
  9 28  1  0  0  0  0
 10 11  2  0  0  0  0
 10 29  1  0  0  0  0
 11 12  1  0  0  0  0
 11 30  1  0  0  0  0
 12 13  2  0  0  0  0
 13 31  1  0  0  0  0
 14 19  1  0  0  0  0
 14 15  1  0  0  0  0
 15 16  1  0  0  0  0
 15 32  1  0  0  0  0
 15 33  1  0  0  0  0
 16 17  1  0  0  0  0
 16 34  1  0  0  0  0
 16 35  1  0  0  0  0
 17 18  1  0  0  0  0
 18 19  1  0  0  0  0
 18 36  1  0  0  0  0
 18 37  1  0  0  0  0
 19 38  1  0  0  0  0
 19 39  1  0  0  0  0
M  END
> <s_m_source_file>
AV-unprocessed.smi

> <i_m_source_file_index>
2140

> <i_lp_mmshare_version>
43012

> <i_f3d_flags>
0

> <s_epik_input>
W0NIMl0xW0NIMl1PW0NIMl1bQ0gyXU4xW0NASF0oW0NIM10pW0NIMl1bTkhdQyg9TylbTkhdYzJbY0hdW2NIXVtjSF1uW2NIXTI=

> <s_epik_cmdline>
J2VwaWtfcHl0aG9uJywgJy1waCcsICc3LjAnLCAnLXRuJywgJzgnLCAnLW1hJywgJzIwMCcsICctbWV0YWxfYmluZGluZycsICctaW1hZScsICc8aW5maWxlLm1hZT4nLCAnLW9tYWUnLCAnPG91dGZpbGUubWFlPic=

> <r_epik_Ionization_Penalty>
0.270748

> <r_epik_Ionization_Penalty_Charging>
0

> <r_epik_Ionization_Penalty_Neutral>
0.270748

> <r_epik_State_Penalty>
0.268258

> <r_epik_Charging_Adjusted_Penalty>
0.268258

> <i_epik_Tot_Q>
0

> <i_epik_Tot_abs_Q>
0

> <r_epik_Metal_State_Penalty>
0.264828

> <b_epik_Metal_Only>
0

> <s_lp_Force_Field>
OPLS_2005

> <r_lp_Energy>
31.3995

> <b_lp_Chiralities_Consistent>
1

> <s_lp_Variant>
AV-unprocessed.smi:2140-2

> <Gold.Version>
5.8.1

> <Gold.Id.Protein>
6NUR|6NUR_protein|mol2

> <Gold.PLP.Fitness>
40.7927

> <Gold.PLP.PLP>
-32.1829

> <Gold.PLP.part.hbond>
-3.0000

> <Gold.PLP.part.metal>
0.0000

> <Gold.PLP.part.buried>
-5.4457

> <Gold.PLP.part.nonpolar>
-23.8682

> <Gold.PLP.part.repulsive>
0.3913

> <Gold.PLP.ligand.clash>
0.0000

> <Gold.PLP.ligand.torsion>
0.1956

> <Gold.PLP.Chemscore.Hbond>
1.9920

> <Gold.PLP.Chemscore.CHOScore>
1.0000

> <Gold.PLP.Chemscore.Metal>
0.0000

> <Gold.Chemscore.Hbonds>
donor molecule, donor type, donor heavy atom, donor atom, acceptor molecule, acceptor atom, score
      L1  H     4    26       P1  8028  0.99
      L1  H     7    27       P1  8028  1.00
      L1  C    13    31       P1  8029  1.00

> <Gold.PLP.Chemscore.Internal.Correction>
0.0250

> <Gold.Rescore>
     Score         DG    S(hbond)    S(metal)    S(lipo)     H(rot)  DE(clash)    DE(int)     intcor
     16.01     -17.58       1.95        0.00      80.02       1.47       0.02       1.55       ----

> <Gold.Chemscore.Fitness>
16.0121

> <Gold.Chemscore.DG>
-17.5845

> <Gold.Chemscore.ZeroCoef>
-5.4800

> <Gold.Chemscore.Hbond>
1.9492

> <Gold.Chemscore.Metal>
0.0000

> <Gold.Chemscore.Lipo>
80.0203

> <Gold.Chemscore.Internal_Hbond>
0.0000

> <Gold.Chemscore.DEClash>
0.0197

> <Gold.Chemscore.DEInternal>
1.5527

> <Gold.Chemscore.Rot>
1.4719

> <Gold.Chemscore.Internal.Correction>
   9.000000E+99

> <Gold.Chemscore.Hbonds>
donor molecule, donor type, donor heavy atom, donor atom, acceptor molecule, acceptor atom, score
      L1  H     4    26       P1  8028  0.93
      L1  H     7    27       P1  8028  0.98

> <Gold.Chemscore.Hbond.Weighted>
-6.5102

> <Gold.Chemscore.Metal.Weighted>
-0.0000

> <Gold.Chemscore.Lipo.Weighted>
-9.3624

> <Gold.Chemscore.Internal_Hbond.Weighted>
0.0000

> <Gold.Chemscore.DEClash.Weighted>
0.0197

> <Gold.Chemscore.DEInternal.Weighted>
1.5527

> <Gold.Chemscore.Rot.Weighted>
3.7681

> <Gold.Chemscore.Internal.Correction.Weighted>
   9.000000E+99

> <Gold.Protein.RotatedTorsions>
[ 6907 6896 6895 6894 ] final  101.99 input  -60.11 | X-H torsion
[ 7974 7965 7964 7962 ] final  -18.51 input  175.53 | X-H torsion
[ 8008 7997 7996 7995 ] final  -54.77 input   59.86 | X-H torsion
[ 10167 10162 10161 10158 ] final   78.17 input  -65.29 | X-H torsion
[ 10718 10713 10712 10709 ] final -104.49 input   66.30 | X-H torsion
[ 10763 10752 10751 10750 ] final  116.62 input  -60.55 | X-H torsion
[ 11005 11000 10999 10996 ] final -169.71 input  -57.11 | X-H torsion

> <Gold.Protein.ActiveResidues>
 VAL166  LYS551  ARG553  GLY616  TRP617  ASP618  TYR619  PRO620  LYS621  CYS622 
 ASP623  PHE694  ASN695  SER759  ASP760  ASP761  ALA762  ILE779  LEU786  VAL792 
 PHE793  MET794  SER795  GLU796  ALA797  LYS798  CYS799  TRP800  GLU811  SER814 

> <Gold.Protein.RotatedAtoms>
  152.5335  134.0043  159.7908 H   0  0  0  0  0  0  0  0  0  0  0  0  # atno 6907 bound_to 6896
  151.0256  133.5828  159.2673 H   0  0  0  0  0  0  0  0  0  0  0  0  # atno 6908 bound_to 6896
  151.2852  135.0732  159.9237 H   0  0  0  0  0  0  0  0  0  0  0  0  # atno 6909 bound_to 6896
  146.1888  140.3931  142.8466 H   0  0  0  0  0  0  0  0  0  0  0  0  # atno 7974 bound_to 7965
  154.4173  140.1168  156.5368 H   0  0  0  0  0  0  0  0  0  0  0  0  # atno 8008 bound_to 7997
  155.6549  140.3496  155.4742 H   0  0  0  0  0  0  0  0  0  0  0  0  # atno 8009 bound_to 7997
  155.9762  140.1151  157.0758 H   0  0  0  0  0  0  0  0  0  0  0  0  # atno 8010 bound_to 7997
  139.9737  144.5876  150.7962 H   0  0  0  0  0  0  0  0  0  0  0  0  # atno 10167 bound_to 10162
  156.0306  130.5518  150.7404 H   0  0  0  0  0  0  0  0  0  0  0  0  # atno 10718 bound_to 10713
  153.5400  135.3560  155.2714 H   0  0  0  0  0  0  0  0  0  0  0  0  # atno 10763 bound_to 10752
  154.8718  135.4089  154.3054 H   0  0  0  0  0  0  0  0  0  0  0  0  # atno 10764 bound_to 10752
  153.3759  135.7066  153.6670 H   0  0  0  0  0  0  0  0  0  0  0  0  # atno 10765 bound_to 10752
  140.5276  134.5647  157.5066 H   0  0  0  0  0  0  0  0  0  0  0  0  # atno 11005 bound_to 11000
  144.8448  140.6912  143.6206 LP  0  0  0  0  0  0  0  0  0  0  0  0  # atno 17320 bound_to 7965
  145.3855  139.1627  143.4257 LP  0  0  0  0  0  0  0  0  0  0  0  0  # atno 17321 bound_to 7965
  140.7513  143.2970  151.3179 LP  0  0  0  0  0  0  0  0  0  0  0  0  # atno 17342 bound_to 10162
  139.6461  144.0448  152.2592 LP  0  0  0  0  0  0  0  0  0  0  0  0  # atno 17343 bound_to 10162
  157.4974  131.0916  151.0355 LP  0  0  0  0  0  0  0  0  0  0  0  0  # atno 17370 bound_to 10713
  157.0745  130.5878  149.5409 LP  0  0  0  0  0  0  0  0  0  0  0  0  # atno 17371 bound_to 10713
  139.9571  134.7515  156.0317 LP  0  0  0  0  0  0  0  0  0  0  0  0  # atno 17394 bound_to 11000
  141.1299  133.6589  156.3437 LP  0  0  0  0  0  0  0  0  0  0  0  0  # atno 17395 bound_to 11000

$$$$
