AV-unprocessed.smi:555|AV-procd|sdf|2911|dock6
  -GOLD-   2262023403D 1   1.00000     0.00000
 Structure written by MMmdl.
 50 51  0  0  0  0  0  0  0  0  2 V2000
  150.4733  130.8060  154.3787 C   0  0  0  0  0  0  0  0  0  0  0  0
  149.6560  131.7982  153.7826 O   0  0  0  0  0  0  0  0  0  0  0  0
  149.1909  132.7533  154.7209 C   0  0  0  0  0  0  0  0  0  0  0  0
  150.2515  133.8532  154.8782 C   0  0  0  0  0  0  0  0  0  0  0  0
  149.7867  134.9237  155.7658 N   0  0  0  0  0  0  0  0  0  0  0  0
  149.6220  136.1454  155.1357 N   0  0  0  0  0  0  0  0  0  0  0  0
  149.2280  137.1770  155.8102 C   0  0  0  0  0  0  0  0  0  0  0  0
  149.0466  138.5087  155.1690 C   0  0  0  0  0  0  0  0  0  0  0  0
  149.4993  138.7624  154.0518 O   0  0  0  0  0  0  0  0  0  0  0  0
  148.3517  139.4036  155.8943 N   0  0  0  0  0  0  0  0  0  0  0  0
  148.0329  140.7697  155.4838 C   0  0  2  0  0  0  0  0  0  0  0  0
  149.2537  141.4337  154.8349 C   0  0  0  0  0  0  0  0  0  0  0  0
  150.3717  141.7205  155.8543 C   0  0  0  0  0  0  0  0  0  0  0  0
  149.8942  142.5468  157.0029 N   0  3  2  0  0  0  0  0  0  0  0  0
  150.9801  142.9160  157.9705 C   0  0  0  0  0  0  0  0  0  0  0  0
  151.4733  141.7019  158.7862 C   0  0  0  0  0  0  0  0  0  0  0  0
  150.5532  144.0236  158.9578 C   0  0  0  0  0  0  0  0  0  0  0  0
  148.7177  141.9068  157.6624 C   0  0  0  0  0  0  0  0  0  0  0  0
  147.5734  141.6308  156.6710 C   0  0  0  0  0  0  0  0  0  0  0  0
  148.9502  137.0747  157.2328 C   0  0  0  0  0  0  0  0  0  0  0  0
  149.1196  135.8766  157.8342 C   0  0  0  0  0  0  0  0  0  0  0  0
  149.5703  134.6954  157.0963 C   0  0  0  0  0  0  0  0  0  0  0  0
  149.7442  133.5975  157.6239 O   0  0  0  0  0  0  0  0  0  0  0  0
  150.8022  130.0973  153.6187 H   0  0  0  0  0  0  0  0  0  0  0  0
  149.9269  130.2507  155.1423 H   0  0  0  0  0  0  0  0  0  0  0  0
  151.3609  131.2471  154.8337 H   0  0  0  0  0  0  0  0  0  0  0  0
  148.2467  133.1811  154.3800 H   0  0  0  0  0  0  0  0  0  0  0  0
  149.0067  132.2697  155.6817 H   0  0  0  0  0  0  0  0  0  0  0  0
  151.1696  133.4164  155.2757 H   0  0  0  0  0  0  0  0  0  0  0  0
  150.5225  134.2559  153.9007 H   0  0  0  0  0  0  0  0  0  0  0  0
  148.0245  139.1111  156.8040 H   0  0  0  0  0  0  0  0  0  0  0  0
  147.2323  140.7260  154.7433 H   0  0  0  0  0  0  0  0  0  0  0  0
  149.6367  140.8085  154.0273 H   0  0  0  0  0  0  0  0  0  0  0  0
  148.9469  142.3718  154.3701 H   0  0  0  0  0  0  0  0  0  0  0  0
  150.7951  140.7868  156.2280 H   0  0  0  0  0  0  0  0  0  0  0  0
  151.1635  142.2323  155.3106 H   0  0  0  0  0  0  0  0  0  0  0  0
  151.8253  143.2982  157.3953 H   0  0  0  0  0  0  0  0  0  0  0  0
  152.1684  142.0103  159.5679 H   0  0  0  0  0  0  0  0  0  0  0  0
  152.0155  140.9811  158.1757 H   0  0  0  0  0  0  0  0  0  0  0  0
  150.6446  141.1853  159.2714 H   0  0  0  0  0  0  0  0  0  0  0  0
  151.3117  144.1783  159.7258 H   0  0  0  0  0  0  0  0  0  0  0  0
  149.6217  143.7695  159.4650 H   0  0  0  0  0  0  0  0  0  0  0  0
  150.4262  144.9886  158.4674 H   0  0  0  0  0  0  0  0  0  0  0  0
  149.0304  140.9809  158.1480 H   0  0  0  0  0  0  0  0  0  0  0  0
  148.3109  142.5485  158.4413 H   0  0  0  0  0  0  0  0  0  0  0  0
  147.1902  142.5809  156.2965 H   0  0  0  0  0  0  0  0  0  0  0  0
  146.7390  141.1549  157.1875 H   0  0  0  0  0  0  0  0  0  0  0  0
  148.6155  137.9300  157.8022 H   0  0  0  0  0  0  0  0  0  0  0  0
  148.9167  135.7857  158.8912 H   0  0  0  0  0  0  0  0  0  0  0  0
  149.5615  143.4143  156.6063 H   0  0  0  0  0  0  0  0  0  0  0  0
  1  2  1  0  0  0  0
  1 24  1  0  0  0  0
  1 25  1  0  0  0  0
  1 26  1  0  0  0  0
  2  3  1  0  0  0  0
  3  4  1  0  0  0  0
  3 27  1  0  0  0  0
  3 28  1  0  0  0  0
  4  5  1  0  0  0  0
  4 29  1  0  0  0  0
  4 30  1  0  0  0  0
  5 22  1  0  0  0  0
  5  6  1  0  0  0  0
  6  7  2  0  0  0  0
  7  8  1  0  0  0  0
  7 20  1  0  0  0  0
  8  9  2  0  0  0  0
  8 10  1  0  0  0  0
 10 11  1  0  0  0  0
 10 31  1  0  0  0  0
 11 19  1  0  0  0  0
 11 12  1  0  0  0  0
 11 32  1  0  0  0  0
 12 13  1  0  0  0  0
 12 33  1  0  0  0  0
 12 34  1  0  0  0  0
 13 14  1  0  0  0  0
 13 35  1  0  0  0  0
 13 36  1  0  0  0  0
 14 15  1  0  0  0  0
 14 18  1  0  0  0  0
 14 50  1  0  0  0  0
 15 16  1  0  0  0  0
 15 17  1  0  0  0  0
 15 37  1  0  0  0  0
 16 38  1  0  0  0  0
 16 39  1  0  0  0  0
 16 40  1  0  0  0  0
 17 41  1  0  0  0  0
 17 42  1  0  0  0  0
 17 43  1  0  0  0  0
 18 19  1  0  0  0  0
 18 44  1  0  0  0  0
 18 45  1  0  0  0  0
 19 46  1  0  0  0  0
 19 47  1  0  0  0  0
 20 21  2  0  0  0  0
 20 48  1  0  0  0  0
 21 22  1  0  0  0  0
 21 49  1  0  0  0  0
 22 23  2  0  0  0  0
M  CHG  1  14   1
M  END
> <s_m_source_file>
AV-unprocessed.smi

> <i_m_source_file_index>
555

> <i_lp_mmshare_version>
43012

> <i_f3d_flags>
0

> <s_epik_input>
W0NIM11PW0NIMl1bQ0gyXW4xbmMoW2NIXVtjSF1jMT1PKUMoPU8pW05IXVtDSF0yW0NIMl1bQ0gyXU4oW0NIXShbQ0gzXSlbQ0gzXSlbQ0gyXVtDSDJdMg==

> <s_epik_cmdline>
J2VwaWtfcHl0aG9uJywgJy1waCcsICc3LjAnLCAnLXRuJywgJzgnLCAnLW1hJywgJzIwMCcsICctbWV0YWxfYmluZGluZycsICctaW1hZScsICc8aW5maWxlLm1hZT4nLCAnLW9tYWUnLCAnPG91dGZpbGUubWFlPic=

> <r_lp_tautomer_probability>
1

> <r_epik_Ionization_Penalty>
0.00560205

> <r_epik_Ionization_Penalty_Charging>
0.00559911

> <r_epik_Ionization_Penalty_Neutral>
2.94673e-06

> <r_epik_State_Penalty>
0.00410202

> <r_epik_Charging_Adjusted_Penalty>
0.00970113

> <i_epik_Tot_Q>
1

> <i_epik_Tot_abs_Q>
1

> <r_epik_Metal_State_Penalty>
-0

> <b_epik_Metal_Only>
0

> <s_lp_Force_Field>
OPLS_2005

> <r_lp_Energy>
41.3332

> <b_lp_Chiralities_Consistent>
1

> <s_lp_Variant>
AV-unprocessed.smi:555-2

> <Gold.Version>
5.8.1

> <Gold.Id.Protein>
6NUR|6NUR_protein|mol2

> <Gold.PLP.Fitness>
37.6274

> <Gold.PLP.PLP>
-29.6505

> <Gold.PLP.part.hbond>
-2.0000

> <Gold.PLP.part.metal>
0.0000

> <Gold.PLP.part.buried>
-6.0327

> <Gold.PLP.part.nonpolar>
-21.7574

> <Gold.PLP.part.repulsive>
0.5434

> <Gold.PLP.ligand.clash>
0.0000

> <Gold.PLP.ligand.torsion>
0.5746

> <Gold.PLP.Chemscore.Hbond>
3.0000

> <Gold.PLP.Chemscore.CHOScore>
0.0000

> <Gold.PLP.Chemscore.Metal>
0.0000

> <Gold.Chemscore.Hbonds>
donor molecule, donor type, donor heavy atom, donor atom, acceptor molecule, acceptor atom, score
      L1  H    14    50       P1  8028  2.00
      P1  H  6896  6907       L1    23  1.00

> <Gold.PLP.Chemscore.Internal.Correction>
0.1260

> <Gold.Rescore>
     Score         DG    S(hbond)    S(metal)    S(lipo)     H(rot)  DE(clash)    DE(int)     intcor
     14.69     -16.54       1.92        0.00      77.75       1.74       0.10       1.75       ----

> <Gold.Chemscore.Fitness>
14.6937

> <Gold.Chemscore.DG>
-16.5382

> <Gold.Chemscore.ZeroCoef>
-5.4800

> <Gold.Chemscore.Hbond>
1.9237

> <Gold.Chemscore.Metal>
0.0000

> <Gold.Chemscore.Lipo>
77.7532

> <Gold.Chemscore.Internal_Hbond>
0.0000

> <Gold.Chemscore.DEClash>
0.0981

> <Gold.Chemscore.DEInternal>
1.7463

> <Gold.Chemscore.Rot>
1.7438

> <Gold.Chemscore.Internal.Correction>
   9.000000E+99

> <Gold.Chemscore.Hbonds>
donor molecule, donor type, donor heavy atom, donor atom, acceptor molecule, acceptor atom, score
      L1  H    14    50       P1  8028  1.00
      P1  H  6896  6907       L1    23  0.83

> <Gold.Chemscore.Hbond.Weighted>
-6.4252

> <Gold.Chemscore.Metal.Weighted>
-0.0000

> <Gold.Chemscore.Lipo.Weighted>
-9.0971

> <Gold.Chemscore.Internal_Hbond.Weighted>
0.0000

> <Gold.Chemscore.DEClash.Weighted>
0.0981

> <Gold.Chemscore.DEInternal.Weighted>
1.7463

> <Gold.Chemscore.Rot.Weighted>
4.4642

> <Gold.Chemscore.Internal.Correction.Weighted>
   9.000000E+99

> <Gold.Protein.RotatedTorsions>
[ 6907 6896 6895 6894 ] final -136.22 input  -60.11 | X-H torsion
[ 7974 7965 7964 7962 ] final   93.99 input  175.53 | X-H torsion
[ 8008 7997 7996 7995 ] final   -0.98 input   59.86 | X-H torsion
[ 10167 10162 10161 10158 ] final  -24.34 input  -65.29 | X-H torsion
[ 10718 10713 10712 10709 ] final  -65.02 input   66.30 | X-H torsion
[ 10763 10752 10751 10750 ] final  113.99 input  -60.55 | X-H torsion
[ 11005 11000 10999 10996 ] final  141.04 input  -57.11 | X-H torsion

> <Gold.Protein.ActiveResidues>
 VAL166  LYS551  ARG553  GLY616  TRP617  ASP618  TYR619  PRO620  LYS621  CYS622 
 ASP623  PHE694  ASN695  SER759  ASP760  ASP761  ALA762  ILE779  LEU786  VAL792 
 PHE793  MET794  SER795  GLU796  ALA797  LYS798  CYS799  TRP800  GLU811  SER814 

> <Gold.Protein.RotatedAtoms>
  151.0074  133.5997  159.2686 H   0  0  0  0  0  0  0  0  0  0  0  0  # atno 6907 bound_to 6896
  151.3161  135.0806  159.9299 H   0  0  0  0  0  0  0  0  0  0  0  0  # atno 6908 bound_to 6896
  152.5290  133.9730  159.7825 H   0  0  0  0  0  0  0  0  0  0  0  0  # atno 6909 bound_to 6896
  145.4715  139.2282  143.2932 H   0  0  0  0  0  0  0  0  0  0  0  0  # atno 7974 bound_to 7965
  154.6520  140.2571  155.7204 H   0  0  0  0  0  0  0  0  0  0  0  0  # atno 8008 bound_to 7997
  156.2579  140.2866  156.0878 H   0  0  0  0  0  0  0  0  0  0  0  0  # atno 8009 bound_to 7997
  155.1437  140.0381  157.2795 H   0  0  0  0  0  0  0  0  0  0  0  0  # atno 8010 bound_to 7997
  140.7288  143.4362  151.0726 H   0  0  0  0  0  0  0  0  0  0  0  0  # atno 10167 bound_to 10162
  156.0694  130.4241  150.1504 H   0  0  0  0  0  0  0  0  0  0  0  0  # atno 10718 bound_to 10713
  153.5006  135.3639  155.2538 H   0  0  0  0  0  0  0  0  0  0  0  0  # atno 10763 bound_to 10752
  154.8748  135.3999  154.3482 H   0  0  0  0  0  0  0  0  0  0  0  0  # atno 10764 bound_to 10752
  153.4118  135.7078  153.6420 H   0  0  0  0  0  0  0  0  0  0  0  0  # atno 10765 bound_to 10752
  140.0372  134.9323  157.0774 H   0  0  0  0  0  0  0  0  0  0  0  0  # atno 11005 bound_to 11000
  146.2394  140.5494  142.8941 LP  0  0  0  0  0  0  0  0  0  0  0  0  # atno 17320 bound_to 7965
  144.7942  140.6091  143.6521 LP  0  0  0  0  0  0  0  0  0  0  0  0  # atno 17321 bound_to 7965
  139.8024  143.8065  152.3164 LP  0  0  0  0  0  0  0  0  0  0  0  0  # atno 17342 bound_to 10162
  139.8086  144.7345  150.9727 LP  0  0  0  0  0  0  0  0  0  0  0  0  # atno 17343 bound_to 10162
  156.9557  130.9789  151.3489 LP  0  0  0  0  0  0  0  0  0  0  0  0  # atno 17370 bound_to 10713
  157.5756  130.8341  149.8451 LP  0  0  0  0  0  0  0  0  0  0  0  0  # atno 17371 bound_to 10713
  140.4129  134.1962  155.7163 LP  0  0  0  0  0  0  0  0  0  0  0  0  # atno 17394 bound_to 11000
  141.1863  133.8304  157.1072 LP  0  0  0  0  0  0  0  0  0  0  0  0  # atno 17395 bound_to 11000

$$$$
