AV-unprocessed.smi:183|AV-procd|sdf|1457|dock5
  -GOLD-   2262019263D 1   1.00000     0.00000
 Structure written by MMmdl.
 55 57  0  0  0  0  0  0  0  0  1 V2000
  150.7449  145.3110  159.3379 C   0  0  0  0  0  0  0  0  0  0  0  0
  151.3277  144.0339  158.7428 C   0  0  0  0  0  0  0  0  0  0  0  0
  152.2781  143.4750  159.2898 O   0  0  0  0  0  0  0  0  0  0  0  0
  150.7462  143.5825  157.6213 N   0  0  0  0  0  0  0  0  0  0  0  0
  151.1527  142.3872  156.8941 C   0  0  0  0  0  0  0  0  0  0  0  0
  150.5612  141.1159  157.5343 C   0  0  0  0  0  0  0  0  0  0  0  0
  149.9725  140.1900  156.5624 N   0  0  0  0  0  0  0  0  0  0  0  0
  149.1204  139.3203  157.1588 C   0  0  0  0  0  0  0  0  0  0  0  0
  147.8102  139.4055  156.8170 N   0  0  0  0  0  0  0  0  0  0  0  0
  146.9168  138.5830  157.3745 C   0  0  0  0  0  0  0  0  0  0  0  0
  147.1162  137.6250  158.2819 N   0  0  0  0  0  0  0  0  0  0  0  0
  148.4308  137.5425  158.6358 C   0  0  0  0  0  0  0  0  0  0  0  0
  149.4914  138.3466  158.1310 C   0  0  0  0  0  0  0  0  0  0  0  0
  150.6883  137.9839  158.7381 N   0  0  0  0  0  0  0  0  0  0  0  0
  150.3553  137.0183  159.5496 C   0  0  0  0  0  0  0  0  0  0  0  0
  149.0206  136.6816  159.5449 N   0  0  0  0  0  0  0  0  0  0  0  0
  148.3790  135.6483  160.3430 C   0  0  0  0  0  0  0  0  0  0  0  0
  147.3808  136.2072  161.3908 C   0  0  1  0  0  0  0  0  0  0  0  0
  148.0068  137.2871  162.0632 O   0  0  0  0  0  0  0  0  0  0  0  0
  146.0834  136.7305  160.7795 C   0  0  0  0  0  0  0  0  0  0  0  0
  145.0683  136.5179  161.8922 C   0  0  0  0  0  0  0  0  0  0  0  0
  145.4579  135.2640  162.4226 O   0  0  0  0  0  0  0  0  0  0  0  0
  146.8814  135.2049  162.4700 C   0  0  1  0  0  0  0  0  0  0  0  0
  147.2922  133.7343  162.2940 C   0  0  0  0  0  0  0  0  0  0  0  0
  150.7743  139.6972  155.4287 C   0  0  0  0  0  0  0  0  0  0  0  0
  149.9134  138.9250  154.4111 C   0  0  0  0  0  0  0  0  0  0  0  0
  151.9394  138.7887  155.8802 C   0  0  0  0  0  0  0  0  0  0  0  0
  149.7418  145.1265  159.7228 H   0  0  0  0  0  0  0  0  0  0  0  0
  150.6872  146.0948  158.5820 H   0  0  0  0  0  0  0  0  0  0  0  0
  151.3649  145.6745  160.1579 H   0  0  0  0  0  0  0  0  0  0  0  0
  149.9688  144.1052  157.2445 H   0  0  0  0  0  0  0  0  0  0  0  0
  150.8104  142.4898  155.8646 H   0  0  0  0  0  0  0  0  0  0  0  0
  152.2415  142.3366  156.8558 H   0  0  0  0  0  0  0  0  0  0  0  0
  151.3381  140.5996  158.1008 H   0  0  0  0  0  0  0  0  0  0  0  0
  149.8070  141.3869  158.2727 H   0  0  0  0  0  0  0  0  0  0  0  0
  145.8955  138.7114  157.0471 H   0  0  0  0  0  0  0  0  0  0  0  0
  151.0806  136.5200  160.1761 H   0  0  0  0  0  0  0  0  0  0  0  0
  147.8713  134.9723  159.6547 H   0  0  0  0  0  0  0  0  0  0  0  0
  149.1582  135.0629  160.8329 H   0  0  0  0  0  0  0  0  0  0  0  0
  148.0732  137.0710  162.9809 H   0  0  0  0  0  0  0  0  0  0  0  0
  146.1397  137.7660  160.4405 H   0  0  0  0  0  0  0  0  0  0  0  0
  145.7971  136.1166  159.9247 H   0  0  0  0  0  0  0  0  0  0  0  0
  145.1554  137.2886  162.6596 H   0  0  0  0  0  0  0  0  0  0  0  0
  144.0403  136.5013  161.5301 H   0  0  0  0  0  0  0  0  0  0  0  0
  147.1919  135.5310  163.4646 H   0  0  0  0  0  0  0  0  0  0  0  0
  148.3749  133.6151  162.3339 H   0  0  0  0  0  0  0  0  0  0  0  0
  146.9373  133.3297  161.3458 H   0  0  0  0  0  0  0  0  0  0  0  0
  146.8681  133.1199  163.0884 H   0  0  0  0  0  0  0  0  0  0  0  0
  151.1980  140.5569  154.9100 H   0  0  0  0  0  0  0  0  0  0  0  0
  150.5274  138.5187  153.6069 H   0  0  0  0  0  0  0  0  0  0  0  0
  149.1677  139.5653  153.9404 H   0  0  0  0  0  0  0  0  0  0  0  0
  149.3933  138.0910  154.8834 H   0  0  0  0  0  0  0  0  0  0  0  0
  152.4923  138.4083  155.0212 H   0  0  0  0  0  0  0  0  0  0  0  0
  151.5729  137.9295  156.4429 H   0  0  0  0  0  0  0  0  0  0  0  0
  152.6611  139.3123  156.5064 H   0  0  0  0  0  0  0  0  0  0  0  0
  1  2  1  0  0  0  0
  1 28  1  0  0  0  0
  1 29  1  0  0  0  0
  1 30  1  0  0  0  0
  2  3  2  0  0  0  0
  2  4  1  0  0  0  0
  4  5  1  0  0  0  0
  4 31  1  0  0  0  0
  5  6  1  0  0  0  0
  5 32  1  0  0  0  0
  5 33  1  0  0  0  0
  6  7  1  0  0  0  0
  6 34  1  0  0  0  0
  6 35  1  0  0  0  0
  7  8  1  0  0  0  0
  7 25  1  0  0  0  0
  8 13  1  0  0  0  0
  8  9  2  0  0  0  0
  9 10  1  0  0  0  0
 10 11  2  0  0  0  0
 10 36  1  0  0  0  0
 11 12  1  0  0  0  0
 12 16  1  0  0  0  0
 12 13  2  0  0  0  0
 13 14  1  0  0  0  0
 14 15  2  0  0  0  0
 15 16  1  0  0  0  0
 15 37  1  0  0  0  0
 16 17  1  0  0  0  0
 17 18  1  0  0  0  0
 17 38  1  0  0  0  0
 17 39  1  0  0  0  0
 18 23  1  0  0  0  0
 18 19  1  0  0  0  0
 18 20  1  0  0  0  0
 19 40  1  0  0  0  0
 20 21  1  0  0  0  0
 20 41  1  0  0  0  0
 20 42  1  0  0  0  0
 21 22  1  0  0  0  0
 21 43  1  0  0  0  0
 21 44  1  0  0  0  0
 22 23  1  0  0  0  0
 23 24  1  0  0  0  0
 23 45  1  0  0  0  0
 24 46  1  0  0  0  0
 24 47  1  0  0  0  0
 24 48  1  0  0  0  0
 25 26  1  0  0  0  0
 25 27  1  0  0  0  0
 25 49  1  0  0  0  0
 26 50  1  0  0  0  0
 26 51  1  0  0  0  0
 26 52  1  0  0  0  0
 27 53  1  0  0  0  0
 27 54  1  0  0  0  0
 27 55  1  0  0  0  0
M  END
> <s_m_source_file>
AV-unprocessed.smi

> <i_m_source_file_index>
183

> <i_lp_mmshare_version>
43012

> <i_f3d_flags>
0

> <s_epik_input>
W0NIM11DKD1PKVtOSF1bQ0gyXVtDSDJdTihbQ0hdKFtDSDNdKVtDSDNdKWMobltjSF1uMSljKGMxMiluW2NIXW4yW0NIMl1bQ0BAXTMoW09IXSlbQ0gyXVtDSDJdT1tDQEhdM1tDSDNd

> <s_epik_cmdline>
J2VwaWtfcHl0aG9uJywgJy1waCcsICc3LjAnLCAnLXRuJywgJzgnLCAnLW1hJywgJzIwMCcsICctbWV0YWxfYmluZGluZycsICctaW1hZScsICc8aW5maWxlLm1hZT4nLCAnLW9tYWUnLCAnPG91dGZpbGUubWFlPic=

> <r_lp_tautomer_probability>
1

> <r_epik_Ionization_Penalty>
0.00156158

> <r_epik_Ionization_Penalty_Charging>
0

> <r_epik_Ionization_Penalty_Neutral>
0.00156158

> <r_epik_State_Penalty>
0.000865808

> <r_epik_Charging_Adjusted_Penalty>
0.000865808

> <i_epik_Tot_Q>
0

> <i_epik_Tot_abs_Q>
0

> <r_epik_Metal_State_Penalty>
-0

> <b_epik_Metal_Only>
0

> <s_lp_Force_Field>
OPLS_2005

> <r_lp_Energy>
29.4164

> <b_lp_Chiralities_Consistent>
1

> <s_lp_Variant>
AV-unprocessed.smi:183-1

> <Gold.Version>
5.8.1

> <Gold.Id.Protein>
6NUR|6NUR_protein|mol2

> <Gold.PLP.Fitness>
48.0291

> <Gold.PLP.PLP>
-42.3000

> <Gold.PLP.part.hbond>
-2.7900

> <Gold.PLP.part.metal>
0.0000

> <Gold.PLP.part.buried>
-6.7651

> <Gold.PLP.part.nonpolar>
-33.8796

> <Gold.PLP.part.repulsive>
0.0215

> <Gold.PLP.ligand.clash>
0.0000

> <Gold.PLP.ligand.torsion>
1.1664

> <Gold.PLP.Chemscore.Hbond>
2.3136

> <Gold.PLP.Chemscore.CHOScore>
0.0000

> <Gold.PLP.Chemscore.Metal>
0.0000

> <Gold.Chemscore.Hbonds>
donor molecule, donor type, donor heavy atom, donor atom, acceptor molecule, acceptor atom, score
      L1  H     4    31       P1  8028  1.00
      P1  H  6931  6943       L1    19  0.70
      P1  H  6934  6947       L1    19  0.26

> <Gold.PLP.Chemscore.Internal.Correction>
1.1212

> <Gold.Rescore>
     Score         DG    S(hbond)    S(metal)    S(lipo)     H(rot)  DE(clash)    DE(int)     intcor
     11.76     -13.22       1.83        0.00      89.28       3.45       0.11       1.35       ----

> <Gold.Chemscore.Fitness>
11.7650

> <Gold.Chemscore.DG>
-13.2214

> <Gold.Chemscore.ZeroCoef>
-5.4800

> <Gold.Chemscore.Hbond>
1.8310

> <Gold.Chemscore.Metal>
0.0000

> <Gold.Chemscore.Lipo>
89.2767

> <Gold.Chemscore.Internal_Hbond>
0.0000

> <Gold.Chemscore.DEClash>
0.1059

> <Gold.Chemscore.DEInternal>
1.3506

> <Gold.Chemscore.Rot>
3.4451

> <Gold.Chemscore.Internal.Correction>
   9.000000E+99

> <Gold.Chemscore.Hbonds>
donor molecule, donor type, donor heavy atom, donor atom, acceptor molecule, acceptor atom, score
      L1  H     4    31       P1  8028  0.69
      P1  H  6931  6943       L1    19  0.20
      P1  H  6934  6947       L1    19  0.09

> <Gold.Chemscore.Hbond.Weighted>
-6.1154

> <Gold.Chemscore.Metal.Weighted>
-0.0000

> <Gold.Chemscore.Lipo.Weighted>
-10.4454

> <Gold.Chemscore.Internal_Hbond.Weighted>
0.0000

> <Gold.Chemscore.DEClash.Weighted>
0.1059

> <Gold.Chemscore.DEInternal.Weighted>
1.3506

> <Gold.Chemscore.Rot.Weighted>
8.8194

> <Gold.Chemscore.Internal.Correction.Weighted>
   9.000000E+99

> <Gold.Protein.RotatedTorsions>
[ 6907 6896 6895 6894 ] final  -10.18 input  -60.11 | X-H torsion
[ 7974 7965 7964 7962 ] final  -86.98 input  175.53 | X-H torsion
[ 8008 7997 7996 7995 ] final -166.02 input   59.86 | X-H torsion
[ 10167 10162 10161 10158 ] final   56.97 input  -65.29 | X-H torsion
[ 10718 10713 10712 10709 ] final  147.33 input   66.30 | X-H torsion
[ 10763 10752 10751 10750 ] final   79.61 input  -60.55 | X-H torsion
[ 11005 11000 10999 10996 ] final -105.41 input  -57.11 | X-H torsion

> <Gold.Protein.ActiveResidues>
 VAL166  LYS551  ARG553  GLY616  TRP617  ASP618  TYR619  PRO620  LYS621  CYS622 
 ASP623  PHE694  ASN695  SER759  ASP760  ASP761  ALA762  ILE779  LEU786  VAL792 
 PHE793  MET794  SER795  GLU796  ALA797  LYS798  CYS799  TRP800  GLU811  SER814 

> <Gold.Protein.RotatedAtoms>
  151.4060  135.0978  159.9570 H   0  0  0  0  0  0  0  0  0  0  0  0  # atno 6907 bound_to 6896
  152.5035  133.8843  159.7372 H   0  0  0  0  0  0  0  0  0  0  0  0  # atno 6908 bound_to 6896
  150.9327  133.6691  159.2835 H   0  0  0  0  0  0  0  0  0  0  0  0  # atno 6909 bound_to 6896
  145.4726  140.9559  143.1908 H   0  0  0  0  0  0  0  0  0  0  0  0  # atno 7974 bound_to 7965
  155.8579  140.0973  157.1632 H   0  0  0  0  0  0  0  0  0  0  0  0  # atno 8008 bound_to 7997
  154.3989  140.1370  156.3987 H   0  0  0  0  0  0  0  0  0  0  0  0  # atno 8009 bound_to 7997
  155.7889  140.3456  155.5341 H   0  0  0  0  0  0  0  0  0  0  0  0  # atno 8010 bound_to 7997
  140.2030  144.3968  150.6521 H   0  0  0  0  0  0  0  0  0  0  0  0  # atno 10167 bound_to 10162
  157.3223  131.0906  151.1230 H   0  0  0  0  0  0  0  0  0  0  0  0  # atno 10718 bound_to 10713
  153.0966  135.4833  154.8790 H   0  0  0  0  0  0  0  0  0  0  0  0  # atno 10763 bound_to 10752
  154.7331  135.3065  154.8859 H   0  0  0  0  0  0  0  0  0  0  0  0  # atno 10764 bound_to 10752
  153.9489  135.6825  153.4797 H   0  0  0  0  0  0  0  0  0  0  0  0  # atno 10765 bound_to 10752
  141.1054  133.8806  157.1731 H   0  0  0  0  0  0  0  0  0  0  0  0  # atno 11005 bound_to 11000
  144.7936  139.6279  143.7102 LP  0  0  0  0  0  0  0  0  0  0  0  0  # atno 17320 bound_to 7965
  146.2388  139.5958  142.9506 LP  0  0  0  0  0  0  0  0  0  0  0  0  # atno 17321 bound_to 7965
  140.6377  143.2198  151.6359 LP  0  0  0  0  0  0  0  0  0  0  0  0  # atno 17342 bound_to 10162
  139.5209  144.3208  152.0912 LP  0  0  0  0  0  0  0  0  0  0  0  0  # atno 17343 bound_to 10162
  157.2510  130.6614  149.5931 LP  0  0  0  0  0  0  0  0  0  0  0  0  # atno 17370 bound_to 10713
  155.9687  130.4538  150.5827 LP  0  0  0  0  0  0  0  0  0  0  0  0  # atno 17371 bound_to 10713
  139.9923  135.0060  157.0002 LP  0  0  0  0  0  0  0  0  0  0  0  0  # atno 17394 bound_to 11000
  140.4914  134.1189  155.7233 LP  0  0  0  0  0  0  0  0  0  0  0  0  # atno 17395 bound_to 11000

$$$$
