AV-unprocessed.smi:766|AV-procd|sdf|3651|dock8
  -GOLD-   22720 1 53D 1   1.00000     0.00000
 Structure written by MMmdl.
 47 49  0  0  0  0  0  0  0  0  2 V2000
  153.2889  143.0529  160.4552 C   0  0  0  0  0  0  0  0  0  0  0  0
  152.3964  142.3734  159.4316 C   0  0  0  0  0  0  0  0  0  0  0  0
  152.6082  141.0082  159.1334 C   0  0  0  0  0  0  0  0  0  0  0  0
  151.7979  140.3389  158.1903 C   0  0  0  0  0  0  0  0  0  0  0  0
  151.8246  139.0261  157.7520 N   0  0  0  0  0  0  0  0  0  0  0  0
  150.8232  139.0146  156.8772 C   0  0  0  0  0  0  0  0  0  0  0  0
  150.1483  140.1665  156.6979 N   0  0  0  0  0  0  0  0  0  0  0  0
  149.0249  140.3988  155.8082 C   0  0  0  0  0  0  0  0  0  0  0  0
  149.2314  139.7558  154.4234 C   0  0  2  0  0  0  0  0  0  0  0  0
  149.8091  140.7046  153.5464 O   0  0  0  0  0  0  0  0  0  0  0  0
  147.9114  139.2553  153.8158 C   0  0  0  0  0  0  0  0  0  0  0  0
  148.1419  138.5983  152.5144 N   0  3  0  0  0  0  0  0  0  0  0  0
  146.9122  138.1399  151.8376 C   0  0  0  0  0  0  0  0  0  0  0  0
  146.2516  136.9734  152.5904 C   0  0  0  0  0  0  0  0  0  0  0  0
  146.5840  135.6827  152.0136 N   0  0  0  0  0  0  0  0  0  0  0  0
  146.3262  135.2221  150.7393 C   0  0  0  0  0  0  0  0  0  0  0  0
  146.8240  133.9533  150.6577 C   0  0  0  0  0  0  0  0  0  0  0  0
  147.3769  133.7227  151.9482 C   0  0  0  0  0  0  0  0  0  0  0  0
  147.2301  134.7590  152.7582 N   0  0  0  0  0  0  0  0  0  0  0  0
  150.7626  141.0790  157.5482 C   0  0  0  0  0  0  0  0  0  0  0  0
  150.5439  142.4379  157.8337 C   0  0  0  0  0  0  0  0  0  0  0  0
  151.3624  143.0913  158.7784 C   0  0  0  0  0  0  0  0  0  0  0  0
  151.1175  144.5590  159.0804 C   0  0  0  0  0  0  0  0  0  0  0  0
  153.9797  142.3446  160.9137 H   0  0  0  0  0  0  0  0  0  0  0  0
  152.6912  143.4973  161.2514 H   0  0  0  0  0  0  0  0  0  0  0  0
  153.8785  143.8395  159.9838 H   0  0  0  0  0  0  0  0  0  0  0  0
  153.3969  140.4614  159.6289 H   0  0  0  0  0  0  0  0  0  0  0  0
  150.5624  138.1154  156.3383 H   0  0  0  0  0  0  0  0  0  0  0  0
  148.1303  139.9937  156.2825 H   0  0  0  0  0  0  0  0  0  0  0  0
  148.8683  141.4744  155.7133 H   0  0  0  0  0  0  0  0  0  0  0  0
  149.9220  138.9166  154.5209 H   0  0  0  0  0  0  0  0  0  0  0  0
  149.5112  140.5273  152.6670 H   0  0  0  0  0  0  0  0  0  0  0  0
  147.4498  138.5301  154.4876 H   0  0  0  0  0  0  0  0  0  0  0  0
  147.2046  140.0783  153.6986 H   0  0  0  0  0  0  0  0  0  0  0  0
  148.6221  139.2488  151.9085 H   0  0  0  0  0  0  0  0  0  0  0  0
  146.2115  138.9707  151.7436 H   0  0  0  0  0  0  0  0  0  0  0  0
  147.1684  137.8225  150.8262 H   0  0  0  0  0  0  0  0  0  0  0  0
  146.5813  136.9741  153.6301 H   0  0  0  0  0  0  0  0  0  0  0  0
  145.1666  137.0876  152.6087 H   0  0  0  0  0  0  0  0  0  0  0  0
  145.8165  135.8278  150.0045 H   0  0  0  0  0  0  0  0  0  0  0  0
  146.7995  133.2913  149.8049 H   0  0  0  0  0  0  0  0  0  0  0  0
  147.8762  132.8393  152.3179 H   0  0  0  0  0  0  0  0  0  0  0  0
  149.7519  142.9724  157.3303 H   0  0  0  0  0  0  0  0  0  0  0  0
  150.3300  144.9692  158.4477 H   0  0  0  0  0  0  0  0  0  0  0  0
  152.0218  145.1426  158.9072 H   0  0  0  0  0  0  0  0  0  0  0  0
  150.8141  144.6882  160.1194 H   0  0  0  0  0  0  0  0  0  0  0  0
  148.7416  137.7981  152.6597 H   0  0  0  0  0  0  0  0  0  0  0  0
  1  2  1  0  0  0  0
  1 24  1  0  0  0  0
  1 25  1  0  0  0  0
  1 26  1  0  0  0  0
  2 22  1  0  0  0  0
  2  3  2  0  0  0  0
  3  4  1  0  0  0  0
  3 27  1  0  0  0  0
  4 20  2  0  0  0  0
  4  5  1  0  0  0  0
  5  6  2  0  0  0  0
  6  7  1  0  0  0  0
  6 28  1  0  0  0  0
  7  8  1  0  0  0  0
  7 20  1  0  0  0  0
  8  9  1  0  0  0  0
  8 29  1  0  0  0  0
  8 30  1  0  0  0  0
  9 10  1  0  0  0  0
  9 11  1  0  0  0  0
  9 31  1  0  0  0  0
 10 32  1  0  0  0  0
 11 12  1  0  0  0  0
 11 33  1  0  0  0  0
 11 34  1  0  0  0  0
 12 13  1  0  0  0  0
 12 35  1  0  0  0  0
 12 47  1  0  0  0  0
 13 14  1  0  0  0  0
 13 36  1  0  0  0  0
 13 37  1  0  0  0  0
 14 15  1  0  0  0  0
 14 38  1  0  0  0  0
 14 39  1  0  0  0  0
 15 19  1  0  0  0  0
 15 16  1  0  0  0  0
 16 17  2  0  0  0  0
 16 40  1  0  0  0  0
 17 18  1  0  0  0  0
 17 41  1  0  0  0  0
 18 19  2  0  0  0  0
 18 42  1  0  0  0  0
 20 21  1  0  0  0  0
 21 22  2  0  0  0  0
 21 43  1  0  0  0  0
 22 23  1  0  0  0  0
 23 44  1  0  0  0  0
 23 45  1  0  0  0  0
 23 46  1  0  0  0  0
M  CHG  1  12   1
M  END
> <s_m_source_file>
AV-unprocessed.smi

> <i_m_source_file_index>
766

> <i_lp_mmshare_version>
43012

> <i_f3d_flags>
0

> <s_epik_input>
W0NIM11jKFtjSF0xKWMoW0NIM10pW2NIXWMoYzEyKW4oW2NIXW4yKVtDSDJdW0NASF0oW09IXSlbQ0gyXVtOSF1bQ0gyXVtDSDJdbjNbY0hdW2NIXVtjSF1uMw==

> <s_epik_cmdline>
J2VwaWtfcHl0aG9uJywgJy1waCcsICc3LjAnLCAnLXRuJywgJzgnLCAnLW1hJywgJzIwMCcsICctbWV0YWxfYmluZGluZycsICctaW1hZScsICc8aW5maWxlLm1hZT4nLCAnLW9tYWUnLCAnPG91dGZpbGUubWFlPic=

> <r_lp_tautomer_probability>
1

> <r_epik_Ionization_Penalty>
0.127222

> <r_epik_Ionization_Penalty_Charging>
0.043815

> <r_epik_Ionization_Penalty_Neutral>
0.0834074

> <r_epik_State_Penalty>
0.115563

> <r_epik_Charging_Adjusted_Penalty>
0.159378

> <i_epik_Tot_Q>
1

> <i_epik_Tot_abs_Q>
1

> <r_epik_Metal_State_Penalty>
0.102594

> <b_epik_Metal_Only>
0

> <s_lp_Force_Field>
OPLS_2005

> <r_lp_Energy>
9.49244

> <b_lp_Chiralities_Consistent>
1

> <s_lp_Variant>
AV-unprocessed.smi:766-1

> <Gold.Version>
5.8.1

> <Gold.Id.Protein>
6NUR|6NUR_protein|mol2

> <Gold.PLP.Fitness>
59.8622

> <Gold.PLP.PLP>
-45.9496

> <Gold.PLP.part.hbond>
-3.9550

> <Gold.PLP.part.metal>
0.0000

> <Gold.PLP.part.buried>
-5.2646

> <Gold.PLP.part.nonpolar>
-37.8655

> <Gold.PLP.part.repulsive>
0.1653

> <Gold.PLP.ligand.clash>
0.0000

> <Gold.PLP.ligand.torsion>
0.9518

> <Gold.PLP.Chemscore.Hbond>
4.2240

> <Gold.PLP.Chemscore.CHOScore>
1.0000

> <Gold.PLP.Chemscore.Metal>
0.0000

> <Gold.Chemscore.Hbonds>
donor molecule, donor type, donor heavy atom, donor atom, acceptor molecule, acceptor atom, score
      L1  H    10    32       P1  7957  1.00
      L1  H    12    35       P1  7957  0.80
      L1  H    12    47       P1  7948  1.41
      P1  H  7989  7998       L1    10  0.42
      L1  C    16    40       P1  7921  0.53

> <Gold.PLP.Chemscore.Internal.Correction>
0.1443

> <Gold.Rescore>
     Score         DG    S(hbond)    S(metal)    S(lipo)     H(rot)  DE(clash)    DE(int)     intcor
     20.88     -21.78       3.01        0.00     117.63       2.93       0.02       0.88       ----

> <Gold.Chemscore.Fitness>
20.8797

> <Gold.Chemscore.DG>
-21.7805

> <Gold.Chemscore.ZeroCoef>
-5.4800

> <Gold.Chemscore.Hbond>
3.0083

> <Gold.Chemscore.Metal>
0.0000

> <Gold.Chemscore.Lipo>
117.6277

> <Gold.Chemscore.Internal_Hbond>
0.0000

> <Gold.Chemscore.DEClash>
0.0159

> <Gold.Chemscore.DEInternal>
0.8849

> <Gold.Chemscore.Rot>
2.9335

> <Gold.Chemscore.Internal.Correction>
   9.000000E+99

> <Gold.Chemscore.Hbonds>
donor molecule, donor type, donor heavy atom, donor atom, acceptor molecule, acceptor atom, score
      L1  H    10    32       P1  7957  0.97
      L1  H    12    35       P1  7957  0.78
      L1  H    12    47       P1  7948  0.70
      P1  H  7989  7998       L1    10  0.23

> <Gold.Chemscore.Hbond.Weighted>
-10.0477

> <Gold.Chemscore.Metal.Weighted>
-0.0000

> <Gold.Chemscore.Lipo.Weighted>
-13.7624

> <Gold.Chemscore.Internal_Hbond.Weighted>
0.0000

> <Gold.Chemscore.DEClash.Weighted>
0.0159

> <Gold.Chemscore.DEInternal.Weighted>
0.8849

> <Gold.Chemscore.Rot.Weighted>
7.5097

> <Gold.Chemscore.Internal.Correction.Weighted>
   9.000000E+99

> <Gold.Protein.RotatedTorsions>
[ 6907 6896 6895 6894 ] final  106.39 input  -60.11 | X-H torsion
[ 7974 7965 7964 7962 ] final   98.61 input  175.53 | X-H torsion
[ 8008 7997 7996 7995 ] final -173.64 input   59.86 | X-H torsion
[ 10167 10162 10161 10158 ] final  -39.66 input  -65.29 | X-H torsion
[ 10718 10713 10712 10709 ] final -107.62 input   66.30 | X-H torsion
[ 10763 10752 10751 10750 ] final  120.07 input  -60.55 | X-H torsion
[ 11005 11000 10999 10996 ] final -145.86 input  -57.11 | X-H torsion

> <Gold.Protein.ActiveResidues>
 VAL166  LYS551  ARG553  GLY616  TRP617  ASP618  TYR619  PRO620  LYS621  CYS622 
 ASP623  PHE694  ASN695  SER759  ASP760  ASP761  ALA762  ILE779  LEU786  VAL792 
 PHE793  MET794  SER795  GLU796  ALA797  LYS798  CYS799  TRP800  GLU811  SER814 

> <Gold.Protein.RotatedAtoms>
  152.5195  133.9388  159.7616 H   0  0  0  0  0  0  0  0  0  0  0  0  # atno 6907 bound_to 6896
  150.9723  133.6323  159.2743 H   0  0  0  0  0  0  0  0  0  0  0  0  # atno 6908 bound_to 6896
  151.3530  135.0894  159.9462 H   0  0  0  0  0  0  0  0  0  0  0  0  # atno 6909 bound_to 6896
  145.4098  139.2335  143.3254 H   0  0  0  0  0  0  0  0  0  0  0  0  # atno 7974 bound_to 7965
  155.9601  140.1143  157.0903 H   0  0  0  0  0  0  0  0  0  0  0  0  # atno 8008 bound_to 7997
  154.4130  140.1183  156.5234 H   0  0  0  0  0  0  0  0  0  0  0  0  # atno 8009 bound_to 7997
  155.6732  140.3473  155.4828 H   0  0  0  0  0  0  0  0  0  0  0  0  # atno 8010 bound_to 7997
  140.7057  143.3200  151.2814 H   0  0  0  0  0  0  0  0  0  0  0  0  # atno 10167 bound_to 10162
  156.0445  130.5672  150.7847 H   0  0  0  0  0  0  0  0  0  0  0  0  # atno 10718 bound_to 10713
  153.5928  135.3462  155.2917 H   0  0  0  0  0  0  0  0  0  0  0  0  # atno 10763 bound_to 10752
  154.8649  135.4209  154.2498 H   0  0  0  0  0  0  0  0  0  0  0  0  # atno 10764 bound_to 10752
  153.3309  135.7044  153.7020 H   0  0  0  0  0  0  0  0  0  0  0  0  # atno 10765 bound_to 10752
  140.7879  134.3003  157.5023 H   0  0  0  0  0  0  0  0  0  0  0  0  # atno 11005 bound_to 11000
  146.2710  140.4808  142.8814 LP  0  0  0  0  0  0  0  0  0  0  0  0  # atno 17320 bound_to 7965
  144.8317  140.6717  143.6287 LP  0  0  0  0  0  0  0  0  0  0  0  0  # atno 17321 bound_to 7965
  139.6651  144.0119  152.2718 LP  0  0  0  0  0  0  0  0  0  0  0  0  # atno 17342 bound_to 10162
  139.9699  144.6501  150.7999 LP  0  0  0  0  0  0  0  0  0  0  0  0  # atno 17343 bound_to 10162
  157.5305  131.0936  150.9961 LP  0  0  0  0  0  0  0  0  0  0  0  0  # atno 17370 bound_to 10713
  157.0269  130.5696  149.5338 LP  0  0  0  0  0  0  0  0  0  0  0  0  # atno 17371 bound_to 10713
  139.8734  134.9357  156.3641 LP  0  0  0  0  0  0  0  0  0  0  0  0  # atno 17394 bound_to 11000
  140.9418  133.7509  156.0157 LP  0  0  0  0  0  0  0  0  0  0  0  0  # atno 17395 bound_to 11000

$$$$
