AV-unprocessed.smi:2585|AV-procd|sdf|10144|dock6
  -GOLD-   2272014153D 1   1.00000     0.00000
 Structure written by MMmdl.
 34 35  0  0  0  0  0  0  0  0  1 V2000
  151.1551  141.1737  156.6346 C   0  0  0  0  0  0  0  0  0  0  0  0
  151.5013  140.0348  155.7227 C   0  0  0  0  0  0  0  0  0  0  0  0
  152.6430  140.0508  155.0670 N   0  0  0  0  0  0  0  0  0  0  0  0
  152.7678  138.6623  154.1305 S   0  0  0  0  0  0  0  0  0  0  0  0
  151.2315  137.9931  154.6094 C   0  0  0  0  0  0  0  0  0  0  0  0
  150.6832  136.8198  154.1996 N   0  0  0  0  0  0  0  0  0  0  0  0
  150.8242  135.5937  154.7317 C   0  0  0  0  0  0  0  0  0  0  0  0
  151.5073  135.3208  155.7183 O   0  0  0  0  0  0  0  0  0  0  0  0
  150.1134  134.6891  154.0374 N   0  0  0  0  0  0  0  0  0  0  0  0
  149.9934  133.2419  154.2719 C   0  0  0  0  0  0  0  0  0  0  0  0
  151.3030  132.6982  154.8832 C   0  0  0  0  0  0  0  0  0  0  0  0
  148.8361  133.0196  155.2699 C   0  0  0  0  0  0  0  0  0  0  0  0
  147.4640  133.3456  154.6498 C   0  0  0  0  0  0  0  0  0  0  0  0
  147.2630  132.5715  153.4732 O   0  0  0  0  0  0  0  0  0  0  0  0
  148.2281  132.8389  152.4628 C   0  0  0  0  0  0  0  0  0  0  0  0
  149.6341  132.4774  152.9742 C   0  0  0  0  0  0  0  0  0  0  0  0
  150.6783  138.8856  155.4869 C   0  0  0  0  0  0  0  0  0  0  0  0
  149.1725  138.7247  156.2655 Cl  0  0  0  0  0  0  0  0  0  0  0  0
  150.2172  141.6431  156.3369 H   0  0  0  0  0  0  0  0  0  0  0  0
  151.9237  141.9477  156.6304 H   0  0  0  0  0  0  0  0  0  0  0  0
  151.0416  140.8315  157.6637 H   0  0  0  0  0  0  0  0  0  0  0  0
  150.0879  136.8859  153.3869 H   0  0  0  0  0  0  0  0  0  0  0  0
  149.5932  135.0394  153.2463 H   0  0  0  0  0  0  0  0  0  0  0  0
  151.2055  131.6463  155.1539 H   0  0  0  0  0  0  0  0  0  0  0  0
  151.5746  133.2439  155.7876 H   0  0  0  0  0  0  0  0  0  0  0  0
  152.1405  132.7708  154.1893 H   0  0  0  0  0  0  0  0  0  0  0  0
  148.8273  131.9779  155.5941 H   0  0  0  0  0  0  0  0  0  0  0  0
  148.9879  133.6154  156.1712 H   0  0  0  0  0  0  0  0  0  0  0  0
  146.6706  133.1131  155.3601 H   0  0  0  0  0  0  0  0  0  0  0  0
  147.3762  134.4080  154.4177 H   0  0  0  0  0  0  0  0  0  0  0  0
  147.9870  132.2416  151.5835 H   0  0  0  0  0  0  0  0  0  0  0  0
  148.1750  133.8851  152.1579 H   0  0  0  0  0  0  0  0  0  0  0  0
  150.3712  132.6517  152.1905 H   0  0  0  0  0  0  0  0  0  0  0  0
  149.6623  131.4046  153.1694 H   0  0  0  0  0  0  0  0  0  0  0  0
  1  2  1  0  0  0  0
  1 19  1  0  0  0  0
  1 20  1  0  0  0  0
  1 21  1  0  0  0  0
  2 17  1  0  0  0  0
  2  3  2  0  0  0  0
  3  4  1  0  0  0  0
  4  5  1  0  0  0  0
  5  6  1  0  0  0  0
  5 17  2  0  0  0  0
  6  7  1  0  0  0  0
  6 22  1  0  0  0  0
  7  8  2  0  0  0  0
  7  9  1  0  0  0  0
  9 10  1  0  0  0  0
  9 23  1  0  0  0  0
 10 16  1  0  0  0  0
 10 11  1  0  0  0  0
 10 12  1  0  0  0  0
 11 24  1  0  0  0  0
 11 25  1  0  0  0  0
 11 26  1  0  0  0  0
 12 13  1  0  0  0  0
 12 27  1  0  0  0  0
 12 28  1  0  0  0  0
 13 14  1  0  0  0  0
 13 29  1  0  0  0  0
 13 30  1  0  0  0  0
 14 15  1  0  0  0  0
 15 16  1  0  0  0  0
 15 31  1  0  0  0  0
 15 32  1  0  0  0  0
 16 33  1  0  0  0  0
 16 34  1  0  0  0  0
 17 18  1  0  0  0  0
M  END
> <s_m_source_file>
AV-unprocessed.smi

> <i_m_source_file_index>
2585

> <i_lp_mmshare_version>
43012

> <i_f3d_flags>
0

> <s_epik_input>
W0NIM11jMW5zYyhjMUNsKVtOSF1DKD1PKVtOSF1DMihbQ0gzXSlbQ0gyXVtDSDJdT1tDSDJdW0NIMl0y

> <s_epik_cmdline>
J2VwaWtfcHl0aG9uJywgJy1waCcsICc3LjAnLCAnLXRuJywgJzgnLCAnLW1hJywgJzIwMCcsICctbWV0YWxfYmluZGluZycsICctaW1hZScsICc8aW5maWxlLm1hZT4nLCAnLW9tYWUnLCAnPG91dGZpbGUubWFlPic=

> <r_lp_tautomer_probability>
1

> <r_epik_Ionization_Penalty>
3.55893e-05

> <r_epik_Ionization_Penalty_Charging>
0

> <r_epik_Ionization_Penalty_Neutral>
3.55893e-05

> <r_epik_State_Penalty>
-0

> <r_epik_Charging_Adjusted_Penalty>
0

> <i_epik_Tot_Q>
0

> <i_epik_Tot_abs_Q>
0

> <r_epik_Metal_State_Penalty>
-0

> <b_epik_Metal_Only>
0

> <s_lp_Force_Field>
OPLS_2005

> <r_lp_Energy>
7.47922

> <b_lp_Chiralities_Consistent>
1

> <s_lp_Variant>
AV-unprocessed.smi:2585-1

> <Gold.Version>
5.8.1

> <Gold.Id.Protein>
6NUR|6NUR_protein|mol2

> <Gold.PLP.Fitness>
36.8294

> <Gold.PLP.PLP>
-30.3807

> <Gold.PLP.part.hbond>
-4.7076

> <Gold.PLP.part.metal>
0.0000

> <Gold.PLP.part.buried>
-3.9000

> <Gold.PLP.part.nonpolar>
-22.6205

> <Gold.PLP.part.repulsive>
0.2245

> <Gold.PLP.ligand.clash>
0.0000

> <Gold.PLP.ligand.torsion>
1.2976

> <Gold.PLP.Chemscore.Hbond>
3.0124

> <Gold.PLP.Chemscore.CHOScore>
0.0000

> <Gold.PLP.Chemscore.Metal>
0.0000

> <Gold.Chemscore.Hbonds>
donor molecule, donor type, donor heavy atom, donor atom, acceptor molecule, acceptor atom, score
      L1  H     6    22       P1  7948  0.80
      L1  H     9    23       P1  7948  0.30
      P1  H  7989  7998       L1     3  0.08
      P1  H  7997  8008       L1     3  1.00

> <Gold.PLP.Chemscore.Internal.Correction>
0.0065

> <Gold.Rescore>
     Score         DG    S(hbond)    S(metal)    S(lipo)     H(rot)  DE(clash)    DE(int)     intcor
     15.54     -18.18       2.56        0.00      57.37       1.00       0.02       2.62       ----

> <Gold.Chemscore.Fitness>
15.5403

> <Gold.Chemscore.DG>
-18.1815

> <Gold.Chemscore.ZeroCoef>
-5.4800

> <Gold.Chemscore.Hbond>
2.5597

> <Gold.Chemscore.Metal>
0.0000

> <Gold.Chemscore.Lipo>
57.3692

> <Gold.Chemscore.Internal_Hbond>
0.0000

> <Gold.Chemscore.DEClash>
0.0178

> <Gold.Chemscore.DEInternal>
2.6234

> <Gold.Chemscore.Rot>
1.0000

> <Gold.Chemscore.Internal.Correction>
   9.000000E+99

> <Gold.Chemscore.Hbonds>
donor molecule, donor type, donor heavy atom, donor atom, acceptor molecule, acceptor atom, score
      L1  H     6    22       P1  7948  0.12
      P1  H  7997  8008       L1     3  0.28

> <Gold.Chemscore.Hbond.Weighted>
-8.5493

> <Gold.Chemscore.Metal.Weighted>
-0.0000

> <Gold.Chemscore.Lipo.Weighted>
-6.7122

> <Gold.Chemscore.Internal_Hbond.Weighted>
0.0000

> <Gold.Chemscore.DEClash.Weighted>
0.0178

> <Gold.Chemscore.DEInternal.Weighted>
2.6234

> <Gold.Chemscore.Rot.Weighted>
2.5600

> <Gold.Chemscore.Internal.Correction.Weighted>
   9.000000E+99

> <Gold.Protein.RotatedTorsions>
[ 6907 6896 6895 6894 ] final  -14.35 input  -60.11 | X-H torsion
[ 7974 7965 7964 7962 ] final -122.96 input  175.53 | X-H torsion
[ 8008 7997 7996 7995 ] final   -5.56 input   59.86 | X-H torsion
[ 10167 10162 10161 10158 ] final  -97.59 input  -65.29 | X-H torsion
[ 10718 10713 10712 10709 ] final -130.70 input   66.30 | X-H torsion
[ 10763 10752 10751 10750 ] final  165.79 input  -60.55 | X-H torsion
[ 11005 11000 10999 10996 ] final -153.62 input  -57.11 | X-H torsion

> <Gold.Protein.ActiveResidues>
 VAL166  LYS551  ARG553  GLY616  TRP617  ASP618  TYR619  PRO620  LYS621  CYS622 
 ASP623  PHE694  ASN695  SER759  ASP760  ASP761  ALA762  ILE779  LEU786  VAL792 
 PHE793  MET794  SER795  GLU796  ALA797  LYS798  CYS799  TRP800  GLU811  SER814 

> <Gold.Protein.RotatedAtoms>
  151.3408  135.0863  159.9370 H   0  0  0  0  0  0  0  0  0  0  0  0  # atno 6907 bound_to 6896
  152.5212  133.9449  159.7654 H   0  0  0  0  0  0  0  0  0  0  0  0  # atno 6908 bound_to 6896
  150.9806  133.6196  159.2753 H   0  0  0  0  0  0  0  0  0  0  0  0  # atno 6909 bound_to 6896
  145.0238  140.8010  143.4365 H   0  0  0  0  0  0  0  0  0  0  0  0  # atno 7974 bound_to 7965
  154.6027  140.2455  155.7772 H   0  0  0  0  0  0  0  0  0  0  0  0  # atno 8008 bound_to 7997
  156.2321  140.2963  156.0167 H   0  0  0  0  0  0  0  0  0  0  0  0  # atno 8009 bound_to 7997
  155.2184  140.0399  157.2935 H   0  0  0  0  0  0  0  0  0  0  0  0  # atno 8010 bound_to 7997
  140.2818  143.3277  152.0433 H   0  0  0  0  0  0  0  0  0  0  0  0  # atno 10167 bound_to 10162
  156.2170  130.6955  151.0714 H   0  0  0  0  0  0  0  0  0  0  0  0  # atno 10718 bound_to 10713
  154.3293  135.2755  155.2480 H   0  0  0  0  0  0  0  0  0  0  0  0  # atno 10763 bound_to 10752
  154.4798  135.5861  153.6385 H   0  0  0  0  0  0  0  0  0  0  0  0  # atno 10764 bound_to 10752
  152.9868  135.6108  154.3485 H   0  0  0  0  0  0  0  0  0  0  0  0  # atno 10765 bound_to 10752
  140.7061  134.3884  157.5204 H   0  0  0  0  0  0  0  0  0  0  0  0  # atno 11005 bound_to 11000
  145.1861  139.2326  143.5267 LP  0  0  0  0  0  0  0  0  0  0  0  0  # atno 17320 bound_to 7965
  146.3489  140.1646  142.8590 LP  0  0  0  0  0  0  0  0  0  0  0  0  # atno 17321 bound_to 7965
  139.4960  144.6586  151.6516 LP  0  0  0  0  0  0  0  0  0  0  0  0  # atno 17342 bound_to 10162
  140.5805  143.9954  150.6266 LP  0  0  0  0  0  0  0  0  0  0  0  0  # atno 17343 bound_to 10162
  157.7068  131.0752  150.6638 LP  0  0  0  0  0  0  0  0  0  0  0  0  # atno 17370 bound_to 10713
  156.6700  130.4536  149.5660 LP  0  0  0  0  0  0  0  0  0  0  0  0  # atno 17371 bound_to 10713
  139.8884  134.8858  156.2478 LP  0  0  0  0  0  0  0  0  0  0  0  0  # atno 17394 bound_to 11000
  141.0123  133.7088  156.1132 LP  0  0  0  0  0  0  0  0  0  0  0  0  # atno 17395 bound_to 11000

$$$$
