#       Name:                AV-unprocessed.smi:2317
#       Creating user name   scv26
#       Creation time:       Fri Mar 27 12:49:40 2020


#       File generated by GOLD software.
#

@<TRIPOS>MOLECULE
AV-unprocessed.smi:2317
    42    43     1
SMALL
NO_CHARGES


@<TRIPOS>ATOM
      1 ****        -0.4470   2.3040   1.3765 O.2            1 S1                 0.0000
      2 ****        -0.9487   1.2449   1.0006 C.2            1 S1                 0.0000
      3 ****        -0.2304   0.1488   0.7218 N.am           1 S1                 0.0000
      4 ****         1.2214   0.0615   0.8298 C.3            1 S1                 0.0000
      5 ****         1.7790  -1.1700   0.0853 C.3            1 S1                 0.0000
      6 ****         3.3011  -1.3108   0.2986 C.3            1 S1                 0.0000
      7 ****         3.8587  -2.5680  -0.3874 C.3            1 S1                 0.0000
      8 ****         3.5268  -2.5782  -1.8865 C.3            1 S1                 0.0000
      9 ****         2.0126  -2.4432  -2.1216 C.3            1 S1                 0.0000
     10 ****         1.4226  -1.2015  -1.4246 C.3            1 S1                 0.0000
     11 ****         1.8845  -0.0360  -2.0814 O.3            1 S1                 0.0000
     12 ****        -2.2601   1.0286   0.7998 N.am           1 S1                 0.0000
     13 ****        -3.3517   1.9264   0.9602 C.ar           1 S1                 0.0000
     14 ****        -3.3028   3.1149   1.7291 C.ar           1 S1                 0.0000
     15 ****        -4.4633   3.9098   1.8176 C.ar           1 S1                 0.0000
     16 ****        -5.6285   3.5965   1.2124 N.ar           1 S1                 0.0000
     17 ****        -5.6755   2.4565   0.4912 C.ar           1 S1                 0.0000
     18 ****        -4.5737   1.5910   0.3392 C.ar           1 S1                 0.0000
     19 ****        -4.6909   0.4584  -0.3957 F              1 S1                 0.0000
     20 ****        -0.7184  -0.6803   0.4156 H              1 S1                 0.0000
     21 ****         1.6815   0.9723   0.4429 H              1 S1                 0.0000
     22 ****         1.4822   0.0056   1.8875 H              1 S1                 0.0000
     23 ****         1.3160  -2.0482   0.5389 H              1 S1                 0.0000
     24 ****         3.8135  -0.4280  -0.0859 H              1 S1                 0.0000
     25 ****         3.5247  -1.3531   1.3651 H              1 S1                 0.0000
     26 ****         4.9386  -2.6206  -0.2458 H              1 S1                 0.0000
     27 ****         3.4414  -3.4581   0.0849 H              1 S1                 0.0000
     28 ****         4.0522  -1.7611  -2.3826 H              1 S1                 0.0000
     29 ****         3.8922  -3.4991  -2.3415 H              1 S1                 0.0000
     30 ****         1.8012  -2.4129  -3.1911 H              1 S1                 0.0000
     31 ****         1.5150  -3.3357  -1.7400 H              1 S1                 0.0000
     32 ****         0.3391  -1.2262  -1.5451 H              1 S1                 0.0000
     33 ****         1.4853   0.7173  -1.6736 H              1 S1                 0.0000
     34 ****        -2.5059   0.1222   0.4293 H              1 S1                 0.0000
     35 ****        -2.4153   3.4266   2.2572 H              1 S1                 0.0000
     36 ****        -4.4563   4.8214   2.3967 H              1 S1                 0.0000
     37 ****        -6.6202   2.2255   0.0220 H              1 S1                 0.0000
     38 ****         0.5442   2.3761   1.4874 LP             1 S1                 0.0000
     39 ****        -1.0306   3.0924   1.5711 LP             1 S1                 0.0000
     40 ****         1.6301  -0.0705  -3.0479 LP             1 S1                 0.0000
     41 ****         2.8794   0.0246  -2.0006 LP             1 S1                 0.0000
     42 ****        -6.4298   4.1889   1.2956 LP             1 S1                 0.0000
@<TRIPOS>BOND
    1    1    2 2     
    2    2    3 am    
    3    2   12 am    
    4    3    4 1     
    5    3   20 1     
    6    4    5 1     
    7    4   21 1     
    8    4   22 1     
    9    5   10 1     
   10    5    6 1     
   11    5   23 1     
   12    6    7 1     
   13    6   24 1     
   14    6   25 1     
   15    7    8 1     
   16    7   26 1     
   17    7   27 1     
   18    8    9 1     
   19    8   28 1     
   20    8   29 1     
   21    9   10 1     
   22    9   30 1     
   23    9   31 1     
   24   10   11 1     
   25   10   32 1     
   26   11   33 1     
   27   12   13 1     
   28   12   34 1     
   29   13   18 ar    
   30   13   14 ar    
   31   14   15 ar    
   32   14   35 1     
   33   15   16 ar    
   34   15   36 1     
   35   16   17 ar    
   36   17   18 ar    
   37   17   37 1     
   38   18   19 1     
   39    1   38 1     
   40    1   39 1     
   41   11   40 1     
   42   11   41 1     
   43   16   42 1     
@<TRIPOS>SUBSTRUCTURE
      1 S1             1
@<TRIPOS>SET
LONE_PAIRS      STATIC     ATOMS    <user>   **** ""
5 38 39 40 41 42
DONOR_HYDROGENS      STATIC     ATOMS    <user>   **** ""
3 20 33 34
ATOM$BLUE        STATIC     ATOMS    COLORGROUP SYSTEM
5 38 39 40 41 42
ATOM$RED        STATIC     ATOMS    COLORGROUP SYSTEM
3 20 33 34
