AV-unprocessed.smi:1803|AV-procd|sdf|7282|dock3
  -GOLD-   22720 8543D 1   1.00000     0.00000
 Structure written by MMmdl.
 36 38  0  0  0  0  0  0  0  0  2 V2000
  145.9749  138.2278  154.4253 O   0  0  0  0  0  0  0  0  0  0  0  0
  146.7984  137.5367  153.8288 C   0  0  0  0  0  0  0  0  0  0  0  0
  148.0651  137.9636  153.6421 N   0  0  0  0  0  0  0  0  0  0  0  0
  148.7140  139.1713  154.0325 C   0  0  0  0  0  0  0  0  0  0  0  0
  150.0120  139.2591  154.3671 N   0  0  0  0  0  0  0  0  0  0  0  0
  150.3719  140.5492  154.7316 N   0  0  0  0  0  0  0  0  0  0  0  0
  149.3304  141.3834  154.6708 C   0  0  0  0  0  0  0  0  0  0  0  0
  147.8084  140.6730  154.1620 S   0  0  0  0  0  0  0  0  0  0  0  0
  146.5041  136.3260  153.3260 N   0  0  0  0  0  0  0  0  0  0  0  0
  145.2217  135.6369  153.4457 C   0  0  1  0  0  0  0  0  0  0  0  0
  144.0923  136.3455  152.6723 C   0  0  0  0  0  0  0  0  0  0  0  0
  143.3201  135.2156  151.9839 C   0  0  0  0  0  0  0  0  0  0  0  0
  144.3649  134.2224  151.7098 N   0  3  2  0  0  0  0  0  0  0  0  0
  143.9561  132.8740  151.2671 C   0  0  0  0  0  0  0  0  0  0  0  0
  145.2225  132.0816  150.8779 C   0  0  0  0  0  0  0  0  0  0  0  0
  146.2839  132.0880  152.0014 C   0  0  0  0  0  0  0  0  0  0  0  0
  146.5745  133.5177  152.5060 C   0  0  0  0  0  0  0  0  0  0  0  0
  145.2453  134.1934  152.8905 C   0  0  1  0  0  0  0  0  0  0  0  0
  148.6265  137.3626  153.0560 H   0  0  0  0  0  0  0  0  0  0  0  0
  149.4584  142.4236  154.9318 H   0  0  0  0  0  0  0  0  0  0  0  0
  147.2412  135.8317  152.8434 H   0  0  0  0  0  0  0  0  0  0  0  0
  144.9343  135.5958  154.4983 H   0  0  0  0  0  0  0  0  0  0  0  0
  143.4557  136.9502  153.3189 H   0  0  0  0  0  0  0  0  0  0  0  0
  144.5106  137.0077  151.9123 H   0  0  0  0  0  0  0  0  0  0  0  0
  142.5755  134.7917  152.6597 H   0  0  0  0  0  0  0  0  0  0  0  0
  142.8172  135.5421  151.0733 H   0  0  0  0  0  0  0  0  0  0  0  0
  143.4090  132.3667  152.0631 H   0  0  0  0  0  0  0  0  0  0  0  0
  143.2842  132.9542  150.4120 H   0  0  0  0  0  0  0  0  0  0  0  0
  144.9571  131.0560  150.6199 H   0  0  0  0  0  0  0  0  0  0  0  0
  145.6559  132.5204  149.9781 H   0  0  0  0  0  0  0  0  0  0  0  0
  145.9283  131.4784  152.8333 H   0  0  0  0  0  0  0  0  0  0  0  0
  147.2044  131.6202  151.6507 H   0  0  0  0  0  0  0  0  0  0  0  0
  147.2457  133.4766  153.3643 H   0  0  0  0  0  0  0  0  0  0  0  0
  147.0839  134.0913  151.7300 H   0  0  0  0  0  0  0  0  0  0  0  0
  144.7601  133.5692  153.6442 H   0  0  0  0  0  0  0  0  0  0  0  0
  144.9175  134.6145  150.9608 H   0  0  0  0  0  0  0  0  0  0  0  0
  1  2  2  0  0  0  0
  2  3  1  0  0  0  0
  2  9  1  0  0  0  0
  3  4  1  0  0  0  0
  3 19  1  0  0  0  0
  4  8  1  0  0  0  0
  4  5  2  0  0  0  0
  5  6  1  0  0  0  0
  6  7  2  0  0  0  0
  7  8  1  0  0  0  0
  7 20  1  0  0  0  0
  9 10  1  0  0  0  0
  9 21  1  0  0  0  0
 10 18  1  0  0  0  0
 10 11  1  0  0  0  0
 10 22  1  0  0  0  0
 11 12  1  0  0  0  0
 11 23  1  0  0  0  0
 11 24  1  0  0  0  0
 12 13  1  0  0  0  0
 12 25  1  0  0  0  0
 12 26  1  0  0  0  0
 13 18  1  0  0  0  0
 13 14  1  0  0  0  0
 13 36  1  0  0  0  0
 14 15  1  0  0  0  0
 14 27  1  0  0  0  0
 14 28  1  0  0  0  0
 15 16  1  0  0  0  0
 15 29  1  0  0  0  0
 15 30  1  0  0  0  0
 16 17  1  0  0  0  0
 16 31  1  0  0  0  0
 16 32  1  0  0  0  0
 17 18  1  0  0  0  0
 17 33  1  0  0  0  0
 17 34  1  0  0  0  0
 18 35  1  0  0  0  0
M  CHG  1  13   1
M  END
> <s_m_source_file>
AV-unprocessed.smi

> <i_m_source_file_index>
1803

> <i_lp_mmshare_version>
43012

> <i_f3d_flags>
0

> <s_epik_input>
czFbY0hdbm5jMVtOSF1DKD1PKVtOSF1bQ0BIXShbQ0gyXVtDSDJdMilbQ0BASF0oTjIzKVtDSDJdW0NIMl1bQ0gyXVtDSDJdMw==

> <s_epik_cmdline>
J2VwaWtfcHl0aG9uJywgJy1waCcsICc3LjAnLCAnLXRuJywgJzgnLCAnLW1hJywgJzIwMCcsICctbWV0YWxfYmluZGluZycsICctaW1hZScsICc8aW5maWxlLm1hZT4nLCAnLW9tYWUnLCAnPG91dGZpbGUubWFlPic=

> <r_lp_tautomer_probability>
1

> <r_epik_Ionization_Penalty>
0.00213286

> <r_epik_Ionization_Penalty_Charging>
0.00107044

> <r_epik_Ionization_Penalty_Neutral>
0.00106242

> <r_epik_State_Penalty>
-0

> <r_epik_Charging_Adjusted_Penalty>
0.00107044

> <i_epik_Tot_Q>
1

> <i_epik_Tot_abs_Q>
1

> <r_epik_Metal_State_Penalty>
0.292783

> <b_epik_Metal_Only>
0

> <s_lp_Force_Field>
OPLS_2005

> <r_lp_Energy>
42.6804

> <b_lp_Chiralities_Consistent>
1

> <s_lp_Variant>
AV-unprocessed.smi:1803-4

> <Gold.Version>
5.8.1

> <Gold.Id.Protein>
6NUR|6NUR_protein|mol2

> <Gold.PLP.Fitness>
36.0912

> <Gold.PLP.PLP>
-25.2165

> <Gold.PLP.part.hbond>
-3.0000

> <Gold.PLP.part.metal>
0.0000

> <Gold.PLP.part.buried>
-4.8195

> <Gold.PLP.part.nonpolar>
-18.1171

> <Gold.PLP.part.repulsive>
0.3570

> <Gold.PLP.ligand.clash>
0.0000

> <Gold.PLP.ligand.torsion>
0.2515

> <Gold.PLP.Chemscore.Hbond>
2.7920

> <Gold.PLP.Chemscore.CHOScore>
1.0000

> <Gold.PLP.Chemscore.Metal>
0.0000

> <Gold.Chemscore.Hbonds>
donor molecule, donor type, donor heavy atom, donor atom, acceptor molecule, acceptor atom, score
      L1  H     3    19       P1  7948  1.00
      L1  H     9    21       P1  7948  0.80
      P1  H  7989  7998       L1     6  0.96
      L1  C     7    20       P1  8028  1.00

> <Gold.PLP.Chemscore.Internal.Correction>
0.0017

> <Gold.Rescore>
     Score         DG    S(hbond)    S(metal)    S(lipo)     H(rot)  DE(clash)    DE(int)     intcor
     15.93     -16.26       1.92        0.00      59.24       1.00       0.05       0.27       ----

> <Gold.Chemscore.Fitness>
15.9347

> <Gold.Chemscore.DG>
-16.2583

> <Gold.Chemscore.ZeroCoef>
-5.4800

> <Gold.Chemscore.Hbond>
1.9185

> <Gold.Chemscore.Metal>
0.0000

> <Gold.Chemscore.Lipo>
59.2356

> <Gold.Chemscore.Internal_Hbond>
0.0000

> <Gold.Chemscore.DEClash>
0.0489

> <Gold.Chemscore.DEInternal>
0.2747

> <Gold.Chemscore.Rot>
1.0000

> <Gold.Chemscore.Internal.Correction>
   9.000000E+99

> <Gold.Chemscore.Hbonds>
donor molecule, donor type, donor heavy atom, donor atom, acceptor molecule, acceptor atom, score
      L1  H     3    19       P1  7948  0.99
      L1  H     9    21       P1  7948  0.76
      P1  H  7989  7998       L1     6  0.20

> <Gold.Chemscore.Hbond.Weighted>
-6.4077

> <Gold.Chemscore.Metal.Weighted>
-0.0000

> <Gold.Chemscore.Lipo.Weighted>
-6.9306

> <Gold.Chemscore.Internal_Hbond.Weighted>
0.0000

> <Gold.Chemscore.DEClash.Weighted>
0.0489

> <Gold.Chemscore.DEInternal.Weighted>
0.2747

> <Gold.Chemscore.Rot.Weighted>
2.5600

> <Gold.Chemscore.Internal.Correction.Weighted>
   9.000000E+99

> <Gold.Protein.RotatedTorsions>
[ 6907 6896 6895 6894 ] final  121.31 input  -60.11 | X-H torsion
[ 7974 7965 7964 7962 ] final -105.21 input  175.53 | X-H torsion
[ 8008 7997 7996 7995 ] final   -0.65 input   59.86 | X-H torsion
[ 10167 10162 10161 10158 ] final -171.66 input  -65.29 | X-H torsion
[ 10718 10713 10712 10709 ] final -165.64 input   66.30 | X-H torsion
[ 10763 10752 10751 10750 ] final  144.07 input  -60.55 | X-H torsion
[ 11005 11000 10999 10996 ] final   89.35 input  -57.11 | X-H torsion

> <Gold.Protein.ActiveResidues>
 VAL166  LYS551  ARG553  GLY616  TRP617  ASP618  TYR619  PRO620  LYS621  CYS622 
 ASP623  PHE694  ASN695  SER759  ASP760  ASP761  ALA762  ILE779  LEU786  VAL792 
 PHE793  MET794  SER795  GLU796  ALA797  LYS798  CYS799  TRP800  GLU811  SER814 

> <Gold.Protein.RotatedAtoms>
  152.4332  133.7313  159.6588 H   0  0  0  0  0  0  0  0  0  0  0  0  # atno 6907 bound_to 6896
  150.8212  133.8238  159.3144 H   0  0  0  0  0  0  0  0  0  0  0  0  # atno 6908 bound_to 6896
  151.5920  135.1055  160.0092 H   0  0  0  0  0  0  0  0  0  0  0  0  # atno 6909 bound_to 6896
  145.2333  140.9179  143.3192 H   0  0  0  0  0  0  0  0  0  0  0  0  # atno 7974 bound_to 7965
  154.6557  140.2579  155.7164 H   0  0  0  0  0  0  0  0  0  0  0  0  # atno 8008 bound_to 7997
  156.2595  140.2859  156.0930 H   0  0  0  0  0  0  0  0  0  0  0  0  # atno 8009 bound_to 7997
  155.1384  140.0380  157.2782 H   0  0  0  0  0  0  0  0  0  0  0  0  # atno 8010 bound_to 7997
  139.5789  144.1468  152.1489 H   0  0  0  0  0  0  0  0  0  0  0  0  # atno 10167 bound_to 10162
  156.6563  130.9028  151.3022 H   0  0  0  0  0  0  0  0  0  0  0  0  # atno 10718 bound_to 10713
  153.9828  135.2939  155.3419 H   0  0  0  0  0  0  0  0  0  0  0  0  # atno 10763 bound_to 10752
  154.7259  135.5089  153.8889 H   0  0  0  0  0  0  0  0  0  0  0  0  # atno 10764 bound_to 10752
  153.0846  135.6689  154.0089 H   0  0  0  0  0  0  0  0  0  0  0  0  # atno 10765 bound_to 10752
  139.8877  134.8546  156.3129 H   0  0  0  0  0  0  0  0  0  0  0  0  # atno 11005 bound_to 11000
  144.9656  139.3934  143.6334 LP  0  0  0  0  0  0  0  0  0  0  0  0  # atno 17320 bound_to 7965
  146.3347  139.8730  142.8837 LP  0  0  0  0  0  0  0  0  0  0  0  0  # atno 17321 bound_to 7965
  140.1017  144.5534  150.6985 LP  0  0  0  0  0  0  0  0  0  0  0  0  # atno 17342 bound_to 10162
  140.7070  143.2475  151.4698 LP  0  0  0  0  0  0  0  0  0  0  0  0  # atno 17343 bound_to 10162
  157.7124  130.9456  150.1136 LP  0  0  0  0  0  0  0  0  0  0  0  0  # atno 17370 bound_to 10713
  156.2045  130.3662  149.8747 LP  0  0  0  0  0  0  0  0  0  0  0  0  # atno 17371 bound_to 10713
  140.9838  133.7251  156.0711 LP  0  0  0  0  0  0  0  0  0  0  0  0  # atno 17394 bound_to 11000
  140.7715  134.3828  157.5507 LP  0  0  0  0  0  0  0  0  0  0  0  0  # atno 17395 bound_to 11000

$$$$
