AV-unprocessed.smi:3249|AV-procd|sdf|12424|dock5
  -GOLD-   2272018313D 1   1.00000     0.00000
 Structure written by MMmdl.
 44 45  0  0  0  0  0  0  0  0  2 V2000
  152.9051  138.1380  154.5080 C   0  0  0  0  0  0  0  0  0  0  0  0
  151.6269  138.9128  154.6503 C   0  0  0  0  0  0  0  0  0  0  0  0
  150.3489  138.5996  154.1068 C   0  0  0  0  0  0  0  0  0  0  0  0
  149.4251  139.4934  154.4193 N   0  0  0  0  0  0  0  0  0  0  0  0
  150.0762  140.4065  155.1740 N   0  0  0  0  0  0  0  0  0  0  0  0
  149.3642  141.5628  155.7037 C   0  0  1  0  0  0  0  0  0  0  0  0
  147.8443  141.3520  155.5651 C   0  0  0  0  0  0  0  0  0  0  0  0
  149.7979  141.9016  157.1558 C   0  0  1  0  0  0  0  0  0  0  0  0
  151.2567  142.3838  157.2535 C   0  0  0  0  0  0  0  0  0  0  0  0
  148.9133  142.9404  157.7300 N   0  3  0  0  0  0  0  0  0  0  0  0
  147.7404  142.4223  158.4641 C   0  0  0  0  0  0  0  0  0  0  0  0
  147.1953  143.4703  159.4440 C   0  0  1  0  0  0  0  0  0  0  0  0
  145.7939  143.9638  159.0350 C   0  0  0  0  0  0  0  0  0  0  0  0
  145.2396  144.9394  160.0794 C   0  0  0  0  0  0  0  0  0  0  0  0
  145.2968  144.2957  161.4688 C   0  0  0  0  0  0  0  0  0  0  0  0
  146.7138  143.7759  161.7586 C   0  0  0  0  0  0  0  0  0  0  0  0
  147.1177  142.8701  160.7357 O   0  0  0  0  0  0  0  0  0  0  0  0
  151.4078  140.0796  155.3262 C   0  0  0  0  0  0  0  0  0  0  0  0
  152.8398  137.3893  153.7180 H   0  0  0  0  0  0  0  0  0  0  0  0
  153.1604  137.6126  155.4283 H   0  0  0  0  0  0  0  0  0  0  0  0
  153.7456  138.7881  154.2643 H   0  0  0  0  0  0  0  0  0  0  0  0
  150.0670  137.7539  153.4970 H   0  0  0  0  0  0  0  0  0  0  0  0
  149.6349  142.4088  155.0699 H   0  0  0  0  0  0  0  0  0  0  0  0
  147.2895  142.2564  155.8144 H   0  0  0  0  0  0  0  0  0  0  0  0
  147.4894  140.5540  156.2181 H   0  0  0  0  0  0  0  0  0  0  0  0
  147.5788  141.0850  154.5415 H   0  0  0  0  0  0  0  0  0  0  0  0
  149.7213  140.9961  157.7604 H   0  0  0  0  0  0  0  0  0  0  0  0
  151.9609  141.6129  156.9400 H   0  0  0  0  0  0  0  0  0  0  0  0
  151.5124  142.6488  158.2798 H   0  0  0  0  0  0  0  0  0  0  0  0
  151.4264  143.2630  156.6310 H   0  0  0  0  0  0  0  0  0  0  0  0
  149.4569  143.5001  158.3716 H   0  0  0  0  0  0  0  0  0  0  0  0
  146.9655  142.1545  157.7448 H   0  0  0  0  0  0  0  0  0  0  0  0
  148.0145  141.5104  158.9965 H   0  0  0  0  0  0  0  0  0  0  0  0
  147.8818  144.3185  159.4768 H   0  0  0  0  0  0  0  0  0  0  0  0
  145.8315  144.4477  158.0584 H   0  0  0  0  0  0  0  0  0  0  0  0
  145.1177  143.1134  158.9365 H   0  0  0  0  0  0  0  0  0  0  0  0
  145.8291  145.8571  160.0747 H   0  0  0  0  0  0  0  0  0  0  0  0
  144.2159  145.2218  159.8322 H   0  0  0  0  0  0  0  0  0  0  0  0
  144.9936  145.0141  162.2309 H   0  0  0  0  0  0  0  0  0  0  0  0
  144.5879  143.4682  161.5189 H   0  0  0  0  0  0  0  0  0  0  0  0
  147.4245  144.6007  161.8303 H   0  0  0  0  0  0  0  0  0  0  0  0
  146.7330  143.2562  162.7166 H   0  0  0  0  0  0  0  0  0  0  0  0
  152.0843  140.6981  155.8976 H   0  0  0  0  0  0  0  0  0  0  0  0
  148.5916  143.5359  156.9806 H   0  0  0  0  0  0  0  0  0  0  0  0
  1  2  1  0  0  0  0
  1 19  1  0  0  0  0
  1 20  1  0  0  0  0
  1 21  1  0  0  0  0
  2 18  2  0  0  0  0
  2  3  1  0  0  0  0
  3  4  2  0  0  0  0
  3 22  1  0  0  0  0
  4  5  1  0  0  0  0
  5  6  1  0  0  0  0
  5 18  1  0  0  0  0
  6  7  1  0  0  0  0
  6  8  1  0  0  0  0
  6 23  1  0  0  0  0
  7 24  1  0  0  0  0
  7 25  1  0  0  0  0
  7 26  1  0  0  0  0
  8  9  1  0  0  0  0
  8 10  1  0  0  0  0
  8 27  1  0  0  0  0
  9 28  1  0  0  0  0
  9 29  1  0  0  0  0
  9 30  1  0  0  0  0
 10 11  1  0  0  0  0
 10 31  1  0  0  0  0
 10 44  1  0  0  0  0
 11 12  1  0  0  0  0
 11 32  1  0  0  0  0
 11 33  1  0  0  0  0
 12 17  1  0  0  0  0
 12 13  1  0  0  0  0
 12 34  1  0  0  0  0
 13 14  1  0  0  0  0
 13 35  1  0  0  0  0
 13 36  1  0  0  0  0
 14 15  1  0  0  0  0
 14 37  1  0  0  0  0
 14 38  1  0  0  0  0
 15 16  1  0  0  0  0
 15 39  1  0  0  0  0
 15 40  1  0  0  0  0
 16 17  1  0  0  0  0
 16 41  1  0  0  0  0
 16 42  1  0  0  0  0
 18 43  1  0  0  0  0
M  CHG  1  10   1
M  END
> <s_m_source_file>
AV-unprocessed.smi

> <i_m_source_file_index>
3249

> <i_lp_mmshare_version>
43012

> <i_f3d_flags>
0

> <s_epik_input>
W0NIM11jMVtjSF1ubihbY0hdMSlbQ0BIXShbQ0gzXSlbQ0BIXShbQ0gzXSlbTkhdW0NIMl1bQ0BASF0yW0NIMl1bQ0gyXVtDSDJdW0NIMl1PMg==

> <s_epik_cmdline>
J2VwaWtfcHl0aG9uJywgJy1waCcsICc3LjAnLCAnLXRuJywgJzgnLCAnLW1hJywgJzIwMCcsICctbWV0YWxfYmluZGluZycsICctaW1hZScsICc8aW5maWxlLm1hZT4nLCAnLW9tYWUnLCAnPG91dGZpbGUubWFlPic=

> <r_lp_tautomer_probability>
1

> <r_epik_Ionization_Penalty>
0.00659207

> <r_epik_Ionization_Penalty_Charging>
0.00656881

> <r_epik_Ionization_Penalty_Neutral>
2.32662e-05

> <r_epik_State_Penalty>
0.0048654

> <r_epik_Charging_Adjusted_Penalty>
0.0114342

> <i_epik_Tot_Q>
1

> <i_epik_Tot_abs_Q>
1

> <r_epik_Metal_State_Penalty>
-0

> <b_epik_Metal_Only>
0

> <s_lp_Force_Field>
OPLS_2005

> <r_lp_Energy>
18.7987

> <b_lp_Chiralities_Consistent>
1

> <s_lp_Variant>
AV-unprocessed.smi:3249-8

> <Gold.Version>
5.8.1

> <Gold.Id.Protein>
6NUR|6NUR_protein|mol2

> <Gold.PLP.Fitness>
43.2071

> <Gold.PLP.PLP>
-32.2002

> <Gold.PLP.part.hbond>
-3.6275

> <Gold.PLP.part.metal>
0.0000

> <Gold.PLP.part.buried>
0.4353

> <Gold.PLP.part.nonpolar>
-29.0325

> <Gold.PLP.part.repulsive>
0.2162

> <Gold.PLP.ligand.clash>
0.0000

> <Gold.PLP.ligand.torsion>
1.8258

> <Gold.PLP.Chemscore.Hbond>
3.7551

> <Gold.PLP.Chemscore.CHOScore>
1.1013

> <Gold.PLP.Chemscore.Metal>
0.0000

> <Gold.Chemscore.Hbonds>
donor molecule, donor type, donor heavy atom, donor atom, acceptor molecule, acceptor atom, score
      L1  H    10    44       P1  8028  1.90
      P1  H  6933  6944       L1    17  0.89
      P1  H  6934  6946       L1    17  0.70
      L1  C     3    22       P1  7948  1.00
      L1  C     3    22       P1  7949  0.02

> <Gold.PLP.Chemscore.Internal.Correction>
0.0893

> <Gold.Rescore>
     Score         DG    S(hbond)    S(metal)    S(lipo)     H(rot)  DE(clash)    DE(int)     intcor
     12.63     -14.58       1.13        0.00      78.93       1.53       0.17       1.78       ----

> <Gold.Chemscore.Fitness>
12.6265

> <Gold.Chemscore.DG>
-14.5760

> <Gold.Chemscore.ZeroCoef>
-5.4800

> <Gold.Chemscore.Hbond>
1.1337

> <Gold.Chemscore.Metal>
0.0000

> <Gold.Chemscore.Lipo>
78.9298

> <Gold.Chemscore.Internal_Hbond>
0.0000

> <Gold.Chemscore.DEClash>
0.1683

> <Gold.Chemscore.DEInternal>
1.7812

> <Gold.Chemscore.Rot>
1.5333

> <Gold.Chemscore.Internal.Correction>
   9.000000E+99

> <Gold.Chemscore.Hbonds>
donor molecule, donor type, donor heavy atom, donor atom, acceptor molecule, acceptor atom, score
      L1  H    10    44       P1  8028  0.21
      P1  H  6933  6944       L1    17  0.16
      P1  H  6934  6946       L1    17  0.61

> <Gold.Chemscore.Hbond.Weighted>
-3.7864

> <Gold.Chemscore.Metal.Weighted>
-0.0000

> <Gold.Chemscore.Lipo.Weighted>
-9.2348

> <Gold.Chemscore.Internal_Hbond.Weighted>
0.0000

> <Gold.Chemscore.DEClash.Weighted>
0.1683

> <Gold.Chemscore.DEInternal.Weighted>
1.7812

> <Gold.Chemscore.Rot.Weighted>
3.9252

> <Gold.Chemscore.Internal.Correction.Weighted>
   9.000000E+99

> <Gold.Protein.RotatedTorsions>
[ 6907 6896 6895 6894 ] final   22.76 input  -60.11 | X-H torsion
[ 7974 7965 7964 7962 ] final  -52.98 input  175.53 | X-H torsion
[ 8008 7997 7996 7995 ] final  -67.07 input   59.86 | X-H torsion
[ 10167 10162 10161 10158 ] final -119.77 input  -65.29 | X-H torsion
[ 10718 10713 10712 10709 ] final  117.68 input   66.30 | X-H torsion
[ 10763 10752 10751 10750 ] final  -42.19 input  -60.55 | X-H torsion
[ 11005 11000 10999 10996 ] final -130.46 input  -57.11 | X-H torsion

> <Gold.Protein.ActiveResidues>
 VAL166  LYS551  ARG553  GLY616  TRP617  ASP618  TYR619  PRO620  LYS621  CYS622 
 ASP623  PHE694  ASN695  SER759  ASP760  ASP761  ALA762  ILE779  LEU786  VAL792 
 PHE793  MET794  SER795  GLU796  ALA797  LYS798  CYS799  TRP800  GLU811  SER814 

> <Gold.Protein.RotatedAtoms>
  151.9321  135.0252  160.0529 H   0  0  0  0  0  0  0  0  0  0  0  0  # atno 6907 bound_to 6896
  152.2109  133.4906  159.5118 H   0  0  0  0  0  0  0  0  0  0  0  0  # atno 6908 bound_to 6896
  150.6976  134.1384  159.4138 H   0  0  0  0  0  0  0  0  0  0  0  0  # atno 6909 bound_to 6896
  145.9019  140.7987  142.9739 H   0  0  0  0  0  0  0  0  0  0  0  0  # atno 7974 bound_to 7965
  154.4776  140.0900  156.7299 H   0  0  0  0  0  0  0  0  0  0  0  0  # atno 8008 bound_to 7997
  155.4556  140.3459  155.4288 H   0  0  0  0  0  0  0  0  0  0  0  0  # atno 8009 bound_to 7997
  156.1140  140.1456  156.9286 H   0  0  0  0  0  0  0  0  0  0  0  0  # atno 8010 bound_to 7997
  140.0430  143.5134  152.2120 H   0  0  0  0  0  0  0  0  0  0  0  0  # atno 10167 bound_to 10162
  157.6080  131.1040  150.7650 H   0  0  0  0  0  0  0  0  0  0  0  0  # atno 10718 bound_to 10713
  153.9750  135.6724  153.4748 H   0  0  0  0  0  0  0  0  0  0  0  0  # atno 10763 bound_to 10752
  153.0775  135.4941  154.8431 H   0  0  0  0  0  0  0  0  0  0  0  0  # atno 10764 bound_to 10752
  154.7197  135.3114  154.9028 H   0  0  0  0  0  0  0  0  0  0  0  0  # atno 10765 bound_to 10752
  140.9344  134.1277  157.4206 H   0  0  0  0  0  0  0  0  0  0  0  0  # atno 11005 bound_to 11000
  144.6736  140.1690  143.7416 LP  0  0  0  0  0  0  0  0  0  0  0  0  # atno 17320 bound_to 7965
  145.8780  139.2307  143.1622 LP  0  0  0  0  0  0  0  0  0  0  0  0  # atno 17321 bound_to 7965
  139.6001  144.7580  151.3191 LP  0  0  0  0  0  0  0  0  0  0  0  0  # atno 17342 bound_to 10162
  140.7251  143.7026  150.7833 LP  0  0  0  0  0  0  0  0  0  0  0  0  # atno 17343 bound_to 10162
  156.8033  130.4928  149.5366 LP  0  0  0  0  0  0  0  0  0  0  0  0  # atno 17370 bound_to 10713
  156.1173  130.6084  151.0140 LP  0  0  0  0  0  0  0  0  0  0  0  0  # atno 17371 bound_to 10713
  139.8804  135.0016  156.6076 LP  0  0  0  0  0  0  0  0  0  0  0  0  # atno 17394 bound_to 11000
  140.7819  133.8653  155.8575 LP  0  0  0  0  0  0  0  0  0  0  0  0  # atno 17395 bound_to 11000

$$$$
