AV-unprocessed.smi:1115|AV-procd|sdf|4804|dock6
  -GOLD-   22720 3353D 1   1.00000     0.00000
 Structure written by MMmdl.
 52 53  0  0  0  0  0  0  0  0  3 V2000
  144.8185  131.5032  150.5089 C   0  0  0  0  0  0  0  0  0  0  0  0
  144.2578  132.7077  149.9106 N   0  0  0  0  0  0  0  0  0  0  0  0
  143.7749  132.6906  148.5342 C   0  0  0  0  0  0  0  0  0  0  0  0
  144.1304  133.8818  150.6839 C   0  0  0  0  0  0  0  0  0  0  0  0
  143.5015  133.9106  151.9528 C   0  0  0  0  0  0  0  0  0  0  0  0
  143.4151  135.1241  152.6654 C   0  0  0  0  0  0  0  0  0  0  0  0
  143.9480  136.3058  152.1095 C   0  0  0  0  0  0  0  0  0  0  0  0
  143.8478  137.4999  152.8747 N   0  0  0  0  0  0  0  0  0  0  0  0
  143.6777  137.6367  154.2011 C   0  0  0  0  0  0  0  0  0  0  0  0
  143.6175  136.7119  155.0106 O   0  0  0  0  0  0  0  0  0  0  0  0
  143.6027  138.9294  154.5495 N   0  0  0  0  0  0  0  0  0  0  0  0
  143.4135  139.4339  155.9093 C   0  0  0  0  0  0  0  0  0  0  0  0
  143.6680  140.9656  156.0458 C   0  0  0  0  0  0  0  0  0  0  0  0
  142.3523  141.7552  155.8281 C   0  0  0  0  0  0  0  0  0  0  0  0
  144.1288  141.2909  157.4886 C   0  0  0  0  0  0  0  0  0  0  0  0
  144.7104  141.4376  155.0637 N   0  3  0  0  0  0  0  0  0  0  0  0
  144.9452  142.9093  155.0241 C   0  0  0  0  0  0  0  0  0  0  0  0
  145.8843  143.2779  153.8637 C   0  0  0  0  0  0  0  0  0  0  0  0
  147.1130  142.5795  154.0040 O   0  0  0  0  0  0  0  0  0  0  0  0
  146.9244  141.1727  153.9523 C   0  0  0  0  0  0  0  0  0  0  0  0
  146.0198  140.7261  155.1132 C   0  0  0  0  0  0  0  0  0  0  0  0
  144.5749  136.2241  150.8430 C   0  0  0  0  0  0  0  0  0  0  0  0
  144.6365  135.0406  150.1956 N   0  3  0  0  0  0  0  0  0  0  0  0
  145.8227  131.6942  150.8886 H   0  0  0  0  0  0  0  0  0  0  0  0
  144.8881  130.6946  149.7809 H   0  0  0  0  0  0  0  0  0  0  0  0
  144.1923  131.1589  151.3326 H   0  0  0  0  0  0  0  0  0  0  0  0
  144.3132  133.4211  147.9298 H   0  0  0  0  0  0  0  0  0  0  0  0
  142.7108  132.9270  148.4982 H   0  0  0  0  0  0  0  0  0  0  0  0
  143.9143  131.7110  148.0765 H   0  0  0  0  0  0  0  0  0  0  0  0
  143.0821  133.0195  152.3950 H   0  0  0  0  0  0  0  0  0  0  0  0
  142.9367  135.1429  153.6339 H   0  0  0  0  0  0  0  0  0  0  0  0
  143.9496  138.3574  152.3516 H   0  0  0  0  0  0  0  0  0  0  0  0
  143.6690  139.6214  153.8172 H   0  0  0  0  0  0  0  0  0  0  0  0
  142.3853  139.1940  156.1774 H   0  0  0  0  0  0  0  0  0  0  0  0
  144.0387  138.8701  156.6020 H   0  0  0  0  0  0  0  0  0  0  0  0
  141.6485  141.6048  156.6473 H   0  0  0  0  0  0  0  0  0  0  0  0
  141.8305  141.4476  154.9220 H   0  0  0  0  0  0  0  0  0  0  0  0
  142.5376  142.8280  155.7631 H   0  0  0  0  0  0  0  0  0  0  0  0
  143.3257  141.1433  158.2115 H   0  0  0  0  0  0  0  0  0  0  0  0
  144.4518  142.3288  157.5781 H   0  0  0  0  0  0  0  0  0  0  0  0
  144.9498  140.6540  157.8167 H   0  0  0  0  0  0  0  0  0  0  0  0
  144.0165  143.4600  154.8889 H   0  0  0  0  0  0  0  0  0  0  0  0
  145.3880  143.2474  155.9610 H   0  0  0  0  0  0  0  0  0  0  0  0
  145.4254  143.0474  152.9009 H   0  0  0  0  0  0  0  0  0  0  0  0
  146.0864  144.3492  153.8710 H   0  0  0  0  0  0  0  0  0  0  0  0
  146.4969  140.8844  152.9906 H   0  0  0  0  0  0  0  0  0  0  0  0
  147.8965  140.6847  154.0262 H   0  0  0  0  0  0  0  0  0  0  0  0
  146.5236  140.9246  156.0592 H   0  0  0  0  0  0  0  0  0  0  0  0
  145.8949  139.6480  155.0353 H   0  0  0  0  0  0  0  0  0  0  0  0
  145.0411  137.0461  150.3217 H   0  0  0  0  0  0  0  0  0  0  0  0
  145.0952  135.0182  149.2846 H   0  0  0  0  0  0  0  0  0  0  0  0
  144.3252  141.2094  154.1582 H   0  0  0  0  0  0  0  0  0  0  0  0
  1  2  1  0  0  0  0
  1 24  1  0  0  0  0
  1 25  1  0  0  0  0
  1 26  1  0  0  0  0
  2  3  1  0  0  0  0
  2  4  1  0  0  0  0
  3 27  1  0  0  0  0
  3 28  1  0  0  0  0
  3 29  1  0  0  0  0
  4 23  1  0  0  0  0
  4  5  2  0  0  0  0
  5  6  1  0  0  0  0
  5 30  1  0  0  0  0
  6  7  2  0  0  0  0
  6 31  1  0  0  0  0
  7  8  1  0  0  0  0
  7 22  1  0  0  0  0
  8  9  1  0  0  0  0
  8 32  1  0  0  0  0
  9 10  2  0  0  0  0
  9 11  1  0  0  0  0
 11 12  1  0  0  0  0
 11 33  1  0  0  0  0
 12 13  1  0  0  0  0
 12 34  1  0  0  0  0
 12 35  1  0  0  0  0
 13 14  1  0  0  0  0
 13 15  1  0  0  0  0
 13 16  1  0  0  0  0
 14 36  1  0  0  0  0
 14 37  1  0  0  0  0
 14 38  1  0  0  0  0
 15 39  1  0  0  0  0
 15 40  1  0  0  0  0
 15 41  1  0  0  0  0
 16 21  1  0  0  0  0
 16 17  1  0  0  0  0
 16 52  1  0  0  0  0
 17 18  1  0  0  0  0
 17 42  1  0  0  0  0
 17 43  1  0  0  0  0
 18 19  1  0  0  0  0
 18 44  1  0  0  0  0
 18 45  1  0  0  0  0
 19 20  1  0  0  0  0
 20 21  1  0  0  0  0
 20 46  1  0  0  0  0
 20 47  1  0  0  0  0
 21 48  1  0  0  0  0
 21 49  1  0  0  0  0
 22 23  2  0  0  0  0
 22 50  1  0  0  0  0
 23 51  1  0  0  0  0
M  CHG  1  16   1
M  CHG  1  23   1
M  END
> <s_m_source_file>
AV-unprocessed.smi

> <i_m_source_file_index>
1115

> <i_lp_mmshare_version>
43012

> <i_f3d_flags>
0

> <s_epik_input>
W0NIM11OKFtDSDNdKWMxW2NIXVtjSF1jKFtjSF1uMSlbTkhdQyg9TylbTkhdW0NIMl1DKFtDSDNdKShbQ0gzXSlOMltDSDJdW0NIMl1PW0NIMl1bQ0gyXTI=

> <s_epik_cmdline>
J2VwaWtfcHl0aG9uJywgJy1waCcsICc3LjAnLCAnLXRuJywgJzgnLCAnLW1hJywgJzIwMCcsICctbWV0YWxfYmluZGluZycsICctaW1hZScsICc8aW5maWxlLm1hZT4nLCAnLW9tYWUnLCAnPG91dGZpbGUubWFlPic=

> <r_lp_tautomer_probability>
0.999994

> <r_epik_Ionization_Penalty>
0.90424

> <r_epik_Ionization_Penalty_Charging>
0.90422

> <r_epik_Ionization_Penalty_Neutral>
2.023e-05

> <r_epik_State_Penalty>
0.905868

> <r_epik_Charging_Adjusted_Penalty>
1.81009

> <i_epik_Tot_Q>
2

> <i_epik_Tot_abs_Q>
2

> <r_epik_Metal_State_Penalty>
1.19318

> <b_epik_Metal_Only>
0

> <s_lp_Force_Field>
OPLS_2005

> <r_lp_Energy>
35.8961

> <b_lp_Chiralities_Consistent>
1

> <s_lp_Variant>
AV-unprocessed.smi:1115-3

> <Gold.Version>
5.8.1

> <Gold.Id.Protein>
6NUR|6NUR_protein|mol2

> <Gold.PLP.Fitness>
46.5352

> <Gold.PLP.PLP>
-35.6605

> <Gold.PLP.part.hbond>
-4.3171

> <Gold.PLP.part.metal>
0.0000

> <Gold.PLP.part.buried>
-3.1551

> <Gold.PLP.part.nonpolar>
-28.8241

> <Gold.PLP.part.repulsive>
0.2574

> <Gold.PLP.ligand.clash>
0.0000

> <Gold.PLP.ligand.torsion>
1.7090

> <Gold.PLP.Chemscore.Hbond>
4.7301

> <Gold.PLP.Chemscore.CHOScore>
0.0000

> <Gold.PLP.Chemscore.Metal>
0.0000

> <Gold.Chemscore.Hbonds>
donor molecule, donor type, donor heavy atom, donor atom, acceptor molecule, acceptor atom, score
      L1  H     8    32       P1 10175  0.72
      L1  H    11    33       P1 10175  1.00
      L1  H    16    52       P1 10175  2.00
      L1  H    23    51       P1  7921  1.00

> <Gold.PLP.Chemscore.Internal.Correction>
0.1025

> <Gold.Rescore>
     Score         DG    S(hbond)    S(metal)    S(lipo)     H(rot)  DE(clash)    DE(int)     intcor
     16.71     -21.19       3.50        0.00      67.04       1.49       1.29       3.19       ----

> <Gold.Chemscore.Fitness>
16.7084

> <Gold.Chemscore.DG>
-21.1927

> <Gold.Chemscore.ZeroCoef>
-5.4800

> <Gold.Chemscore.Hbond>
3.4963

> <Gold.Chemscore.Metal>
0.0000

> <Gold.Chemscore.Lipo>
67.0432

> <Gold.Chemscore.Internal_Hbond>
0.0000

> <Gold.Chemscore.DEClash>
1.2930

> <Gold.Chemscore.DEInternal>
3.1914

> <Gold.Chemscore.Rot>
1.4878

> <Gold.Chemscore.Internal.Correction>
   9.000000E+99

> <Gold.Chemscore.Hbonds>
donor molecule, donor type, donor heavy atom, donor atom, acceptor molecule, acceptor atom, score
      L1  H     8    32       P1 10175  0.68
      L1  H    11    33       P1 10175  0.96
      L1  H    16    52       P1 10175  0.65
      L1  H    23    51       P1  7921  0.99

> <Gold.Chemscore.Hbond.Weighted>
-11.6775

> <Gold.Chemscore.Metal.Weighted>
-0.0000

> <Gold.Chemscore.Lipo.Weighted>
-7.8441

> <Gold.Chemscore.Internal_Hbond.Weighted>
0.0000

> <Gold.Chemscore.DEClash.Weighted>
1.2930

> <Gold.Chemscore.DEInternal.Weighted>
3.1914

> <Gold.Chemscore.Rot.Weighted>
3.8089

> <Gold.Chemscore.Internal.Correction.Weighted>
   9.000000E+99

> <Gold.Protein.RotatedTorsions>
[ 6907 6896 6895 6894 ] final -175.10 input  -60.11 | X-H torsion
[ 7974 7965 7964 7962 ] final  -13.27 input  175.53 | X-H torsion
[ 8008 7997 7996 7995 ] final  136.47 input   59.86 | X-H torsion
[ 10167 10162 10161 10158 ] final  164.57 input  -65.29 | X-H torsion
[ 10718 10713 10712 10709 ] final  -27.06 input   66.30 | X-H torsion
[ 10763 10752 10751 10750 ] final -126.48 input  -60.55 | X-H torsion
[ 11005 11000 10999 10996 ] final   80.34 input  -57.11 | X-H torsion

> <Gold.Protein.ActiveResidues>
 VAL166  LYS551  ARG553  GLY616  TRP617  ASP618  TYR619  PRO620  LYS621  CYS622 
 ASP623  PHE694  ASN695  SER759  ASP760  ASP761  ALA762  ILE779  LEU786  VAL792 
 PHE793  MET794  SER795  GLU796  ALA797  LYS798  CYS799  TRP800  GLU811  SER814 

> <Gold.Protein.RotatedAtoms>
  151.5830  133.3375  159.3012 H   0  0  0  0  0  0  0  0  0  0  0  0  # atno 6907 bound_to 6896
  150.8302  134.7555  159.6859 H   0  0  0  0  0  0  0  0  0  0  0  0  # atno 6908 bound_to 6896
  152.4387  134.5641  159.9954 H   0  0  0  0  0  0  0  0  0  0  0  0  # atno 6909 bound_to 6896
  146.2121  140.3179  142.8388 H   0  0  0  0  0  0  0  0  0  0  0  0  # atno 7974 bound_to 7965
  156.3004  140.2444  156.3751 H   0  0  0  0  0  0  0  0  0  0  0  0  # atno 8008 bound_to 7997
  154.8752  140.0414  157.1769 H   0  0  0  0  0  0  0  0  0  0  0  0  # atno 8009 bound_to 7997
  154.8753  140.2941  155.5461 H   0  0  0  0  0  0  0  0  0  0  0  0  # atno 8010 bound_to 7997
  139.4891  144.4222  151.9173 H   0  0  0  0  0  0  0  0  0  0  0  0  # atno 10167 bound_to 10162
  156.4431  130.4468  149.7039 H   0  0  0  0  0  0  0  0  0  0  0  0  # atno 10718 bound_to 10713
  154.8746  135.3994  154.3437 H   0  0  0  0  0  0  0  0  0  0  0  0  # atno 10763 bound_to 10752
  153.4233  135.7023  153.6285 H   0  0  0  0  0  0  0  0  0  0  0  0  # atno 10764 bound_to 10752
  153.4938  135.3742  155.2475 H   0  0  0  0  0  0  0  0  0  0  0  0  # atno 10765 bound_to 10752
  139.9138  134.7913  156.1897 H   0  0  0  0  0  0  0  0  0  0  0  0  # atno 11005 bound_to 11000
  144.8941  140.7561  143.5908 LP  0  0  0  0  0  0  0  0  0  0  0  0  # atno 17320 bound_to 7965
  145.3102  139.1821  143.4643 LP  0  0  0  0  0  0  0  0  0  0  0  0  # atno 17321 bound_to 7965
  140.3666  144.2907  150.5925 LP  0  0  0  0  0  0  0  0  0  0  0  0  # atno 17342 bound_to 10162
  140.5356  143.2234  151.8169 LP  0  0  0  0  0  0  0  0  0  0  0  0  # atno 17343 bound_to 10162
  156.3896  130.7620  151.2620 LP  0  0  0  0  0  0  0  0  0  0  0  0  # atno 17370 bound_to 10713
  157.7505  131.0271  150.3993 LP  0  0  0  0  0  0  0  0  0  0  0  0  # atno 17371 bound_to 10713
  141.0591  133.6850  156.1918 LP  0  0  0  0  0  0  0  0  0  0  0  0  # atno 17394 bound_to 11000
  140.6689  134.4889  157.5586 LP  0  0  0  0  0  0  0  0  0  0  0  0  # atno 17395 bound_to 11000

$$$$
