AV-unprocessed.smi:876|AV-procd|sdf|4025|dock5
  -GOLD-   22720 1513D 1   1.00000     0.00000
 Structure written by MMmdl.
 40 41  0  0  0  0  0  0  0  0  1 V2000
  150.8937  142.0461  156.1986 C   0  0  0  0  0  0  0  0  0  0  0  0
  150.7538  140.7378  155.5713 N   0  0  0  0  0  0  0  0  0  0  0  0
  151.8642  139.7915  155.6073 C   0  0  0  0  0  0  0  0  0  0  0  0
  149.5346  140.3687  154.9581 C   0  0  0  0  0  0  0  0  0  0  0  0
  148.5342  141.3281  154.6629 C   0  0  0  0  0  0  0  0  0  0  0  0
  147.3365  140.9121  154.0496 C   0  0  0  0  0  0  0  0  0  0  0  0
  147.1652  139.5442  153.7360 C   0  0  0  0  0  0  0  0  0  0  0  0
  146.0009  138.9942  153.1344 N   0  0  0  0  0  0  0  0  0  0  0  0
  145.6518  137.7030  153.0025 C   0  0  0  0  0  0  0  0  0  0  0  0
  146.3001  136.7415  153.4149 O   0  0  0  0  0  0  0  0  0  0  0  0
  144.4764  137.5831  152.3700 N   0  0  0  0  0  0  0  0  0  0  0  0
  143.8113  136.3183  152.0778 C   0  0  2  0  0  0  0  0  0  0  0  0
  143.8262  135.4234  153.2863 C   0  0  0  0  0  0  0  0  0  0  0  0
  144.4253  134.2576  153.0559 C   0  0  0  0  0  0  0  0  0  0  0  0
  144.9567  134.1393  151.6501 C   0  0  1  0  0  0  0  0  0  0  0  0
  144.4030  132.9119  150.9058 C   0  0  0  0  0  0  0  0  0  0  0  0
  143.0047  132.8129  151.0797 O   0  0  0  0  0  0  0  0  0  0  0  0
  144.5485  135.4845  150.9965 C   0  0  0  0  0  0  0  0  0  0  0  0
  148.2086  138.6628  154.0792 C   0  0  0  0  0  0  0  0  0  0  0  0
  149.3574  139.0570  154.6659 N   0  0  0  0  0  0  0  0  0  0  0  0
  142.7729  136.4954  151.7919 H   0  0  0  0  0  0  0  0  0  0  0  0
  146.0447  134.0769  151.7038 H   0  0  0  0  0  0  0  0  0  0  0  0
  150.1529  142.1745  156.9881 H   0  0  0  0  0  0  0  0  0  0  0  0
  150.7629  142.8403  155.4628 H   0  0  0  0  0  0  0  0  0  0  0  0
  151.8799  142.1679  156.6468 H   0  0  0  0  0  0  0  0  0  0  0  0
  152.1475  139.4932  154.5976 H   0  0  0  0  0  0  0  0  0  0  0  0
  151.5876  138.8981  156.1679 H   0  0  0  0  0  0  0  0  0  0  0  0
  152.7428  140.2262  156.0837 H   0  0  0  0  0  0  0  0  0  0  0  0
  148.6584  142.3745  154.8968 H   0  0  0  0  0  0  0  0  0  0  0  0
  146.5747  141.6485  153.8474 H   0  0  0  0  0  0  0  0  0  0  0  0
  145.3252  139.6700  152.8088 H   0  0  0  0  0  0  0  0  0  0  0  0
  144.0061  138.4249  152.0707 H   0  0  0  0  0  0  0  0  0  0  0  0
  143.3792  135.7168  154.2249 H   0  0  0  0  0  0  0  0  0  0  0  0
  144.5457  133.4681  153.7831 H   0  0  0  0  0  0  0  0  0  0  0  0
  144.6293  132.9684  149.8402 H   0  0  0  0  0  0  0  0  0  0  0  0
  144.8629  131.9994  151.2865 H   0  0  0  0  0  0  0  0  0  0  0  0
  142.5913  133.5116  150.5960 H   0  0  0  0  0  0  0  0  0  0  0  0
  143.8914  135.3258  150.1404 H   0  0  0  0  0  0  0  0  0  0  0  0
  145.4313  136.0013  150.6171 H   0  0  0  0  0  0  0  0  0  0  0  0
  148.1233  137.6056  153.8738 H   0  0  0  0  0  0  0  0  0  0  0  0
  1  2  1  0  0  0  0
  1 23  1  0  0  0  0
  1 24  1  0  0  0  0
  1 25  1  0  0  0  0
  2  3  1  0  0  0  0
  2  4  1  0  0  0  0
  3 26  1  0  0  0  0
  3 27  1  0  0  0  0
  3 28  1  0  0  0  0
  4 20  1  0  0  0  0
  4  5  2  0  0  0  0
  5  6  1  0  0  0  0
  5 29  1  0  0  0  0
  6  7  2  0  0  0  0
  6 30  1  0  0  0  0
  7  8  1  0  0  0  0
  7 19  1  0  0  0  0
  8  9  1  0  0  0  0
  8 31  1  0  0  0  0
  9 10  2  0  0  0  0
  9 11  1  0  0  0  0
 11 12  1  0  0  0  0
 11 32  1  0  0  0  0
 12 21  1  0  0  0  0
 12 18  1  0  0  0  0
 12 13  1  0  0  0  0
 13 14  2  0  0  0  0
 13 33  1  0  0  0  0
 14 15  1  0  0  0  0
 14 34  1  0  0  0  0
 15 22  1  0  0  0  0
 15 16  1  0  0  0  0
 15 18  1  0  0  0  0
 16 17  1  0  0  0  0
 16 35  1  0  0  0  0
 16 36  1  0  0  0  0
 17 37  1  0  0  0  0
 18 38  1  0  0  0  0
 18 39  1  0  0  0  0
 19 20  2  0  0  0  0
 19 40  1  0  0  0  0
M  END
> <s_m_source_file>
AV-unprocessed.smi

> <i_m_source_file_index>
876

> <i_lp_mmshare_version>
43012

> <i_f3d_flags>
0

> <s_epik_input>
W0NIM11OKFtDSDNdKWMxW2NIXVtjSF1jKFtjSF1uMSlbTkhdQyg9TylbTkhdW0NAQEhdMltDSF09W0NIXVtDQEBIXShbQ0gyXTIpW0NIMl1bT0hd

> <s_epik_cmdline>
J2VwaWtfcHl0aG9uJywgJy1waCcsICc3LjAnLCAnLXRuJywgJzgnLCAnLW1hJywgJzIwMCcsICctbWV0YWxfYmluZGluZycsICctaW1hZScsICc8aW5maWxlLm1hZT4nLCAnLW9tYWUnLCAnPG91dGZpbGUubWFlPic=

> <r_lp_tautomer_probability>
1

> <r_epik_Ionization_Penalty>
0.617998

> <r_epik_Ionization_Penalty_Charging>
0

> <r_epik_Ionization_Penalty_Neutral>
0.617998

> <r_epik_State_Penalty>
0.632637

> <r_epik_Charging_Adjusted_Penalty>
0.632637

> <i_epik_Tot_Q>
0

> <i_epik_Tot_abs_Q>
0

> <r_epik_Metal_State_Penalty>
0.305596

> <b_epik_Metal_Only>
0

> <s_lp_Force_Field>
OPLS_2005

> <r_lp_Energy>
20.6099

> <b_lp_Chiralities_Consistent>
1

> <s_lp_Variant>
AV-unprocessed.smi:876-7

> <Gold.Version>
5.8.1

> <Gold.Id.Protein>
6NUR|6NUR_protein|mol2

> <Gold.PLP.Fitness>
47.1382

> <Gold.PLP.PLP>
-35.9807

> <Gold.PLP.part.hbond>
-4.0000

> <Gold.PLP.part.metal>
0.0000

> <Gold.PLP.part.buried>
-5.0040

> <Gold.PLP.part.nonpolar>
-27.8281

> <Gold.PLP.part.repulsive>
0.5389

> <Gold.PLP.ligand.clash>
0.0000

> <Gold.PLP.ligand.torsion>
0.3197

> <Gold.PLP.Chemscore.Hbond>
2.9280

> <Gold.PLP.Chemscore.CHOScore>
0.9993

> <Gold.PLP.Chemscore.Metal>
0.0000

> <Gold.Chemscore.Hbonds>
donor molecule, donor type, donor heavy atom, donor atom, acceptor molecule, acceptor atom, score
      L1  H     8    31       P1 10175  1.00
      L1  H    11    32       P1 10175  0.84
      L1  H    17    37       P1 10186  0.83
      L1  C    19    40       P1  7948  0.90

> <Gold.PLP.Chemscore.Internal.Correction>
0.0152

> <Gold.Rescore>
     Score         DG    S(hbond)    S(metal)    S(lipo)     H(rot)  DE(clash)    DE(int)     intcor
     13.95     -16.82       2.46        0.00      65.92       1.80       0.01       2.86       ----

> <Gold.Chemscore.Fitness>
13.9487

> <Gold.Chemscore.DG>
-16.8179

> <Gold.Chemscore.ZeroCoef>
-5.4800

> <Gold.Chemscore.Hbond>
2.4634

> <Gold.Chemscore.Metal>
0.0000

> <Gold.Chemscore.Lipo>
65.9235

> <Gold.Chemscore.Internal_Hbond>
0.0000

> <Gold.Chemscore.DEClash>
0.0060

> <Gold.Chemscore.DEInternal>
2.8633

> <Gold.Chemscore.Rot>
1.7980

> <Gold.Chemscore.Internal.Correction>
   9.000000E+99

> <Gold.Chemscore.Hbonds>
donor molecule, donor type, donor heavy atom, donor atom, acceptor molecule, acceptor atom, score
      L1  H     8    31       P1 10175  1.00
      L1  H    11    32       P1 10175  0.79
      L1  H    17    37       P1 10186  0.77

> <Gold.Chemscore.Hbond.Weighted>
-8.2278

> <Gold.Chemscore.Metal.Weighted>
-0.0000

> <Gold.Chemscore.Lipo.Weighted>
-7.7131

> <Gold.Chemscore.Internal_Hbond.Weighted>
0.0000

> <Gold.Chemscore.DEClash.Weighted>
0.0060

> <Gold.Chemscore.DEInternal.Weighted>
2.8633

> <Gold.Chemscore.Rot.Weighted>
4.6029

> <Gold.Chemscore.Internal.Correction.Weighted>
   9.000000E+99

> <Gold.Protein.RotatedTorsions>
[ 6907 6896 6895 6894 ] final -173.62 input  -60.11 | X-H torsion
[ 7974 7965 7964 7962 ] final -116.86 input  175.53 | X-H torsion
[ 8008 7997 7996 7995 ] final  119.09 input   59.86 | X-H torsion
[ 10167 10162 10161 10158 ] final -134.36 input  -65.29 | X-H torsion
[ 10718 10713 10712 10709 ] final   40.11 input   66.30 | X-H torsion
[ 10763 10752 10751 10750 ] final  126.94 input  -60.55 | X-H torsion
[ 11005 11000 10999 10996 ] final  -88.70 input  -57.11 | X-H torsion

> <Gold.Protein.ActiveResidues>
 VAL166  LYS551  ARG553  GLY616  TRP617  ASP618  TYR619  PRO620  LYS621  CYS622 
 ASP623  PHE694  ASN695  SER759  ASP760  ASP761  ALA762  ILE779  LEU786  VAL792 
 PHE793  MET794  SER795  GLU796  ALA797  LYS798  CYS799  TRP800  GLU811  SER814 

> <Gold.Protein.RotatedAtoms>
  151.5591  133.3406  159.2967 H   0  0  0  0  0  0  0  0  0  0  0  0  # atno 6907 bound_to 6896
  150.8433  134.7736  159.6961 H   0  0  0  0  0  0  0  0  0  0  0  0  # atno 6908 bound_to 6896
  152.4496  134.5429  159.9896 H   0  0  0  0  0  0  0  0  0  0  0  0  # atno 6909 bound_to 6896
  145.0919  140.8495  143.3977 H   0  0  0  0  0  0  0  0  0  0  0  0  # atno 7974 bound_to 7965
  156.2579  140.2860  156.0937 H   0  0  0  0  0  0  0  0  0  0  0  0  # atno 8008 bound_to 7997
  155.1435  140.0396  157.2821 H   0  0  0  0  0  0  0  0  0  0  0  0  # atno 8009 bound_to 7997
  154.6512  140.2545  155.7218 H   0  0  0  0  0  0  0  0  0  0  0  0  # atno 8010 bound_to 7997
  139.8888  143.6747  152.2615 H   0  0  0  0  0  0  0  0  0  0  0  0  # atno 10167 bound_to 10162
  157.3783  130.7739  149.7173 H   0  0  0  0  0  0  0  0  0  0  0  0  # atno 10718 bound_to 10713
  153.7013  135.3283  155.3225 H   0  0  0  0  0  0  0  0  0  0  0  0  # atno 10763 bound_to 10752
  154.8412  135.4455  154.1407 H   0  0  0  0  0  0  0  0  0  0  0  0  # atno 10764 bound_to 10752
  153.2476  135.6978  153.7793 H   0  0  0  0  0  0  0  0  0  0  0  0  # atno 10765 bound_to 10752
  141.1597  133.7585  156.9489 H   0  0  0  0  0  0  0  0  0  0  0  0  # atno 11005 bound_to 11000
  145.1056  139.2792  143.5664 LP  0  0  0  0  0  0  0  0  0  0  0  0  # atno 17320 bound_to 7965
  146.3531  140.0636  142.8627 LP  0  0  0  0  0  0  0  0  0  0  0  0  # atno 17321 bound_to 7965
  139.7128  144.7617  151.1083 LP  0  0  0  0  0  0  0  0  0  0  0  0  # atno 17342 bound_to 10162
  140.7730  143.5308  150.9425 LP  0  0  0  0  0  0  0  0  0  0  0  0  # atno 17343 bound_to 10162
  155.9770  130.4068  150.3740 LP  0  0  0  0  0  0  0  0  0  0  0  0  # atno 17370 bound_to 10713
  157.1841  131.0399  151.2734 LP  0  0  0  0  0  0  0  0  0  0  0  0  # atno 17371 bound_to 10713
  140.1271  134.9380  157.2285 LP  0  0  0  0  0  0  0  0  0  0  0  0  # atno 17394 bound_to 11000
  140.3000  134.3143  155.7292 LP  0  0  0  0  0  0  0  0  0  0  0  0  # atno 17395 bound_to 11000

$$$$
