AV-unprocessed.smi:3290|AV-procd|sdf|12613|dock9
  -GOLD-   2272018543D 1   1.00000     0.00000
 Structure written by MMmdl.
 43 44  0  0  0  0  0  0  0  0  2 V2000
  142.9933  134.2329  152.3428 C   0  0  0  0  0  0  0  0  0  0  0  0
  143.9058  134.6690  151.1784 C   0  0  2  0  0  0  0  0  0  0  0  0
  144.4624  133.4532  150.4075 C   0  0  0  0  0  0  0  0  0  0  0  0
  145.5440  132.7022  151.2022 C   0  0  0  0  0  0  0  0  0  0  0  0
  146.6785  133.6461  151.6258 C   0  0  0  0  0  0  0  0  0  0  0  0
  146.1422  134.8602  152.4016 C   0  0  0  0  0  0  0  0  0  0  0  0
  145.0620  135.6175  151.5959 C   0  0  2  0  0  0  0  0  0  0  0  0
  144.5615  136.8794  152.3274 C   0  0  0  0  0  0  0  0  0  0  0  0
  145.1110  138.1107  151.7258 N   0  3  0  0  0  0  0  0  0  0  0  0
  146.5172  138.3826  152.0861 C   0  0  0  0  0  0  0  0  0  0  0  0
  146.7045  138.4569  153.6116 C   0  0  2  0  0  0  0  0  0  0  0  0
  145.5627  139.0678  154.1805 O   0  0  0  0  0  0  0  0  0  0  0  0
  147.9784  139.2028  153.9758 C   0  0  0  0  0  0  0  0  0  0  0  0
  148.0007  140.6132  153.9993 C   0  0  0  0  0  0  0  0  0  0  0  0
  149.2030  141.2625  154.3448 C   0  0  0  0  0  0  0  0  0  0  0  0
  150.3382  140.6027  154.6589 N   0  0  0  0  0  0  0  0  0  0  0  0
  150.3114  139.2532  154.6369 C   0  0  0  0  0  0  0  0  0  0  0  0
  149.1626  138.5078  154.3044 C   0  0  0  0  0  0  0  0  0  0  0  0
  143.5448  133.7207  153.1307 H   0  0  0  0  0  0  0  0  0  0  0  0
  142.2178  133.5511  151.9922 H   0  0  0  0  0  0  0  0  0  0  0  0
  142.4846  135.0845  152.7941 H   0  0  0  0  0  0  0  0  0  0  0  0
  143.2699  135.2177  150.4821 H   0  0  0  0  0  0  0  0  0  0  0  0
  143.6544  132.7702  150.1427 H   0  0  0  0  0  0  0  0  0  0  0  0
  144.8892  133.7922  149.4625 H   0  0  0  0  0  0  0  0  0  0  0  0
  145.1030  132.2368  152.0843 H   0  0  0  0  0  0  0  0  0  0  0  0
  145.9466  131.8884  150.5986 H   0  0  0  0  0  0  0  0  0  0  0  0
  147.4031  133.1054  152.2354 H   0  0  0  0  0  0  0  0  0  0  0  0
  147.2155  133.9885  150.7405 H   0  0  0  0  0  0  0  0  0  0  0  0
  145.7393  134.5346  153.3610 H   0  0  0  0  0  0  0  0  0  0  0  0
  146.9747  135.5245  152.6346 H   0  0  0  0  0  0  0  0  0  0  0  0
  145.5297  135.9549  150.6693 H   0  0  0  0  0  0  0  0  0  0  0  0
  143.4729  136.9293  152.2764 H   0  0  0  0  0  0  0  0  0  0  0  0
  144.8329  136.8440  153.3832 H   0  0  0  0  0  0  0  0  0  0  0  0
  145.0530  138.0302  150.7202 H   0  0  0  0  0  0  0  0  0  0  0  0
  147.1391  137.5846  151.6781 H   0  0  0  0  0  0  0  0  0  0  0  0
  146.8414  139.3128  151.6161 H   0  0  0  0  0  0  0  0  0  0  0  0
  146.7684  137.4456  154.0162 H   0  0  0  0  0  0  0  0  0  0  0  0
  145.0648  139.4757  153.4879 H   0  0  0  0  0  0  0  0  0  0  0  0
  147.1203  141.1904  153.7576 H   0  0  0  0  0  0  0  0  0  0  0  0
  149.2532  142.3410  154.3699 H   0  0  0  0  0  0  0  0  0  0  0  0
  151.2332  138.7518  154.8926 H   0  0  0  0  0  0  0  0  0  0  0  0
  149.1951  137.4280  154.3032 H   0  0  0  0  0  0  0  0  0  0  0  0
  144.5457  138.8943  152.0194 H   0  0  0  0  0  0  0  0  0  0  0  0
  1  2  1  0  0  0  0
  1 19  1  0  0  0  0
  1 20  1  0  0  0  0
  1 21  1  0  0  0  0
  2  7  1  0  0  0  0
  2  3  1  0  0  0  0
  2 22  1  0  0  0  0
  3  4  1  0  0  0  0
  3 23  1  0  0  0  0
  3 24  1  0  0  0  0
  4  5  1  0  0  0  0
  4 25  1  0  0  0  0
  4 26  1  0  0  0  0
  5  6  1  0  0  0  0
  5 27  1  0  0  0  0
  5 28  1  0  0  0  0
  6  7  1  0  0  0  0
  6 29  1  0  0  0  0
  6 30  1  0  0  0  0
  7  8  1  0  0  0  0
  7 31  1  0  0  0  0
  8  9  1  0  0  0  0
  8 32  1  0  0  0  0
  8 33  1  0  0  0  0
  9 10  1  0  0  0  0
  9 34  1  0  0  0  0
  9 43  1  0  0  0  0
 10 11  1  0  0  0  0
 10 35  1  0  0  0  0
 10 36  1  0  0  0  0
 11 12  1  0  0  0  0
 11 13  1  0  0  0  0
 11 37  1  0  0  0  0
 12 38  1  0  0  0  0
 13 18  1  0  0  0  0
 13 14  2  0  0  0  0
 14 15  1  0  0  0  0
 14 39  1  0  0  0  0
 15 16  2  0  0  0  0
 15 40  1  0  0  0  0
 16 17  1  0  0  0  0
 17 18  2  0  0  0  0
 17 41  1  0  0  0  0
 18 42  1  0  0  0  0
M  CHG  1   9   1
M  END
> <s_m_source_file>
AV-unprocessed.smi

> <i_m_source_file_index>
3290

> <i_lp_mmshare_version>
43012

> <i_f3d_flags>
0

> <s_epik_input>
W0NIM11bQ0BASF0xW0NIMl1bQ0gyXVtDSDJdW0NIMl1bQ0BIXTFbQ0gyXVtOSF1bQ0gyXVtDQEhdKFtPSF0pYzJbY0hdW2NIXW5bY0hdW2NIXTI=

> <s_epik_cmdline>
J2VwaWtfcHl0aG9uJywgJy1waCcsICc3LjAnLCAnLXRuJywgJzgnLCAnLW1hJywgJzIwMCcsICctbWV0YWxfYmluZGluZycsICctaW1hZScsICc8aW5maWxlLm1hZT4nLCAnLW9tYWUnLCAnPG91dGZpbGUubWFlPic=

> <r_lp_tautomer_probability>
1

> <r_epik_Ionization_Penalty>
0.00420552

> <r_epik_Ionization_Penalty_Charging>
0.00207255

> <r_epik_Ionization_Penalty_Neutral>
0.00213297

> <r_epik_State_Penalty>
-0

> <r_epik_Charging_Adjusted_Penalty>
0.00207255

> <i_epik_Tot_Q>
1

> <i_epik_Tot_abs_Q>
1

> <r_epik_Metal_State_Penalty>
-0

> <b_epik_Metal_Only>
0

> <s_lp_Force_Field>
OPLS_2005

> <r_lp_Energy>
18.6683

> <b_lp_Chiralities_Consistent>
1

> <s_lp_Variant>
AV-unprocessed.smi:3290-3

> <Gold.Version>
5.8.1

> <Gold.Id.Protein>
6NUR|6NUR_protein|mol2

> <Gold.PLP.Fitness>
48.2281

> <Gold.PLP.PLP>
-36.0995

> <Gold.PLP.part.hbond>
-3.3040

> <Gold.PLP.part.metal>
0.0000

> <Gold.PLP.part.buried>
-2.9580

> <Gold.PLP.part.nonpolar>
-30.5320

> <Gold.PLP.part.repulsive>
0.1522

> <Gold.PLP.ligand.clash>
0.0000

> <Gold.PLP.ligand.torsion>
1.5477

> <Gold.PLP.Chemscore.Hbond>
4.4560

> <Gold.PLP.Chemscore.CHOScore>
0.6024

> <Gold.PLP.Chemscore.Metal>
0.0000

> <Gold.Chemscore.Hbonds>
donor molecule, donor type, donor heavy atom, donor atom, acceptor molecule, acceptor atom, score
      L1  H     9    34       P1 10171  0.53
      L1  H     9    43       P1 10175  2.00
      L1  H    12    38       P1 10175  1.00
      P1  H  7989  7998       L1    16  0.91
      L1  C    15    40       P1  8028  0.54

> <Gold.PLP.Chemscore.Internal.Correction>
0.0488

> <Gold.Rescore>
     Score         DG    S(hbond)    S(metal)    S(lipo)     H(rot)  DE(clash)    DE(int)     intcor
     19.52     -21.24       3.05        0.00      92.36       2.05       0.15       1.57       ----

> <Gold.Chemscore.Fitness>
19.5228

> <Gold.Chemscore.DG>
-21.2414

> <Gold.Chemscore.ZeroCoef>
-5.4800

> <Gold.Chemscore.Hbond>
3.0547

> <Gold.Chemscore.Metal>
0.0000

> <Gold.Chemscore.Lipo>
92.3611

> <Gold.Chemscore.Internal_Hbond>
0.0000

> <Gold.Chemscore.DEClash>
0.1533

> <Gold.Chemscore.DEInternal>
1.5653

> <Gold.Chemscore.Rot>
2.0498

> <Gold.Chemscore.Internal.Correction>
   9.000000E+99

> <Gold.Chemscore.Hbonds>
donor molecule, donor type, donor heavy atom, donor atom, acceptor molecule, acceptor atom, score
      L1  H     9    34       P1 10171  0.51
      L1  H     9    43       P1 10175  1.00
      L1  H    12    38       P1 10175  0.97
      P1  H  7989  7998       L1    16  0.19

> <Gold.Chemscore.Hbond.Weighted>
-10.2027

> <Gold.Chemscore.Metal.Weighted>
-0.0000

> <Gold.Chemscore.Lipo.Weighted>
-10.8062

> <Gold.Chemscore.Internal_Hbond.Weighted>
0.0000

> <Gold.Chemscore.DEClash.Weighted>
0.1533

> <Gold.Chemscore.DEInternal.Weighted>
1.5653

> <Gold.Chemscore.Rot.Weighted>
5.2475

> <Gold.Chemscore.Internal.Correction.Weighted>
   9.000000E+99

> <Gold.Protein.RotatedTorsions>
[ 6907 6896 6895 6894 ] final  -52.56 input  -60.11 | X-H torsion
[ 7974 7965 7964 7962 ] final   30.92 input  175.53 | X-H torsion
[ 8008 7997 7996 7995 ] final   75.51 input   59.86 | X-H torsion
[ 10167 10162 10161 10158 ] final   87.29 input  -65.29 | X-H torsion
[ 10718 10713 10712 10709 ] final  -26.89 input   66.30 | X-H torsion
[ 10763 10752 10751 10750 ] final  -90.62 input  -60.55 | X-H torsion
[ 11005 11000 10999 10996 ] final    7.87 input  -57.11 | X-H torsion

> <Gold.Protein.ActiveResidues>
 VAL166  LYS551  ARG553  GLY616  TRP617  ASP618  TYR619  PRO620  LYS621  CYS622 
 ASP623  PHE694  ASN695  SER759  ASP760  ASP761  ALA762  ILE779  LEU786  VAL792 
 PHE793  MET794  SER795  GLU796  ALA797  LYS798  CYS799  TRP800  GLU811  SER814 

> <Gold.Protein.RotatedAtoms>
  150.8507  134.7831  159.7006 H   0  0  0  0  0  0  0  0  0  0  0  0  # atno 6907 bound_to 6896
  152.4572  134.5261  159.9807 H   0  0  0  0  0  0  0  0  0  0  0  0  # atno 6908 bound_to 6896
  151.5383  133.3399  159.2966 H   0  0  0  0  0  0  0  0  0  0  0  0  # atno 6909 bound_to 6896
  146.1582  139.6725  142.9052 H   0  0  0  0  0  0  0  0  0  0  0  0  # atno 7974 bound_to 7965
  155.8140  140.3472  155.5474 H   0  0  0  0  0  0  0  0  0  0  0  0  # atno 8008 bound_to 7997
  155.8412  140.0942  157.1753 H   0  0  0  0  0  0  0  0  0  0  0  0  # atno 8009 bound_to 7997
  154.4005  140.1394  156.3718 H   0  0  0  0  0  0  0  0  0  0  0  0  # atno 8010 bound_to 7997
  139.8788  144.6451  150.8866 H   0  0  0  0  0  0  0  0  0  0  0  0  # atno 10167 bound_to 10162
  156.4453  130.4473  149.7025 H   0  0  0  0  0  0  0  0  0  0  0  0  # atno 10718 bound_to 10713
  154.6677  135.5297  153.8098 H   0  0  0  0  0  0  0  0  0  0  0  0  # atno 10763 bound_to 10752
  153.0481  135.6521  154.0774 H   0  0  0  0  0  0  0  0  0  0  0  0  # atno 10764 bound_to 10752
  154.0676  135.2957  155.3294 H   0  0  0  0  0  0  0  0  0  0  0  0  # atno 10765 bound_to 10752
  140.5434  134.0352  155.7912 H   0  0  0  0  0  0  0  0  0  0  0  0  # atno 11005 bound_to 11000
  145.4655  141.0434  143.2728 LP  0  0  0  0  0  0  0  0  0  0  0  0  # atno 17320 bound_to 7965
  144.7991  139.6175  143.7079 LP  0  0  0  0  0  0  0  0  0  0  0  0  # atno 17321 bound_to 7965
  140.7748  143.3602  151.1842 LP  0  0  0  0  0  0  0  0  0  0  0  0  # atno 17342 bound_to 10162
  139.7215  143.9216  152.2987 LP  0  0  0  0  0  0  0  0  0  0  0  0  # atno 17343 bound_to 10162
  156.3873  130.7609  151.2607 LP  0  0  0  0  0  0  0  0  0  0  0  0  # atno 17370 bound_to 10713
  157.7505  131.0278  150.4021 LP  0  0  0  0  0  0  0  0  0  0  0  0  # atno 17371 bound_to 10713
  141.1214  133.9455  157.2722 LP  0  0  0  0  0  0  0  0  0  0  0  0  # atno 17394 bound_to 11000
  139.9492  135.0178  156.8944 LP  0  0  0  0  0  0  0  0  0  0  0  0  # atno 17395 bound_to 11000

$$$$
