AV-unprocessed.smi:1112|AV-procd|sdf|4796|dock1
  -GOLD-   22720 3343D 1   1.00000     0.00000
 Structure written by MMmdl.
 49 51  0  0  0  0  0  0  0  0  1 V2000
  145.2670  138.2520  153.1793 O   0  0  0  0  0  0  0  0  0  0  0  0
  146.2993  137.5934  153.0554 C   0  0  0  0  0  0  0  0  0  0  0  0
  146.3206  136.3067  152.6789 N   0  0  0  0  0  0  0  0  0  0  0  0
  145.1563  135.4973  152.3212 C   0  0  0  0  0  0  0  0  0  0  0  0
  145.2067  134.9816  150.8576 C   0  0  0  0  0  0  0  0  0  0  0  0
  145.5490  136.0951  150.0537 O   0  0  0  0  0  0  0  0  0  0  0  0
  146.3403  133.9459  150.6610 C   0  0  0  0  0  0  0  0  0  0  0  0
  146.0093  132.5739  151.2791 C   0  0  0  0  0  0  0  0  0  0  0  0
  144.6671  132.0313  150.7637 C   0  0  0  0  0  0  0  0  0  0  0  0
  143.5342  133.0460  150.9785 C   0  0  0  0  0  0  0  0  0  0  0  0
  143.8730  134.3977  150.3275 C   0  0  0  0  0  0  0  0  0  0  0  0
  147.5418  138.0494  153.2864 N   0  0  0  0  0  0  0  0  0  0  0  0
  147.9525  139.3550  153.6839 C   0  0  0  0  0  0  0  0  0  0  0  0
  147.1395  140.5035  153.5200 C   0  0  0  0  0  0  0  0  0  0  0  0
  147.6344  141.7583  153.9205 C   0  0  0  0  0  0  0  0  0  0  0  0
  148.9300  141.8240  154.4628 C   0  0  0  0  0  0  0  0  0  0  0  0
  149.7229  140.7437  154.6119 N   0  0  0  0  0  0  0  0  0  0  0  0
  149.2506  139.5319  154.2289 C   0  0  0  0  0  0  0  0  0  0  0  0
  150.0989  138.4217  154.3916 N   0  0  0  0  0  0  0  0  0  0  0  0
  149.6429  137.4168  155.3374 C   0  0  0  0  0  0  0  0  0  0  0  0
  150.8652  136.5397  155.6189 C   0  0  0  0  0  0  0  0  0  0  0  0
  152.0706  137.4151  155.2546 C   0  0  0  0  0  0  0  0  0  0  0  0
  151.4674  138.7354  154.7673 C   0  0  0  0  0  0  0  0  0  0  0  0
  147.2182  135.8498  152.6113 H   0  0  0  0  0  0  0  0  0  0  0  0
  145.1005  134.6570  153.0145 H   0  0  0  0  0  0  0  0  0  0  0  0
  144.2433  136.0684  152.4880 H   0  0  0  0  0  0  0  0  0  0  0  0
  145.5033  135.8350  149.1462 H   0  0  0  0  0  0  0  0  0  0  0  0
  146.5221  133.8028  149.5944 H   0  0  0  0  0  0  0  0  0  0  0  0
  147.2758  134.3222  151.0771 H   0  0  0  0  0  0  0  0  0  0  0  0
  146.8044  131.8651  151.0473 H   0  0  0  0  0  0  0  0  0  0  0  0
  145.9803  132.6473  152.3660 H   0  0  0  0  0  0  0  0  0  0  0  0
  144.7510  131.7995  149.7012 H   0  0  0  0  0  0  0  0  0  0  0  0
  144.4275  131.0936  151.2659 H   0  0  0  0  0  0  0  0  0  0  0  0
  142.6054  132.6571  150.5606 H   0  0  0  0  0  0  0  0  0  0  0  0
  143.3577  133.1784  152.0458 H   0  0  0  0  0  0  0  0  0  0  0  0
  143.0485  135.0975  150.4651 H   0  0  0  0  0  0  0  0  0  0  0  0
  143.9488  134.2476  149.2493 H   0  0  0  0  0  0  0  0  0  0  0  0
  148.2823  137.3649  153.2338 H   0  0  0  0  0  0  0  0  0  0  0  0
  146.1548  140.4512  153.0822 H   0  0  0  0  0  0  0  0  0  0  0  0
  147.0367  142.6507  153.8087 H   0  0  0  0  0  0  0  0  0  0  0  0
  149.3442  142.7703  154.7783 H   0  0  0  0  0  0  0  0  0  0  0  0
  149.2985  137.8847  156.2606 H   0  0  0  0  0  0  0  0  0  0  0  0
  148.8174  136.8356  154.9255 H   0  0  0  0  0  0  0  0  0  0  0  0
  150.8908  136.2078  156.6573 H   0  0  0  0  0  0  0  0  0  0  0  0
  150.8471  135.6517  154.9861 H   0  0  0  0  0  0  0  0  0  0  0  0
  152.7402  137.5705  156.1009 H   0  0  0  0  0  0  0  0  0  0  0  0
  152.6460  136.9427  154.4577 H   0  0  0  0  0  0  0  0  0  0  0  0
  152.0227  139.1426  153.9218 H   0  0  0  0  0  0  0  0  0  0  0  0
  151.4849  139.4747  155.5694 H   0  0  0  0  0  0  0  0  0  0  0  0
  1  2  2  0  0  0  0
  2  3  1  0  0  0  0
  2 12  1  0  0  0  0
  3  4  1  0  0  0  0
  3 24  1  0  0  0  0
  4  5  1  0  0  0  0
  4 25  1  0  0  0  0
  4 26  1  0  0  0  0
  5 11  1  0  0  0  0
  5  6  1  0  0  0  0
  5  7  1  0  0  0  0
  6 27  1  0  0  0  0
  7  8  1  0  0  0  0
  7 28  1  0  0  0  0
  7 29  1  0  0  0  0
  8  9  1  0  0  0  0
  8 30  1  0  0  0  0
  8 31  1  0  0  0  0
  9 10  1  0  0  0  0
  9 32  1  0  0  0  0
  9 33  1  0  0  0  0
 10 11  1  0  0  0  0
 10 34  1  0  0  0  0
 10 35  1  0  0  0  0
 11 36  1  0  0  0  0
 11 37  1  0  0  0  0
 12 13  1  0  0  0  0
 12 38  1  0  0  0  0
 13 18  1  0  0  0  0
 13 14  2  0  0  0  0
 14 15  1  0  0  0  0
 14 39  1  0  0  0  0
 15 16  2  0  0  0  0
 15 40  1  0  0  0  0
 16 17  1  0  0  0  0
 16 41  1  0  0  0  0
 17 18  2  0  0  0  0
 18 19  1  0  0  0  0
 19 23  1  0  0  0  0
 19 20  1  0  0  0  0
 20 21  1  0  0  0  0
 20 42  1  0  0  0  0
 20 43  1  0  0  0  0
 21 22  1  0  0  0  0
 21 44  1  0  0  0  0
 21 45  1  0  0  0  0
 22 23  1  0  0  0  0
 22 46  1  0  0  0  0
 22 47  1  0  0  0  0
 23 48  1  0  0  0  0
 23 49  1  0  0  0  0
M  END
> <s_m_source_file>
AV-unprocessed.smi

> <i_m_source_file_index>
1112

> <i_lp_mmshare_version>
43012

> <i_f3d_flags>
0

> <s_epik_input>
W0NIMl0xW0NIMl1bQ0gyXVtDSDJdW0NIMl1DMShbT0hdKVtDSDJdW05IXUMoPU8pW05IXWMyW2NIXVtjSF1bY0hdbmMyTjNbQ0gyXVtDSDJdW0NIMl1bQ0gyXTM=

> <s_epik_cmdline>
J2VwaWtfcHl0aG9uJywgJy1waCcsICc3LjAnLCAnLXRuJywgJzgnLCAnLW1hJywgJzIwMCcsICctbWV0YWxfYmluZGluZycsICctaW1hZScsICc8aW5maWxlLm1hZT4nLCAnLW9tYWUnLCAnPG91dGZpbGUubWFlPic=

> <r_lp_tautomer_probability>
1

> <r_epik_Ionization_Penalty>
0.100401

> <r_epik_Ionization_Penalty_Charging>
0

> <r_epik_Ionization_Penalty_Neutral>
0.100401

> <r_epik_State_Penalty>
0.0898606

> <r_epik_Charging_Adjusted_Penalty>
0.0898606

> <i_epik_Tot_Q>
0

> <i_epik_Tot_abs_Q>
0

> <r_epik_Metal_State_Penalty>
0.0767935

> <b_epik_Metal_Only>
0

> <s_lp_Force_Field>
OPLS_2005

> <r_lp_Energy>
45.6108

> <b_lp_Chiralities_Consistent>
1

> <s_lp_Variant>
AV-unprocessed.smi:1112-1

> <Gold.Version>
5.8.1

> <Gold.Id.Protein>
6NUR|6NUR_protein|mol2

> <Gold.PLP.Fitness>
48.5267

> <Gold.PLP.PLP>
-37.6014

> <Gold.PLP.part.hbond>
-4.4784

> <Gold.PLP.part.metal>
0.0000

> <Gold.PLP.part.buried>
0.1719

> <Gold.PLP.part.nonpolar>
-33.2290

> <Gold.PLP.part.repulsive>
1.3762

> <Gold.PLP.ligand.clash>
0.0000

> <Gold.PLP.ligand.torsion>
0.2711

> <Gold.PLP.Chemscore.Hbond>
2.8120

> <Gold.PLP.Chemscore.CHOScore>
1.0000

> <Gold.PLP.Chemscore.Metal>
0.0000

> <Gold.Chemscore.Hbonds>
donor molecule, donor type, donor heavy atom, donor atom, acceptor molecule, acceptor atom, score
      L1  H     3    24       P1  7948  0.75
      L1  H     6    27       P1  7921  1.00
      L1  H    12    38       P1  7948  0.69
      P1  H  7989  7998       L1    17  0.41
      L1  C    16    41       P1  8028  1.00

> <Gold.PLP.Chemscore.Internal.Correction>
0.0316

> <Gold.Rescore>
     Score         DG    S(hbond)    S(metal)    S(lipo)     H(rot)  DE(clash)    DE(int)     intcor
     17.90     -20.74       2.44        0.00     101.90       1.89       0.25       2.59       ----

> <Gold.Chemscore.Fitness>
17.8981

> <Gold.Chemscore.DG>
-20.7352

> <Gold.Chemscore.ZeroCoef>
-5.4800

> <Gold.Chemscore.Hbond>
2.4439

> <Gold.Chemscore.Metal>
0.0000

> <Gold.Chemscore.Lipo>
101.8996

> <Gold.Chemscore.Internal_Hbond>
0.0000

> <Gold.Chemscore.DEClash>
0.2457

> <Gold.Chemscore.DEInternal>
2.5914

> <Gold.Chemscore.Rot>
1.8866

> <Gold.Chemscore.Internal.Correction>
   9.000000E+99

> <Gold.Chemscore.Hbonds>
donor molecule, donor type, donor heavy atom, donor atom, acceptor molecule, acceptor atom, score
      L1  H     3    24       P1  7948  0.76
      L1  H     6    27       P1  7921  0.96
      L1  H    12    38       P1  7948  0.68
      P1  H  7989  7998       L1    17  0.12

> <Gold.Chemscore.Hbond.Weighted>
-8.1627

> <Gold.Chemscore.Metal.Weighted>
-0.0000

> <Gold.Chemscore.Lipo.Weighted>
-11.9222

> <Gold.Chemscore.Internal_Hbond.Weighted>
0.0000

> <Gold.Chemscore.DEClash.Weighted>
0.2457

> <Gold.Chemscore.DEInternal.Weighted>
2.5914

> <Gold.Chemscore.Rot.Weighted>
4.8297

> <Gold.Chemscore.Internal.Correction.Weighted>
   9.000000E+99

> <Gold.Protein.RotatedTorsions>
[ 6907 6896 6895 6894 ] final  -38.89 input  -60.11 | X-H torsion
[ 7974 7965 7964 7962 ] final  155.38 input  175.53 | X-H torsion
[ 8008 7997 7996 7995 ] final  -46.63 input   59.86 | X-H torsion
[ 10167 10162 10161 10158 ] final -113.66 input  -65.29 | X-H torsion
[ 10718 10713 10712 10709 ] final -101.47 input   66.30 | X-H torsion
[ 10763 10752 10751 10750 ] final   -5.30 input  -60.55 | X-H torsion
[ 11005 11000 10999 10996 ] final  125.30 input  -57.11 | X-H torsion

> <Gold.Protein.ActiveResidues>
 VAL166  LYS551  ARG553  GLY616  TRP617  ASP618  TYR619  PRO620  LYS621  CYS622 
 ASP623  PHE694  ASN695  SER759  ASP760  ASP761  ALA762  ILE779  LEU786  VAL792 
 PHE793  MET794  SER795  GLU796  ALA797  LYS798  CYS799  TRP800  GLU811  SER814 

> <Gold.Protein.RotatedAtoms>
  150.9970  134.9291  159.7931 H   0  0  0  0  0  0  0  0  0  0  0  0  # atno 6907 bound_to 6896
  152.5267  134.3205  159.9157 H   0  0  0  0  0  0  0  0  0  0  0  0  # atno 6908 bound_to 6896
  151.3211  133.3998  159.2689 H   0  0  0  0  0  0  0  0  0  0  0  0  # atno 6909 bound_to 6896
  144.8028  139.7060  143.6174 H   0  0  0  0  0  0  0  0  0  0  0  0  # atno 7974 bound_to 7965
  154.4009  140.1367  156.4042 H   0  0  0  0  0  0  0  0  0  0  0  0  # atno 8008 bound_to 7997
  155.7795  140.3482  155.5269 H   0  0  0  0  0  0  0  0  0  0  0  0  # atno 8009 bound_to 7997
  155.8688  140.0968  157.1555 H   0  0  0  0  0  0  0  0  0  0  0  0  # atno 8010 bound_to 7997
  140.1094  143.4541  152.1762 H   0  0  0  0  0  0  0  0  0  0  0  0  # atno 10167 bound_to 10162
  156.0196  130.5375  150.6968 H   0  0  0  0  0  0  0  0  0  0  0  0  # atno 10718 bound_to 10713
  153.3966  135.7003  153.6456 H   0  0  0  0  0  0  0  0  0  0  0  0  # atno 10763 bound_to 10752
  153.5006  135.3653  155.2538 H   0  0  0  0  0  0  0  0  0  0  0  0  # atno 10764 bound_to 10752
  154.8707  135.4111  154.3293 H   0  0  0  0  0  0  0  0  0  0  0  0  # atno 10765 bound_to 10752
  139.9400  134.9636  156.8538 H   0  0  0  0  0  0  0  0  0  0  0  0  # atno 11005 bound_to 11000
  146.2314  139.5820  142.9553 LP  0  0  0  0  0  0  0  0  0  0  0  0  # atno 17320 bound_to 7965
  145.5510  141.0413  143.2278 LP  0  0  0  0  0  0  0  0  0  0  0  0  # atno 17321 bound_to 7965
  139.5627  144.7416  151.4108 LP  0  0  0  0  0  0  0  0  0  0  0  0  # atno 17342 bound_to 10162
  140.6934  143.7807  150.7289 LP  0  0  0  0  0  0  0  0  0  0  0  0  # atno 17343 bound_to 10162
  157.4637  131.0886  151.0718 LP  0  0  0  0  0  0  0  0  0  0  0  0  # atno 17370 bound_to 10713
  157.1198  130.6057  149.5502 LP  0  0  0  0  0  0  0  0  0  0  0  0  # atno 17371 bound_to 10713
  140.5977  134.0202  155.7524 LP  0  0  0  0  0  0  0  0  0  0  0  0  # atno 17394 bound_to 11000
  141.1030  133.9738  157.3046 LP  0  0  0  0  0  0  0  0  0  0  0  0  # atno 17395 bound_to 11000

$$$$
