#       Name:                AV-unprocessed.smi:1844
#       Creating user name   scv26
#       Creation time:       Fri Mar 27 09:21:50 2020


#       File generated by GOLD software.
#

@<TRIPOS>MOLECULE
AV-unprocessed.smi:1844
    51    52     1
SMALL
NO_CHARGES


@<TRIPOS>ATOM
      1 ****        -3.6241  -4.1370  -2.5747 C.3            1 S1                 0.0000
      2 ****        -3.2084  -2.7477  -2.4546 N.am           1 S1                 0.0000
      3 ****        -1.9402  -2.3201  -2.5687 C.2            1 S1                 0.0000
      4 ****        -1.0121  -3.0998  -2.7898 O.2            1 S1                 0.0000
      5 ****        -1.7866  -0.8724  -2.4055 C.2            1 S1                 0.0000
      6 ****        -2.9001   0.0199  -2.1183 C.2            1 S1                 0.0000
      7 ****        -2.6943   1.3410  -1.9512 C.2            1 S1                 0.0000
      8 ****        -1.3571   1.9330  -2.0503 C.2            1 S1                 0.0000
      9 ****        -1.1605   3.1351  -1.8727 O.2            1 S1                 0.0000
     10 ****        -0.3433   1.0636  -2.3436 N.am           1 S1                 0.0000
     11 ****         1.0499   1.5326  -2.4564 C.3            1 S1                 0.0000
     12 ****         1.8427   1.5097  -1.1378 C.2            1 S1                 0.0000
     13 ****         3.0108   1.8961  -1.1349 O.2            1 S1                 0.0000
     14 ****         1.2222   1.0564  -0.0353 N.am           1 S1                 0.0000
     15 ****         1.8190   0.9129   1.2887 C.3            1 S1                 0.0000
     16 ****         1.7835   2.2646   2.0323 C.3            1 S1                 0.0000
     17 ****         2.3467   2.1410   3.4554 C.3            1 S1                 0.0000
     18 ****         1.6040   1.0585   4.2508 C.3            1 S1                 0.0000
     19 ****         1.6460  -0.2912   3.5184 C.3            1 S1                 0.0000
     20 ****         1.0762  -0.1857   2.0894 C.3            1 S1                 0.0000
     21 ****         1.1100  -1.5558   1.3873 C.3            1 S1                 0.0000
     22 ****        -0.5633  -0.3178  -2.5102 C.2            1 S1                 0.0000
     23 ****        -4.7056  -4.2121  -2.4613 H              1 S1                 0.0000
     24 ****        -3.1566  -4.7501  -1.8030 H              1 S1                 0.0000
     25 ****        -3.3551  -4.5408  -3.5517 H              1 S1                 0.0000
     26 ****        -3.9298  -2.0646  -2.2740 H              1 S1                 0.0000
     27 ****        -3.9107  -0.3513  -2.0336 H              1 S1                 0.0000
     28 ****        -3.5364   1.9830  -1.7385 H              1 S1                 0.0000
     29 ****         1.5857   0.9188  -3.1819 H              1 S1                 0.0000
     30 ****         1.0881   2.5437  -2.8653 H              1 S1                 0.0000
     31 ****         0.2612   0.7612  -0.1280 H              1 S1                 0.0000
     32 ****         2.8602   0.6043   1.1739 H              1 S1                 0.0000
     33 ****         2.3534   3.0136   1.4813 H              1 S1                 0.0000
     34 ****         0.7576   2.6327   2.0801 H              1 S1                 0.0000
     35 ****         3.4088   1.8979   3.4082 H              1 S1                 0.0000
     36 ****         2.2713   3.0993   3.9698 H              1 S1                 0.0000
     37 ****         2.0459   0.9567   5.2424 H              1 S1                 0.0000
     38 ****         0.5676   1.3617   4.4033 H              1 S1                 0.0000
     39 ****         2.6755  -0.6497   3.4783 H              1 S1                 0.0000
     40 ****         1.0854  -1.0315   4.0903 H              1 S1                 0.0000
     41 ****         0.0289   0.1089   2.1747 H              1 S1                 0.0000
     42 ****         2.1346  -1.8971   1.2371 H              1 S1                 0.0000
     43 ****         0.6232  -1.5237   0.4121 H              1 S1                 0.0000
     44 ****         0.5925  -2.3110   1.9793 H              1 S1                 0.0000
     45 ****         0.3334  -0.8878  -2.7115 H              1 S1                 0.0000
     46 ****        -1.1938  -4.0781  -2.8889 LP             1 S1                 0.0000
     47 ****        -0.0771  -2.7542  -2.8701 LP             1 S1                 0.0000
     48 ****        -1.9261   3.7399  -1.6533 LP             1 S1                 0.0000
     49 ****        -0.2352   3.5069  -1.9478 LP             1 S1                 0.0000
     50 ****         3.4326   2.2194  -1.9820 LP             1 S1                 0.0000
     51 ****         3.5384   1.8869  -0.2854 LP             1 S1                 0.0000
@<TRIPOS>BOND
    1    1    2 1     
    2    1   23 1     
    3    1   24 1     
    4    1   25 1     
    5    2    3 am    
    6    2   26 1     
    7    3    4 2     
    8    3    5 1     
    9    5   22 2     
   10    5    6 1     
   11    6    7 2     
   12    6   27 1     
   13    7    8 1     
   14    7   28 1     
   15    8    9 2     
   16    8   10 am    
   17   10   11 1     
   18   10   22 1     
   19   11   12 1     
   20   11   29 1     
   21   11   30 1     
   22   12   13 2     
   23   12   14 am    
   24   14   15 1     
   25   14   31 1     
   26   15   20 1     
   27   15   16 1     
   28   15   32 1     
   29   16   17 1     
   30   16   33 1     
   31   16   34 1     
   32   17   18 1     
   33   17   35 1     
   34   17   36 1     
   35   18   19 1     
   36   18   37 1     
   37   18   38 1     
   38   19   20 1     
   39   19   39 1     
   40   19   40 1     
   41   20   21 1     
   42   20   41 1     
   43   21   42 1     
   44   21   43 1     
   45   21   44 1     
   46   22   45 1     
   47    4   46 1     
   48    4   47 1     
   49    9   48 1     
   50    9   49 1     
   51   13   50 1     
   52   13   51 1     
@<TRIPOS>SUBSTRUCTURE
      1 S1             1
@<TRIPOS>SET
LONE_PAIRS      STATIC     ATOMS    <user>   **** ""
6 46 47 48 49 50 51
DONOR_HYDROGENS      STATIC     ATOMS    <user>   **** ""
2 26 31
ATOM$BLUE        STATIC     ATOMS    COLORGROUP SYSTEM
6 46 47 48 49 50 51
ATOM$RED        STATIC     ATOMS    COLORGROUP SYSTEM
2 26 31
