AV-unprocessed.smi:3166|AV-procd|sdf|12096|dock6
  -GOLD-   2272017533D 1   1.00000     0.00000
 Structure written by MMmdl.
 40 41  0  0  0  0  0  0  0  0  1 V2000
  148.1266  140.7301  156.6225 C   0  0  0  0  0  0  0  0  0  0  0  0
  148.7751  141.0610  155.2690 C   0  0  1  0  0  0  0  0  0  0  0  0
  147.7277  141.3923  154.1761 C   0  0  0  0  0  0  0  0  0  0  0  0
  146.9180  140.2521  153.7755 N   0  0  0  0  0  0  0  0  0  0  0  0
  146.8454  139.6453  152.5387 C   0  0  0  0  0  0  0  0  0  0  0  0
  145.9557  138.6150  152.6414 C   0  0  0  0  0  0  0  0  0  0  0  0
  145.5327  138.6686  153.9987 C   0  0  0  0  0  0  0  0  0  0  0  0
  146.1133  139.6457  154.6761 N   0  0  0  0  0  0  0  0  0  0  0  0
  149.7654  142.1271  155.4541 N   0  0  0  0  0  0  0  0  0  0  0  0
  150.8859  141.8066  156.3416 C   0  0  0  0  0  0  0  0  0  0  0  0
  150.9610  142.7539  157.5604 C   0  0  0  0  0  0  0  0  0  0  0  0
  149.6315  143.1177  157.8876 O   0  0  0  0  0  0  0  0  0  0  0  0
  151.5465  141.9880  158.7706 C   0  0  0  0  0  0  0  0  0  0  0  0
  151.7468  142.8783  160.0104 C   0  0  0  0  0  0  0  0  0  0  0  0
  152.6094  144.1042  159.6814 C   0  0  0  0  0  0  0  0  0  0  0  0
  152.0022  144.9052  158.5215 C   0  0  0  0  0  0  0  0  0  0  0  0
  151.8006  144.0256  157.2745 C   0  0  0  0  0  0  0  0  0  0  0  0
  147.3934  139.9299  156.5197 H   0  0  0  0  0  0  0  0  0  0  0  0
  147.6182  141.5949  157.0503 H   0  0  0  0  0  0  0  0  0  0  0  0
  148.8742  140.3990  157.3438 H   0  0  0  0  0  0  0  0  0  0  0  0
  149.3013  140.1619  154.9462 H   0  0  0  0  0  0  0  0  0  0  0  0
  147.0620  142.1955  154.4909 H   0  0  0  0  0  0  0  0  0  0  0  0
  148.2408  141.7745  153.2920 H   0  0  0  0  0  0  0  0  0  0  0  0
  147.4252  139.9950  151.6975 H   0  0  0  0  0  0  0  0  0  0  0  0
  145.6532  137.9277  151.8653 H   0  0  0  0  0  0  0  0  0  0  0  0
  144.8272  138.0296  154.5093 H   0  0  0  0  0  0  0  0  0  0  0  0
  149.3030  142.9656  155.7916 H   0  0  0  0  0  0  0  0  0  0  0  0
  150.8038  140.7749  156.6866 H   0  0  0  0  0  0  0  0  0  0  0  0
  151.8243  141.8729  155.7925 H   0  0  0  0  0  0  0  0  0  0  0  0
  149.3613  143.8126  157.3070 H   0  0  0  0  0  0  0  0  0  0  0  0
  150.9092  141.1403  159.0269 H   0  0  0  0  0  0  0  0  0  0  0  0
  152.5121  141.5630  158.4924 H   0  0  0  0  0  0  0  0  0  0  0  0
  150.7792  143.2024  160.3953 H   0  0  0  0  0  0  0  0  0  0  0  0
  152.2147  142.3002  160.8077 H   0  0  0  0  0  0  0  0  0  0  0  0
  152.7060  144.7392  160.5626 H   0  0  0  0  0  0  0  0  0  0  0  0
  153.6181  143.7839  159.4176 H   0  0  0  0  0  0  0  0  0  0  0  0
  151.0473  145.3316  158.8311 H   0  0  0  0  0  0  0  0  0  0  0  0
  152.6483  145.7488  158.2769 H   0  0  0  0  0  0  0  0  0  0  0  0
  152.7786  143.7293  156.8931 H   0  0  0  0  0  0  0  0  0  0  0  0
  151.3392  144.6244  156.4887 H   0  0  0  0  0  0  0  0  0  0  0  0
  1  2  1  0  0  0  0
  1 18  1  0  0  0  0
  1 19  1  0  0  0  0
  1 20  1  0  0  0  0
  2  3  1  0  0  0  0
  2  9  1  0  0  0  0
  2 21  1  0  0  0  0
  3  4  1  0  0  0  0
  3 22  1  0  0  0  0
  3 23  1  0  0  0  0
  4  8  1  0  0  0  0
  4  5  1  0  0  0  0
  5  6  2  0  0  0  0
  5 24  1  0  0  0  0
  6  7  1  0  0  0  0
  6 25  1  0  0  0  0
  7  8  2  0  0  0  0
  7 26  1  0  0  0  0
  9 10  1  0  0  0  0
  9 27  1  0  0  0  0
 10 11  1  0  0  0  0
 10 28  1  0  0  0  0
 10 29  1  0  0  0  0
 11 17  1  0  0  0  0
 11 12  1  0  0  0  0
 11 13  1  0  0  0  0
 12 30  1  0  0  0  0
 13 14  1  0  0  0  0
 13 31  1  0  0  0  0
 13 32  1  0  0  0  0
 14 15  1  0  0  0  0
 14 33  1  0  0  0  0
 14 34  1  0  0  0  0
 15 16  1  0  0  0  0
 15 35  1  0  0  0  0
 15 36  1  0  0  0  0
 16 17  1  0  0  0  0
 16 37  1  0  0  0  0
 16 38  1  0  0  0  0
 17 39  1  0  0  0  0
 17 40  1  0  0  0  0
M  END
> <s_m_source_file>
AV-unprocessed.smi

> <i_m_source_file_index>
3166

> <i_lp_mmshare_version>
43012

> <i_f3d_flags>
0

> <s_epik_input>
bjFbY0hdW2NIXVtjSF1uMVtDSDJdW0NAQEhdKFtDSDNdKVtOSF1bQ0gyXUMyKFtPSF0pW0NIMl1bQ0gyXVtDSDJdW0NIMl1bQ0gyXTI=

> <s_epik_cmdline>
J2VwaWtfcHl0aG9uJywgJy1waCcsICc3LjAnLCAnLXRuJywgJzgnLCAnLW1hJywgJzIwMCcsICctbWV0YWxfYmluZGluZycsICctaW1hZScsICc8aW5maWxlLm1hZT4nLCAnLW9tYWUnLCAnPG91dGZpbGUubWFlPic=

> <r_lp_tautomer_probability>
1

> <r_epik_Ionization_Penalty>
2.35964

> <r_epik_Ionization_Penalty_Charging>
0

> <r_epik_Ionization_Penalty_Neutral>
2.35964

> <r_epik_State_Penalty>
2.51455

> <r_epik_Charging_Adjusted_Penalty>
2.51455

> <i_epik_Tot_Q>
0

> <i_epik_Tot_abs_Q>
0

> <r_epik_Metal_State_Penalty>
2.51451

> <b_epik_Metal_Only>
0

> <s_lp_Force_Field>
OPLS_2005

> <r_lp_Energy>
22.3921

> <b_lp_Chiralities_Consistent>
1

> <s_lp_Variant>
AV-unprocessed.smi:3166-4

> <Gold.Version>
5.8.1

> <Gold.Id.Protein>
6NUR|6NUR_protein|mol2

> <Gold.PLP.Fitness>
42.5309

> <Gold.PLP.PLP>
-36.0836

> <Gold.PLP.part.hbond>
-2.0000

> <Gold.PLP.part.metal>
0.0000

> <Gold.PLP.part.buried>
-1.7606

> <Gold.PLP.part.nonpolar>
-32.6229

> <Gold.PLP.part.repulsive>
0.0950

> <Gold.PLP.ligand.clash>
0.0000

> <Gold.PLP.ligand.torsion>
0.9938

> <Gold.PLP.Chemscore.Hbond>
1.8640

> <Gold.PLP.Chemscore.CHOScore>
0.9362

> <Gold.PLP.Chemscore.Metal>
0.0000

> <Gold.Chemscore.Hbonds>
donor molecule, donor type, donor heavy atom, donor atom, acceptor molecule, acceptor atom, score
      L1  H     9    27       P1  8028  1.00
      L1  H    12    30       P1  8028  1.00
      L1  C     5    24       P1  7957  1.00

> <Gold.PLP.Chemscore.Internal.Correction>
0.0342

> <Gold.Rescore>
     Score         DG    S(hbond)    S(metal)    S(lipo)     H(rot)  DE(clash)    DE(int)     intcor
     17.48     -18.91       1.81        0.00     109.42       2.12       0.12       1.32       ----

> <Gold.Chemscore.Fitness>
17.4789

> <Gold.Chemscore.DG>
-18.9115

> <Gold.Chemscore.ZeroCoef>
-5.4800

> <Gold.Chemscore.Hbond>
1.8142

> <Gold.Chemscore.Metal>
0.0000

> <Gold.Chemscore.Lipo>
109.4155

> <Gold.Chemscore.Internal_Hbond>
0.0000

> <Gold.Chemscore.DEClash>
0.1167

> <Gold.Chemscore.DEInternal>
1.3159

> <Gold.Chemscore.Rot>
2.1209

> <Gold.Chemscore.Internal.Correction>
   9.000000E+99

> <Gold.Chemscore.Hbonds>
donor molecule, donor type, donor heavy atom, donor atom, acceptor molecule, acceptor atom, score
      L1  H     9    27       P1  8028  0.96
      L1  H    12    30       P1  8028  0.44

> <Gold.Chemscore.Hbond.Weighted>
-6.0595

> <Gold.Chemscore.Metal.Weighted>
-0.0000

> <Gold.Chemscore.Lipo.Weighted>
-12.8016

> <Gold.Chemscore.Internal_Hbond.Weighted>
0.0000

> <Gold.Chemscore.DEClash.Weighted>
0.1167

> <Gold.Chemscore.DEInternal.Weighted>
1.3159

> <Gold.Chemscore.Rot.Weighted>
5.4296

> <Gold.Chemscore.Internal.Correction.Weighted>
   9.000000E+99

> <Gold.Protein.RotatedTorsions>
[ 6907 6896 6895 6894 ] final  172.58 input  -60.11 | X-H torsion
[ 7974 7965 7964 7962 ] final   97.89 input  175.53 | X-H torsion
[ 8008 7997 7996 7995 ] final  175.51 input   59.86 | X-H torsion
[ 10167 10162 10161 10158 ] final  143.19 input  -65.29 | X-H torsion
[ 10718 10713 10712 10709 ] final   20.26 input   66.30 | X-H torsion
[ 10763 10752 10751 10750 ] final  -28.62 input  -60.55 | X-H torsion
[ 11005 11000 10999 10996 ] final  -93.08 input  -57.11 | X-H torsion

> <Gold.Protein.ActiveResidues>
 VAL166  LYS551  ARG553  GLY616  TRP617  ASP618  TYR619  PRO620  LYS621  CYS622 
 ASP623  PHE694  ASN695  SER759  ASP760  ASP761  ALA762  ILE779  LEU786  VAL792 
 PHE793  MET794  SER795  GLU796  ALA797  LYS798  CYS799  TRP800  GLU811  SER814 

> <Gold.Protein.RotatedAtoms>
  151.7820  133.3350  159.3474 H   0  0  0  0  0  0  0  0  0  0  0  0  # atno 6907 bound_to 6896
  150.7422  134.5922  159.6002 H   0  0  0  0  0  0  0  0  0  0  0  0  # atno 6908 bound_to 6896
  152.3269  134.7310  160.0351 H   0  0  0  0  0  0  0  0  0  0  0  0  # atno 6909 bound_to 6896
  145.4195  139.2323  143.3204 H   0  0  0  0  0  0  0  0  0  0  0  0  # atno 7974 bound_to 7965
  156.0863  140.1407  156.9649 H   0  0  0  0  0  0  0  0  0  0  0  0  # atno 8008 bound_to 7997
  154.4614  140.0942  156.6952 H   0  0  0  0  0  0  0  0  0  0  0  0  # atno 8009 bound_to 7997
  155.4994  140.3450  155.4370 H   0  0  0  0  0  0  0  0  0  0  0  0  # atno 8010 bound_to 7997
  139.4975  144.6057  151.6384 H   0  0  0  0  0  0  0  0  0  0  0  0  # atno 10167 bound_to 10162
  157.1220  130.6553  149.5926 H   0  0  0  0  0  0  0  0  0  0  0  0  # atno 10718 bound_to 10713
  153.7512  135.6926  153.4945 H   0  0  0  0  0  0  0  0  0  0  0  0  # atno 10763 bound_to 10752
  153.2002  135.4439  155.0255 H   0  0  0  0  0  0  0  0  0  0  0  0  # atno 10764 bound_to 10752
  154.8186  135.3411  154.7033 H   0  0  0  0  0  0  0  0  0  0  0  0  # atno 10765 bound_to 10752
  141.1506  133.7863  157.0109 H   0  0  0  0  0  0  0  0  0  0  0  0  # atno 11005 bound_to 11000
  146.2664  140.4918  142.8832 LP  0  0  0  0  0  0  0  0  0  0  0  0  # atno 17320 bound_to 7965
  144.8254  140.6620  143.6325 LP  0  0  0  0  0  0  0  0  0  0  0  0  # atno 17321 bound_to 7965
  140.5718  144.0096  150.6220 LP  0  0  0  0  0  0  0  0  0  0  0  0  # atno 17342 bound_to 10162
  140.3216  143.3133  152.0778 LP  0  0  0  0  0  0  0  0  0  0  0  0  # atno 17343 bound_to 10162
  155.9826  130.4841  150.6892 LP  0  0  0  0  0  0  0  0  0  0  0  0  # atno 17370 bound_to 10713
  157.4468  131.0868  151.0887 LP  0  0  0  0  0  0  0  0  0  0  0  0  # atno 17371 bound_to 10713
  140.0878  134.9610  157.1728 LP  0  0  0  0  0  0  0  0  0  0  0  0  # atno 17394 bound_to 11000
  140.3487  134.2622  155.7201 LP  0  0  0  0  0  0  0  0  0  0  0  0  # atno 17395 bound_to 11000

$$$$
