#       Name:                AV-unprocessed.smi:3095
#       Creating user name   scv26
#       Creation time:       Fri Mar 27 17:17:00 2020


#       File generated by GOLD software.
#

@<TRIPOS>MOLECULE
AV-unprocessed.smi:3095
    28    29     1
SMALL
NO_CHARGES


@<TRIPOS>ATOM
      1 ****        -3.6491   2.1345   0.2897 C.3            1 S1                 0.0000
      2 ****        -2.1530   2.1388   0.3229 C.2            1 S1                 0.0000
      3 ****        -1.3327   3.2376   0.3771 C.2            1 S1                 0.0000
      4 ****         0.3508   2.7907   0.3970 S.3            1 S1                 0.0000
      5 ****        -0.1276   1.0976   0.3479 C.2            1 S1                 0.0000
      6 ****         0.8624  -0.0226   0.3034 C.3            1 S1                 0.0000
      7 ****         1.2135  -0.4426  -1.1364 C.3            1 S1                 0.0000
      8 ****         2.1289  -1.6002  -1.1130 N.4            1 S1                 1.0000
      9 ****         1.5717  -2.7160  -0.3228 C.3            1 S1                 0.0000
     10 ****         1.1926  -2.2308   1.0879 C.3            1 S1                 0.0000
     11 ****         0.2919  -1.1318   0.9945 O.3            1 S1                 0.0000
     12 ****        -1.4531   0.9291   0.2955 N.2            1 S1                 0.0000
     13 ****        -4.0509   3.1481   0.2822 H              1 S1                 0.0000
     14 ****        -4.0609   1.6245   1.1607 H              1 S1                 0.0000
     15 ****        -4.0228   1.6263  -0.5994 H              1 S1                 0.0000
     16 ****        -1.6161   4.2797   0.4039 H              1 S1                 0.0000
     17 ****         1.7623   0.3029   0.8284 H              1 S1                 0.0000
     18 ****         0.3109  -0.7122  -1.6871 H              1 S1                 0.0000
     19 ****         1.6863   0.3795  -1.6743 H              1 S1                 0.0000
     20 ****         2.3034  -1.9110  -2.0582 H              1 S1                 0.0000
     21 ****         0.6931  -3.1130  -0.8331 H              1 S1                 0.0000
     22 ****         2.3042  -3.5217  -0.2680 H              1 S1                 0.0000
     23 ****         0.7123  -3.0351   1.6454 H              1 S1                 0.0000
     24 ****         2.0806  -1.9389   1.6510 H              1 S1                 0.0000
     25 ****         3.0022  -1.3127  -0.6946 H              1 S1                 0.0000
     26 ****        -0.5281  -1.4286   0.5050 LP             1 S1                 0.0000
     27 ****         0.0419  -0.8413   1.9181 LP             1 S1                 0.0000
     28 ****        -1.8960   0.0341   0.2424 LP             1 S1                 0.0000
@<TRIPOS>BOND
    1    1    2 1     
    2    1   13 1     
    3    1   14 1     
    4    1   15 1     
    5    2   12 1     
    6    2    3 2     
    7    3    4 1     
    8    3   16 1     
    9    4    5 1     
   10    5    6 1     
   11    5   12 2     
   12    6   11 1     
   13    6    7 1     
   14    6   17 1     
   15    7    8 1     
   16    7   18 1     
   17    7   19 1     
   18    8    9 1     
   19    8   20 1     
   20    8   25 1     
   21    9   10 1     
   22    9   21 1     
   23    9   22 1     
   24   10   11 1     
   25   10   23 1     
   26   10   24 1     
   27   11   26 1     
   28   11   27 1     
   29   12   28 1     
@<TRIPOS>SUBSTRUCTURE
      1 S1             1
@<TRIPOS>SET
LONE_PAIRS      STATIC     ATOMS    <user>   **** ""
3 26 27 28
DONOR_HYDROGENS      STATIC     ATOMS    <user>   **** ""
2 20 25
ATOM$BLUE        STATIC     ATOMS    COLORGROUP SYSTEM
3 26 27 28
ATOM$RED        STATIC     ATOMS    COLORGROUP SYSTEM
2 20 25
