AV-unprocessed.smi:664|AV-procd|sdf|3252|dock1
  -GOLD-   22720 0203D 1   1.00000     0.00000
 Structure written by MMmdl.
 31 32  0  0  0  0  0  0  0  0  1 V2000
  148.2862  139.7753  153.9803 C   0  0  0  0  0  0  0  0  0  0  0  0
  149.6312  139.5493  154.6044 C   0  0  0  0  0  0  0  0  0  0  0  0
  150.6008  138.6116  154.0717 C   0  0  0  0  0  0  0  0  0  0  0  0
  151.7911  138.4660  154.6926 C   0  0  0  0  0  0  0  0  0  0  0  0
  152.1282  139.2254  155.8948 C   0  0  0  0  0  0  0  0  0  0  0  0
  153.2004  139.1108  156.4880 O   0  0  0  0  0  0  0  0  0  0  0  0
  151.1366  140.0679  156.3078 N   0  0  0  0  0  0  0  0  0  0  0  0
  151.2879  140.8734  157.5275 C   0  0  0  0  0  0  0  0  0  0  0  0
  151.0663  142.3841  157.2805 C   0  0  1  0  0  0  0  0  0  0  0  0
  149.7252  142.5801  156.8809 O   0  0  0  0  0  0  0  0  0  0  0  0
  151.4414  143.2410  158.4830 C   0  0  0  0  0  0  0  0  0  0  0  0
  151.2889  144.6445  158.4415 C   0  0  0  0  0  0  0  0  0  0  0  0
  151.6068  145.4262  159.5689 C   0  0  0  0  0  0  0  0  0  0  0  0
  152.0760  144.8095  160.7445 C   0  0  0  0  0  0  0  0  0  0  0  0
  152.2279  143.4103  160.7923 C   0  0  0  0  0  0  0  0  0  0  0  0
  152.7929  142.6517  162.2349 Cl  0  0  0  0  0  0  0  0  0  0  0  0
  151.9134  142.6288  159.6639 C   0  0  0  0  0  0  0  0  0  0  0  0
  149.9201  140.2291  155.6649 N   0  0  0  0  0  0  0  0  0  0  0  0
  148.2038  139.2594  153.0234 H   0  0  0  0  0  0  0  0  0  0  0  0
  148.1120  140.8369  153.8019 H   0  0  0  0  0  0  0  0  0  0  0  0
  147.4921  139.4062  154.6298 H   0  0  0  0  0  0  0  0  0  0  0  0
  150.3656  138.0408  153.1855 H   0  0  0  0  0  0  0  0  0  0  0  0
  152.5124  137.7680  154.2943 H   0  0  0  0  0  0  0  0  0  0  0  0
  150.6061  140.5142  158.3006 H   0  0  0  0  0  0  0  0  0  0  0  0
  152.2894  140.7195  157.9347 H   0  0  0  0  0  0  0  0  0  0  0  0
  151.6846  142.6956  156.4377 H   0  0  0  0  0  0  0  0  0  0  0  0
  149.6909  143.3310  156.3082 H   0  0  0  0  0  0  0  0  0  0  0  0
  150.9189  145.1246  157.5474 H   0  0  0  0  0  0  0  0  0  0  0  0
  151.4860  146.4988  159.5335 H   0  0  0  0  0  0  0  0  0  0  0  0
  152.3159  145.4106  161.6093 H   0  0  0  0  0  0  0  0  0  0  0  0
  152.0233  141.5552  159.7108 H   0  0  0  0  0  0  0  0  0  0  0  0
  1  2  1  0  0  0  0
  1 19  1  0  0  0  0
  1 20  1  0  0  0  0
  1 21  1  0  0  0  0
  2 18  2  0  0  0  0
  2  3  1  0  0  0  0
  3  4  2  0  0  0  0
  3 22  1  0  0  0  0
  4  5  1  0  0  0  0
  4 23  1  0  0  0  0
  5  6  2  0  0  0  0
  5  7  1  0  0  0  0
  7  8  1  0  0  0  0
  7 18  1  0  0  0  0
  8  9  1  0  0  0  0
  8 24  1  0  0  0  0
  8 25  1  0  0  0  0
  9 10  1  0  0  0  0
  9 11  1  0  0  0  0
  9 26  1  0  0  0  0
 10 27  1  0  0  0  0
 11 17  1  0  0  0  0
 11 12  2  0  0  0  0
 12 13  1  0  0  0  0
 12 28  1  0  0  0  0
 13 14  2  0  0  0  0
 13 29  1  0  0  0  0
 14 15  1  0  0  0  0
 14 30  1  0  0  0  0
 15 16  1  0  0  0  0
 15 17  2  0  0  0  0
 17 31  1  0  0  0  0
M  END
> <s_m_source_file>
AV-unprocessed.smi

> <i_m_source_file_index>
664

> <i_lp_mmshare_version>
43012

> <i_f3d_flags>
0

> <s_epik_input>
W0NIM11jMVtjSF1bY0hdYyg9TyluKG4xKVtDSDJdW0NASF0oW09IXSljMltjSF1bY0hdW2NIXWMoQ2wpW2NIXTI=

> <s_epik_cmdline>
J2VwaWtfcHl0aG9uJywgJy1waCcsICc3LjAnLCAnLXRuJywgJzgnLCAnLW1hJywgJzIwMCcsICctbWV0YWxfYmluZGluZycsICctaW1hZScsICc8aW5maWxlLm1hZT4nLCAnLW9tYWUnLCAnPG91dGZpbGUubWFlPic=

> <r_lp_tautomer_probability>
1

> <r_epik_Ionization_Penalty>
5.38844e-06

> <r_epik_Ionization_Penalty_Charging>
5.19536e-06

> <r_epik_Ionization_Penalty_Neutral>
1.93084e-07

> <r_epik_State_Penalty>
-0

> <r_epik_Charging_Adjusted_Penalty>
5.19536e-06

> <i_epik_Tot_Q>
0

> <i_epik_Tot_abs_Q>
0

> <r_epik_Metal_State_Penalty>
-0

> <b_epik_Metal_Only>
0

> <s_lp_Force_Field>
OPLS_2005

> <r_lp_Energy>
22.784

> <b_lp_Chiralities_Consistent>
1

> <s_lp_Variant>
AV-unprocessed.smi:664-2

> <Gold.Version>
5.8.1

> <Gold.Id.Protein>
6NUR|6NUR_protein|mol2

> <Gold.PLP.Fitness>
53.6732

> <Gold.PLP.PLP>
-47.7728

> <Gold.PLP.part.hbond>
-1.8905

> <Gold.PLP.part.metal>
0.0000

> <Gold.PLP.part.buried>
-6.5268

> <Gold.PLP.part.nonpolar>
-40.6362

> <Gold.PLP.part.repulsive>
0.0392

> <Gold.PLP.ligand.clash>
0.0000

> <Gold.PLP.ligand.torsion>
0.0602

> <Gold.PLP.Chemscore.Hbond>
2.0000

> <Gold.PLP.Chemscore.CHOScore>
0.0000

> <Gold.PLP.Chemscore.Metal>
0.0000

> <Gold.Chemscore.Hbonds>
donor molecule, donor type, donor heavy atom, donor atom, acceptor molecule, acceptor atom, score
      L1  H    10    27       P1  8028  1.00
      P1  H  7997  8008       L1     6  0.99

> <Gold.PLP.Chemscore.Internal.Correction>
0.0208

> <Gold.Rescore>
     Score         DG    S(hbond)    S(metal)    S(lipo)     H(rot)  DE(clash)    DE(int)     intcor
     20.26     -21.92       1.98        0.00     124.28       1.84       0.04       1.62       ----

> <Gold.Chemscore.Fitness>
20.2615

> <Gold.Chemscore.DG>
-21.9212

> <Gold.Chemscore.ZeroCoef>
-5.4800

> <Gold.Chemscore.Hbond>
1.9792

> <Gold.Chemscore.Metal>
0.0000

> <Gold.Chemscore.Lipo>
124.2823

> <Gold.Chemscore.Internal_Hbond>
0.0000

> <Gold.Chemscore.DEClash>
0.0392

> <Gold.Chemscore.DEInternal>
1.6205

> <Gold.Chemscore.Rot>
1.8400

> <Gold.Chemscore.Internal.Correction>
   9.000000E+99

> <Gold.Chemscore.Hbonds>
donor molecule, donor type, donor heavy atom, donor atom, acceptor molecule, acceptor atom, score
      L1  H    10    27       P1  8028  0.96
      P1  H  7997  8008       L1     6  0.91

> <Gold.Chemscore.Hbond.Weighted>
-6.6106

> <Gold.Chemscore.Metal.Weighted>
-0.0000

> <Gold.Chemscore.Lipo.Weighted>
-14.5410

> <Gold.Chemscore.Internal_Hbond.Weighted>
0.0000

> <Gold.Chemscore.DEClash.Weighted>
0.0392

> <Gold.Chemscore.DEInternal.Weighted>
1.6205

> <Gold.Chemscore.Rot.Weighted>
4.7105

> <Gold.Chemscore.Internal.Correction.Weighted>
   9.000000E+99

> <Gold.Protein.RotatedTorsions>
[ 6907 6896 6895 6894 ] final    3.42 input  -60.11 | X-H torsion
[ 7974 7965 7964 7962 ] final  -48.78 input  175.53 | X-H torsion
[ 8008 7997 7996 7995 ] final  -42.11 input   59.86 | X-H torsion
[ 10167 10162 10161 10158 ] final -160.49 input  -65.29 | X-H torsion
[ 10718 10713 10712 10709 ] final  175.54 input   66.30 | X-H torsion
[ 10763 10752 10751 10750 ] final   65.10 input  -60.55 | X-H torsion
[ 11005 11000 10999 10996 ] final   36.87 input  -57.11 | X-H torsion

> <Gold.Protein.ActiveResidues>
 VAL166  LYS551  ARG553  GLY616  TRP617  ASP618  TYR619  PRO620  LYS621  CYS622 
 ASP623  PHE694  ASN695  SER759  ASP760  ASP761  ALA762  ILE779  LEU786  VAL792 
 PHE793  MET794  SER795  GLU796  ALA797  LYS798  CYS799  TRP800  GLU811  SER814 

> <Gold.Protein.RotatedAtoms>
  151.6247  135.1029  160.0108 H   0  0  0  0  0  0  0  0  0  0  0  0  # atno 6907 bound_to 6896
  152.4138  133.7002  159.6430 H   0  0  0  0  0  0  0  0  0  0  0  0  # atno 6908 bound_to 6896
  150.8027  133.8493  159.3242 H   0  0  0  0  0  0  0  0  0  0  0  0  # atno 6909 bound_to 6896
  145.9475  140.7604  142.9521 H   0  0  0  0  0  0  0  0  0  0  0  0  # atno 7974 bound_to 7965
  154.4000  140.1482  156.3301 H   0  0  0  0  0  0  0  0  0  0  0  0  # atno 8008 bound_to 7997
  155.8451  140.3460  155.5636 H   0  0  0  0  0  0  0  0  0  0  0  0  # atno 8009 bound_to 7997
  155.8045  140.0875  157.1929 H   0  0  0  0  0  0  0  0  0  0  0  0  # atno 8010 bound_to 7997
  139.6535  144.0040  152.2178 H   0  0  0  0  0  0  0  0  0  0  0  0  # atno 10167 bound_to 10162
  156.9333  130.9978  151.2983 H   0  0  0  0  0  0  0  0  0  0  0  0  # atno 10718 bound_to 10713
  153.0082  135.5369  154.6615 H   0  0  0  0  0  0  0  0  0  0  0  0  # atno 10763 bound_to 10752
  154.5822  135.2851  155.0723 H   0  0  0  0  0  0  0  0  0  0  0  0  # atno 10764 bound_to 10752
  154.1848  135.6510  153.5096 H   0  0  0  0  0  0  0  0  0  0  0  0  # atno 10765 bound_to 10752
  140.2283  134.3558  155.7975 H   0  0  0  0  0  0  0  0  0  0  0  0  # atno 11005 bound_to 11000
  144.6790  140.2380  143.7347 LP  0  0  0  0  0  0  0  0  0  0  0  0  # atno 17320 bound_to 7965
  145.8216  139.2046  143.1934 LP  0  0  0  0  0  0  0  0  0  0  0  0  # atno 17321 bound_to 7965
  139.9761  144.6461  150.7944 LP  0  0  0  0  0  0  0  0  0  0  0  0  # atno 17342 bound_to 10162
  140.7549  143.3035  151.3020 LP  0  0  0  0  0  0  0  0  0  0  0  0  # atno 17343 bound_to 10162
  157.5833  130.8391  149.8553 LP  0  0  0  0  0  0  0  0  0  0  0  0  # atno 17370 bound_to 10713
  156.0437  130.3733  150.1370 LP  0  0  0  0  0  0  0  0  0  0  0  0  # atno 17371 bound_to 10713
  141.2219  133.7231  156.8689 LP  0  0  0  0  0  0  0  0  0  0  0  0  # atno 17394 bound_to 11000
  140.1777  134.9055  157.2911 LP  0  0  0  0  0  0  0  0  0  0  0  0  # atno 17395 bound_to 11000

$$$$
