#       Name:                AV-unprocessed.smi:3318
#       Creating user name   scv26
#       Creation time:       Fri Mar 27 19:10:24 2020


#       File generated by GOLD software.
#

@<TRIPOS>MOLECULE
AV-unprocessed.smi:3318
    46    47     1
SMALL
NO_CHARGES


@<TRIPOS>ATOM
      1 ****        -3.9442  -4.2454   1.2232 C.3            1 S1                 0.0000
      2 ****        -4.5410  -2.9706   0.6122 C.3            1 S1                 0.0000
      3 ****        -4.0939  -1.6837   1.3330 C.3            1 S1                 0.0000
      4 ****        -2.6575  -1.4296   1.2107 N.3            1 S1                 0.0000
      5 ****        -2.2697  -0.4234   2.2018 C.3            1 S1                 0.0000
      6 ****        -0.7469  -0.2075   2.1750 C.3            1 S1                 0.0000
      7 ****        -0.2786   0.2530   0.7870 C.3            1 S1                 0.0000
      8 ****         1.1962   0.3692   0.7609 N.4            1 S1                 1.0000
      9 ****         1.7496   1.1270  -0.3806 C.3            1 S1                 0.0000
     10 ****         3.2758   1.2472  -0.2703 C.3            1 S1                 0.0000
     11 ****         3.8779   2.0201  -1.4287 C.ar           1 S1                 0.0000
     12 ****         4.2635   3.3688  -1.2736 C.ar           1 S1                 0.0000
     13 ****         4.8151   4.0403  -2.3822 C.ar           1 S1                 0.0000
     14 ****         4.9574   3.3413  -3.5963 C.ar           1 S1                 0.0000
     15 ****         4.5410   1.9962  -3.6486 C.ar           1 S1                 0.0000
     16 ****         4.0105   1.3432  -2.5916 N.ar           1 S1                 0.0000
     17 ****        -0.7968  -0.7469  -0.2618 C.3            1 S1                 0.0000
     18 ****        -2.3172  -0.9477  -0.1322 C.3            1 S1                 0.0000
     19 ****        -4.3279  -5.1328   0.7194 H              1 S1                 0.0000
     20 ****        -4.1939  -4.3297   2.2811 H              1 S1                 0.0000
     21 ****        -2.8578  -4.2582   1.1322 H              1 S1                 0.0000
     22 ****        -4.3186  -2.9298  -0.4532 H              1 S1                 0.0000
     23 ****        -5.6272  -3.0373   0.6785 H              1 S1                 0.0000
     24 ****        -4.6539  -0.8251   0.9590 H              1 S1                 0.0000
     25 ****        -4.3561  -1.7848   2.3872 H              1 S1                 0.0000
     26 ****        -2.7930   0.5154   2.0127 H              1 S1                 0.0000
     27 ****        -2.5625  -0.7576   3.1982 H              1 S1                 0.0000
     28 ****        -0.4691   0.5317   2.9272 H              1 S1                 0.0000
     29 ****        -0.2450  -1.1359   2.4530 H              1 S1                 0.0000
     30 ****        -0.7080   1.2368   0.5915 H              1 S1                 0.0000
     31 ****         1.4798   0.8462   1.6048 H              1 S1                 0.0000
     32 ****         1.4865   0.6297  -1.3141 H              1 S1                 0.0000
     33 ****         1.3016   2.1213  -0.4052 H              1 S1                 0.0000
     34 ****         3.5448   1.7384   0.6659 H              1 S1                 0.0000
     35 ****         3.7284   0.2549  -0.2368 H              1 S1                 0.0000
     36 ****         4.1414   3.8797  -0.3297 H              1 S1                 0.0000
     37 ****         5.1236   5.0723  -2.3026 H              1 S1                 0.0000
     38 ****         5.3764   3.8243  -4.4669 H              1 S1                 0.0000
     39 ****         4.6353   1.4304  -4.5637 H              1 S1                 0.0000
     40 ****        -0.5711  -0.3975  -1.2693 H              1 S1                 0.0000
     41 ****        -0.2925  -1.7077  -0.1465 H              1 S1                 0.0000
     42 ****        -2.6348  -1.6653  -0.8871 H              1 S1                 0.0000
     43 ****        -2.8414  -0.0135  -0.3408 H              1 S1                 0.0000
     44 ****         1.5954  -0.5586   0.7687 H              1 S1                 0.0000
     45 ****        -2.1650  -2.2855   1.3685 LP             1 S1                 0.0000
     46 ****         3.7245   0.3880  -2.6670 LP             1 S1                 0.0000
@<TRIPOS>BOND
    1    1    2 1     
    2    1   19 1     
    3    1   20 1     
    4    1   21 1     
    5    2    3 1     
    6    2   22 1     
    7    2   23 1     
    8    3    4 1     
    9    3   24 1     
   10    3   25 1     
   11    4   18 1     
   12    4    5 1     
   13    5    6 1     
   14    5   26 1     
   15    5   27 1     
   16    6    7 1     
   17    6   28 1     
   18    6   29 1     
   19    7    8 1     
   20    7   17 1     
   21    7   30 1     
   22    8    9 1     
   23    8   31 1     
   24    8   44 1     
   25    9   10 1     
   26    9   32 1     
   27    9   33 1     
   28   10   11 1     
   29   10   34 1     
   30   10   35 1     
   31   11   16 ar    
   32   11   12 ar    
   33   12   13 ar    
   34   12   36 1     
   35   13   14 ar    
   36   13   37 1     
   37   14   15 ar    
   38   14   38 1     
   39   15   16 ar    
   40   15   39 1     
   41   17   18 1     
   42   17   40 1     
   43   17   41 1     
   44   18   42 1     
   45   18   43 1     
   46    4   45 1     
   47   16   46 1     
@<TRIPOS>SUBSTRUCTURE
      1 S1             1
@<TRIPOS>SET
LONE_PAIRS      STATIC     ATOMS    <user>   **** ""
2 45 46
DONOR_HYDROGENS      STATIC     ATOMS    <user>   **** ""
2 31 44
ATOM$BLUE        STATIC     ATOMS    COLORGROUP SYSTEM
2 45 46
ATOM$RED        STATIC     ATOMS    COLORGROUP SYSTEM
2 31 44
