AV-unprocessed.smi:1579|AV-procd|sdf|6356|dock8
  -GOLD-   22720 6583D 1   1.00000     0.00000
 Structure written by MMmdl.
 47 48  0  0  0  0  0  0  0  0  2 V2000
  148.4363  141.9842  157.0396 C   0  0  0  0  0  0  0  0  0  0  0  0
  149.0897  140.8740  156.2617 C   0  0  0  0  0  0  0  0  0  0  0  0
  148.3096  140.1171  155.5621 N   0  0  0  0  0  0  0  0  0  0  0  0
  148.8050  139.0680  154.8126 N   0  0  0  0  0  0  0  0  0  0  0  0
  147.7699  138.3162  154.0900 C   0  0  0  0  0  0  0  0  0  0  0  0
  147.4153  136.9810  154.7808 C   0  0  2  0  0  0  0  0  0  0  0  0
  148.5091  136.1050  154.5899 O   0  0  0  0  0  0  0  0  0  0  0  0
  146.1361  136.3213  154.2178 C   0  0  0  0  0  0  0  0  0  0  0  0
  146.3776  135.5277  152.9851 N   0  3  2  0  0  0  0  0  0  0  0  0
  145.2582  135.6534  152.0162 C   0  0  0  0  0  0  0  0  0  0  0  0
  145.5793  134.9373  150.6922 C   0  0  0  0  0  0  0  0  0  0  0  0
  145.9426  133.4570  150.9046 C   0  0  2  0  0  0  0  0  0  0  0  0
  144.7198  132.5863  151.2438 C   0  0  0  0  0  0  0  0  0  0  0  0
  147.0592  133.3530  151.9590 C   0  0  0  0  0  0  0  0  0  0  0  0
  146.7075  134.1026  153.2566 C   0  0  0  0  0  0  0  0  0  0  0  0
  150.1245  138.7329  154.7255 C   0  0  0  0  0  0  0  0  0  0  0  0
  150.5280  137.8011  154.0282 O   0  0  0  0  0  0  0  0  0  0  0  0
  151.0029  139.5935  155.5209 C   0  0  0  0  0  0  0  0  0  0  0  0
  152.3930  139.2768  155.4567 C   0  0  0  0  0  0  0  0  0  0  0  0
  153.5182  139.0151  155.3849 N   0  0  0  0  0  0  0  0  0  0  0  0
  150.5272  140.6242  156.2633 C   0  0  0  0  0  0  0  0  0  0  0  0
  151.3978  141.5477  157.1043 C   0  0  0  0  0  0  0  0  0  0  0  0
  148.6416  141.8831  158.1054 H   0  0  0  0  0  0  0  0  0  0  0  0
  147.3526  141.9873  156.9130 H   0  0  0  0  0  0  0  0  0  0  0  0
  148.8080  142.9559  156.7141 H   0  0  0  0  0  0  0  0  0  0  0  0
  146.8686  138.9130  153.9377 H   0  0  0  0  0  0  0  0  0  0  0  0
  148.1422  138.1132  153.0837 H   0  0  0  0  0  0  0  0  0  0  0  0
  147.3212  137.1618  155.8509 H   0  0  0  0  0  0  0  0  0  0  0  0
  148.7225  136.0747  153.6702 H   0  0  0  0  0  0  0  0  0  0  0  0
  145.6760  135.6671  154.9588 H   0  0  0  0  0  0  0  0  0  0  0  0
  145.4074  137.1077  154.0144 H   0  0  0  0  0  0  0  0  0  0  0  0
  144.3439  135.2541  152.4577 H   0  0  0  0  0  0  0  0  0  0  0  0
  145.0707  136.7080  151.8093 H   0  0  0  0  0  0  0  0  0  0  0  0
  144.7372  135.0254  150.0049 H   0  0  0  0  0  0  0  0  0  0  0  0
  146.4162  135.4448  150.2102 H   0  0  0  0  0  0  0  0  0  0  0  0
  146.3410  133.0761  149.9630 H   0  0  0  0  0  0  0  0  0  0  0  0
  144.2415  132.8904  152.1744 H   0  0  0  0  0  0  0  0  0  0  0  0
  145.0034  131.5386  151.3472 H   0  0  0  0  0  0  0  0  0  0  0  0
  143.9693  132.6439  150.4548 H   0  0  0  0  0  0  0  0  0  0  0  0
  147.2764  132.3069  152.1776 H   0  0  0  0  0  0  0  0  0  0  0  0
  147.9790  133.7713  151.5473 H   0  0  0  0  0  0  0  0  0  0  0  0
  147.5553  134.0319  153.9365 H   0  0  0  0  0  0  0  0  0  0  0  0
  145.8676  133.6203  153.7584 H   0  0  0  0  0  0  0  0  0  0  0  0
  152.4541  141.2872  157.0441 H   0  0  0  0  0  0  0  0  0  0  0  0
  151.1080  141.4956  158.1541 H   0  0  0  0  0  0  0  0  0  0  0  0
  151.2964  142.5807  156.7700 H   0  0  0  0  0  0  0  0  0  0  0  0
  147.1825  135.9383  152.5342 H   0  0  0  0  0  0  0  0  0  0  0  0
  1  2  1  0  0  0  0
  1 23  1  0  0  0  0
  1 24  1  0  0  0  0
  1 25  1  0  0  0  0
  2 21  1  0  0  0  0
  2  3  2  0  0  0  0
  3  4  1  0  0  0  0
  4  5  1  0  0  0  0
  4 16  1  0  0  0  0
  5  6  1  0  0  0  0
  5 26  1  0  0  0  0
  5 27  1  0  0  0  0
  6  7  1  0  0  0  0
  6  8  1  0  0  0  0
  6 28  1  0  0  0  0
  7 29  1  0  0  0  0
  8  9  1  0  0  0  0
  8 30  1  0  0  0  0
  8 31  1  0  0  0  0
  9 15  1  0  0  0  0
  9 10  1  0  0  0  0
  9 47  1  0  0  0  0
 10 11  1  0  0  0  0
 10 32  1  0  0  0  0
 10 33  1  0  0  0  0
 11 12  1  0  0  0  0
 11 34  1  0  0  0  0
 11 35  1  0  0  0  0
 12 13  1  0  0  0  0
 12 14  1  0  0  0  0
 12 36  1  0  0  0  0
 13 37  1  0  0  0  0
 13 38  1  0  0  0  0
 13 39  1  0  0  0  0
 14 15  1  0  0  0  0
 14 40  1  0  0  0  0
 14 41  1  0  0  0  0
 15 42  1  0  0  0  0
 15 43  1  0  0  0  0
 16 17  2  0  0  0  0
 16 18  1  0  0  0  0
 18 19  1  0  0  0  0
 18 21  2  0  0  0  0
 19 20  3  0  0  0  0
 21 22  1  0  0  0  0
 22 44  1  0  0  0  0
 22 45  1  0  0  0  0
 22 46  1  0  0  0  0
M  CHG  1   9   1
M  END
> <s_m_source_file>
AV-unprocessed.smi

> <i_m_source_file_index>
1579

> <i_lp_mmshare_version>
43012

> <i_f3d_flags>
0

> <s_epik_input>
TiNDYyhjMVtDSDNdKWMoPU8pbihuYzFbQ0gzXSlbQ0gyXVtDQEhdKFtPSF0pW0NIMl1OMltDSDJdW0NIMl1bQ0hdKFtDSDNdKVtDSDJdW0NIMl0y

> <s_epik_cmdline>
J2VwaWtfcHl0aG9uJywgJy1waCcsICc3LjAnLCAnLXRuJywgJzgnLCAnLW1hJywgJzIwMCcsICctbWV0YWxfYmluZGluZycsICctaW1hZScsICc8aW5maWxlLm1hZT4nLCAnLW9tYWUnLCAnPG91dGZpbGUubWFlPic=

> <r_epik_Ionization_Penalty>
0.00136816

> <r_epik_Ionization_Penalty_Charging>
0.00136813

> <r_epik_Ionization_Penalty_Neutral>
3.19884e-08

> <r_epik_State_Penalty>
0.000910892

> <r_epik_Charging_Adjusted_Penalty>
0.00227902

> <i_epik_Tot_Q>
1

> <i_epik_Tot_abs_Q>
1

> <r_epik_Metal_State_Penalty>
-0

> <b_epik_Metal_Only>
0

> <s_lp_Force_Field>
OPLS_2005

> <r_lp_Energy>
38.3008

> <b_lp_Chiralities_Consistent>
1

> <s_lp_Variant>
AV-unprocessed.smi:1579-3

> <Gold.Version>
5.8.1

> <Gold.Id.Protein>
6NUR|6NUR_protein|mol2

> <Gold.PLP.Fitness>
41.4898

> <Gold.PLP.PLP>
-31.4900

> <Gold.PLP.part.hbond>
-2.8938

> <Gold.PLP.part.metal>
0.0000

> <Gold.PLP.part.buried>
-3.2552

> <Gold.PLP.part.nonpolar>
-26.2295

> <Gold.PLP.part.repulsive>
0.8283

> <Gold.PLP.ligand.clash>
0.0000

> <Gold.PLP.ligand.torsion>
1.0090

> <Gold.PLP.Chemscore.Hbond>
4.0000

> <Gold.PLP.Chemscore.CHOScore>
0.0000

> <Gold.PLP.Chemscore.Metal>
0.0000

> <Gold.Chemscore.Hbonds>
donor molecule, donor type, donor heavy atom, donor atom, acceptor molecule, acceptor atom, score
      L1  H     7    29       P1  7948  1.00
      L1  H     9    47       P1  7948  2.00
      P1  H  7997  8008       L1    20  0.99

> <Gold.PLP.Chemscore.Internal.Correction>
0.0178

> <Gold.Rescore>
     Score         DG    S(hbond)    S(metal)    S(lipo)     H(rot)  DE(clash)    DE(int)     intcor
     14.52     -17.45       2.96        0.00      65.45       2.17       0.23       2.70       ----

> <Gold.Chemscore.Fitness>
14.5165

> <Gold.Chemscore.DG>
-17.4508

> <Gold.Chemscore.ZeroCoef>
-5.4800

> <Gold.Chemscore.Hbond>
2.9559

> <Gold.Chemscore.Metal>
0.0000

> <Gold.Chemscore.Lipo>
65.4453

> <Gold.Chemscore.Internal_Hbond>
0.0000

> <Gold.Chemscore.DEClash>
0.2340

> <Gold.Chemscore.DEInternal>
2.7004

> <Gold.Chemscore.Rot>
2.1715

> <Gold.Chemscore.Internal.Correction>
   9.000000E+99

> <Gold.Chemscore.Hbonds>
donor molecule, donor type, donor heavy atom, donor atom, acceptor molecule, acceptor atom, score
      L1  H     7    29       P1  7948  1.00
      L1  H     9    47       P1  7948  1.00
      P1  H  7997  8008       L1    20  0.69

> <Gold.Chemscore.Hbond.Weighted>
-9.8728

> <Gold.Chemscore.Metal.Weighted>
-0.0000

> <Gold.Chemscore.Lipo.Weighted>
-7.6571

> <Gold.Chemscore.Internal_Hbond.Weighted>
0.0000

> <Gold.Chemscore.DEClash.Weighted>
0.2340

> <Gold.Chemscore.DEInternal.Weighted>
2.7004

> <Gold.Chemscore.Rot.Weighted>
5.5591

> <Gold.Chemscore.Internal.Correction.Weighted>
   9.000000E+99

> <Gold.Protein.RotatedTorsions>
[ 6907 6896 6895 6894 ] final  -18.09 input  -60.11 | X-H torsion
[ 7974 7965 7964 7962 ] final  -44.95 input  175.53 | X-H torsion
[ 8008 7997 7996 7995 ] final  -29.39 input   59.86 | X-H torsion
[ 10167 10162 10161 10158 ] final    4.99 input  -65.29 | X-H torsion
[ 10718 10713 10712 10709 ] final  135.67 input   66.30 | X-H torsion
[ 10763 10752 10751 10750 ] final  110.71 input  -60.55 | X-H torsion
[ 11005 11000 10999 10996 ] final -126.63 input  -57.11 | X-H torsion

> <Gold.Protein.ActiveResidues>
 VAL166  LYS551  ARG553  GLY616  TRP617  ASP618  TYR619  PRO620  LYS621  CYS622 
 ASP623  PHE694  ASN695  SER759  ASP760  ASP761  ALA762  ILE779  LEU786  VAL792 
 PHE793  MET794  SER795  GLU796  ALA797  LYS798  CYS799  TRP800  GLU811  SER814 

> <Gold.Protein.RotatedAtoms>
  151.2834  135.0720  159.9177 H   0  0  0  0  0  0  0  0  0  0  0  0  # atno 6907 bound_to 6896
  152.5330  134.0007  159.7903 H   0  0  0  0  0  0  0  0  0  0  0  0  # atno 6908 bound_to 6896
  151.0265  133.5778  159.2696 H   0  0  0  0  0  0  0  0  0  0  0  0  # atno 6909 bound_to 6896
  145.9869  140.7223  142.9336 H   0  0  0  0  0  0  0  0  0  0  0  0  # atno 7974 bound_to 7965
  154.4292  140.1819  156.1241 H   0  0  0  0  0  0  0  0  0  0  0  0  # atno 8008 bound_to 7997
  156.0120  140.3349  155.6925 H   0  0  0  0  0  0  0  0  0  0  0  0  # atno 8009 bound_to 7997
  155.6098  140.0649  157.2700 H   0  0  0  0  0  0  0  0  0  0  0  0  # atno 8010 bound_to 7997
  140.6506  143.7555  150.7568 H   0  0  0  0  0  0  0  0  0  0  0  0  # atno 10167 bound_to 10162
  157.4547  131.1069  150.9992 H   0  0  0  0  0  0  0  0  0  0  0  0  # atno 10718 bound_to 10713
  153.4529  135.3740  155.2294 H   0  0  0  0  0  0  0  0  0  0  0  0  # atno 10763 bound_to 10752
  154.8756  135.3890  154.4017 H   0  0  0  0  0  0  0  0  0  0  0  0  # atno 10764 bound_to 10752
  153.4579  135.7086  153.6132 H   0  0  0  0  0  0  0  0  0  0  0  0  # atno 10765 bound_to 10752
  140.9665  134.0864  157.3914 H   0  0  0  0  0  0  0  0  0  0  0  0  # atno 11005 bound_to 11000
  144.6877  140.3003  143.7264 LP  0  0  0  0  0  0  0  0  0  0  0  0  # atno 17320 bound_to 7965
  145.7688  139.1850  143.2225 LP  0  0  0  0  0  0  0  0  0  0  0  0  # atno 17321 bound_to 7965
  140.1205  143.4616  152.2316 LP  0  0  0  0  0  0  0  0  0  0  0  0  # atno 17342 bound_to 10162
  139.5720  144.7468  151.3864 LP  0  0  0  0  0  0  0  0  0  0  0  0  # atno 17343 bound_to 10162
  157.0810  130.5903  149.5420 LP  0  0  0  0  0  0  0  0  0  0  0  0  # atno 17370 bound_to 10713
  156.0002  130.5079  150.7634 LP  0  0  0  0  0  0  0  0  0  0  0  0  # atno 17371 bound_to 10713
  139.8896  135.0106  156.6691 LP  0  0  0  0  0  0  0  0  0  0  0  0  # atno 17394 bound_to 11000
  140.7391  133.8993  155.8265 LP  0  0  0  0  0  0  0  0  0  0  0  0  # atno 17395 bound_to 11000

$$$$
