AV-unprocessed.smi:1047|AV-procd|sdf|4600|dock8
  -GOLD-   22720 3 93D 1   1.00000     0.00000
 Structure written by MMmdl.
 57 59  0  0  0  0  0  0  0  0  3 V2000
  142.8421  147.3286  155.2121 C   0  0  0  0  0  0  0  0  0  0  0  0
  142.2212  145.9324  155.3595 C   0  0  0  0  0  0  0  0  0  0  0  0
  143.1848  144.9346  155.8867 N   0  3  1  0  0  0  0  0  0  0  0  0
  142.5385  143.7906  156.5763 C   0  0  0  0  0  0  0  0  0  0  0  0
  143.6016  142.8297  157.1347 C   0  0  0  0  0  0  0  0  0  0  0  0
  144.4465  142.3793  156.0835 O   0  0  0  0  0  0  0  0  0  0  0  0
  145.1322  143.4515  155.4457 C   0  0  1  0  0  0  0  0  0  0  0  0
  146.1184  142.8714  154.4177 C   0  0  0  0  0  0  0  0  0  0  0  0
  147.3020  142.3016  155.0566 N   0  0  0  0  0  0  0  0  0  0  0  0
  148.2422  141.7027  154.1147 C   0  0  0  0  0  0  0  0  0  0  0  0
  149.3296  140.8976  154.8466 C   0  0  1  0  0  0  0  0  0  0  0  0
  149.9642  140.0470  153.9116 O   0  0  0  0  0  0  0  0  0  0  0  0
  150.3810  141.8203  155.4934 C   0  0  0  0  0  0  0  0  0  0  0  0
  151.1960  141.1348  156.5074 N   0  0  0  0  0  0  0  0  0  0  0  0
  151.7519  139.8931  156.4768 C   0  0  0  0  0  0  0  0  0  0  0  0
  152.4129  139.7092  157.6529 N   0  3  0  0  0  0  0  0  0  0  0  0
  152.2786  140.8503  158.4462 C   0  0  0  0  0  0  0  0  0  0  0  0
  152.7681  141.1378  159.7147 C   0  0  0  0  0  0  0  0  0  0  0  0
  152.4550  142.4053  160.2551 C   0  0  0  0  0  0  0  0  0  0  0  0
  152.9725  142.7503  161.6414 C   0  0  0  0  0  0  0  0  0  0  0  0
  151.6762  143.3385  159.5229 C   0  0  0  0  0  0  0  0  0  0  0  0
  151.3524  144.7019  160.1098 C   0  0  0  0  0  0  0  0  0  0  0  0
  151.1858  143.0257  158.2349 C   0  0  0  0  0  0  0  0  0  0  0  0
  151.5005  141.7709  157.7175 C   0  0  0  0  0  0  0  0  0  0  0  0
  144.1176  144.4470  154.8434 C   0  0  0  0  0  0  0  0  0  0  0  0
  142.1359  148.0133  154.7419 H   0  0  0  0  0  0  0  0  0  0  0  0
  143.7359  147.2979  154.5885 H   0  0  0  0  0  0  0  0  0  0  0  0
  143.1161  147.7592  156.1747 H   0  0  0  0  0  0  0  0  0  0  0  0
  141.3336  145.9693  155.9929 H   0  0  0  0  0  0  0  0  0  0  0  0
  141.8829  145.6129  154.3727 H   0  0  0  0  0  0  0  0  0  0  0  0
  141.9114  144.1433  157.3946 H   0  0  0  0  0  0  0  0  0  0  0  0
  141.8871  143.2607  155.8794 H   0  0  0  0  0  0  0  0  0  0  0  0
  144.1946  143.3147  157.9118 H   0  0  0  0  0  0  0  0  0  0  0  0
  143.1221  141.9653  157.5944 H   0  0  0  0  0  0  0  0  0  0  0  0
  145.7231  143.9714  156.2021 H   0  0  0  0  0  0  0  0  0  0  0  0
  145.6148  142.1059  153.8261 H   0  0  0  0  0  0  0  0  0  0  0  0
  146.4130  143.6568  153.7207 H   0  0  0  0  0  0  0  0  0  0  0  0
  147.7728  143.0152  155.6039 H   0  0  0  0  0  0  0  0  0  0  0  0
  147.7212  141.0753  153.3900 H   0  0  0  0  0  0  0  0  0  0  0  0
  148.7189  142.5002  153.5431 H   0  0  0  0  0  0  0  0  0  0  0  0
  148.8777  140.2828  155.6266 H   0  0  0  0  0  0  0  0  0  0  0  0
  149.5353  140.1452  153.0755 H   0  0  0  0  0  0  0  0  0  0  0  0
  151.0334  142.2688  154.7439 H   0  0  0  0  0  0  0  0  0  0  0  0
  149.8829  142.6501  155.9967 H   0  0  0  0  0  0  0  0  0  0  0  0
  151.6816  139.1818  155.6663 H   0  0  0  0  0  0  0  0  0  0  0  0
  153.3630  140.4232  160.2644 H   0  0  0  0  0  0  0  0  0  0  0  0
  152.1456  142.9832  162.3128 H   0  0  0  0  0  0  0  0  0  0  0  0
  153.6382  143.6128  161.5984 H   0  0  0  0  0  0  0  0  0  0  0  0
  153.5296  141.9201  162.0769 H   0  0  0  0  0  0  0  0  0  0  0  0
  150.7636  145.3048  159.4177 H   0  0  0  0  0  0  0  0  0  0  0  0
  152.2682  145.2505  160.3319 H   0  0  0  0  0  0  0  0  0  0  0  0
  150.7793  144.5966  161.0311 H   0  0  0  0  0  0  0  0  0  0  0  0
  150.5958  143.7390  157.6792 H   0  0  0  0  0  0  0  0  0  0  0  0
  143.5417  143.9774  154.0444 H   0  0  0  0  0  0  0  0  0  0  0  0
  144.6502  145.2902  154.4014 H   0  0  0  0  0  0  0  0  0  0  0  0
  143.7515  145.4130  156.5725 H   0  0  0  0  0  0  0  0  0  0  0  0
  152.9188  138.8663  157.8930 H   0  0  0  0  0  0  0  0  0  0  0  0
  1  2  1  0  0  0  0
  1 26  1  0  0  0  0
  1 27  1  0  0  0  0
  1 28  1  0  0  0  0
  2  3  1  0  0  0  0
  2 29  1  0  0  0  0
  2 30  1  0  0  0  0
  3 25  1  0  0  0  0
  3  4  1  0  0  0  0
  3 56  1  0  0  0  0
  4  5  1  0  0  0  0
  4 31  1  0  0  0  0
  4 32  1  0  0  0  0
  5  6  1  0  0  0  0
  5 33  1  0  0  0  0
  5 34  1  0  0  0  0
  6  7  1  0  0  0  0
  7  8  1  0  0  0  0
  7 25  1  0  0  0  0
  7 35  1  0  0  0  0
  8  9  1  0  0  0  0
  8 36  1  0  0  0  0
  8 37  1  0  0  0  0
  9 10  1  0  0  0  0
  9 38  1  0  0  0  0
 10 11  1  0  0  0  0
 10 39  1  0  0  0  0
 10 40  1  0  0  0  0
 11 12  1  0  0  0  0
 11 13  1  0  0  0  0
 11 41  1  0  0  0  0
 12 42  1  0  0  0  0
 13 14  1  0  0  0  0
 13 43  1  0  0  0  0
 13 44  1  0  0  0  0
 14 24  1  0  0  0  0
 14 15  1  0  0  0  0
 15 16  2  0  0  0  0
 15 45  1  0  0  0  0
 16 17  1  0  0  0  0
 16 57  1  0  0  0  0
 17 24  2  0  0  0  0
 17 18  1  0  0  0  0
 18 19  2  0  0  0  0
 18 46  1  0  0  0  0
 19 20  1  0  0  0  0
 19 21  1  0  0  0  0
 20 47  1  0  0  0  0
 20 48  1  0  0  0  0
 20 49  1  0  0  0  0
 21 22  1  0  0  0  0
 21 23  2  0  0  0  0
 22 50  1  0  0  0  0
 22 51  1  0  0  0  0
 22 52  1  0  0  0  0
 23 24  1  0  0  0  0
 23 53  1  0  0  0  0
 25 54  1  0  0  0  0
 25 55  1  0  0  0  0
M  CHG  1   3   1
M  CHG  1  16   1
M  END
> <s_m_source_file>
AV-unprocessed.smi

> <i_m_source_file_index>
1047

> <i_lp_mmshare_version>
43012

> <i_f3d_flags>
0

> <s_epik_input>
W0NIM11bQ0gyXU4xW0NIMl1bQ0gyXU9bQ0BIXShbQ0gyXTEpW0NIMl1bTkhdW0NIMl1bQ0BIXShbT0hdKVtDSDJdbihbY0hdbjIpYyhjMjMpW2NIXWMoW0NIM10pYyhbY0hdMylbQ0gzXQ==

> <s_epik_cmdline>
J2VwaWtfcHl0aG9uJywgJy1waCcsICc3LjAnLCAnLXRuJywgJzgnLCAnLW1hJywgJzIwMCcsICctbWV0YWxfYmluZGluZycsICctaW1hZScsICc8aW5maWxlLm1hZT4nLCAnLW9tYWUnLCAnPG91dGZpbGUubWFlPic=

> <r_epik_Ionization_Penalty>
2.03028

> <r_epik_Ionization_Penalty_Charging>
1.21256

> <r_epik_Ionization_Penalty_Neutral>
0.817715

> <r_epik_State_Penalty>
2.54959

> <r_epik_Charging_Adjusted_Penalty>
3.76215

> <i_epik_Tot_Q>
2

> <i_epik_Tot_abs_Q>
2

> <r_epik_Metal_State_Penalty>
6.52811

> <b_epik_Metal_Only>
0

> <s_lp_Force_Field>
OPLS_2005

> <r_lp_Energy>
36.9073

> <b_lp_Chiralities_Consistent>
1

> <s_lp_Variant>
AV-unprocessed.smi:1047-41

> <Gold.Version>
5.8.1

> <Gold.Id.Protein>
6NUR|6NUR_protein|mol2

> <Gold.PLP.Fitness>
58.4324

> <Gold.PLP.PLP>
-51.6602

> <Gold.PLP.part.hbond>
-3.0000

> <Gold.PLP.part.metal>
0.0000

> <Gold.PLP.part.buried>
-5.3010

> <Gold.PLP.part.nonpolar>
-42.0584

> <Gold.PLP.part.repulsive>
0.1716

> <Gold.PLP.ligand.clash>
0.0000

> <Gold.PLP.ligand.torsion>
0.8850

> <Gold.PLP.Chemscore.Hbond>
2.7888

> <Gold.PLP.Chemscore.CHOScore>
0.0000

> <Gold.PLP.Chemscore.Metal>
0.0000

> <Gold.Chemscore.Hbonds>
donor molecule, donor type, donor heavy atom, donor atom, acceptor molecule, acceptor atom, score
      L1  H     9    38       P1  8028  0.98
      L1  H    12    42       P1  7957  0.98
      P1  H  7989  7998       L1    12  0.76

> <Gold.PLP.Chemscore.Internal.Correction>
0.1759

> <Gold.Rescore>
     Score         DG    S(hbond)    S(metal)    S(lipo)     H(rot)  DE(clash)    DE(int)     intcor
     17.51     -18.41       1.37        0.00     130.71       2.71       0.06       0.84       ----

> <Gold.Chemscore.Fitness>
17.5111

> <Gold.Chemscore.DG>
-18.4121

> <Gold.Chemscore.ZeroCoef>
-5.4800

> <Gold.Chemscore.Hbond>
1.3693

> <Gold.Chemscore.Metal>
0.0000

> <Gold.Chemscore.Lipo>
130.7120

> <Gold.Chemscore.Internal_Hbond>
0.0000

> <Gold.Chemscore.DEClash>
0.0580

> <Gold.Chemscore.DEInternal>
0.8430

> <Gold.Chemscore.Rot>
2.7088

> <Gold.Chemscore.Internal.Correction>
   9.000000E+99

> <Gold.Chemscore.Hbonds>
donor molecule, donor type, donor heavy atom, donor atom, acceptor molecule, acceptor atom, score
      L1  H     9    38       P1  8028  0.44
      L1  H    12    42       P1  7957  0.93
      P1  H  7989  7998       L1    12  0.08

> <Gold.Chemscore.Hbond.Weighted>
-4.5734

> <Gold.Chemscore.Metal.Weighted>
-0.0000

> <Gold.Chemscore.Lipo.Weighted>
-15.2933

> <Gold.Chemscore.Internal_Hbond.Weighted>
0.0000

> <Gold.Chemscore.DEClash.Weighted>
0.0580

> <Gold.Chemscore.DEInternal.Weighted>
0.8430

> <Gold.Chemscore.Rot.Weighted>
6.9346

> <Gold.Chemscore.Internal.Correction.Weighted>
   9.000000E+99

> <Gold.Protein.RotatedTorsions>
[ 6907 6896 6895 6894 ] final    9.26 input  -60.11 | X-H torsion
[ 7974 7965 7964 7962 ] final    7.56 input  175.53 | X-H torsion
[ 8008 7997 7996 7995 ] final  -17.23 input   59.86 | X-H torsion
[ 10167 10162 10161 10158 ] final   14.88 input  -65.29 | X-H torsion
[ 10718 10713 10712 10709 ] final   49.39 input   66.30 | X-H torsion
[ 10763 10752 10751 10750 ] final  141.65 input  -60.55 | X-H torsion
[ 11005 11000 10999 10996 ] final  -13.78 input  -57.11 | X-H torsion

> <Gold.Protein.ActiveResidues>
 VAL166  LYS551  ARG553  GLY616  TRP617  ASP618  TYR619  PRO620  LYS621  CYS622 
 ASP623  PHE694  ASN695  SER759  ASP760  ASP761  ALA762  ILE779  LEU786  VAL792 
 PHE793  MET794  SER795  GLU796  ALA797  LYS798  CYS799  TRP800  GLU811  SER814 

> <Gold.Protein.RotatedAtoms>
  151.7193  135.0897  160.0280 H   0  0  0  0  0  0  0  0  0  0  0  0  # atno 6907 bound_to 6896
  152.3612  133.6295  159.6025 H   0  0  0  0  0  0  0  0  0  0  0  0  # atno 6908 bound_to 6896
  150.7606  133.9336  159.3476 H   0  0  0  0  0  0  0  0  0  0  0  0  # atno 6909 bound_to 6896
  146.2425  140.0065  142.8411 H   0  0  0  0  0  0  0  0  0  0  0  0  # atno 7974 bound_to 7965
  154.4994  140.2148  155.9379 H   0  0  0  0  0  0  0  0  0  0  0  0  # atno 8008 bound_to 7997
  156.1413  140.3179  155.8468 H   0  0  0  0  0  0  0  0  0  0  0  0  # atno 8009 bound_to 7997
  155.4114  140.0491  157.3022 H   0  0  0  0  0  0  0  0  0  0  0  0  # atno 8010 bound_to 7997
  140.5905  143.8804  150.6869 H   0  0  0  0  0  0  0  0  0  0  0  0  # atno 10167 bound_to 10162
  157.4782  130.8298  149.8063 H   0  0  0  0  0  0  0  0  0  0  0  0  # atno 10718 bound_to 10713
  153.9428  135.2978  155.3442 H   0  0  0  0  0  0  0  0  0  0  0  0  # atno 10763 bound_to 10752
  154.7468  135.4999  153.9221 H   0  0  0  0  0  0  0  0  0  0  0  0  # atno 10764 bound_to 10752
  153.1033  135.6740  153.9739 H   0  0  0  0  0  0  0  0  0  0  0  0  # atno 10765 bound_to 10752
  140.7797  133.8373  155.9280 H   0  0  0  0  0  0  0  0  0  0  0  0  # atno 11005 bound_to 11000
  145.1367  140.9548  143.4512 LP  0  0  0  0  0  0  0  0  0  0  0  0  # atno 17320 bound_to 7965
  145.0335  139.3320  143.6012 LP  0  0  0  0  0  0  0  0  0  0  0  0  # atno 17321 bound_to 7965
  140.2326  143.3724  152.1553 LP  0  0  0  0  0  0  0  0  0  0  0  0  # atno 17342 bound_to 10162
  139.5224  144.7059  151.5356 LP  0  0  0  0  0  0  0  0  0  0  0  0  # atno 17343 bound_to 10162
  156.0108  130.3834  150.2273 LP  0  0  0  0  0  0  0  0  0  0  0  0  # atno 17370 bound_to 10713
  157.0458  131.0048  151.3269 LP  0  0  0  0  0  0  0  0  0  0  0  0  # atno 17371 bound_to 10713
  140.9495  134.1797  157.4738 LP  0  0  0  0  0  0  0  0  0  0  0  0  # atno 17394 bound_to 11000
  139.8744  134.9903  156.5498 LP  0  0  0  0  0  0  0  0  0  0  0  0  # atno 17395 bound_to 11000

$$$$
