AV-unprocessed.smi:1434|AV-procd|sdf|5850|dock2
  -GOLD-   22720 5513D 1   1.00000     0.00000
 Structure written by MMmdl.
 44 45  0  0  0  0  0  0  0  0  1 V2000
  148.9485  132.6993  153.5856 C   0  0  0  0  0  0  0  0  0  0  0  0
  149.0689  133.8839  154.9849 S   0  0  0  0  0  0  0  0  0  0  0  0
  147.7325  134.4251  155.2735 O   0  0  0  0  0  0  0  0  0  0  0  0
  149.8615  133.2653  156.0586 O   0  0  0  0  0  0  0  0  0  0  0  0
  150.0105  135.1629  154.3142 N   0  0  0  0  0  0  0  0  0  0  0  0
  150.3119  136.3087  155.1707 C   0  0  1  0  0  0  0  0  0  0  0  0
  150.6324  135.8457  156.6076 C   0  0  0  0  0  0  0  0  0  0  0  0
  151.1085  137.0177  157.4906 C   0  0  0  0  0  0  0  0  0  0  0  0
  152.2046  137.8391  156.7842 C   0  0  0  0  0  0  0  0  0  0  0  0
  151.6953  138.2728  155.4730 N   0  0  0  0  0  0  0  0  0  0  0  0
  151.2284  139.5066  155.1590 C   0  0  0  0  0  0  0  0  0  0  0  0
  150.7417  139.7811  154.0613 O   0  0  0  0  0  0  0  0  0  0  0  0
  151.2498  140.3881  156.1748 N   0  0  0  0  0  0  0  0  0  0  0  0
  150.5896  141.6924  156.1771 C   0  0  0  0  0  0  0  0  0  0  0  0
  149.9980  142.0444  157.5588 C   0  0  0  0  0  0  0  0  0  0  0  0
  150.9918  142.6888  158.5133 C   0  0  0  0  0  0  0  0  0  0  0  0
  151.5898  143.9295  158.2023 C   0  0  0  0  0  0  0  0  0  0  0  0
  152.5377  144.4618  159.0973 C   0  0  0  0  0  0  0  0  0  0  0  0
  152.8507  143.7371  160.2628 C   0  0  0  0  0  0  0  0  0  0  0  0
  152.1911  142.5125  160.4876 C   0  0  0  0  0  0  0  0  0  0  0  0
  151.2763  141.9956  159.6387 N   0  0  0  0  0  0  0  0  0  0  0  0
  151.4777  137.1266  154.5842 C   0  0  0  0  0  0  0  0  0  0  0  0
  148.3696  131.8303  153.8974 H   0  0  0  0  0  0  0  0  0  0  0  0
  149.9479  132.3817  153.2894 H   0  0  0  0  0  0  0  0  0  0  0  0
  148.4536  133.1799  152.7421 H   0  0  0  0  0  0  0  0  0  0  0  0
  149.6354  135.4645  153.4153 H   0  0  0  0  0  0  0  0  0  0  0  0
  149.4333  136.9540  155.2009 H   0  0  0  0  0  0  0  0  0  0  0  0
  149.7603  135.3692  157.0573 H   0  0  0  0  0  0  0  0  0  0  0  0
  151.4165  135.0880  156.5761 H   0  0  0  0  0  0  0  0  0  0  0  0
  150.2625  137.6658  157.7205 H   0  0  0  0  0  0  0  0  0  0  0  0
  151.4760  136.6408  158.4453 H   0  0  0  0  0  0  0  0  0  0  0  0
  152.5315  138.6659  157.4155 H   0  0  0  0  0  0  0  0  0  0  0  0
  153.0923  137.2222  156.6374 H   0  0  0  0  0  0  0  0  0  0  0  0
  151.6638  140.0884  157.0454 H   0  0  0  0  0  0  0  0  0  0  0  0
  151.3182  142.4490  155.8864 H   0  0  0  0  0  0  0  0  0  0  0  0
  149.8038  141.7258  155.4208 H   0  0  0  0  0  0  0  0  0  0  0  0
  149.1521  142.7199  157.4258 H   0  0  0  0  0  0  0  0  0  0  0  0
  149.5929  141.1454  158.0249 H   0  0  0  0  0  0  0  0  0  0  0  0
  151.3398  144.4560  157.2933 H   0  0  0  0  0  0  0  0  0  0  0  0
  153.0243  145.4031  158.8879 H   0  0  0  0  0  0  0  0  0  0  0  0
  153.5800  144.1103  160.9666 H   0  0  0  0  0  0  0  0  0  0  0  0
  152.4047  141.9315  161.3723 H   0  0  0  0  0  0  0  0  0  0  0  0
  152.3845  136.5221  154.5287 H   0  0  0  0  0  0  0  0  0  0  0  0
  151.2546  137.4244  153.5583 H   0  0  0  0  0  0  0  0  0  0  0  0
  1  2  1  0  0  0  0
  1 23  1  0  0  0  0
  1 24  1  0  0  0  0
  1 25  1  0  0  0  0
  2  3  2  0  0  0  0
  2  4  2  0  0  0  0
  2  5  1  0  0  0  0
  5  6  1  0  0  0  0
  5 26  1  0  0  0  0
  6 22  1  0  0  0  0
  6  7  1  0  0  0  0
  6 27  1  0  0  0  0
  7  8  1  0  0  0  0
  7 28  1  0  0  0  0
  7 29  1  0  0  0  0
  8  9  1  0  0  0  0
  8 30  1  0  0  0  0
  8 31  1  0  0  0  0
  9 10  1  0  0  0  0
  9 32  1  0  0  0  0
  9 33  1  0  0  0  0
 10 11  1  0  0  0  0
 10 22  1  0  0  0  0
 11 12  2  0  0  0  0
 11 13  1  0  0  0  0
 13 14  1  0  0  0  0
 13 34  1  0  0  0  0
 14 15  1  0  0  0  0
 14 35  1  0  0  0  0
 14 36  1  0  0  0  0
 15 16  1  0  0  0  0
 15 37  1  0  0  0  0
 15 38  1  0  0  0  0
 16 21  1  0  0  0  0
 16 17  2  0  0  0  0
 17 18  1  0  0  0  0
 17 39  1  0  0  0  0
 18 19  2  0  0  0  0
 18 40  1  0  0  0  0
 19 20  1  0  0  0  0
 19 41  1  0  0  0  0
 20 21  2  0  0  0  0
 20 42  1  0  0  0  0
 22 43  1  0  0  0  0
 22 44  1  0  0  0  0
M  END
> <s_m_source_file>
AV-unprocessed.smi

> <i_m_source_file_index>
1434

> <i_lp_mmshare_version>
43012

> <i_f3d_flags>
0

> <s_epik_input>
W0NIM11TKD1PKSg9TylbTkhdW0NAQEhdMVtDSDJdW0NIMl1bQ0gyXU4oW0NIMl0xKUMoPU8pW05IXVtDSDJdW0NIMl1jMltjSF1bY0hdW2NIXVtjSF1uMg==

> <s_epik_cmdline>
J2VwaWtfcHl0aG9uJywgJy1waCcsICc3LjAnLCAnLXRuJywgJzgnLCAnLW1hJywgJzIwMCcsICctbWV0YWxfYmluZGluZycsICctaW1hZScsICc8aW5maWxlLm1hZT4nLCAnLW9tYWUnLCAnPG91dGZpbGUubWFlPic=

> <r_epik_Ionization_Penalty>
0.0449488

> <r_epik_Ionization_Penalty_Charging>
0

> <r_epik_Ionization_Penalty_Neutral>
0.0449488

> <r_epik_State_Penalty>
0.0380669

> <r_epik_Charging_Adjusted_Penalty>
0.0380669

> <i_epik_Tot_Q>
0

> <i_epik_Tot_abs_Q>
0

> <r_epik_Metal_State_Penalty>
0.0441384

> <b_epik_Metal_Only>
0

> <s_lp_Force_Field>
OPLS_2005

> <r_lp_Energy>
20.2695

> <b_lp_Chiralities_Consistent>
1

> <s_lp_Variant>
AV-unprocessed.smi:1434-2

> <Gold.Version>
5.8.1

> <Gold.Id.Protein>
6NUR|6NUR_protein|mol2

> <Gold.PLP.Fitness>
44.4172

> <Gold.PLP.PLP>
-39.9692

> <Gold.PLP.part.hbond>
-3.2945

> <Gold.PLP.part.metal>
0.0000

> <Gold.PLP.part.buried>
-5.2777

> <Gold.PLP.part.nonpolar>
-32.9662

> <Gold.PLP.part.repulsive>
0.7845

> <Gold.PLP.ligand.clash>
0.0540

> <Gold.PLP.ligand.torsion>
0.5337

> <Gold.PLP.Chemscore.Hbond>
1.8000

> <Gold.PLP.Chemscore.CHOScore>
0.0000

> <Gold.PLP.Chemscore.Metal>
0.0000

> <Gold.Chemscore.Hbonds>
donor molecule, donor type, donor heavy atom, donor atom, acceptor molecule, acceptor atom, score
      L1  H     5    26       P1  7948  0.60
      P1  H  7989  7998       L1    12  0.94

> <Gold.PLP.Chemscore.Internal.Correction>
0.1693

> <Gold.Rescore>
     Score         DG    S(hbond)    S(metal)    S(lipo)     H(rot)  DE(clash)    DE(int)     intcor
     15.33     -17.28       1.86        0.00      92.34       2.03       0.02       1.93       ----

> <Gold.Chemscore.Fitness>
15.3312

> <Gold.Chemscore.DG>
-17.2791

> <Gold.Chemscore.ZeroCoef>
-5.4800

> <Gold.Chemscore.Hbond>
1.8570

> <Gold.Chemscore.Metal>
0.0000

> <Gold.Chemscore.Lipo>
92.3410

> <Gold.Chemscore.Internal_Hbond>
0.0000

> <Gold.Chemscore.DEClash>
0.0206

> <Gold.Chemscore.DEInternal>
1.9272

> <Gold.Chemscore.Rot>
2.0340

> <Gold.Chemscore.Internal.Correction>
   9.000000E+99

> <Gold.Chemscore.Hbonds>
donor molecule, donor type, donor heavy atom, donor atom, acceptor molecule, acceptor atom, score
      L1  H     5    26       P1  7948  0.04
      P1  H  7989  7998       L1    12  0.50

> <Gold.Chemscore.Hbond.Weighted>
-6.2023

> <Gold.Chemscore.Metal.Weighted>
-0.0000

> <Gold.Chemscore.Lipo.Weighted>
-10.8039

> <Gold.Chemscore.Internal_Hbond.Weighted>
0.0000

> <Gold.Chemscore.DEClash.Weighted>
0.0206

> <Gold.Chemscore.DEInternal.Weighted>
1.9272

> <Gold.Chemscore.Rot.Weighted>
5.2071

> <Gold.Chemscore.Internal.Correction.Weighted>
   9.000000E+99

> <Gold.Protein.RotatedTorsions>
[ 6907 6896 6895 6894 ] final -145.14 input  -60.11 | X-H torsion
[ 7974 7965 7964 7962 ] final -120.95 input  175.53 | X-H torsion
[ 8008 7997 7996 7995 ] final  136.31 input   59.86 | X-H torsion
[ 10167 10162 10161 10158 ] final  -87.16 input  -65.29 | X-H torsion
[ 10718 10713 10712 10709 ] final  174.04 input   66.30 | X-H torsion
[ 10763 10752 10751 10750 ] final  -72.47 input  -60.55 | X-H torsion
[ 11005 11000 10999 10996 ] final  123.40 input  -57.11 | X-H torsion

> <Gold.Protein.ActiveResidues>
 VAL166  LYS551  ARG553  GLY616  TRP617  ASP618  TYR619  PRO620  LYS621  CYS622 
 ASP623  PHE694  ASN695  SER759  ASP760  ASP761  ALA762  ILE779  LEU786  VAL792 
 PHE793  MET794  SER795  GLU796  ALA797  LYS798  CYS799  TRP800  GLU811  SER814 

> <Gold.Protein.RotatedAtoms>
  151.1237  133.5086  159.2601 H   0  0  0  0  0  0  0  0  0  0  0  0  # atno 6907 bound_to 6896
  151.1833  135.0370  159.8812 H   0  0  0  0  0  0  0  0  0  0  0  0  # atno 6908 bound_to 6896
  152.5457  134.1086  159.8402 H   0  0  0  0  0  0  0  0  0  0  0  0  # atno 6909 bound_to 6896
  145.0457  140.8179  143.4239 H   0  0  0  0  0  0  0  0  0  0  0  0  # atno 7974 bound_to 7965
  156.3004  140.2448  156.3724 H   0  0  0  0  0  0  0  0  0  0  0  0  # atno 8008 bound_to 7997
  154.8776  140.0414  157.1782 H   0  0  0  0  0  0  0  0  0  0  0  0  # atno 8009 bound_to 7997
  154.8729  140.2938  155.5474 H   0  0  0  0  0  0  0  0  0  0  0  0  # atno 8010 bound_to 7997
  140.3871  143.2722  151.9311 H   0  0  0  0  0  0  0  0  0  0  0  0  # atno 10167 bound_to 10162
  156.9554  131.0044  151.2939 H   0  0  0  0  0  0  0  0  0  0  0  0  # atno 10718 bound_to 10713
  154.4462  135.5928  153.6161 H   0  0  0  0  0  0  0  0  0  0  0  0  # atno 10763 bound_to 10752
  152.9809  135.6010  154.3661 H   0  0  0  0  0  0  0  0  0  0  0  0  # atno 10764 bound_to 10752
  154.3517  135.2841  155.2347 H   0  0  0  0  0  0  0  0  0  0  0  0  # atno 10765 bound_to 10752
  139.9311  134.9641  156.8254 H   0  0  0  0  0  0  0  0  0  0  0  0  # atno 11005 bound_to 11000
  145.1591  139.2469  143.5401 LP  0  0  0  0  0  0  0  0  0  0  0  0  # atno 17320 bound_to 7965
  146.3513  140.1313  142.8597 LP  0  0  0  0  0  0  0  0  0  0  0  0  # atno 17321 bound_to 7965
  139.4791  144.5763  151.8006 LP  0  0  0  0  0  0  0  0  0  0  0  0  # atno 17342 bound_to 10162
  140.4878  144.1355  150.5944 LP  0  0  0  0  0  0  0  0  0  0  0  0  # atno 17343 bound_to 10162
  157.5693  130.8300  149.8370 LP  0  0  0  0  0  0  0  0  0  0  0  0  # atno 17370 bound_to 10713
  156.0345  130.3755  150.1598 LP  0  0  0  0  0  0  0  0  0  0  0  0  # atno 17371 bound_to 10713
  140.6199  134.0003  155.7614 LP  0  0  0  0  0  0  0  0  0  0  0  0  # atno 17394 bound_to 11000
  141.0900  133.9931  157.3252 LP  0  0  0  0  0  0  0  0  0  0  0  0  # atno 17395 bound_to 11000

$$$$
