#       Name:                AV-unprocessed.smi:2448
#       Creating user name   scv26
#       Creation time:       Fri Mar 27 13:29:39 2020


#       File generated by GOLD software.
#

@<TRIPOS>MOLECULE
AV-unprocessed.smi:2448
    41    42     1
SMALL
NO_CHARGES


@<TRIPOS>ATOM
      1 ****        -2.6994  -0.8126   0.8305 O.3            1 S1                 0.0000
      2 ****        -1.9201   0.3339   1.1240 C.3            1 S1                 0.0000
      3 ****        -0.5048   0.1117   0.5522 C.3            1 S1                 0.0000
      4 ****         0.2304  -0.9175   1.2904 N.3            1 S1                 0.0000
      5 ****         1.6621  -1.0522   0.9830 C.3            1 S1                 0.0000
      6 ****         1.9277  -1.6629  -0.4183 C.3            1 S1                 0.0000
      7 ****         1.7214  -0.7200  -1.5932 C.ar           1 S1                 0.0000
      8 ****         0.8258  -1.0591  -2.6325 C.ar           1 S1                 0.0000
      9 ****         0.6549  -0.1706  -3.7136 C.ar           1 S1                 0.0000
     10 ****         1.3491   0.9877  -3.7485 N.pl3          1 S1                 1.0000
     11 ****         2.2217   1.3470  -2.7818 C.ar           1 S1                 0.0000
     12 ****         2.4341   0.4978  -1.6766 C.ar           1 S1                 0.0000
     13 ****         2.3464  -1.8854   2.0875 C.3            1 S1                 0.0000
     14 ****         2.1143  -1.3348   3.2798 F              1 S1                 0.0000
     15 ****         1.8826  -3.1357   2.0920 F              1 S1                 0.0000
     16 ****         3.6653  -1.9129   1.8949 F              1 S1                 0.0000
     17 ****        -2.6115   1.5415   0.4694 C.3            1 S1                 0.0000
     18 ****        -3.8550   1.8794   1.2984 C.3            1 S1                 0.0000
     19 ****        -3.4734   1.5117   3.0289 S.3            1 S1                 0.0000
     20 ****        -1.9466   0.6156   2.6378 C.3            1 S1                 0.0000
     21 ****        -2.7152  -0.9362  -0.1060 H              1 S1                 0.0000
     22 ****        -0.5838  -0.1469  -0.5017 H              1 S1                 0.0000
     23 ****         0.0465   1.0513   0.6030 H              1 S1                 0.0000
     24 ****         0.1142  -0.7665   2.2879 H              1 S1                 0.0000
     25 ****         2.1243  -0.0656   1.0286 H              1 S1                 0.0000
     26 ****         2.9632  -1.9974  -0.4811 H              1 S1                 0.0000
     27 ****         1.3221  -2.5606  -0.5501 H              1 S1                 0.0000
     28 ****         0.2716  -1.9862  -2.6023 H              1 S1                 0.0000
     29 ****        -0.0101  -0.3511  -4.5455 H              1 S1                 0.0000
     30 ****         2.7216   2.2943  -2.9220 H              1 S1                 0.0000
     31 ****         3.1360   0.7808  -0.9056 H              1 S1                 0.0000
     32 ****        -1.9374   2.3990   0.4906 H              1 S1                 0.0000
     33 ****        -2.8606   1.3627  -0.5775 H              1 S1                 0.0000
     34 ****        -4.1597   2.9190   1.1768 H              1 S1                 0.0000
     35 ****        -4.6921   1.2505   0.9940 H              1 S1                 0.0000
     36 ****        -1.8613  -0.2915   3.2374 H              1 S1                 0.0000
     37 ****        -1.1140   1.2651   2.9100 H              1 S1                 0.0000
     38 ****         1.2113   1.6160  -4.5407 H              1 S1                 0.0000
     39 ****        -3.6314  -0.6816   1.1685 LP             1 S1                 0.0000
     40 ****        -2.2956  -1.6154   1.2692 LP             1 S1                 0.0000
     41 ****        -0.1747  -1.7793   0.9852 LP             1 S1                 0.0000
@<TRIPOS>BOND
    1    1    2 1     
    2    1   21 1     
    3    2   20 1     
    4    2    3 1     
    5    2   17 1     
    6    3    4 1     
    7    3   22 1     
    8    3   23 1     
    9    4    5 1     
   10    4   24 1     
   11    5    6 1     
   12    5   13 1     
   13    5   25 1     
   14    6    7 1     
   15    6   26 1     
   16    6   27 1     
   17    7   12 ar    
   18    7    8 ar    
   19    8    9 ar    
   20    8   28 1     
   21    9   10 ar    
   22    9   29 1     
   23   10   11 ar    
   24   10   38 1     
   25   11   12 ar    
   26   11   30 1     
   27   12   31 1     
   28   13   14 1     
   29   13   15 1     
   30   13   16 1     
   31   17   18 1     
   32   17   32 1     
   33   17   33 1     
   34   18   19 1     
   35   18   34 1     
   36   18   35 1     
   37   19   20 1     
   38   20   36 1     
   39   20   37 1     
   40    1   39 1     
   41    1   40 1     
   42    4   41 1     
@<TRIPOS>SUBSTRUCTURE
      1 S1             1
@<TRIPOS>SET
LONE_PAIRS      STATIC     ATOMS    <user>   **** ""
3 39 40 41
DONOR_HYDROGENS      STATIC     ATOMS    <user>   **** ""
3 21 24 38
ATOM$BLUE        STATIC     ATOMS    COLORGROUP SYSTEM
3 39 40 41
ATOM$RED        STATIC     ATOMS    COLORGROUP SYSTEM
3 21 24 38
