AV-unprocessed.smi:754|AV-procd|sdf|3610|dock5
  -GOLD-   22720 1 03D 1   1.00000     0.00000
 Structure written by MMmdl.
 37 38  0  0  0  0  0  0  0  0  1 V2000
  142.9259  135.8874  153.7563 C   0  0  0  0  0  0  0  0  0  0  0  0
  144.1910  136.5576  154.2967 C   0  0  0  0  0  0  0  0  0  0  0  0
  144.6319  137.5275  153.3615 O   0  0  0  0  0  0  0  0  0  0  0  0
  146.0403  137.7004  153.3688 C   0  0  1  0  0  0  0  0  0  0  0  0
  146.5661  138.7054  152.3397 C   0  0  0  0  0  0  0  0  0  0  0  0
  147.5081  139.2241  153.4312 C   0  0  2  0  0  0  0  0  0  0  0  0
  148.8003  138.5419  153.3753 N   0  0  0  0  0  0  0  0  0  0  0  0
  149.9295  138.9956  153.9389 C   0  0  0  0  0  0  0  0  0  0  0  0
  150.0217  140.0899  154.4939 O   0  0  0  0  0  0  0  0  0  0  0  0
  151.1304  138.0518  153.9016 C   0  0  0  0  0  0  0  0  0  0  0  0
  151.9441  138.2238  155.0905 N   0  0  0  0  0  0  0  0  0  0  0  0
  152.4255  139.3244  155.6721 C   0  0  0  0  0  0  0  0  0  0  0  0
  153.1013  139.0388  156.7744 N   0  0  0  0  0  0  0  0  0  0  0  0
  153.0136  137.6587  156.8489 N   0  0  0  0  0  0  0  0  0  0  0  0
  152.3269  137.1695  155.8533 N   0  0  0  0  0  0  0  0  0  0  0  0
  146.5373  138.6367  154.4969 C   0  0  0  0  0  0  0  0  0  0  0  0
  145.5117  139.6465  155.0291 C   0  0  0  0  0  0  0  0  0  0  0  0
  147.1397  137.9409  155.7243 C   0  0  0  0  0  0  0  0  0  0  0  0
  142.5596  135.1306  154.4499 H   0  0  0  0  0  0  0  0  0  0  0  0
  143.1194  135.4001  152.8004 H   0  0  0  0  0  0  0  0  0  0  0  0
  142.1298  136.6171  153.6061 H   0  0  0  0  0  0  0  0  0  0  0  0
  143.9805  137.0299  155.2573 H   0  0  0  0  0  0  0  0  0  0  0  0
  144.9660  135.8077  154.4604 H   0  0  0  0  0  0  0  0  0  0  0  0
  146.5871  136.7549  153.3483 H   0  0  0  0  0  0  0  0  0  0  0  0
  147.0529  138.2573  151.4725 H   0  0  0  0  0  0  0  0  0  0  0  0
  145.8182  139.4417  152.0415 H   0  0  0  0  0  0  0  0  0  0  0  0
  147.5781  140.3133  153.4459 H   0  0  0  0  0  0  0  0  0  0  0  0
  148.8184  137.6315  152.9381 H   0  0  0  0  0  0  0  0  0  0  0  0
  150.7948  137.0159  153.8331 H   0  0  0  0  0  0  0  0  0  0  0  0
  151.7437  138.2555  153.0228 H   0  0  0  0  0  0  0  0  0  0  0  0
  152.2723  140.3258  155.2974 H   0  0  0  0  0  0  0  0  0  0  0  0
  145.9854  140.3968  155.6628 H   0  0  0  0  0  0  0  0  0  0  0  0
  144.7366  139.1587  155.6211 H   0  0  0  0  0  0  0  0  0  0  0  0
  145.0086  140.1806  154.2224 H   0  0  0  0  0  0  0  0  0  0  0  0
  147.7210  138.6356  156.3313 H   0  0  0  0  0  0  0  0  0  0  0  0
  147.8019  137.1206  155.4464 H   0  0  0  0  0  0  0  0  0  0  0  0
  146.3659  137.5133  156.3626 H   0  0  0  0  0  0  0  0  0  0  0  0
  1  2  1  0  0  0  0
  1 19  1  0  0  0  0
  1 20  1  0  0  0  0
  1 21  1  0  0  0  0
  2  3  1  0  0  0  0
  2 22  1  0  0  0  0
  2 23  1  0  0  0  0
  3  4  1  0  0  0  0
  4 16  1  0  0  0  0
  4  5  1  0  0  0  0
  4 24  1  0  0  0  0
  5  6  1  0  0  0  0
  5 25  1  0  0  0  0
  5 26  1  0  0  0  0
  6  7  1  0  0  0  0
  6 16  1  0  0  0  0
  6 27  1  0  0  0  0
  7  8  1  0  0  0  0
  7 28  1  0  0  0  0
  8  9  2  0  0  0  0
  8 10  1  0  0  0  0
 10 11  1  0  0  0  0
 10 29  1  0  0  0  0
 10 30  1  0  0  0  0
 11 15  1  0  0  0  0
 11 12  1  0  0  0  0
 12 13  2  0  0  0  0
 12 31  1  0  0  0  0
 13 14  1  0  0  0  0
 14 15  2  0  0  0  0
 16 17  1  0  0  0  0
 16 18  1  0  0  0  0
 17 32  1  0  0  0  0
 17 33  1  0  0  0  0
 17 34  1  0  0  0  0
 18 35  1  0  0  0  0
 18 36  1  0  0  0  0
 18 37  1  0  0  0  0
M  END
> <s_m_source_file>
AV-unprocessed.smi

> <i_m_source_file_index>
754

> <i_lp_mmshare_version>
43012

> <i_f3d_flags>
0

> <s_epik_input>
W0NIM11bQ0gyXU9bQ0BASF0oQzEoW0NIM10pW0NIM10pW0NIMl1bQ0BIXTFbTkhdQyg9TylbQ0gyXW4yW2NIXW5ubjI=

> <s_epik_cmdline>
J2VwaWtfcHl0aG9uJywgJy1waCcsICc3LjAnLCAnLXRuJywgJzgnLCAnLW1hJywgJzIwMCcsICctbWV0YWxfYmluZGluZycsICctaW1hZScsICc8aW5maWxlLm1hZT4nLCAnLW9tYWUnLCAnPG91dGZpbGUubWFlPic=

> <r_lp_tautomer_probability>
1

> <r_epik_Ionization_Penalty>
8.28422e-07

> <r_epik_Ionization_Penalty_Charging>
0

> <r_epik_Ionization_Penalty_Neutral>
8.28422e-07

> <r_epik_State_Penalty>
-0

> <r_epik_Charging_Adjusted_Penalty>
0

> <i_epik_Tot_Q>
0

> <i_epik_Tot_abs_Q>
0

> <r_epik_Metal_State_Penalty>
-0

> <b_epik_Metal_Only>
0

> <s_lp_Force_Field>
OPLS_2005

> <r_lp_Energy>
21.5247

> <b_lp_Chiralities_Consistent>
1

> <s_lp_Variant>
AV-unprocessed.smi:754-4

> <Gold.Version>
5.8.1

> <Gold.Id.Protein>
6NUR|6NUR_protein|mol2

> <Gold.PLP.Fitness>
32.3753

> <Gold.PLP.PLP>
-22.6547

> <Gold.PLP.part.hbond>
-5.0000

> <Gold.PLP.part.metal>
0.0000

> <Gold.PLP.part.buried>
-0.7828

> <Gold.PLP.part.nonpolar>
-17.2384

> <Gold.PLP.part.repulsive>
0.3461

> <Gold.PLP.ligand.clash>
0.0000

> <Gold.PLP.ligand.torsion>
1.0334

> <Gold.PLP.Chemscore.Hbond>
3.8160

> <Gold.PLP.Chemscore.CHOScore>
0.0000

> <Gold.PLP.Chemscore.Metal>
0.0000

> <Gold.Chemscore.Hbonds>
donor molecule, donor type, donor heavy atom, donor atom, acceptor molecule, acceptor atom, score
      L1  H     7    28       P1  7948  1.00
      P1  H  7989  7998       L1     9  0.98
      P1  H  7997  8008       L1    13  0.80
      P1  H 10752 10763       L1    15  0.85

> <Gold.PLP.Chemscore.Internal.Correction>
0.3394

> <Gold.Rescore>
     Score         DG    S(hbond)    S(metal)    S(lipo)     H(rot)  DE(clash)    DE(int)     intcor
      9.39     -12.47       2.66        0.00      37.74       2.46       0.41       2.68       ----

> <Gold.Chemscore.Fitness>
9.3881

> <Gold.Chemscore.DG>
-12.4739

> <Gold.Chemscore.ZeroCoef>
-5.4800

> <Gold.Chemscore.Hbond>
2.6588

> <Gold.Chemscore.Metal>
0.0000

> <Gold.Chemscore.Lipo>
37.7357

> <Gold.Chemscore.Internal_Hbond>
0.0000

> <Gold.Chemscore.DEClash>
0.4087

> <Gold.Chemscore.DEInternal>
2.6772

> <Gold.Chemscore.Rot>
2.4616

> <Gold.Chemscore.Internal.Correction>
   9.000000E+99

> <Gold.Chemscore.Hbonds>
donor molecule, donor type, donor heavy atom, donor atom, acceptor molecule, acceptor atom, score
      L1  H     7    28       P1  7948  1.00
      P1  H  7989  7998       L1     9  0.22
      P1  H  7997  8008       L1    13  0.12
      P1  H 10752 10763       L1    15  0.70

> <Gold.Chemscore.Hbond.Weighted>
-8.8805

> <Gold.Chemscore.Metal.Weighted>
-0.0000

> <Gold.Chemscore.Lipo.Weighted>
-4.4151

> <Gold.Chemscore.Internal_Hbond.Weighted>
0.0000

> <Gold.Chemscore.DEClash.Weighted>
0.4087

> <Gold.Chemscore.DEInternal.Weighted>
2.6772

> <Gold.Chemscore.Rot.Weighted>
6.3016

> <Gold.Chemscore.Internal.Correction.Weighted>
   9.000000E+99

> <Gold.Protein.RotatedTorsions>
[ 6907 6896 6895 6894 ] final  -87.03 input  -60.11 | X-H torsion
[ 7974 7965 7964 7962 ] final -114.91 input  175.53 | X-H torsion
[ 8008 7997 7996 7995 ] final  -51.02 input   59.86 | X-H torsion
[ 10167 10162 10161 10158 ] final  -62.31 input  -65.29 | X-H torsion
[ 10718 10713 10712 10709 ] final   12.29 input   66.30 | X-H torsion
[ 10763 10752 10751 10750 ] final   82.61 input  -60.55 | X-H torsion
[ 11005 11000 10999 10996 ] final  -72.85 input  -57.11 | X-H torsion

> <Gold.Protein.ActiveResidues>
 VAL166  LYS551  ARG553  GLY616  TRP617  ASP618  TYR619  PRO620  LYS621  CYS622 
 ASP623  PHE694  ASN695  SER759  ASP760  ASP761  ALA762  ILE779  LEU786  VAL792 
 PHE793  MET794  SER795  GLU796  ALA797  LYS798  CYS799  TRP800  GLU811  SER814 

> <Gold.Protein.RotatedAtoms>
  150.6866  134.2959  159.4685 H   0  0  0  0  0  0  0  0  0  0  0  0  # atno 6907 bound_to 6896
  152.0860  134.9437  160.0582 H   0  0  0  0  0  0  0  0  0  0  0  0  # atno 6908 bound_to 6896
  152.0771  133.4100  159.4522 H   0  0  0  0  0  0  0  0  0  0  0  0  # atno 6909 bound_to 6896
  145.1146  140.8632  143.3850 H   0  0  0  0  0  0  0  0  0  0  0  0  # atno 7974 bound_to 7965
  154.4074  140.1258  156.4761 H   0  0  0  0  0  0  0  0  0  0  0  0  # atno 8008 bound_to 7997
  155.7131  140.3493  155.4963 H   0  0  0  0  0  0  0  0  0  0  0  0  # atno 8009 bound_to 7997
  155.9282  140.1065  157.1143 H   0  0  0  0  0  0  0  0  0  0  0  0  # atno 8010 bound_to 7997
  140.5947  143.2348  151.6062 H   0  0  0  0  0  0  0  0  0  0  0  0  # atno 10167 bound_to 10162
  157.0080  130.6106  149.5704 H   0  0  0  0  0  0  0  0  0  0  0  0  # atno 10718 bound_to 10713
  153.1218  135.4722  154.9207 H   0  0  0  0  0  0  0  0  0  0  0  0  # atno 10763 bound_to 10752
  154.7582  135.3124  154.8431 H   0  0  0  0  0  0  0  0  0  0  0  0  # atno 10764 bound_to 10752
  153.8994  135.6876  153.4810 H   0  0  0  0  0  0  0  0  0  0  0  0  # atno 10765 bound_to 10752
  141.1614  133.6859  156.7122 H   0  0  0  0  0  0  0  0  0  0  0  0  # atno 11005 bound_to 11000
  145.0808  139.2961  143.5784 LP  0  0  0  0  0  0  0  0  0  0  0  0  # atno 17320 bound_to 7965
  146.3524  140.0314  142.8650 LP  0  0  0  0  0  0  0  0  0  0  0  0  # atno 17321 bound_to 7965
  139.5250  144.3086  152.1012 LP  0  0  0  0  0  0  0  0  0  0  0  0  # atno 17342 bound_to 10162
  140.2256  144.4421  150.6322 LP  0  0  0  0  0  0  0  0  0  0  0  0  # atno 17343 bound_to 10162
  156.0146  130.5240  150.8096 LP  0  0  0  0  0  0  0  0  0  0  0  0  # atno 17370 bound_to 10713
  157.5341  131.0938  150.9915 LP  0  0  0  0  0  0  0  0  0  0  0  0  # atno 17371 bound_to 10713
  140.2879  134.8264  157.3991 LP  0  0  0  0  0  0  0  0  0  0  0  0  # atno 17394 bound_to 11000
  140.1373  134.5017  155.8058 LP  0  0  0  0  0  0  0  0  0  0  0  0  # atno 17395 bound_to 11000

$$$$
