AV-unprocessed.smi:1554|AV-procd|sdf|6258|dock6
  -GOLD-   22720 6443D 1   1.00000     0.00000
 Structure written by MMmdl.
 49 51  0  0  0  0  0  0  0  0  3 V2000
  152.3891  144.0861  160.1574 C   0  0  0  0  0  0  0  0  0  0  0  0
  152.0737  143.0510  159.0909 C   0  0  0  0  0  0  0  0  0  0  0  0
  151.1589  143.3924  158.0691 C   0  0  0  0  0  0  0  0  0  0  0  0
  150.8948  142.4264  157.1054 C   0  0  0  0  0  0  0  0  0  0  0  0
  150.0588  142.4521  155.9869 N   0  3  0  0  0  0  0  0  0  0  0  0
  150.1343  141.2590  155.3347 C   0  0  0  0  0  0  0  0  0  0  0  0
  151.0088  140.4722  156.0196 N   0  0  0  0  0  0  0  0  0  0  0  0
  151.4625  139.1011  155.7503 C   0  0  0  0  0  0  0  0  0  0  0  0
  150.3114  138.0765  155.7863 C   0  0  2  0  0  0  0  0  0  0  0  0
  149.8161  137.9832  157.1083 O   0  0  0  0  0  0  0  0  0  0  0  0
  150.7649  136.6788  155.3199 C   0  0  0  0  0  0  0  0  0  0  0  0
  149.6709  135.9180  154.6568 N   0  3  2  0  0  0  0  0  0  0  0  0
  148.3516  136.0722  155.3171 C   0  0  0  0  0  0  0  0  0  0  0  0
  148.2560  135.1981  156.5802 C   0  0  0  0  0  0  0  0  0  0  0  0
  148.5002  133.8400  156.2343 O   0  0  0  0  0  0  0  0  0  0  0  0
  149.8040  133.6389  155.6996 C   0  0  1  0  0  0  0  0  0  0  0  0
  149.9832  132.1411  155.4293 C   0  0  0  0  0  0  0  0  0  0  0  0
  149.9646  134.4812  154.4148 C   0  0  0  0  0  0  0  0  0  0  0  0
  151.5045  141.1573  157.1338 C   0  0  0  0  0  0  0  0  0  0  0  0
  152.4050  140.8028  158.1354 C   0  0  0  0  0  0  0  0  0  0  0  0
  152.6879  141.7721  159.1240 C   0  0  0  0  0  0  0  0  0  0  0  0
  153.6682  141.4150  160.2284 C   0  0  0  0  0  0  0  0  0  0  0  0
  151.8282  145.0073  159.9980 H   0  0  0  0  0  0  0  0  0  0  0  0
  153.4503  144.3361  160.1453 H   0  0  0  0  0  0  0  0  0  0  0  0
  152.1334  143.7073  161.1471 H   0  0  0  0  0  0  0  0  0  0  0  0
  150.6871  144.3638  158.0382 H   0  0  0  0  0  0  0  0  0  0  0  0
  149.6009  140.9894  154.4345 H   0  0  0  0  0  0  0  0  0  0  0  0
  151.9648  139.0922  154.7821 H   0  0  0  0  0  0  0  0  0  0  0  0
  152.2203  138.8519  156.4948 H   0  0  0  0  0  0  0  0  0  0  0  0
  149.5042  138.4405  155.1524 H   0  0  0  0  0  0  0  0  0  0  0  0
  150.5480  137.9236  157.7037 H   0  0  0  0  0  0  0  0  0  0  0  0
  151.6187  136.7640  154.6477 H   0  0  0  0  0  0  0  0  0  0  0  0
  151.1240  136.1262  156.1894 H   0  0  0  0  0  0  0  0  0  0  0  0
  148.1555  137.1191  155.5516 H   0  0  0  0  0  0  0  0  0  0  0  0
  147.5775  135.7683  154.6111 H   0  0  0  0  0  0  0  0  0  0  0  0
  148.9603  135.5275  157.3455 H   0  0  0  0  0  0  0  0  0  0  0  0
  147.2587  135.2754  157.0134 H   0  0  0  0  0  0  0  0  0  0  0  0
  150.5437  133.9383  156.4431 H   0  0  0  0  0  0  0  0  0  0  0  0
  150.9766  131.9299  155.0324 H   0  0  0  0  0  0  0  0  0  0  0  0
  149.2503  131.7782  154.7081 H   0  0  0  0  0  0  0  0  0  0  0  0
  149.8625  131.5631  156.3457 H   0  0  0  0  0  0  0  0  0  0  0  0
  149.2647  134.1218  153.6591 H   0  0  0  0  0  0  0  0  0  0  0  0
  150.9590  134.3470  153.9913 H   0  0  0  0  0  0  0  0  0  0  0  0
  152.8726  139.8299  158.1602 H   0  0  0  0  0  0  0  0  0  0  0  0
  154.0589  140.4045  160.1042 H   0  0  0  0  0  0  0  0  0  0  0  0
  153.1818  141.4662  161.2029 H   0  0  0  0  0  0  0  0  0  0  0  0
  154.5151  142.1016  160.2268 H   0  0  0  0  0  0  0  0  0  0  0  0
  149.5733  136.3488  153.7480 H   0  0  0  0  0  0  0  0  0  0  0  0
  149.4799  143.2265  155.6873 H   0  0  0  0  0  0  0  0  0  0  0  0
  1  2  1  0  0  0  0
  1 23  1  0  0  0  0
  1 24  1  0  0  0  0
  1 25  1  0  0  0  0
  2 21  1  0  0  0  0
  2  3  2  0  0  0  0
  3  4  1  0  0  0  0
  3 26  1  0  0  0  0
  4 19  2  0  0  0  0
  4  5  1  0  0  0  0
  5  6  2  0  0  0  0
  5 49  1  0  0  0  0
  6  7  1  0  0  0  0
  6 27  1  0  0  0  0
  7  8  1  0  0  0  0
  7 19  1  0  0  0  0
  8  9  1  0  0  0  0
  8 28  1  0  0  0  0
  8 29  1  0  0  0  0
  9 10  1  0  0  0  0
  9 11  1  0  0  0  0
  9 30  1  0  0  0  0
 10 31  1  0  0  0  0
 11 12  1  0  0  0  0
 11 32  1  0  0  0  0
 11 33  1  0  0  0  0
 12 18  1  0  0  0  0
 12 13  1  0  0  0  0
 12 48  1  0  0  0  0
 13 14  1  0  0  0  0
 13 34  1  0  0  0  0
 13 35  1  0  0  0  0
 14 15  1  0  0  0  0
 14 36  1  0  0  0  0
 14 37  1  0  0  0  0
 15 16  1  0  0  0  0
 16 17  1  0  0  0  0
 16 18  1  0  0  0  0
 16 38  1  0  0  0  0
 17 39  1  0  0  0  0
 17 40  1  0  0  0  0
 17 41  1  0  0  0  0
 18 42  1  0  0  0  0
 18 43  1  0  0  0  0
 19 20  1  0  0  0  0
 20 21  2  0  0  0  0
 20 44  1  0  0  0  0
 21 22  1  0  0  0  0
 22 45  1  0  0  0  0
 22 46  1  0  0  0  0
 22 47  1  0  0  0  0
M  CHG  1   5   1
M  CHG  1  12   1
M  END
> <s_m_source_file>
AV-unprocessed.smi

> <i_m_source_file_index>
1554

> <i_lp_mmshare_version>
43012

> <i_f3d_flags>
0

> <s_epik_input>
W0NIM11jKFtjSF0xKWMoW0NIM10pW2NIXWMoYzEyKW4oW2NIXW4yKVtDSDJdW0NASF0oW09IXSlbQ0gyXU4zW0NIMl1bQ0gyXU9bQ0BASF0oW0NIM10pW0NIMl0z

> <s_epik_cmdline>
J2VwaWtfcHl0aG9uJywgJy1waCcsICc3LjAnLCAnLXRuJywgJzgnLCAnLW1hJywgJzIwMCcsICctbWV0YWxfYmluZGluZycsICctaW1hZScsICc8aW5maWxlLm1hZT4nLCAnLW9tYWUnLCAnPG91dGZpbGUubWFlPic=

> <r_epik_Ionization_Penalty>
1.8848

> <r_epik_Ionization_Penalty_Charging>
1.88479

> <r_epik_Ionization_Penalty_Neutral>
1.42224e-05

> <r_epik_State_Penalty>
1.94551

> <r_epik_Charging_Adjusted_Penalty>
3.8303

> <i_epik_Tot_Q>
2

> <i_epik_Tot_abs_Q>
2

> <r_epik_Metal_State_Penalty>
5.95849

> <b_epik_Metal_Only>
0

> <s_lp_Force_Field>
OPLS_2005

> <r_lp_Energy>
31.481

> <b_lp_Chiralities_Consistent>
1

> <s_lp_Variant>
AV-unprocessed.smi:1554-19

> <Gold.Version>
5.8.1

> <Gold.Id.Protein>
6NUR|6NUR_protein|mol2

> <Gold.PLP.Fitness>
50.4020

> <Gold.PLP.PLP>
-39.4351

> <Gold.PLP.part.hbond>
-2.0000

> <Gold.PLP.part.metal>
0.0000

> <Gold.PLP.part.buried>
-4.0939

> <Gold.PLP.part.nonpolar>
-33.3224

> <Gold.PLP.part.repulsive>
0.1747

> <Gold.PLP.ligand.clash>
0.0000

> <Gold.PLP.ligand.torsion>
0.5313

> <Gold.PLP.Chemscore.Hbond>
4.0000

> <Gold.PLP.Chemscore.CHOScore>
0.0000

> <Gold.PLP.Chemscore.Metal>
0.0000

> <Gold.Chemscore.Hbonds>
donor molecule, donor type, donor heavy atom, donor atom, acceptor molecule, acceptor atom, score
      L1  H     5    49       P1  8028  2.00
      L1  H    12    48       P1  7948  1.98

> <Gold.PLP.Chemscore.Internal.Correction>
0.0295

> <Gold.Rescore>
     Score         DG    S(hbond)    S(metal)    S(lipo)     H(rot)  DE(clash)    DE(int)     intcor
     17.30     -18.62       1.61        0.00     112.51       2.11       0.09       1.23       ----

> <Gold.Chemscore.Fitness>
17.2997

> <Gold.Chemscore.DG>
-18.6171

> <Gold.Chemscore.ZeroCoef>
-5.4800

> <Gold.Chemscore.Hbond>
1.6110

> <Gold.Chemscore.Metal>
0.0000

> <Gold.Chemscore.Lipo>
112.5109

> <Gold.Chemscore.Internal_Hbond>
0.0000

> <Gold.Chemscore.DEClash>
0.0901

> <Gold.Chemscore.DEInternal>
1.2273

> <Gold.Chemscore.Rot>
2.1122

> <Gold.Chemscore.Internal.Correction>
   9.000000E+99

> <Gold.Chemscore.Hbonds>
donor molecule, donor type, donor heavy atom, donor atom, acceptor molecule, acceptor atom, score
      L1  H     5    49       P1  8028  0.98
      L1  H    12    48       P1  7948  0.56

> <Gold.Chemscore.Hbond.Weighted>
-5.3806

> <Gold.Chemscore.Metal.Weighted>
-0.0000

> <Gold.Chemscore.Lipo.Weighted>
-13.1638

> <Gold.Chemscore.Internal_Hbond.Weighted>
0.0000

> <Gold.Chemscore.DEClash.Weighted>
0.0901

> <Gold.Chemscore.DEInternal.Weighted>
1.2273

> <Gold.Chemscore.Rot.Weighted>
5.4073

> <Gold.Chemscore.Internal.Correction.Weighted>
   9.000000E+99

> <Gold.Protein.RotatedTorsions>
[ 6907 6896 6895 6894 ] final  -33.25 input  -60.11 | X-H torsion
[ 7974 7965 7964 7962 ] final   16.22 input  175.53 | X-H torsion
[ 8008 7997 7996 7995 ] final -131.40 input   59.86 | X-H torsion
[ 10167 10162 10161 10158 ] final  143.12 input  -65.29 | X-H torsion
[ 10718 10713 10712 10709 ] final  -46.59 input   66.30 | X-H torsion
[ 10763 10752 10751 10750 ] final  -19.24 input  -60.55 | X-H torsion
[ 11005 11000 10999 10996 ] final   47.84 input  -57.11 | X-H torsion

> <Gold.Protein.ActiveResidues>
 VAL166  LYS551  ARG553  GLY616  TRP617  ASP618  TYR619  PRO620  LYS621  CYS622 
 ASP623  PHE694  ASN695  SER759  ASP760  ASP761  ALA762  ILE779  LEU786  VAL792 
 PHE793  MET794  SER795  GLU796  ALA797  LYS798  CYS799  TRP800  GLU811  SER814 

> <Gold.Protein.RotatedAtoms>
  151.0681  134.9780  159.8294 H   0  0  0  0  0  0  0  0  0  0  0  0  # atno 6907 bound_to 6896
  152.5405  134.2334  159.8844 H   0  0  0  0  0  0  0  0  0  0  0  0  # atno 6908 bound_to 6896
  151.2357  133.4383  159.2639 H   0  0  0  0  0  0  0  0  0  0  0  0  # atno 6909 bound_to 6896
  146.2256  139.8779  142.8576 H   0  0  0  0  0  0  0  0  0  0  0  0  # atno 7974 bound_to 7965
  155.3117  140.0457  157.3035 H   0  0  0  0  0  0  0  0  0  0  0  0  # atno 8008 bound_to 7997
  154.5429  140.2293  155.8577 H   0  0  0  0  0  0  0  0  0  0  0  0  # atno 8009 bound_to 7997
  156.1898  140.3053  155.9316 H   0  0  0  0  0  0  0  0  0  0  0  0  # atno 8010 bound_to 7997
  139.4977  144.6062  151.6374 H   0  0  0  0  0  0  0  0  0  0  0  0  # atno 10167 bound_to 10162
  156.2168  130.4164  149.9044 H   0  0  0  0  0  0  0  0  0  0  0  0  # atno 10718 bound_to 10713
  153.6017  135.6999  153.5382 H   0  0  0  0  0  0  0  0  0  0  0  0  # atno 10763 bound_to 10752
  153.3091  135.4106  155.1320 H   0  0  0  0  0  0  0  0  0  0  0  0  # atno 10764 bound_to 10752
  154.8581  135.3668  154.5552 H   0  0  0  0  0  0  0  0  0  0  0  0  # atno 10765 bound_to 10752
  140.1243  134.4788  155.8572 H   0  0  0  0  0  0  0  0  0  0  0  0  # atno 11005 bound_to 11000
  145.2542  141.0054  143.3864 LP  0  0  0  0  0  0  0  0  0  0  0  0  # atno 17320 bound_to 7965
  144.9350  139.4254  143.6476 LP  0  0  0  0  0  0  0  0  0  0  0  0  # atno 17321 bound_to 7965
  140.5724  144.0086  150.6224 LP  0  0  0  0  0  0  0  0  0  0  0  0  # atno 17342 bound_to 10162
  140.3208  143.3138  152.0786 LP  0  0  0  0  0  0  0  0  0  0  0  0  # atno 17343 bound_to 10162
  156.6704  130.8818  151.3561 LP  0  0  0  0  0  0  0  0  0  0  0  0  # atno 17370 bound_to 10713
  157.7067  130.9393  150.0954 LP  0  0  0  0  0  0  0  0  0  0  0  0  # atno 17371 bound_to 10713
  141.2158  133.6772  156.6948 LP  0  0  0  0  0  0  0  0  0  0  0  0  # atno 17394 bound_to 11000
  140.2924  134.8230  157.4028 LP  0  0  0  0  0  0  0  0  0  0  0  0  # atno 17395 bound_to 11000

$$$$
