AV-unprocessed.smi:1230|AV-procd|sdf|5154|dock3
  -GOLD-   22720 4223D 1   1.00000     0.00000
 Structure written by MMmdl.
 38 39  0  0  0  0  0  0  0  0  2 V2000
  153.6401  141.1526  159.9940 C   0  0  0  0  0  0  0  0  0  0  0  0
  153.3458  142.6533  160.1415 C   0  0  2  0  0  0  0  0  0  0  0  0
  152.4122  142.9330  161.3367 C   0  0  0  0  0  0  0  0  0  0  0  0
  152.1623  144.4388  161.5151 C   0  0  0  0  0  0  0  0  0  0  0  0
  151.6027  145.0659  160.2296 C   0  0  0  0  0  0  0  0  0  0  0  0
  152.5217  144.7897  159.0273 C   0  0  0  0  0  0  0  0  0  0  0  0
  152.7918  143.2850  158.8420 C   0  0  2  0  0  0  0  0  0  0  0  0
  151.5620  142.6626  158.4931 O   0  0  0  0  0  0  0  0  0  0  0  0
  151.2867  142.6279  157.1009 C   0  0  0  0  0  0  0  0  0  0  0  0
  150.1376  141.6386  156.8547 C   0  0  0  0  0  0  0  0  0  0  0  0
  150.6552  140.2875  156.5981 N   0  0  0  0  0  0  0  0  0  0  0  0
  151.0821  139.5374  157.7072 C   0  0  0  0  0  0  0  0  0  0  0  0
  151.6175  138.3106  157.5663 C   0  0  0  0  0  0  0  0  0  0  0  0
  152.0733  137.5369  158.6738 C   0  0  0  0  0  0  0  0  0  0  0  0
  152.4133  136.9011  159.5798 N   0  0  0  0  0  0  0  0  0  0  0  0
  151.7471  137.7538  156.2221 C   0  0  0  0  0  0  0  0  0  0  0  0
  152.2283  136.6325  156.0643 O   0  0  0  0  0  0  0  0  0  0  0  0
  151.3174  138.5260  155.1809 N   0  5  0  0  0  0  0  0  0  0  0  0
  150.7843  139.7782  155.3362 C   0  0  0  0  0  0  0  0  0  0  0  0
  150.4252  140.4633  154.3784 O   0  0  0  0  0  0  0  0  0  0  0  0
  152.7247  140.5803  159.8464 H   0  0  0  0  0  0  0  0  0  0  0  0
  154.1305  140.7602  160.8849 H   0  0  0  0  0  0  0  0  0  0  0  0
  154.2956  140.9599  159.1445 H   0  0  0  0  0  0  0  0  0  0  0  0
  154.2994  143.1392  160.3530 H   0  0  0  0  0  0  0  0  0  0  0  0
  151.4604  142.4192  161.1927 H   0  0  0  0  0  0  0  0  0  0  0  0
  152.8443  142.5253  162.2511 H   0  0  0  0  0  0  0  0  0  0  0  0
  151.4708  144.6051  162.3415 H   0  0  0  0  0  0  0  0  0  0  0  0
  153.0950  144.9346  161.7870 H   0  0  0  0  0  0  0  0  0  0  0  0
  150.6080  144.6649  160.0320 H   0  0  0  0  0  0  0  0  0  0  0  0
  151.4801  146.1409  160.3633 H   0  0  0  0  0  0  0  0  0  0  0  0
  152.0809  145.2027  158.1196 H   0  0  0  0  0  0  0  0  0  0  0  0
  153.4690  145.3104  159.1723 H   0  0  0  0  0  0  0  0  0  0  0  0
  153.5268  143.1706  158.0425 H   0  0  0  0  0  0  0  0  0  0  0  0
  151.0071  143.6266  156.7640 H   0  0  0  0  0  0  0  0  0  0  0  0
  152.1678  142.3276  156.5322 H   0  0  0  0  0  0  0  0  0  0  0  0
  149.4636  141.6321  157.7122 H   0  0  0  0  0  0  0  0  0  0  0  0
  149.5288  141.9803  156.0163 H   0  0  0  0  0  0  0  0  0  0  0  0
  150.9637  140.0243  158.6645 H   0  0  0  0  0  0  0  0  0  0  0  0
  1  2  1  0  0  0  0
  1 21  1  0  0  0  0
  1 22  1  0  0  0  0
  1 23  1  0  0  0  0
  2  7  1  0  0  0  0
  2  3  1  0  0  0  0
  2 24  1  0  0  0  0
  3  4  1  0  0  0  0
  3 25  1  0  0  0  0
  3 26  1  0  0  0  0
  4  5  1  0  0  0  0
  4 27  1  0  0  0  0
  4 28  1  0  0  0  0
  5  6  1  0  0  0  0
  5 29  1  0  0  0  0
  5 30  1  0  0  0  0
  6  7  1  0  0  0  0
  6 31  1  0  0  0  0
  6 32  1  0  0  0  0
  7  8  1  0  0  0  0
  7 33  1  0  0  0  0
  8  9  1  0  0  0  0
  9 10  1  0  0  0  0
  9 34  1  0  0  0  0
  9 35  1  0  0  0  0
 10 11  1  0  0  0  0
 10 36  1  0  0  0  0
 10 37  1  0  0  0  0
 11 19  1  0  0  0  0
 11 12  1  0  0  0  0
 12 13  2  0  0  0  0
 12 38  1  0  0  0  0
 13 14  1  0  0  0  0
 13 16  1  0  0  0  0
 14 15  3  0  0  0  0
 16 17  2  0  0  0  0
 16 18  1  0  0  0  0
 18 19  1  0  0  0  0
 19 20  2  0  0  0  0
M  CHG  1  18  -1
M  END
> <s_m_source_file>
AV-unprocessed.smi

> <i_m_source_file_index>
1230

> <i_lp_mmshare_version>
43012

> <i_f3d_flags>
0

> <s_epik_input>
W0NIM11bQ0BASF0xW0NIMl1bQ0gyXVtDSDJdW0NIMl1bQ0BIXTFPW0NIMl1bQ0gyXW4yW2NIXWMoQyNOKWMoPU8pW25IXWMyPU8=

> <s_epik_cmdline>
J2VwaWtfcHl0aG9uJywgJy1waCcsICc3LjAnLCAnLXRuJywgJzgnLCAnLW1hJywgJzIwMCcsICctbWV0YWxfYmluZGluZycsICctaW1hZScsICc8aW5maWxlLm1hZT4nLCAnLW9tYWUnLCAnPG91dGZpbGUubWFlPic=

> <r_epik_Ionization_Penalty>
0.400014

> <r_epik_Ionization_Penalty_Charging>
4.81474e-10

> <r_epik_Ionization_Penalty_Neutral>
0.400014

> <r_epik_State_Penalty>
0.399305

> <r_epik_Charging_Adjusted_Penalty>
0.399305

> <i_epik_Tot_Q>
-1

> <i_epik_Tot_abs_Q>
1

> <r_epik_Metal_State_Penalty>
0.00056968

> <b_epik_Metal_Only>
0

> <s_lp_Force_Field>
OPLS_2005

> <r_lp_Energy>
23.6977

> <b_lp_Chiralities_Consistent>
1

> <s_lp_Variant>
AV-unprocessed.smi:1230-3

> <Gold.Version>
5.8.1

> <Gold.Id.Protein>
6NUR|6NUR_protein|mol2

> <Gold.PLP.Fitness>
51.3226

> <Gold.PLP.PLP>
-44.0414

> <Gold.PLP.part.hbond>
-2.9668

> <Gold.PLP.part.metal>
0.0000

> <Gold.PLP.part.buried>
-5.8355

> <Gold.PLP.part.nonpolar>
-34.4581

> <Gold.PLP.part.repulsive>
0.2130

> <Gold.PLP.ligand.clash>
0.0000

> <Gold.PLP.ligand.torsion>
0.8739

> <Gold.PLP.Chemscore.Hbond>
3.0000

> <Gold.PLP.Chemscore.CHOScore>
0.0000

> <Gold.PLP.Chemscore.Metal>
0.0000

> <Gold.Chemscore.Hbonds>
donor molecule, donor type, donor heavy atom, donor atom, acceptor molecule, acceptor atom, score
      P1  H  6896  6909       L1    15  1.00
      P1  H  7989  7998       L1    20  0.99
      P1  H 10752 10763       L1    17  1.00

> <Gold.PLP.Chemscore.Internal.Correction>
0.0290

> <Gold.Rescore>
     Score         DG    S(hbond)    S(metal)    S(lipo)     H(rot)  DE(clash)    DE(int)     intcor
     22.21     -23.13       2.94        0.00     108.53       1.90       0.09       0.83       ----

> <Gold.Chemscore.Fitness>
22.2068

> <Gold.Chemscore.DG>
-23.1292

> <Gold.Chemscore.ZeroCoef>
-5.4800

> <Gold.Chemscore.Hbond>
2.9375

> <Gold.Chemscore.Metal>
0.0000

> <Gold.Chemscore.Lipo>
108.5282

> <Gold.Chemscore.Internal_Hbond>
0.0000

> <Gold.Chemscore.DEClash>
0.0939

> <Gold.Chemscore.DEInternal>
0.8284

> <Gold.Chemscore.Rot>
1.8984

> <Gold.Chemscore.Internal.Correction>
   9.000000E+99

> <Gold.Chemscore.Hbonds>
donor molecule, donor type, donor heavy atom, donor atom, acceptor molecule, acceptor atom, score
      P1  H  6896  6909       L1    15  0.99
      P1  H  7989  7998       L1    20  0.72
      P1  H 10752 10763       L1    17  0.99

> <Gold.Chemscore.Hbond.Weighted>
-9.8111

> <Gold.Chemscore.Metal.Weighted>
-0.0000

> <Gold.Chemscore.Lipo.Weighted>
-12.6978

> <Gold.Chemscore.Internal_Hbond.Weighted>
0.0000

> <Gold.Chemscore.DEClash.Weighted>
0.0939

> <Gold.Chemscore.DEInternal.Weighted>
0.8284

> <Gold.Chemscore.Rot.Weighted>
4.8598

> <Gold.Chemscore.Internal.Correction.Weighted>
   9.000000E+99

> <Gold.Protein.RotatedTorsions>
[ 6907 6896 6895 6894 ] final  134.73 input  -60.11 | X-H torsion
[ 7974 7965 7964 7962 ] final   40.38 input  175.53 | X-H torsion
[ 8008 7997 7996 7995 ] final   90.34 input   59.86 | X-H torsion
[ 10167 10162 10161 10158 ] final   52.02 input  -65.29 | X-H torsion
[ 10718 10713 10712 10709 ] final   41.40 input   66.30 | X-H torsion
[ 10763 10752 10751 10750 ] final   87.14 input  -60.55 | X-H torsion
[ 11005 11000 10999 10996 ] final  137.04 input  -57.11 | X-H torsion

> <Gold.Protein.ActiveResidues>
 VAL166  LYS551  ARG553  GLY616  TRP617  ASP618  TYR619  PRO620  LYS621  CYS622 
 ASP623  PHE694  ASN695  SER759  ASP760  ASP761  ALA762  ILE779  LEU786  VAL792 
 PHE793  MET794  SER795  GLU796  ALA797  LYS798  CYS799  TRP800  GLU811  SER814 

> <Gold.Protein.RotatedAtoms>
  152.3081  133.5724  159.5662 H   0  0  0  0  0  0  0  0  0  0  0  0  # atno 6907 bound_to 6896
  150.7309  134.0193  159.3705 H   0  0  0  0  0  0  0  0  0  0  0  0  # atno 6908 bound_to 6896
  151.8088  135.0687  160.0461 H   0  0  0  0  0  0  0  0  0  0  0  0  # atno 6909 bound_to 6896
  146.0909  139.5540  142.9476 H   0  0  0  0  0  0  0  0  0  0  0  0  # atno 7974 bound_to 7965
  156.0108  140.3350  155.6939 H   0  0  0  0  0  0  0  0  0  0  0  0  # atno 8008 bound_to 7997
  155.6160  140.0670  157.2710 H   0  0  0  0  0  0  0  0  0  0  0  0  # atno 8009 bound_to 7997
  154.4281  140.1785  156.1310 H   0  0  0  0  0  0  0  0  0  0  0  0  # atno 8010 bound_to 7997
  140.2558  144.3428  150.6333 H   0  0  0  0  0  0  0  0  0  0  0  0  # atno 10167 bound_to 10162
  157.3931  130.7817  149.7286 H   0  0  0  0  0  0  0  0  0  0  0  0  # atno 10718 bound_to 10713
  153.1639  135.4554  154.9810 H   0  0  0  0  0  0  0  0  0  0  0  0  # atno 10763 bound_to 10752
  154.7918  135.3223  154.7763 H   0  0  0  0  0  0  0  0  0  0  0  0  # atno 10764 bound_to 10752
  153.8249  135.6943  153.4877 H   0  0  0  0  0  0  0  0  0  0  0  0  # atno 10765 bound_to 10752
  140.0087  134.9448  157.0230 H   0  0  0  0  0  0  0  0  0  0  0  0  # atno 11005 bound_to 11000
  145.6040  141.0350  143.2003 LP  0  0  0  0  0  0  0  0  0  0  0  0  # atno 17320 bound_to 7965
  144.7360  139.7586  143.7329 LP  0  0  0  0  0  0  0  0  0  0  0  0  # atno 17321 bound_to 7965
  140.6005  143.2167  151.7081 LP  0  0  0  0  0  0  0  0  0  0  0  0  # atno 17342 bound_to 10162
  139.5032  144.3800  152.0385 LP  0  0  0  0  0  0  0  0  0  0  0  0  # atno 17343 bound_to 10162
  155.9803  130.4030  150.3535 LP  0  0  0  0  0  0  0  0  0  0  0  0  # atno 17370 bound_to 10713
  157.1653  131.0355  151.2821 LP  0  0  0  0  0  0  0  0  0  0  0  0  # atno 17371 bound_to 10713
  140.4594  134.1499  155.7190 LP  0  0  0  0  0  0  0  0  0  0  0  0  # atno 17394 bound_to 11000
  141.1695  133.8636  157.1613 LP  0  0  0  0  0  0  0  0  0  0  0  0  # atno 17395 bound_to 11000

$$$$
