AV-unprocessed.smi:3231|AV-procd|sdf|12333|dock7
  -GOLD-   2272018183D 1   1.00000     0.00000
 Structure written by MMmdl.
 41 42  0  0  0  0  0  0  0  0  2 V2000
  148.5388  138.4056  152.9901 O   0  0  0  0  0  0  0  0  0  0  0  0
  147.2728  139.0194  153.1285 C   0  0  2  0  0  0  0  0  0  0  0  0
  146.4498  138.6522  151.8825 C   0  0  0  0  0  0  0  0  0  0  0  0
  145.4361  137.6503  152.1946 N   0  0  0  0  0  0  0  0  0  0  0  0
  145.6271  136.3867  151.4886 C   0  0  0  0  0  0  0  0  0  0  0  0
  144.6706  135.3007  152.0064 C   0  0  0  0  0  0  0  0  0  0  0  0
  144.9098  134.0135  151.3775 N   0  0  0  0  0  0  0  0  0  0  0  0
  144.0056  133.1924  150.7376 C   0  0  0  0  0  0  0  0  0  0  0  0
  144.6916  132.0965  150.2986 C   0  0  0  0  0  0  0  0  0  0  0  0
  146.0269  132.3403  150.7252 C   0  0  0  0  0  0  0  0  0  0  0  0
  146.1552  133.4896  151.3681 N   0  0  0  0  0  0  0  0  0  0  0  0
  147.4777  140.5441  153.2691 C   0  0  0  0  0  0  0  0  0  0  0  0
  146.2905  141.2396  153.8281 N   0  3  0  0  0  0  0  0  0  0  0  0
  145.9708  140.7920  155.2047 C   0  0  0  0  0  0  0  0  0  0  0  0
  144.7058  141.4974  155.7219 C   0  0  0  0  0  0  0  0  0  0  0  0
  144.8887  142.9064  155.6682 O   0  0  0  0  0  0  0  0  0  0  0  0
  145.1099  143.3634  154.3399 C   0  0  0  0  0  0  0  0  0  0  0  0
  146.3887  142.7199  153.7776 C   0  0  0  0  0  0  0  0  0  0  0  0
  148.4258  137.5556  152.5937 H   0  0  0  0  0  0  0  0  0  0  0  0
  146.7859  138.5982  154.0078 H   0  0  0  0  0  0  0  0  0  0  0  0
  145.9850  139.5443  151.4605 H   0  0  0  0  0  0  0  0  0  0  0  0
  147.1182  138.2581  151.1154 H   0  0  0  0  0  0  0  0  0  0  0  0
  145.4187  137.4775  153.1951 H   0  0  0  0  0  0  0  0  0  0  0  0
  145.4622  136.5339  150.4207 H   0  0  0  0  0  0  0  0  0  0  0  0
  146.6570  136.0450  151.5994 H   0  0  0  0  0  0  0  0  0  0  0  0
  144.7540  135.1970  153.0895 H   0  0  0  0  0  0  0  0  0  0  0  0
  143.6394  135.5897  151.8003 H   0  0  0  0  0  0  0  0  0  0  0  0
  142.9620  133.4551  150.6462 H   0  0  0  0  0  0  0  0  0  0  0  0
  144.2995  131.2497  149.7556 H   0  0  0  0  0  0  0  0  0  0  0  0
  146.9009  131.7213  150.5860 H   0  0  0  0  0  0  0  0  0  0  0  0
  148.3434  140.7194  153.9099 H   0  0  0  0  0  0  0  0  0  0  0  0
  147.7229  140.9926  152.3052 H   0  0  0  0  0  0  0  0  0  0  0  0
  145.8173  139.7121  155.2169 H   0  0  0  0  0  0  0  0  0  0  0  0
  146.8138  141.0045  155.8640 H   0  0  0  0  0  0  0  0  0  0  0  0
  143.8309  141.2088  155.1368 H   0  0  0  0  0  0  0  0  0  0  0  0
  144.5087  141.2063  156.7537 H   0  0  0  0  0  0  0  0  0  0  0  0
  144.2474  143.1306  153.7131 H   0  0  0  0  0  0  0  0  0  0  0  0
  145.2100  144.4486  154.3526 H   0  0  0  0  0  0  0  0  0  0  0  0
  147.2536  143.0495  154.3555 H   0  0  0  0  0  0  0  0  0  0  0  0
  146.5409  143.0608  152.7545 H   0  0  0  0  0  0  0  0  0  0  0  0
  145.5030  140.9722  153.2554 H   0  0  0  0  0  0  0  0  0  0  0  0
  1  2  1  0  0  0  0
  1 19  1  0  0  0  0
  2  3  1  0  0  0  0
  2 12  1  0  0  0  0
  2 20  1  0  0  0  0
  3  4  1  0  0  0  0
  3 21  1  0  0  0  0
  3 22  1  0  0  0  0
  4  5  1  0  0  0  0
  4 23  1  0  0  0  0
  5  6  1  0  0  0  0
  5 24  1  0  0  0  0
  5 25  1  0  0  0  0
  6  7  1  0  0  0  0
  6 26  1  0  0  0  0
  6 27  1  0  0  0  0
  7 11  1  0  0  0  0
  7  8  1  0  0  0  0
  8  9  2  0  0  0  0
  8 28  1  0  0  0  0
  9 10  1  0  0  0  0
  9 29  1  0  0  0  0
 10 11  2  0  0  0  0
 10 30  1  0  0  0  0
 12 13  1  0  0  0  0
 12 31  1  0  0  0  0
 12 32  1  0  0  0  0
 13 18  1  0  0  0  0
 13 14  1  0  0  0  0
 13 41  1  0  0  0  0
 14 15  1  0  0  0  0
 14 33  1  0  0  0  0
 14 34  1  0  0  0  0
 15 16  1  0  0  0  0
 15 35  1  0  0  0  0
 15 36  1  0  0  0  0
 16 17  1  0  0  0  0
 17 18  1  0  0  0  0
 17 37  1  0  0  0  0
 17 38  1  0  0  0  0
 18 39  1  0  0  0  0
 18 40  1  0  0  0  0
M  CHG  1  13   1
M  END
> <s_m_source_file>
AV-unprocessed.smi

> <i_m_source_file_index>
3231

> <i_lp_mmshare_version>
43012

> <i_f3d_flags>
0

> <s_epik_input>
W0NIMl0xW0NIMl1PW0NIMl1bQ0gyXU4xW0NIMl1bQ0BIXShbT0hdKVtDSDJdW05IXVtDSDJdW0NIMl1uMltjSF1bY0hdW2NIXW4y

> <s_epik_cmdline>
J2VwaWtfcHl0aG9uJywgJy1waCcsICc3LjAnLCAnLXRuJywgJzgnLCAnLW1hJywgJzIwMCcsICctbWV0YWxfYmluZGluZycsICctaW1hZScsICc8aW5maWxlLm1hZT4nLCAnLW9tYWUnLCAnPG91dGZpbGUubWFlPic=

> <r_epik_Ionization_Penalty>
0.33973

> <r_epik_Ionization_Penalty_Charging>
0.202493

> <r_epik_Ionization_Penalty_Neutral>
0.137237

> <r_epik_State_Penalty>
0.943915

> <r_epik_Charging_Adjusted_Penalty>
1.14641

> <i_epik_Tot_Q>
1

> <i_epik_Tot_abs_Q>
1

> <r_epik_Metal_State_Penalty>
0.94313

> <b_epik_Metal_Only>
0

> <s_lp_Force_Field>
OPLS_2005

> <r_lp_Energy>
21.8008

> <b_lp_Chiralities_Consistent>
1

> <s_lp_Variant>
AV-unprocessed.smi:3231-3

> <Gold.Version>
5.8.1

> <Gold.Id.Protein>
6NUR|6NUR_protein|mol2

> <Gold.PLP.Fitness>
49.5363

> <Gold.PLP.PLP>
-36.9532

> <Gold.PLP.part.hbond>
-4.1278

> <Gold.PLP.part.metal>
0.0000

> <Gold.PLP.part.buried>
-5.0417

> <Gold.PLP.part.nonpolar>
-30.4053

> <Gold.PLP.part.repulsive>
0.3228

> <Gold.PLP.ligand.clash>
0.0000

> <Gold.PLP.ligand.torsion>
1.2706

> <Gold.PLP.Chemscore.Hbond>
3.0000

> <Gold.PLP.Chemscore.CHOScore>
2.0000

> <Gold.PLP.Chemscore.Metal>
0.0000

> <Gold.Chemscore.Hbonds>
donor molecule, donor type, donor heavy atom, donor atom, acceptor molecule, acceptor atom, score
      L1  H     1    19       P1  7948  1.00
      L1  H    13    41       P1 10175  2.00
      L1  C     8    28       P1 10186  1.00
      L1  C    10    30       P1 10747  1.00

> <Gold.PLP.Chemscore.Internal.Correction>
0.1243

> <Gold.Rescore>
     Score         DG    S(hbond)    S(metal)    S(lipo)     H(rot)  DE(clash)    DE(int)     intcor
     12.00     -13.34       1.90        0.00      75.19       2.84       0.02       1.32       ----

> <Gold.Chemscore.Fitness>
12.0003

> <Gold.Chemscore.DG>
-13.3383

> <Gold.Chemscore.ZeroCoef>
-5.4800

> <Gold.Chemscore.Hbond>
1.8953

> <Gold.Chemscore.Metal>
0.0000

> <Gold.Chemscore.Lipo>
75.1915

> <Gold.Chemscore.Internal_Hbond>
0.0000

> <Gold.Chemscore.DEClash>
0.0185

> <Gold.Chemscore.DEInternal>
1.3194

> <Gold.Chemscore.Rot>
2.8397

> <Gold.Chemscore.Internal.Correction>
   9.000000E+99

> <Gold.Chemscore.Hbonds>
donor molecule, donor type, donor heavy atom, donor atom, acceptor molecule, acceptor atom, score
      L1  H     1    19       P1  7948  0.94
      L1  H    13    41       P1 10175  0.47

> <Gold.Chemscore.Hbond.Weighted>
-6.3304

> <Gold.Chemscore.Metal.Weighted>
-0.0000

> <Gold.Chemscore.Lipo.Weighted>
-8.7974

> <Gold.Chemscore.Internal_Hbond.Weighted>
0.0000

> <Gold.Chemscore.DEClash.Weighted>
0.0185

> <Gold.Chemscore.DEInternal.Weighted>
1.3194

> <Gold.Chemscore.Rot.Weighted>
7.2696

> <Gold.Chemscore.Internal.Correction.Weighted>
   9.000000E+99

> <Gold.Protein.RotatedTorsions>
[ 6907 6896 6895 6894 ] final -168.33 input  -60.11 | X-H torsion
[ 7974 7965 7964 7962 ] final  176.83 input  175.53 | X-H torsion
[ 8008 7997 7996 7995 ] final   -3.21 input   59.86 | X-H torsion
[ 10167 10162 10161 10158 ] final -154.15 input  -65.29 | X-H torsion
[ 10718 10713 10712 10709 ] final -131.78 input   66.30 | X-H torsion
[ 10763 10752 10751 10750 ] final  -72.66 input  -60.55 | X-H torsion
[ 11005 11000 10999 10996 ] final  -31.61 input  -57.11 | X-H torsion

> <Gold.Protein.ActiveResidues>
 VAL166  LYS551  ARG553  GLY616  TRP617  ASP618  TYR619  PRO620  LYS621  CYS622 
 ASP623  PHE694  ASN695  SER759  ASP760  ASP761  ALA762  ILE779  LEU786  VAL792 
 PHE793  MET794  SER795  GLU796  ALA797  LYS798  CYS799  TRP800  GLU811  SER814 

> <Gold.Protein.RotatedAtoms>
  151.4738  133.3563  159.2827 H   0  0  0  0  0  0  0  0  0  0  0  0  # atno 6907 bound_to 6896
  150.8943  134.8352  159.7326 H   0  0  0  0  0  0  0  0  0  0  0  0  # atno 6908 bound_to 6896
  152.4842  134.4651  159.9669 H   0  0  0  0  0  0  0  0  0  0  0  0  # atno 6909 bound_to 6896
  144.7178  140.0156  143.6440 H   0  0  0  0  0  0  0  0  0  0  0  0  # atno 7974 bound_to 7965
  154.6274  140.2515  155.7475 H   0  0  0  0  0  0  0  0  0  0  0  0  # atno 8008 bound_to 7997
  156.2460  140.2914  156.0529 H   0  0  0  0  0  0  0  0  0  0  0  0  # atno 8009 bound_to 7997
  155.1800  140.0388  157.2870 H   0  0  0  0  0  0  0  0  0  0  0  0  # atno 8010 bound_to 7997
  139.7038  143.9220  152.2440 H   0  0  0  0  0  0  0  0  0  0  0  0  # atno 10167 bound_to 10162
  156.2278  130.7019  151.0826 H   0  0  0  0  0  0  0  0  0  0  0  0  # atno 10718 bound_to 10713
  154.4488  135.5922  153.6178 H   0  0  0  0  0  0  0  0  0  0  0  0  # atno 10763 bound_to 10752
  152.9811  135.6016  154.3631 H   0  0  0  0  0  0  0  0  0  0  0  0  # atno 10764 bound_to 10752
  154.3489  135.2841  155.2361 H   0  0  0  0  0  0  0  0  0  0  0  0  # atno 10765 bound_to 10752
  140.9483  133.7237  156.1180 H   0  0  0  0  0  0  0  0  0  0  0  0  # atno 11005 bound_to 11000
  146.0223  139.3261  143.0805 LP  0  0  0  0  0  0  0  0  0  0  0  0  # atno 17320 bound_to 7965
  145.8554  140.9505  143.0728 LP  0  0  0  0  0  0  0  0  0  0  0  0  # atno 17321 bound_to 7965
  139.9070  144.6879  150.8603 LP  0  0  0  0  0  0  0  0  0  0  0  0  # atno 17342 bound_to 10162
  140.7716  143.3471  151.2089 LP  0  0  0  0  0  0  0  0  0  0  0  0  # atno 17343 bound_to 10162
  157.7119  131.0730  150.6470 LP  0  0  0  0  0  0  0  0  0  0  0  0  # atno 17370 bound_to 10713
  156.6536  130.4492  149.5711 LP  0  0  0  0  0  0  0  0  0  0  0  0  # atno 17371 bound_to 10713
  140.7639  134.3908  157.5520 LP  0  0  0  0  0  0  0  0  0  0  0  0  # atno 17394 bound_to 11000
  139.8840  134.8979  156.2733 LP  0  0  0  0  0  0  0  0  0  0  0  0  # atno 17395 bound_to 11000

$$$$
