#       Name:                AV-unprocessed.smi:37
#       Creating user name   scv26
#       Creation time:       Thu Mar 26 16:15:55 2020


#       File generated by GOLD software.
#

@<TRIPOS>MOLECULE
AV-unprocessed.smi:37
    54    55     1
SMALL
NO_CHARGES


@<TRIPOS>ATOM
      1 ****        -4.5399   1.3929   0.3421 C.3            1 S1                 0.0000
      2 ****        -3.0576   0.9917   0.3428 C.3            1 S1                 0.0000
      3 ****        -2.7337  -0.1590   1.2981 C.2            1 S1                 0.0000
      4 ****        -3.5999  -0.7458   1.9493 O.2            1 S1                 0.0000
      5 ****        -1.4235  -0.4292   1.3191 O.3            1 S1                 0.0000
      6 ****        -0.9210  -1.4778   2.1313 C.3            1 S1                 0.0000
      7 ****         0.5903  -1.6805   1.9147 C.3            1 S1                 0.0000
      8 ****         1.3662  -0.5395   2.2772 O.3            1 S1                 0.0000
      9 ****         2.4732  -0.4077   1.4274 C.3            1 S1                 0.0000
     10 ****         2.3095   0.8361   0.5701 N.am           1 S1                 0.0000
     11 ****         1.1625   1.6124   0.6285 C.2            1 S1                 0.0000
     12 ****         1.0217   2.7171  -0.1313 C.2            1 S1                 0.0000
     13 ****        -0.1072   3.4427  -0.0536 F              1 S1                 0.0000
     14 ****         2.0991   3.1158  -1.0336 C.2            1 S1                 0.0000
     15 ****         1.9523   4.1053  -1.7490 O.2            1 S1                 0.0000
     16 ****         3.2361   2.3622  -1.0386 N.pl3          1 S1                -1.0000
     17 ****         3.3885   1.2520  -0.2589 C.2            1 S1                 0.0000
     18 ****         4.4242   0.5870  -0.2345 O.2            1 S1                 0.0000
     19 ****         2.5205  -1.6790   0.5578 C.3            1 S1                 0.0000
     20 ****         3.6120  -3.0665   1.4814 Br             1 S1                 0.0000
     21 ****         1.0675  -2.1243   0.5249 C.3            1 S1                 0.0000
     22 ****         0.3596  -1.4607  -0.5171 O.3            1 S1                 0.0000
     23 ****         0.4001  -1.9256  -1.7792 C.2            1 S1                 0.0000
     24 ****         1.0314  -2.9100  -2.1637 O.2            1 S1                 0.0000
     25 ****        -0.4629  -1.1113  -2.7419 C.3            1 S1                 0.0000
     26 ****        -0.1577   0.3919  -2.6885 C.3            1 S1                 0.0000
     27 ****        -4.7154   2.2081  -0.3598 H              1 S1                 0.0000
     28 ****        -4.8599   1.7324   1.3279 H              1 S1                 0.0000
     29 ****        -5.1790   0.5601   0.0462 H              1 S1                 0.0000
     30 ****        -2.7573   0.6975  -0.6633 H              1 S1                 0.0000
     31 ****        -2.4443   1.8511   0.6152 H              1 S1                 0.0000
     32 ****        -1.1154  -1.2458   3.1791 H              1 S1                 0.0000
     33 ****        -1.4493  -2.4042   1.9014 H              1 S1                 0.0000
     34 ****         0.9002  -2.4603   2.6117 H              1 S1                 0.0000
     35 ****         3.3844  -0.2260   1.9997 H              1 S1                 0.0000
     36 ****         0.3559   1.3526   1.2933 H              1 S1                 0.0000
     37 ****         2.9594  -1.5168  -0.4263 H              1 S1                 0.0000
     38 ****         0.9698  -3.2041   0.4021 H              1 S1                 0.0000
     39 ****        -0.2899  -1.4813  -3.7529 H              1 S1                 0.0000
     40 ****        -1.5143  -1.2896  -2.5163 H              1 S1                 0.0000
     41 ****        -0.6708   0.9173  -3.4937 H              1 S1                 0.0000
     42 ****         0.9101   0.5903  -2.7907 H              1 S1                 0.0000
     43 ****        -0.4947   0.8280  -1.7482 H              1 S1                 0.0000
     44 ****        -4.5587  -0.4746   1.8645 LP             1 S1                 0.0000
     45 ****        -3.3440  -1.4931   2.5625 LP             1 S1                 0.0000
     46 ****         1.6852  -0.6443   3.2191 LP             1 S1                 0.0000
     47 ****         0.7981   0.2805   2.2070 LP             1 S1                 0.0000
     48 ****         1.1012   4.6289  -1.7097 LP             1 S1                 0.0000
     49 ****         2.6840   4.3863  -2.3700 LP             1 S1                 0.0000
     50 ****         3.9889   2.6342  -1.6380 LP             1 S1                 0.0000
     51 ****         4.4879  -0.2177   0.3557 LP             1 S1                 0.0000
     52 ****         5.2018   0.8516  -0.8049 LP             1 S1                 0.0000
     53 ****         1.5757  -3.4401  -1.5136 LP             1 S1                 0.0000
     54 ****         0.9999  -3.1795  -3.1262 LP             1 S1                 0.0000
@<TRIPOS>BOND
    1    1    2 1     
    2    1   27 1     
    3    1   28 1     
    4    1   29 1     
    5    2    3 1     
    6    2   30 1     
    7    2   31 1     
    8    3    4 2     
    9    3    5 1     
   10    5    6 1     
   11    6    7 1     
   12    6   32 1     
   13    6   33 1     
   14    7   21 1     
   15    7    8 1     
   16    7   34 1     
   17    8    9 1     
   18    9   10 1     
   19    9   19 1     
   20    9   35 1     
   21   10   17 am    
   22   10   11 1     
   23   11   12 2     
   24   11   36 1     
   25   12   13 1     
   26   12   14 1     
   27   14   15 2     
   28   14   16 1     
   29   16   17 1     
   30   17   18 2     
   31   19   20 1     
   32   19   21 1     
   33   19   37 1     
   34   21   22 1     
   35   21   38 1     
   36   22   23 1     
   37   23   24 2     
   38   23   25 1     
   39   25   26 1     
   40   25   39 1     
   41   25   40 1     
   42   26   41 1     
   43   26   42 1     
   44   26   43 1     
   45    4   44 1     
   46    4   45 1     
   47    8   46 1     
   48    8   47 1     
   49   15   48 1     
   50   15   49 1     
   51   16   50 1     
   52   18   51 1     
   53   18   52 1     
   54   24   53 1     
   55   24   54 1     
@<TRIPOS>SUBSTRUCTURE
      1 S1             1
@<TRIPOS>SET
LONE_PAIRS      STATIC     ATOMS    <user>   **** ""
11 44 45 46 47 48 49 50 51 52 53 54
ATOM$BLUE        STATIC     ATOMS    COLORGROUP SYSTEM
11 44 45 46 47 48 49 50 51 52 53 54
