AV-unprocessed.smi:3330|AV-procd|sdf|12805|dock5
  -GOLD-   2272019173D 1   1.00000     0.00000
 Structure written by MMmdl.
 38 39  0  0  0  0  0  0  0  0  1 V2000
  152.4870  138.9291  157.6230 C   0  0  0  0  0  0  0  0  0  0  0  0
  151.0458  139.3938  157.9109 C   0  0  2  0  0  0  0  0  0  0  0  0
  150.1322  138.2969  157.6013 N   0  0  0  0  0  0  0  0  0  0  0  0
  149.8592  137.4573  158.7569 C   0  0  0  0  0  0  0  0  0  0  0  0
  148.3567  137.1429  158.8085 C   0  0  0  0  0  0  0  0  0  0  0  0
  148.0679  136.1045  159.8000 N   0  0  0  0  0  0  0  0  0  0  0  0
  147.3853  136.3124  160.9334 C   0  0  0  0  0  0  0  0  0  0  0  0
  146.9044  137.3713  161.3358 O   0  0  0  0  0  0  0  0  0  0  0  0
  147.2799  134.9986  161.6767 C   0  0  0  0  0  0  0  0  0  0  0  0
  147.9877  134.1453  160.7466 N   0  0  0  0  0  0  0  0  0  0  0  0
  148.4268  134.8139  159.6725 C   0  0  0  0  0  0  0  0  0  0  0  0
  149.0480  134.3167  158.7343 O   0  0  0  0  0  0  0  0  0  0  0  0
  150.6295  140.6355  157.0758 C   0  0  2  0  0  0  0  0  0  0  0  0
  150.8554  140.4537  155.5622 C   0  0  0  0  0  0  0  0  0  0  0  0
  151.3156  141.8384  157.5379 N   0  0  0  0  0  0  0  0  0  0  0  0
  151.1642  143.1325  157.0839 C   0  0  0  0  0  0  0  0  0  0  0  0
  151.9914  143.9262  157.8257 C   0  0  0  0  0  0  0  0  0  0  0  0
  152.6152  143.0172  158.7244 C   0  0  0  0  0  0  0  0  0  0  0  0
  152.2092  141.7702  158.5516 N   0  0  0  0  0  0  0  0  0  0  0  0
  153.2145  139.6858  157.9143 H   0  0  0  0  0  0  0  0  0  0  0  0
  152.6324  138.7176  156.5630 H   0  0  0  0  0  0  0  0  0  0  0  0
  152.7429  138.0272  158.1786 H   0  0  0  0  0  0  0  0  0  0  0  0
  150.9569  139.6487  158.9682 H   0  0  0  0  0  0  0  0  0  0  0  0
  150.4894  137.7463  156.8337 H   0  0  0  0  0  0  0  0  0  0  0  0
  150.4352  136.5337  158.6988 H   0  0  0  0  0  0  0  0  0  0  0  0
  150.1612  137.9779  159.6668 H   0  0  0  0  0  0  0  0  0  0  0  0
  147.7939  138.0473  159.0482 H   0  0  0  0  0  0  0  0  0  0  0  0
  148.0053  136.8274  157.8243 H   0  0  0  0  0  0  0  0  0  0  0  0
  147.7803  135.0418  162.6447 H   0  0  0  0  0  0  0  0  0  0  0  0
  146.2424  134.6868  161.8005 H   0  0  0  0  0  0  0  0  0  0  0  0
  148.1227  133.1563  160.8994 H   0  0  0  0  0  0  0  0  0  0  0  0
  149.5612  140.8041  157.2229 H   0  0  0  0  0  0  0  0  0  0  0  0
  150.2127  139.6769  155.1496 H   0  0  0  0  0  0  0  0  0  0  0  0
  151.8888  140.1848  155.3409 H   0  0  0  0  0  0  0  0  0  0  0  0
  150.6287  141.3730  155.0212 H   0  0  0  0  0  0  0  0  0  0  0  0
  150.4841  143.3787  156.2818 H   0  0  0  0  0  0  0  0  0  0  0  0
  152.1273  144.9941  157.7417 H   0  0  0  0  0  0  0  0  0  0  0  0
  153.3449  143.2252  159.4929 H   0  0  0  0  0  0  0  0  0  0  0  0
  1  2  1  0  0  0  0
  1 20  1  0  0  0  0
  1 21  1  0  0  0  0
  1 22  1  0  0  0  0
  2  3  1  0  0  0  0
  2 13  1  0  0  0  0
  2 23  1  0  0  0  0
  3  4  1  0  0  0  0
  3 24  1  0  0  0  0
  4  5  1  0  0  0  0
  4 25  1  0  0  0  0
  4 26  1  0  0  0  0
  5  6  1  0  0  0  0
  5 27  1  0  0  0  0
  5 28  1  0  0  0  0
  6 11  1  0  0  0  0
  6  7  1  0  0  0  0
  7  8  2  0  0  0  0
  7  9  1  0  0  0  0
  9 10  1  0  0  0  0
  9 29  1  0  0  0  0
  9 30  1  0  0  0  0
 10 11  1  0  0  0  0
 10 31  1  0  0  0  0
 11 12  2  0  0  0  0
 13 14  1  0  0  0  0
 13 15  1  0  0  0  0
 13 32  1  0  0  0  0
 14 33  1  0  0  0  0
 14 34  1  0  0  0  0
 14 35  1  0  0  0  0
 15 19  1  0  0  0  0
 15 16  1  0  0  0  0
 16 17  2  0  0  0  0
 16 36  1  0  0  0  0
 17 18  1  0  0  0  0
 17 37  1  0  0  0  0
 18 19  2  0  0  0  0
 18 38  1  0  0  0  0
M  END
> <s_m_source_file>
AV-unprocessed.smi

> <i_m_source_file_index>
3330

> <i_lp_mmshare_version>
43012

> <i_f3d_flags>
0

> <s_epik_input>
bjFbY0hdW2NIXVtjSF1uMVtDQEBIXShbQ0gzXSlbQ0BIXShbQ0gzXSlbTkhdW0NIMl1bQ0gyXU4yQyg9TylbQ0gyXVtOSF1DMj1P

> <s_epik_cmdline>
J2VwaWtfcHl0aG9uJywgJy1waCcsICc3LjAnLCAnLXRuJywgJzgnLCAnLW1hJywgJzIwMCcsICctbWV0YWxfYmluZGluZycsICctaW1hZScsICc8aW5maWxlLm1hZT4nLCAnLW9tYWUnLCAnPG91dGZpbGUubWFlPic=

> <r_lp_tautomer_probability>
1

> <r_epik_Ionization_Penalty>
2.2997

> <r_epik_Ionization_Penalty_Charging>
0

> <r_epik_Ionization_Penalty_Neutral>
2.2997

> <r_epik_State_Penalty>
2.44917

> <r_epik_Charging_Adjusted_Penalty>
2.44917

> <i_epik_Tot_Q>
0

> <i_epik_Tot_abs_Q>
0

> <r_epik_Metal_State_Penalty>
2.52438

> <b_epik_Metal_Only>
0

> <s_lp_Force_Field>
OPLS_2005

> <r_lp_Energy>
24.6484

> <b_lp_Chiralities_Consistent>
1

> <s_lp_Variant>
AV-unprocessed.smi:3330-5

> <Gold.Version>
5.8.1

> <Gold.Id.Protein>
6NUR|6NUR_protein|mol2

> <Gold.PLP.Fitness>
43.1784

> <Gold.PLP.PLP>
-35.4285

> <Gold.PLP.part.hbond>
-2.9923

> <Gold.PLP.part.metal>
0.0000

> <Gold.PLP.part.buried>
-4.1029

> <Gold.PLP.part.nonpolar>
-28.8033

> <Gold.PLP.part.repulsive>
0.0696

> <Gold.PLP.ligand.clash>
0.0000

> <Gold.PLP.ligand.torsion>
0.9722

> <Gold.PLP.Chemscore.Hbond>
2.1966

> <Gold.PLP.Chemscore.CHOScore>
1.0000

> <Gold.PLP.Chemscore.Metal>
0.0000

> <Gold.Chemscore.Hbonds>
donor molecule, donor type, donor heavy atom, donor atom, acceptor molecule, acceptor atom, score
      P1  H  6896  6907       L1    12  1.00
      P1  H  6931  6943       L1     8  0.07
      P1  H  6934  6947       L1     8  1.00
      L1  C    16    36       P1  8028  1.00

> <Gold.PLP.Chemscore.Internal.Correction>
0.1044

> <Gold.Rescore>
     Score         DG    S(hbond)    S(metal)    S(lipo)     H(rot)  DE(clash)    DE(int)     intcor
     12.62     -13.68       1.93        0.00      71.74       2.60       0.00       1.07       ----

> <Gold.Chemscore.Fitness>
12.6170

> <Gold.Chemscore.DG>
-13.6835

> <Gold.Chemscore.ZeroCoef>
-5.4800

> <Gold.Chemscore.Hbond>
1.9321

> <Gold.Chemscore.Metal>
0.0000

> <Gold.Chemscore.Lipo>
71.7436

> <Gold.Chemscore.Internal_Hbond>
0.0000

> <Gold.Chemscore.DEClash>
0.0000

> <Gold.Chemscore.DEInternal>
1.0665

> <Gold.Chemscore.Rot>
2.5952

> <Gold.Chemscore.Internal.Correction>
   9.000000E+99

> <Gold.Chemscore.Hbonds>
donor molecule, donor type, donor heavy atom, donor atom, acceptor molecule, acceptor atom, score
      P1  H  6896  6907       L1    12  0.26
      P1  H  6931  6943       L1     8  0.01
      P1  H  6934  6947       L1     8  0.99

> <Gold.Chemscore.Hbond.Weighted>
-6.4532

> <Gold.Chemscore.Metal.Weighted>
-0.0000

> <Gold.Chemscore.Lipo.Weighted>
-8.3940

> <Gold.Chemscore.Internal_Hbond.Weighted>
0.0000

> <Gold.Chemscore.DEClash.Weighted>
0.0000

> <Gold.Chemscore.DEInternal.Weighted>
1.0665

> <Gold.Chemscore.Rot.Weighted>
6.6437

> <Gold.Chemscore.Internal.Correction.Weighted>
   9.000000E+99

> <Gold.Protein.RotatedTorsions>
[ 6907 6896 6895 6894 ] final  -91.02 input  -60.11 | X-H torsion
[ 7974 7965 7964 7962 ] final -130.41 input  175.53 | X-H torsion
[ 8008 7997 7996 7995 ] final -142.46 input   59.86 | X-H torsion
[ 10167 10162 10161 10158 ] final -167.60 input  -65.29 | X-H torsion
[ 10718 10713 10712 10709 ] final  156.50 input   66.30 | X-H torsion
[ 10763 10752 10751 10750 ] final -119.45 input  -60.55 | X-H torsion
[ 11005 11000 10999 10996 ] final -102.83 input  -57.11 | X-H torsion

> <Gold.Protein.ActiveResidues>
 VAL166  LYS551  ARG553  GLY616  TRP617  ASP618  TYR619  PRO620  LYS621  CYS622 
 ASP623  PHE694  ASN695  SER759  ASP760  ASP761  ALA762  ILE779  LEU786  VAL792 
 PHE793  MET794  SER795  GLU796  ALA797  LYS798  CYS799  TRP800  GLU811  SER814 

> <Gold.Protein.RotatedAtoms>
  150.6888  134.2342  159.4446 H   0  0  0  0  0  0  0  0  0  0  0  0  # atno 6907 bound_to 6896
  152.0291  134.9776  160.0581 H   0  0  0  0  0  0  0  0  0  0  0  0  # atno 6908 bound_to 6896
  152.1322  133.4380  159.4763 H   0  0  0  0  0  0  0  0  0  0  0  0  # atno 6909 bound_to 6896
  144.9477  140.7310  143.4807 H   0  0  0  0  0  0  0  0  0  0  0  0  # atno 7974 bound_to 7965
  155.4946  140.0570  157.2948 H   0  0  0  0  0  0  0  0  0  0  0  0  # atno 8008 bound_to 7997
  154.4610  140.1996  156.0196 H   0  0  0  0  0  0  0  0  0  0  0  0  # atno 8009 bound_to 7997
  156.0889  140.3236  155.7794 H   0  0  0  0  0  0  0  0  0  0  0  0  # atno 8010 bound_to 7997
  139.6039  144.0954  152.1772 H   0  0  0  0  0  0  0  0  0  0  0  0  # atno 10167 bound_to 10162
  157.2041  131.0683  151.2008 H   0  0  0  0  0  0  0  0  0  0  0  0  # atno 10718 bound_to 10713
  154.8617  135.4238  154.2300 H   0  0  0  0  0  0  0  0  0  0  0  0  # atno 10763 bound_to 10752
  153.3287  135.6987  153.6972 H   0  0  0  0  0  0  0  0  0  0  0  0  # atno 10764 bound_to 10752
  153.5998  135.3539  155.2914 H   0  0  0  0  0  0  0  0  0  0  0  0  # atno 10765 bound_to 10752
  141.1172  133.8591  157.1410 H   0  0  0  0  0  0  0  0  0  0  0  0  # atno 11005 bound_to 11000
  145.2892  139.1890  143.4749 LP  0  0  0  0  0  0  0  0  0  0  0  0  # atno 17320 bound_to 7965
  146.3310  140.2866  142.8613 LP  0  0  0  0  0  0  0  0  0  0  0  0  # atno 17321 bound_to 7965
  140.0556  144.5897  150.7302 LP  0  0  0  0  0  0  0  0  0  0  0  0  # atno 17342 bound_to 10162
  140.7270  143.2647  151.4085 LP  0  0  0  0  0  0  0  0  0  0  0  0  # atno 17343 bound_to 10162
  157.3738  130.7195  149.6583 LP  0  0  0  0  0  0  0  0  0  0  0  0  # atno 17370 bound_to 10713
  155.9697  130.4191  150.4361 LP  0  0  0  0  0  0  0  0  0  0  0  0  # atno 17371 bound_to 10713
  140.0102  134.9991  157.0380 LP  0  0  0  0  0  0  0  0  0  0  0  0  # atno 17394 bound_to 11000
  140.4612  134.1482  155.7191 LP  0  0  0  0  0  0  0  0  0  0  0  0  # atno 17395 bound_to 11000

$$$$
