#       Name:                AV-unprocessed.smi:1731
#       Creating user name   scv26
#       Creation time:       Fri Mar 27 08:18:49 2020


#       File generated by GOLD software.
#

@<TRIPOS>MOLECULE
AV-unprocessed.smi:1731
    46    47     1
SMALL
NO_CHARGES


@<TRIPOS>ATOM
      1 ****        -5.0957  -1.9487   0.2770 C.3            1 S1                 0.0000
      2 ****        -4.4317  -0.5785   0.0801 C.3            1 S1                 0.0000
      3 ****        -3.9210  -0.4024  -1.3629 C.3            1 S1                 0.0000
      4 ****        -3.2487   0.9675  -1.5654 C.3            1 S1                 0.0000
      5 ****        -2.1141   1.2171  -0.5534 C.3            1 S1                 0.0000
      6 ****        -0.9741   0.3507  -0.8489 N.am           1 S1                 0.0000
      7 ****         0.2997   0.5970  -0.5118 C.2            1 S1                 0.0000
      8 ****         0.6627   1.6059   0.0936 O.2            1 S1                 0.0000
      9 ****         1.1100  -0.3945  -0.9164 N.am           1 S1                 0.0000
     10 ****         2.5133  -0.4858  -0.7377 C.2            1 S1                 0.0000
     11 ****         3.3149  -1.5747  -1.1680 C.2            1 S1                 0.0000
     12 ****         4.5892  -1.3808  -0.8645 N.2            1 S1                 0.0000
     13 ****         4.6237  -0.1780  -0.2375 N.pl3          1 S1                 0.0000
     14 ****         5.8902   0.3494   0.2390 C.3            1 S1                 0.0000
     15 ****         5.9927   0.2480   1.7624 C.2            1 S1                 0.0000
     16 ****         5.9262   1.3876   2.4557 N.am           1 S1                 0.0000
     17 ****         6.1264  -0.8455   2.3078 O.2            1 S1                 0.0000
     18 ****         3.3713   0.3987  -0.1479 C.2            1 S1                 0.0000
     19 ****        -2.6161   1.0140   0.8919 C.3            1 S1                 0.0000
     20 ****        -3.2874  -0.3570   1.0878 C.3            1 S1                 0.0000
     21 ****        -4.3870  -2.7608   0.1116 H              1 S1                 0.0000
     22 ****        -5.9265  -2.0852  -0.4158 H              1 S1                 0.0000
     23 ****        -5.4905  -2.0519   1.2881 H              1 S1                 0.0000
     24 ****        -5.1912   0.1830   0.2624 H              1 S1                 0.0000
     25 ****        -3.2142  -1.1973  -1.6045 H              1 S1                 0.0000
     26 ****        -4.7488  -0.5064  -2.0652 H              1 S1                 0.0000
     27 ****        -2.8707   1.0516  -2.5850 H              1 S1                 0.0000
     28 ****        -4.0008   1.7501  -1.4572 H              1 S1                 0.0000
     29 ****        -1.7900   2.2532  -0.6665 H              1 S1                 0.0000
     30 ****        -1.1756  -0.5057  -1.3438 H              1 S1                 0.0000
     31 ****         0.6770  -1.1683  -1.3991 H              1 S1                 0.0000
     32 ****         3.0218  -2.4799  -1.6792 H              1 S1                 0.0000
     33 ****         6.7128  -0.2029  -0.2183 H              1 S1                 0.0000
     34 ****         5.9806   1.3865  -0.0871 H              1 S1                 0.0000
     35 ****         5.9886   1.3714   3.4636 H              1 S1                 0.0000
     36 ****         5.8128   2.2640   1.9671 H              1 S1                 0.0000
     37 ****         3.2153   1.3597   0.3193 H              1 S1                 0.0000
     38 ****        -1.7968   1.1331   1.6020 H              1 S1                 0.0000
     39 ****        -3.3358   1.7978   1.1313 H              1 S1                 0.0000
     40 ****        -3.6697  -0.4308   2.1064 H              1 S1                 0.0000
     41 ****        -2.5432  -1.1476   0.9826 H              1 S1                 0.0000
     42 ****        -0.0087   2.2970   0.3614 LP             1 S1                 0.0000
     43 ****         1.6288   1.7342   0.3175 LP             1 S1                 0.0000
     44 ****         5.3594  -1.9892  -1.0560 LP             1 S1                 0.0000
     45 ****         6.1689  -1.6779   1.7553 LP             1 S1                 0.0000
     46 ****         6.1925  -0.9026   3.3040 LP             1 S1                 0.0000
@<TRIPOS>BOND
    1    1    2 1     
    2    1   21 1     
    3    1   22 1     
    4    1   23 1     
    5    2   20 1     
    6    2    3 1     
    7    2   24 1     
    8    3    4 1     
    9    3   25 1     
   10    3   26 1     
   11    4    5 1     
   12    4   27 1     
   13    4   28 1     
   14    5    6 1     
   15    5   19 1     
   16    5   29 1     
   17    6    7 am    
   18    6   30 1     
   19    7    8 2     
   20    7    9 am    
   21    9   10 1     
   22    9   31 1     
   23   10   18 2     
   24   10   11 1     
   25   11   12 2     
   26   11   32 1     
   27   12   13 1     
   28   13   14 1     
   29   13   18 1     
   30   14   15 1     
   31   14   33 1     
   32   14   34 1     
   33   15   16 am    
   34   15   17 2     
   35   16   35 1     
   36   16   36 1     
   37   18   37 1     
   38   19   20 1     
   39   19   38 1     
   40   19   39 1     
   41   20   40 1     
   42   20   41 1     
   43    8   42 1     
   44    8   43 1     
   45   12   44 1     
   46   17   45 1     
   47   17   46 1     
@<TRIPOS>SUBSTRUCTURE
      1 S1             1
@<TRIPOS>SET
LONE_PAIRS      STATIC     ATOMS    <user>   **** ""
5 42 43 44 45 46
DONOR_HYDROGENS      STATIC     ATOMS    <user>   **** ""
4 30 31 35 36
ATOM$BLUE        STATIC     ATOMS    COLORGROUP SYSTEM
5 42 43 44 45 46
ATOM$RED        STATIC     ATOMS    COLORGROUP SYSTEM
4 30 31 35 36
