AV-unprocessed.smi:149|AV-procd|sdf|1235|dock8
  -GOLD-   2262018443D 1   1.00000     0.00000
 Structure written by MMmdl.
 60 64  0  0  0  0  0  0  0  0  2 V2000
  148.9244  141.2664  153.9148 C   0  0  0  0  0  0  0  0  0  0  0  0
  147.6272  141.7524  154.5930 C   0  0  1  0  0  0  0  0  0  0  0  0
  146.4574  140.8122  154.2565 C   0  0  0  0  0  0  0  0  0  0  0  0
  146.3225  139.9097  155.3937 N   0  0  0  0  0  0  0  0  0  0  0  0
  145.8576  138.6432  155.2362 C   0  0  0  0  0  0  0  0  0  0  0  0
  145.5026  137.9356  156.3414 N   0  0  0  0  0  0  0  0  0  0  0  0
  145.0409  136.6875  156.2278 C   0  0  0  0  0  0  0  0  0  0  0  0
  144.8507  135.9670  155.1223 N   0  0  0  0  0  0  0  0  0  0  0  0
  145.1905  136.6710  154.0045 C   0  0  0  0  0  0  0  0  0  0  0  0
  145.6967  138.0031  153.9718 C   0  0  0  0  0  0  0  0  0  0  0  0
  145.9145  138.3876  152.6537 N   0  0  0  0  0  0  0  0  0  0  0  0
  145.5684  137.3447  151.9510 C   0  0  0  0  0  0  0  0  0  0  0  0
  145.1211  136.2663  152.6801 N   0  0  0  0  0  0  0  0  0  0  0  0
  144.6809  135.0057  152.1493 C   0  0  0  0  0  0  0  0  0  0  0  0
  145.4709  133.7171  152.3846 C   0  0  0  0  0  0  0  0  0  0  0  0
  145.0180  133.1968  151.0013 C   0  0  0  0  0  0  0  0  0  0  0  0
  146.1108  132.4938  150.1793 C   0  0  0  0  0  0  0  0  0  0  0  0
  146.4438  131.2373  150.7341 O   0  0  0  0  0  0  0  0  0  0  0  0
  143.7497  132.3196  151.0159 C   0  0  0  0  0  0  0  0  0  0  0  0
  143.4068  131.8820  149.7165 O   0  0  0  0  0  0  0  0  0  0  0  0
  144.7838  134.6864  150.6570 C   0  0  0  0  0  0  0  0  0  0  0  0
  147.3020  140.2424  156.4171 C   0  0  0  0  0  0  0  0  0  0  0  0
  147.6576  141.7058  156.1345 C   0  0  1  0  0  0  0  0  0  0  0  0
  148.9252  142.1810  156.7571 N   0  3  0  0  0  0  0  0  0  0  0  0
  148.7354  142.6537  158.1527 C   0  0  0  0  0  0  0  0  0  0  0  0
  150.0572  143.1849  158.7311 C   0  0  0  0  0  0  0  0  0  0  0  0
  151.0451  142.1650  158.6724 O   0  0  0  0  0  0  0  0  0  0  0  0
  151.3066  141.7605  157.3355 C   0  0  0  0  0  0  0  0  0  0  0  0
  150.0263  141.1851  156.7068 C   0  0  0  0  0  0  0  0  0  0  0  0
  149.1891  140.2558  154.2266 H   0  0  0  0  0  0  0  0  0  0  0  0
  149.7693  141.9158  154.1414 H   0  0  0  0  0  0  0  0  0  0  0  0
  148.8117  141.2547  152.8305 H   0  0  0  0  0  0  0  0  0  0  0  0
  147.4087  142.7607  154.2396 H   0  0  0  0  0  0  0  0  0  0  0  0
  145.5311  141.3782  154.1524 H   0  0  0  0  0  0  0  0  0  0  0  0
  146.6310  140.2763  153.3224 H   0  0  0  0  0  0  0  0  0  0  0  0
  144.7873  136.1952  157.1553 H   0  0  0  0  0  0  0  0  0  0  0  0
  145.6297  137.3370  150.8725 H   0  0  0  0  0  0  0  0  0  0  0  0
  143.6505  134.8733  152.4843 H   0  0  0  0  0  0  0  0  0  0  0  0
  146.5480  133.8807  152.4432 H   0  0  0  0  0  0  0  0  0  0  0  0
  145.1235  133.1244  153.2314 H   0  0  0  0  0  0  0  0  0  0  0  0
  145.8066  132.3552  149.1416 H   0  0  0  0  0  0  0  0  0  0  0  0
  147.0201  133.0951  150.1525 H   0  0  0  0  0  0  0  0  0  0  0  0
  147.2839  130.9718  150.3921 H   0  0  0  0  0  0  0  0  0  0  0  0
  143.8747  131.4473  151.6579 H   0  0  0  0  0  0  0  0  0  0  0  0
  142.8969  132.8678  151.4168 H   0  0  0  0  0  0  0  0  0  0  0  0
  143.2789  132.6412  149.1684 H   0  0  0  0  0  0  0  0  0  0  0  0
  143.8741  134.8929  150.0923 H   0  0  0  0  0  0  0  0  0  0  0  0
  145.6468  135.1533  150.1801 H   0  0  0  0  0  0  0  0  0  0  0  0
  146.8846  140.1114  157.4161 H   0  0  0  0  0  0  0  0  0  0  0  0
  148.1764  139.5977  156.3184 H   0  0  0  0  0  0  0  0  0  0  0  0
  146.8406  142.3238  156.5130 H   0  0  0  0  0  0  0  0  0  0  0  0
  147.9851  143.4428  158.1929 H   0  0  0  0  0  0  0  0  0  0  0  0
  148.3650  141.8331  158.7693 H   0  0  0  0  0  0  0  0  0  0  0  0
  150.3943  144.0698  158.1887 H   0  0  0  0  0  0  0  0  0  0  0  0
  149.9192  143.4818  159.7709 H   0  0  0  0  0  0  0  0  0  0  0  0
  151.6813  142.6041  156.7535 H   0  0  0  0  0  0  0  0  0  0  0  0
  152.0931  141.0058  157.3436 H   0  0  0  0  0  0  0  0  0  0  0  0
  149.7250  140.2789  157.2342 H   0  0  0  0  0  0  0  0  0  0  0  0
  150.2419  140.9009  155.6770 H   0  0  0  0  0  0  0  0  0  0  0  0
  149.2325  142.9756  156.2147 H   0  0  0  0  0  0  0  0  0  0  0  0
  1  2  1  0  0  0  0
  1 30  1  0  0  0  0
  1 31  1  0  0  0  0
  1 32  1  0  0  0  0
  2 23  1  0  0  0  0
  2  3  1  0  0  0  0
  2 33  1  0  0  0  0
  3  4  1  0  0  0  0
  3 34  1  0  0  0  0
  3 35  1  0  0  0  0
  4  5  1  0  0  0  0
  4 22  1  0  0  0  0
  5 10  1  0  0  0  0
  5  6  2  0  0  0  0
  6  7  1  0  0  0  0
  7  8  2  0  0  0  0
  7 36  1  0  0  0  0
  8  9  1  0  0  0  0
  9 13  1  0  0  0  0
  9 10  2  0  0  0  0
 10 11  1  0  0  0  0
 11 12  2  0  0  0  0
 12 13  1  0  0  0  0
 12 37  1  0  0  0  0
 13 14  1  0  0  0  0
 14 21  1  0  0  0  0
 14 15  1  0  0  0  0
 14 38  1  0  0  0  0
 15 16  1  0  0  0  0
 15 39  1  0  0  0  0
 15 40  1  0  0  0  0
 16 17  1  0  0  0  0
 16 19  1  0  0  0  0
 16 21  1  0  0  0  0
 17 18  1  0  0  0  0
 17 41  1  0  0  0  0
 17 42  1  0  0  0  0
 18 43  1  0  0  0  0
 19 20  1  0  0  0  0
 19 44  1  0  0  0  0
 19 45  1  0  0  0  0
 20 46  1  0  0  0  0
 21 47  1  0  0  0  0
 21 48  1  0  0  0  0
 22 23  1  0  0  0  0
 22 49  1  0  0  0  0
 22 50  1  0  0  0  0
 23 24  1  0  0  0  0
 23 51  1  0  0  0  0
 24 29  1  0  0  0  0
 24 25  1  0  0  0  0
 24 60  1  0  0  0  0
 25 26  1  0  0  0  0
 25 52  1  0  0  0  0
 25 53  1  0  0  0  0
 26 27  1  0  0  0  0
 26 54  1  0  0  0  0
 26 55  1  0  0  0  0
 27 28  1  0  0  0  0
 28 29  1  0  0  0  0
 28 56  1  0  0  0  0
 28 57  1  0  0  0  0
 29 58  1  0  0  0  0
 29 59  1  0  0  0  0
M  CHG  1  24   1
M  END
> <s_m_source_file>
AV-unprocessed.smi

> <i_m_source_file_index>
149

> <i_lp_mmshare_version>
43012

> <i_f3d_flags>
0

> <s_epik_input>
W0NIMl0xW0NIMl1PW0NIMl1bQ0gyXU4xW0NAQEhdMltDSDJdTihbQ0gyXVtDQEhdMltDSDNdKWMobltjSF1uMyljKGMzNCluW2NIXW40W0NIXShbQ0gyXTUpW0NIMl1DNShbQ0gyXVtPSF0pW0NIMl1bT0hd

> <s_epik_cmdline>
J2VwaWtfcHl0aG9uJywgJy1waCcsICc3LjAnLCAnLXRuJywgJzgnLCAnLW1hJywgJzIwMCcsICctbWV0YWxfYmluZGluZycsICctaW1hZScsICc8aW5maWxlLm1hZT4nLCAnLW9tYWUnLCAnPG91dGZpbGUubWFlPic=

> <r_lp_tautomer_probability>
1

> <r_epik_Ionization_Penalty>
0.404847

> <r_epik_Ionization_Penalty_Charging>
0.404623

> <r_epik_Ionization_Penalty_Neutral>
0.000224096

> <r_epik_State_Penalty>
0.238803

> <r_epik_Charging_Adjusted_Penalty>
0.643425

> <i_epik_Tot_Q>
1

> <i_epik_Tot_abs_Q>
1

> <r_epik_Metal_State_Penalty>
0.239083

> <b_epik_Metal_Only>
0

> <s_lp_Force_Field>
OPLS_2005

> <r_lp_Energy>
70.5457

> <b_lp_Chiralities_Consistent>
1

> <s_lp_Variant>
AV-unprocessed.smi:149-2

> <Gold.Version>
5.8.1

> <Gold.Id.Protein>
6NUR|6NUR_protein|mol2

> <Gold.PLP.Fitness>
47.6940

> <Gold.PLP.PLP>
-35.2889

> <Gold.PLP.part.hbond>
-3.8611

> <Gold.PLP.part.metal>
0.0000

> <Gold.PLP.part.buried>
-5.4798

> <Gold.PLP.part.nonpolar>
-28.5284

> <Gold.PLP.part.repulsive>
0.8217

> <Gold.PLP.ligand.clash>
0.0000

> <Gold.PLP.ligand.torsion>
1.1548

> <Gold.PLP.Chemscore.Hbond>
4.0000

> <Gold.PLP.Chemscore.CHOScore>
0.6675

> <Gold.PLP.Chemscore.Metal>
0.0000

> <Gold.Chemscore.Hbonds>
donor molecule, donor type, donor heavy atom, donor atom, acceptor molecule, acceptor atom, score
      L1  H    18    43       P1 10747  1.00
      L1  H    24    60       P1  8028  1.89
      P1  H 10785 10796       L1    20  1.00
      L1  C    12    37       P1 10171  0.68

> <Gold.PLP.Chemscore.Internal.Correction>
0.7123

> <Gold.Rescore>
     Score         DG    S(hbond)    S(metal)    S(lipo)     H(rot)  DE(clash)    DE(int)     intcor
     13.37     -17.08       2.85        0.00      85.53       3.09       0.33       3.38       ----

> <Gold.Chemscore.Fitness>
13.3707

> <Gold.Chemscore.DG>
-17.0761

> <Gold.Chemscore.ZeroCoef>
-5.4800

> <Gold.Chemscore.Hbond>
2.8451

> <Gold.Chemscore.Metal>
0.0000

> <Gold.Chemscore.Lipo>
85.5283

> <Gold.Chemscore.Internal_Hbond>
0.0000

> <Gold.Chemscore.DEClash>
0.3288

> <Gold.Chemscore.DEInternal>
3.3766

> <Gold.Chemscore.Rot>
3.0912

> <Gold.Chemscore.Internal.Correction>
   9.000000E+99

> <Gold.Chemscore.Hbonds>
donor molecule, donor type, donor heavy atom, donor atom, acceptor molecule, acceptor atom, score
      L1  H    18    43       P1 10747  0.99
      L1  H    24    60       P1  8028  0.91
      P1  H 10785 10796       L1    20  0.83

> <Gold.Chemscore.Hbond.Weighted>
-9.5028

> <Gold.Chemscore.Metal.Weighted>
-0.0000

> <Gold.Chemscore.Lipo.Weighted>
-10.0068

> <Gold.Chemscore.Internal_Hbond.Weighted>
0.0000

> <Gold.Chemscore.DEClash.Weighted>
0.3288

> <Gold.Chemscore.DEInternal.Weighted>
3.3766

> <Gold.Chemscore.Rot.Weighted>
7.9135

> <Gold.Chemscore.Internal.Correction.Weighted>
   9.000000E+99

> <Gold.Protein.RotatedTorsions>
[ 6907 6896 6895 6894 ] final   46.07 input  -60.11 | X-H torsion
[ 7974 7965 7964 7962 ] final   36.36 input  175.53 | X-H torsion
[ 8008 7997 7996 7995 ] final -161.27 input   59.86 | X-H torsion
[ 10167 10162 10161 10158 ] final -105.49 input  -65.29 | X-H torsion
[ 10718 10713 10712 10709 ] final  107.37 input   66.30 | X-H torsion
[ 10763 10752 10751 10750 ] final  -77.34 input  -60.55 | X-H torsion
[ 11005 11000 10999 10996 ] final  135.38 input  -57.11 | X-H torsion

> <Gold.Protein.ActiveResidues>
 VAL166  LYS551  ARG553  GLY616  TRP617  ASP618  TYR619  PRO620  LYS621  CYS622 
 ASP623  PHE694  ASN695  SER759  ASP760  ASP761  ALA762  ILE779  LEU786  VAL792 
 PHE793  MET794  SER795  GLU796  ALA797  LYS798  CYS799  TRP800  GLU811  SER814 

> <Gold.Protein.RotatedAtoms>
  152.2521  134.8122  160.0444 H   0  0  0  0  0  0  0  0  0  0  0  0  # atno 6907 bound_to 6896
  151.8799  133.3488  159.3771 H   0  0  0  0  0  0  0  0  0  0  0  0  # atno 6908 bound_to 6896
  150.7087  134.4956  159.5581 H   0  0  0  0  0  0  0  0  0  0  0  0  # atno 6909 bound_to 6896
  146.1217  139.6027  142.9285 H   0  0  0  0  0  0  0  0  0  0  0  0  # atno 7974 bound_to 7965
  155.7897  140.0876  157.2015 H   0  0  0  0  0  0  0  0  0  0  0  0  # atno 8008 bound_to 7997
  154.3986  140.1492  156.3207 H   0  0  0  0  0  0  0  0  0  0  0  0  # atno 8009 bound_to 7997
  155.8571  140.3432  155.5734 H   0  0  0  0  0  0  0  0  0  0  0  0  # atno 8010 bound_to 7997
  140.1980  143.3840  152.1153 H   0  0  0  0  0  0  0  0  0  0  0  0  # atno 10167 bound_to 10162
  157.6631  131.0871  150.6147 H   0  0  0  0  0  0  0  0  0  0  0  0  # atno 10718 bound_to 10713
  154.5117  135.5767  153.6610 H   0  0  0  0  0  0  0  0  0  0  0  0  # atno 10763 bound_to 10752
  152.9898  135.6160  154.2870 H   0  0  0  0  0  0  0  0  0  0  0  0  # atno 10764 bound_to 10752
  154.2785  135.2851  155.2687 H   0  0  0  0  0  0  0  0  0  0  0  0  # atno 10765 bound_to 10752
  139.9976  134.9491  156.9999 H   0  0  0  0  0  0  0  0  0  0  0  0  # atno 11005 bound_to 11000
  145.5452  141.0418  143.2308 LP  0  0  0  0  0  0  0  0  0  0  0  0  # atno 17320 bound_to 7965
  144.7603  139.6973  143.7237 LP  0  0  0  0  0  0  0  0  0  0  0  0  # atno 17321 bound_to 7965
  139.5229  144.7064  151.5340 LP  0  0  0  0  0  0  0  0  0  0  0  0  # atno 17342 bound_to 10162
  140.6410  143.8889  150.6692 LP  0  0  0  0  0  0  0  0  0  0  0  0  # atno 17343 bound_to 10162
  156.6449  130.4468  149.5739 LP  0  0  0  0  0  0  0  0  0  0  0  0  # atno 17370 bound_to 10713
  156.2181  130.6720  151.1340 LP  0  0  0  0  0  0  0  0  0  0  0  0  # atno 17371 bound_to 10713
  140.4789  134.1310  155.7214 LP  0  0  0  0  0  0  0  0  0  0  0  0  # atno 17394 bound_to 11000
  141.1616  133.8781  157.1831 LP  0  0  0  0  0  0  0  0  0  0  0  0  # atno 17395 bound_to 11000

$$$$
