#       Name:                AV-unprocessed.smi:729
#       Creating user name   scv26
#       Creation time:       Fri Mar 27 00:51:31 2020


#       File generated by GOLD software.
#

@<TRIPOS>MOLECULE
AV-unprocessed.smi:729
    29    29     1
SMALL
NO_CHARGES


@<TRIPOS>ATOM
      1 ****         0.5298   2.0131  -0.0858 C.3            1 S1                 0.0000
      2 ****        -0.2631   0.7117  -0.1405 C.2            1 S1                 0.0000
      3 ****        -1.6086   0.7303  -0.1527 C.2            1 S1                 0.0000
      4 ****        -2.3431  -0.5065  -0.2392 C.2            1 S1                 0.0000
      5 ****        -3.6818  -0.4946  -0.2377 O.3            1 S1                 0.0000
      6 ****        -1.6749  -1.6701  -0.3300 C.2            1 S1                 0.0000
      7 ****        -0.2114  -1.7273  -0.3308 C.2            1 S1                 0.0000
      8 ****         0.3763  -2.8052  -0.4311 O.2            1 S1                 0.0000
      9 ****         0.4457  -0.5283  -0.1995 N.am           1 S1                 0.0000
     10 ****         1.9291  -0.5371  -0.1803 C.3            1 S1                 0.0000
     11 ****         2.5148  -0.2180   1.2005 C.2            1 S1                 0.0000
     12 ****         3.3650   0.6971   1.2621 O.co2          1 S1                 0.0000
     13 ****         2.1110  -0.9004   2.1677 O.co2          1 S1                -1.0000
     14 ****        -0.1280   2.8674  -0.2481 H              1 S1                 0.0000
     15 ****         1.2979   2.0656  -0.8559 H              1 S1                 0.0000
     16 ****         0.9904   2.1470   0.8926 H              1 S1                 0.0000
     17 ****        -2.1416   1.6693  -0.1137 H              1 S1                 0.0000
     18 ****        -3.9570   0.4066  -0.1679 H              1 S1                 0.0000
     19 ****        -2.2285  -2.5955  -0.3993 H              1 S1                 0.0000
     20 ****         2.3615  -1.4883  -0.4916 H              1 S1                 0.0000
     21 ****         2.3160   0.1639  -0.9187 H              1 S1                 0.0000
     22 ****        -4.0272  -1.0186   0.5409 LP             1 S1                 0.0000
     23 ****        -4.0279  -0.8927  -1.0873 LP             1 S1                 0.0000
     24 ****        -0.1462  -3.6539  -0.5132 LP             1 S1                 0.0000
     25 ****         1.3760  -2.8316  -0.4305 LP             1 S1                 0.0000
     26 ****         3.7814   0.9345   2.1398 LP             1 S1                 0.0000
     27 ****         3.6285   1.1914   0.4337 LP             1 S1                 0.0000
     28 ****         2.4733  -0.7319   3.0844 LP             1 S1                 0.0000
     29 ****         1.4259  -1.6146   2.0243 LP             1 S1                 0.0000
@<TRIPOS>BOND
    1    1    2 1     
    2    1   14 1     
    3    1   15 1     
    4    1   16 1     
    5    2    9 1     
    6    2    3 2     
    7    3    4 1     
    8    3   17 1     
    9    4    5 1     
   10    4    6 2     
   11    5   18 1     
   12    6    7 1     
   13    6   19 1     
   14    7    8 2     
   15    7    9 am    
   16    9   10 1     
   17   10   11 1     
   18   10   20 1     
   19   10   21 1     
   20   11   12 ar    
   21   11   13 ar    
   22    5   22 1     
   23    5   23 1     
   24    8   24 1     
   25    8   25 1     
   26   12   26 1     
   27   12   27 1     
   28   13   28 1     
   29   13   29 1     
@<TRIPOS>SUBSTRUCTURE
      1 S1             1
@<TRIPOS>SET
LONE_PAIRS      STATIC     ATOMS    <user>   **** ""
8 22 23 24 25 26 27 28 29
DONOR_HYDROGENS      STATIC     ATOMS    <user>   **** ""
1 18
ATOM$BLUE        STATIC     ATOMS    COLORGROUP SYSTEM
8 22 23 24 25 26 27 28 29
ATOM$RED        STATIC     ATOMS    COLORGROUP SYSTEM
1 18
