AV-unprocessed.smi:1898|AV-procd|sdf|7701|dock6
  -GOLD-   22720 9443D 1   1.00000     0.00000
 Structure written by MMmdl.
 47 48  0  0  0  0  0  0  0  0  2 V2000
  144.5852  134.7426  150.8458 C   0  0  0  0  0  0  0  0  0  0  0  0
  144.9753  136.1221  151.0958 N   0  0  0  0  0  0  0  0  0  0  0  0
  145.7320  136.5151  152.1298 C   0  0  0  0  0  0  0  0  0  0  0  0
  146.1676  135.7382  152.9803 O   0  0  0  0  0  0  0  0  0  0  0  0
  146.0245  138.0165  152.2228 C   0  0  0  0  0  0  0  0  0  0  0  0
  147.1801  138.3289  153.1023 N   0  3  2  0  0  0  0  0  0  0  0  0
  146.9185  137.9998  154.5266 C   0  0  0  0  0  0  0  0  0  0  0  0
  148.1865  138.1827  155.3770 C   0  0  0  0  0  0  0  0  0  0  0  0
  148.7410  139.6104  155.2480 C   0  0  1  0  0  0  0  0  0  0  0  0
  149.9926  139.7265  155.9903 N   0  0  0  0  0  0  0  0  0  0  0  0
  150.1989  140.5433  157.0331 C   0  0  0  0  0  0  0  0  0  0  0  0
  149.3333  141.2902  157.4876 O   0  0  0  0  0  0  0  0  0  0  0  0
  151.4534  140.4213  157.4996 N   0  0  0  0  0  0  0  0  0  0  0  0
  152.0768  141.0778  158.5982 C   0  0  0  0  0  0  0  0  0  0  0  0
  151.6607  142.3276  159.1202 C   0  0  0  0  0  0  0  0  0  0  0  0
  152.3637  142.8833  160.2051 C   0  0  0  0  0  0  0  0  0  0  0  0
  153.4617  142.1755  160.7262 C   0  0  0  0  0  0  0  0  0  0  0  0
  153.8774  140.9911  160.2333 N   0  0  0  0  0  0  0  0  0  0  0  0
  153.2011  140.4528  159.1876 C   0  0  0  0  0  0  0  0  0  0  0  0
  153.6321  139.2414  158.6807 O   0  0  0  0  0  0  0  0  0  0  0  0
  154.7221  138.5857  159.3196 C   0  0  0  0  0  0  0  0  0  0  0  0
  148.9574  139.9498  153.7622 C   0  0  0  0  0  0  0  0  0  0  0  0
  147.6736  139.7235  152.9474 C   0  0  0  0  0  0  0  0  0  0  0  0
  143.9672  134.6877  149.9496 H   0  0  0  0  0  0  0  0  0  0  0  0
  144.0094  134.3431  151.6818 H   0  0  0  0  0  0  0  0  0  0  0  0
  145.4625  134.1124  150.6941 H   0  0  0  0  0  0  0  0  0  0  0  0
  144.6478  136.8191  150.4422 H   0  0  0  0  0  0  0  0  0  0  0  0
  146.1838  138.4382  151.2289 H   0  0  0  0  0  0  0  0  0  0  0  0
  145.1228  138.4841  152.6207 H   0  0  0  0  0  0  0  0  0  0  0  0
  146.1137  138.6313  154.9063 H   0  0  0  0  0  0  0  0  0  0  0  0
  146.5793  136.9667  154.6118 H   0  0  0  0  0  0  0  0  0  0  0  0
  147.9646  137.9602  156.4214 H   0  0  0  0  0  0  0  0  0  0  0  0
  148.9404  137.4602  155.0600 H   0  0  0  0  0  0  0  0  0  0  0  0
  148.0051  140.2997  155.6671 H   0  0  0  0  0  0  0  0  0  0  0  0
  150.7593  139.1436  155.6870 H   0  0  0  0  0  0  0  0  0  0  0  0
  152.0265  139.7270  157.0424 H   0  0  0  0  0  0  0  0  0  0  0  0
  150.8299  142.8793  158.7110 H   0  0  0  0  0  0  0  0  0  0  0  0
  152.0690  143.8333  160.6256 H   0  0  0  0  0  0  0  0  0  0  0  0
  154.0243  142.5729  161.5579 H   0  0  0  0  0  0  0  0  0  0  0  0
  154.9376  137.6540  158.7971 H   0  0  0  0  0  0  0  0  0  0  0  0
  154.4868  138.3374  160.3555 H   0  0  0  0  0  0  0  0  0  0  0  0
  155.6262  139.1958  159.2935 H   0  0  0  0  0  0  0  0  0  0  0  0
  149.2807  140.9860  153.6560 H   0  0  0  0  0  0  0  0  0  0  0  0
  149.7587  139.3325  153.3528 H   0  0  0  0  0  0  0  0  0  0  0  0
  147.8746  139.9375  151.8973 H   0  0  0  0  0  0  0  0  0  0  0  0
  146.8995  140.4228  153.2678 H   0  0  0  0  0  0  0  0  0  0  0  0
  147.9275  137.7180  152.8037 H   0  0  0  0  0  0  0  0  0  0  0  0
  1  2  1  0  0  0  0
  1 24  1  0  0  0  0
  1 25  1  0  0  0  0
  1 26  1  0  0  0  0
  2  3  1  0  0  0  0
  2 27  1  0  0  0  0
  3  4  2  0  0  0  0
  3  5  1  0  0  0  0
  5  6  1  0  0  0  0
  5 28  1  0  0  0  0
  5 29  1  0  0  0  0
  6 23  1  0  0  0  0
  6  7  1  0  0  0  0
  6 47  1  0  0  0  0
  7  8  1  0  0  0  0
  7 30  1  0  0  0  0
  7 31  1  0  0  0  0
  8  9  1  0  0  0  0
  8 32  1  0  0  0  0
  8 33  1  0  0  0  0
  9 10  1  0  0  0  0
  9 22  1  0  0  0  0
  9 34  1  0  0  0  0
 10 11  1  0  0  0  0
 10 35  1  0  0  0  0
 11 12  2  0  0  0  0
 11 13  1  0  0  0  0
 13 14  1  0  0  0  0
 13 36  1  0  0  0  0
 14 19  1  0  0  0  0
 14 15  2  0  0  0  0
 15 16  1  0  0  0  0
 15 37  1  0  0  0  0
 16 17  2  0  0  0  0
 16 38  1  0  0  0  0
 17 18  1  0  0  0  0
 17 39  1  0  0  0  0
 18 19  2  0  0  0  0
 19 20  1  0  0  0  0
 20 21  1  0  0  0  0
 21 40  1  0  0  0  0
 21 41  1  0  0  0  0
 21 42  1  0  0  0  0
 22 23  1  0  0  0  0
 22 43  1  0  0  0  0
 22 44  1  0  0  0  0
 23 45  1  0  0  0  0
 23 46  1  0  0  0  0
M  CHG  1   6   1
M  END
> <s_m_source_file>
AV-unprocessed.smi

> <i_m_source_file_index>
1898

> <i_lp_mmshare_version>
43012

> <i_f3d_flags>
0

> <s_epik_input>
W0NIM11bTkhdQyg9TylbQ0gyXU4xW0NIMl1bQ0gyXVtDSF0oW0NIMl1bQ0gyXTEpW05IXUMoPU8pW05IXWMyW2NIXVtjSF1bY0hdbmMyT1tDSDNd

> <s_epik_cmdline>
J2VwaWtfcHl0aG9uJywgJy1waCcsICc3LjAnLCAnLXRuJywgJzgnLCAnLW1hJywgJzIwMCcsICctbWV0YWxfYmluZGluZycsICctaW1hZScsICc8aW5maWxlLm1hZT4nLCAnLW9tYWUnLCAnPG91dGZpbGUubWFlPic=

> <r_lp_tautomer_probability>
1

> <r_epik_Ionization_Penalty>
0.838943

> <r_epik_Ionization_Penalty_Charging>
0.838844

> <r_epik_Ionization_Penalty_Neutral>
9.87395e-05

> <r_epik_State_Penalty>
0.8734

> <r_epik_Charging_Adjusted_Penalty>
1.71224

> <i_epik_Tot_Q>
1

> <i_epik_Tot_abs_Q>
1

> <r_epik_Metal_State_Penalty>
0.877926

> <b_epik_Metal_Only>
0

> <s_lp_Force_Field>
OPLS_2005

> <r_lp_Energy>
17.1521

> <b_lp_Chiralities_Consistent>
1

> <s_lp_Variant>
AV-unprocessed.smi:1898-2

> <Gold.Version>
5.8.1

> <Gold.Id.Protein>
6NUR|6NUR_protein|mol2

> <Gold.PLP.Fitness>
38.8422

> <Gold.PLP.PLP>
-28.0922

> <Gold.PLP.part.hbond>
-3.0000

> <Gold.PLP.part.metal>
0.0000

> <Gold.PLP.part.buried>
0.5387

> <Gold.PLP.part.nonpolar>
-27.4801

> <Gold.PLP.part.repulsive>
1.3997

> <Gold.PLP.ligand.clash>
0.0000

> <Gold.PLP.ligand.torsion>
0.4414

> <Gold.PLP.Chemscore.Hbond>
3.8675

> <Gold.PLP.Chemscore.CHOScore>
0.0000

> <Gold.PLP.Chemscore.Metal>
0.0000

> <Gold.Chemscore.Hbonds>
donor molecule, donor type, donor heavy atom, donor atom, acceptor molecule, acceptor atom, score
      L1  H     2    27       P1 10171  1.00
      L1  H     6    47       P1  7948  2.00
      P1  H  7997  8008       L1    20  0.62

> <Gold.PLP.Chemscore.Internal.Correction>
0.0303

> <Gold.Rescore>
     Score         DG    S(hbond)    S(metal)    S(lipo)     H(rot)  DE(clash)    DE(int)     intcor
     10.46     -16.42       1.96        0.00      81.20       2.00       3.27       2.69       ----

> <Gold.Chemscore.Fitness>
10.4621

> <Gold.Chemscore.DG>
-16.4221

> <Gold.Chemscore.ZeroCoef>
-5.4800

> <Gold.Chemscore.Hbond>
1.9618

> <Gold.Chemscore.Metal>
0.0000

> <Gold.Chemscore.Lipo>
81.1995

> <Gold.Chemscore.Internal_Hbond>
0.0000

> <Gold.Chemscore.DEClash>
3.2735

> <Gold.Chemscore.DEInternal>
2.6864

> <Gold.Chemscore.Rot>
1.9963

> <Gold.Chemscore.Internal.Correction>
   9.000000E+99

> <Gold.Chemscore.Hbonds>
donor molecule, donor type, donor heavy atom, donor atom, acceptor molecule, acceptor atom, score
      L1  H     2    27       P1 10171  0.94
      L1  H     6    47       P1  7948  0.93
      P1  H  7997  8008       L1    20  0.03

> <Gold.Chemscore.Hbond.Weighted>
-6.5523

> <Gold.Chemscore.Metal.Weighted>
-0.0000

> <Gold.Chemscore.Lipo.Weighted>
-9.5003

> <Gold.Chemscore.Internal_Hbond.Weighted>
0.0000

> <Gold.Chemscore.DEClash.Weighted>
3.2735

> <Gold.Chemscore.DEInternal.Weighted>
2.6864

> <Gold.Chemscore.Rot.Weighted>
5.1105

> <Gold.Chemscore.Internal.Correction.Weighted>
   9.000000E+99

> <Gold.Protein.RotatedTorsions>
[ 6907 6896 6895 6894 ] final  110.69 input  -60.11 | X-H torsion
[ 7974 7965 7964 7962 ] final  144.44 input  175.53 | X-H torsion
[ 8008 7997 7996 7995 ] final  -77.35 input   59.86 | X-H torsion
[ 10167 10162 10161 10158 ] final  -39.89 input  -65.29 | X-H torsion
[ 10718 10713 10712 10709 ] final   14.40 input   66.30 | X-H torsion
[ 10763 10752 10751 10750 ] final -144.43 input  -60.55 | X-H torsion
[ 11005 11000 10999 10996 ] final  -28.63 input  -57.11 | X-H torsion

> <Gold.Protein.ActiveResidues>
 VAL166  LYS551  ARG553  GLY616  TRP617  ASP618  TYR619  PRO620  LYS621  CYS622 
 ASP623  PHE694  ASN695  SER759  ASP760  ASP761  ALA762  ILE779  LEU786  VAL792 
 PHE793  MET794  SER795  GLU796  ALA797  LYS798  CYS799  TRP800  GLU811  SER814 

> <Gold.Protein.RotatedAtoms>
  152.5007  133.8764  159.7323 H   0  0  0  0  0  0  0  0  0  0  0  0  # atno 6907 bound_to 6896
  150.9237  133.6840  159.2833 H   0  0  0  0  0  0  0  0  0  0  0  0  # atno 6908 bound_to 6896
  151.4208  135.1002  159.9666 H   0  0  0  0  0  0  0  0  0  0  0  0  # atno 6909 bound_to 6896
  144.8836  139.5662  143.5831 H   0  0  0  0  0  0  0  0  0  0  0  0  # atno 7974 bound_to 7965
  154.5588  140.0712  156.8785 H   0  0  0  0  0  0  0  0  0  0  0  0  # atno 8008 bound_to 7997
  155.2852  140.3374  155.4237 H   0  0  0  0  0  0  0  0  0  0  0  0  # atno 8009 bound_to 7997
  156.2024  140.1727  156.7856 H   0  0  0  0  0  0  0  0  0  0  0  0  # atno 8010 bound_to 7997
  140.7051  143.3186  151.2847 H   0  0  0  0  0  0  0  0  0  0  0  0  # atno 10167 bound_to 10162
  157.0385  130.6222  149.5747 H   0  0  0  0  0  0  0  0  0  0  0  0  # atno 10718 bound_to 10713
  154.8428  135.3440  154.6345 H   0  0  0  0  0  0  0  0  0  0  0  0  # atno 10763 bound_to 10752
  153.6955  135.6972  153.5082 H   0  0  0  0  0  0  0  0  0  0  0  0  # atno 10764 bound_to 10752
  153.2563  135.4337  155.0803 H   0  0  0  0  0  0  0  0  0  0  0  0  # atno 10765 bound_to 10752
  140.9225  133.7389  156.0821 H   0  0  0  0  0  0  0  0  0  0  0  0  # atno 11005 bound_to 11000
  146.3010  139.7427  142.9091 LP  0  0  0  0  0  0  0  0  0  0  0  0  # atno 17320 bound_to 7965
  145.3910  141.0372  143.3124 LP  0  0  0  0  0  0  0  0  0  0  0  0  # atno 17321 bound_to 7965
  139.6633  144.0150  152.2706 LP  0  0  0  0  0  0  0  0  0  0  0  0  # atno 17342 bound_to 10162
  139.9724  144.6484  150.7976 LP  0  0  0  0  0  0  0  0  0  0  0  0  # atno 17343 bound_to 10162
  156.0046  130.5130  150.7783 LP  0  0  0  0  0  0  0  0  0  0  0  0  # atno 17370 bound_to 10713
  157.5122  131.0926  151.0183 LP  0  0  0  0  0  0  0  0  0  0  0  0  # atno 17371 bound_to 10713
  140.7969  134.3553  157.5450 LP  0  0  0  0  0  0  0  0  0  0  0  0  # atno 17394 bound_to 11000
  139.8778  134.9174  156.3178 LP  0  0  0  0  0  0  0  0  0  0  0  0  # atno 17395 bound_to 11000

$$$$
