#       Name:                AV-unprocessed.smi:766
#       Creating user name   scv26
#       Creation time:       Fri Mar 27 01:06:17 2020


#       File generated by GOLD software.
#

@<TRIPOS>MOLECULE
AV-unprocessed.smi:766
    51    53     1
SMALL
NO_CHARGES


@<TRIPOS>ATOM
      1 ****        -5.6466   0.1966  -2.3275 C.3            1 S1                 0.0000
      2 ****        -4.5112   0.6446  -1.4242 C.ar           1 S1                 0.0000
      3 ****        -4.8175   1.2536  -0.1863 C.ar           1 S1                 0.0000
      4 ****        -3.7912   1.6837   0.6830 C.ar           1 S1                 0.0000
      5 ****        -3.8611   2.2947   1.9233 N.2            1 S1                 0.0000
      6 ****        -2.5734   2.4434   2.2211 C.2            1 S1                 0.0000
      7 ****        -1.6761   1.9997   1.3197 N.pl3          1 S1                 0.0000
      8 ****        -0.2283   2.0581   1.4195 C.3            1 S1                 0.0000
      9 ****         0.4062   0.6775   1.6778 C.3            1 S1                 0.0000
     10 ****        -0.0985   0.1575   2.8928 O.3            1 S1                 0.0000
     11 ****         1.9380   0.7663   1.7830 C.3            1 S1                 0.0000
     12 ****         2.5636  -0.5147   1.4735 N.3            1 S1                 0.0000
     13 ****         4.0196  -0.4914   1.5862 C.3            1 S1                 0.0000
     14 ****         4.6380  -1.8533   1.2309 C.3            1 S1                 0.0000
     15 ****         4.4725  -2.1859  -0.1728 N.pl3          1 S1                 0.0000
     16 ****         3.6162  -3.1054  -0.7407 C.2            1 S1                 0.0000
     17 ****         3.8148  -3.0659  -2.0911 C.2            1 S1                 0.0000
     18 ****         4.8278  -2.0802  -2.2546 C.2            1 S1                 0.0000
     19 ****         5.2218  -1.5574  -1.1046 N.2            1 S1                 0.0000
     20 ****        -2.4391   1.4874   0.2761 C.ar           1 S1                 0.0000
     21 ****        -2.1215   0.8844  -0.9537 C.ar           1 S1                 0.0000
     22 ****        -3.1590   0.4578  -1.8089 C.ar           1 S1                 0.0000
     23 ****        -2.8055  -0.1979  -3.1322 C.3            1 S1                 0.0000
     24 ****        -6.6177   0.4562  -1.9049 H              1 S1                 0.0000
     25 ****        -5.6196  -0.8844  -2.4663 H              1 S1                 0.0000
     26 ****        -5.5702   0.6737  -3.3048 H              1 S1                 0.0000
     27 ****        -5.8471   1.3949   0.1079 H              1 S1                 0.0000
     28 ****        -2.2646   2.9007   3.1498 H              1 S1                 0.0000
     29 ****         0.1555   2.4793   0.4896 H              1 S1                 0.0000
     30 ****         0.0411   2.7569   2.2130 H              1 S1                 0.0000
     31 ****         0.1275   0.0037   0.8661 H              1 S1                 0.0000
     32 ****         0.1406   0.7448   3.5933 H              1 S1                 0.0000
     33 ****         2.3037   1.5111   1.0750 H              1 S1                 0.0000
     34 ****         2.2328   1.1154   2.7737 H              1 S1                 0.0000
     35 ****         2.1822  -1.2351   2.0789 H              1 S1                 0.0000
     36 ****         4.4364   0.2839   0.9421 H              1 S1                 0.0000
     37 ****         4.3021  -0.2302   2.6066 H              1 S1                 0.0000
     38 ****         5.7055  -1.8451   1.4552 H              1 S1                 0.0000
     39 ****         4.1987  -2.6461   1.8378 H              1 S1                 0.0000
     40 ****         2.9429  -3.7022  -0.1436 H              1 S1                 0.0000
     41 ****         3.3130  -3.6514  -2.8469 H              1 S1                 0.0000
     42 ****         5.2854  -1.7320  -3.1688 H              1 S1                 0.0000
     43 ****        -1.0872   0.7489  -1.2338 H              1 S1                 0.0000
     44 ****        -1.7260  -0.2926  -3.2533 H              1 S1                 0.0000
     45 ****        -3.1854   0.3946  -3.9647 H              1 S1                 0.0000
     46 ****        -3.2372  -1.1972  -3.1918 H              1 S1                 0.0000
     47 ****        -4.6670   2.5554   2.4549 LP             1 S1                 0.0000
     48 ****         0.2944  -0.7464   3.0617 LP             1 S1                 0.0000
     49 ****        -1.0944   0.0834   2.8400 LP             1 S1                 0.0000
     50 ****         2.3555  -0.7143   0.5159 LP             1 S1                 0.0000
     51 ****         5.9180  -0.8547  -0.9582 LP             1 S1                 0.0000
@<TRIPOS>BOND
    1    1    2 1     
    2    1   24 1     
    3    1   25 1     
    4    1   26 1     
    5    2   22 ar    
    6    2    3 ar    
    7    3    4 ar    
    8    3   27 1     
    9    4   20 ar    
   10    4    5 1     
   11    5    6 2     
   12    6    7 1     
   13    6   28 1     
   14    7    8 1     
   15    7   20 1     
   16    8    9 1     
   17    8   29 1     
   18    8   30 1     
   19    9   10 1     
   20    9   11 1     
   21    9   31 1     
   22   10   32 1     
   23   11   12 1     
   24   11   33 1     
   25   11   34 1     
   26   12   13 1     
   27   12   35 1     
   28   13   14 1     
   29   13   36 1     
   30   13   37 1     
   31   14   15 1     
   32   14   38 1     
   33   14   39 1     
   34   15   19 1     
   35   15   16 1     
   36   16   17 2     
   37   16   40 1     
   38   17   18 1     
   39   17   41 1     
   40   18   19 2     
   41   18   42 1     
   42   20   21 ar    
   43   21   22 ar    
   44   21   43 1     
   45   22   23 1     
   46   23   44 1     
   47   23   45 1     
   48   23   46 1     
   49    5   47 1     
   50   10   48 1     
   51   10   49 1     
   52   12   50 1     
   53   19   51 1     
@<TRIPOS>SUBSTRUCTURE
      1 S1             1
@<TRIPOS>SET
LONE_PAIRS      STATIC     ATOMS    <user>   **** ""
5 47 48 49 50 51
DONOR_HYDROGENS      STATIC     ATOMS    <user>   **** ""
2 32 35
ATOM$BLUE        STATIC     ATOMS    COLORGROUP SYSTEM
5 47 48 49 50 51
ATOM$RED        STATIC     ATOMS    COLORGROUP SYSTEM
2 32 35
