AV-unprocessed.smi:1715|AV-procd|sdf|6912|dock4
  -GOLD-   22720 8113D 1   1.00000     0.00000
 Structure written by MMmdl.
 41 42  0  0  0  0  0  0  0  0  2 V2000
  149.8816  135.3779  154.7515 C   0  0  0  0  0  0  0  0  0  0  0  0
  149.7940  136.6636  155.5931 C   0  0  2  0  0  0  0  0  0  0  0  0
  148.5988  137.5636  155.2222 C   0  0  0  0  0  0  0  0  0  0  0  0
  148.8281  138.2584  153.9328 N   0  3  1  0  0  0  0  0  0  0  0  0
  147.6662  139.0859  153.5234 C   0  0  0  0  0  0  0  0  0  0  0  0
  146.3760  138.2563  153.3750 C   0  0  0  0  0  0  0  0  0  0  0  0
  146.6135  137.0238  152.6325 N   0  0  0  0  0  0  0  0  0  0  0  0
  145.6641  136.1422  152.2875 C   0  0  0  0  0  0  0  0  0  0  0  0
  144.4746  136.2806  152.5733 O   0  0  0  0  0  0  0  0  0  0  0  0
  146.1806  135.1083  151.6033 N   0  0  0  0  0  0  0  0  0  0  0  0
  145.4869  133.9849  151.0863 C   0  0  0  0  0  0  0  0  0  0  0  0
  146.0842  132.7274  150.7991 C   0  0  0  0  0  0  0  0  0  0  0  0
  145.1943  131.8656  150.3282 N   0  0  0  0  0  0  0  0  0  0  0  0
  144.0348  132.5611  150.3114 N   0  0  0  0  0  0  0  0  0  0  0  0
  144.1647  133.8551  150.7652 C   0  0  0  0  0  0  0  0  0  0  0  0
  150.1053  139.0107  153.9762 C   0  0  0  0  0  0  0  0  0  0  0  0
  151.2730  138.0688  154.3210 C   0  0  1  0  0  0  0  0  0  0  0  0
  152.5991  138.8243  154.4624 C   0  0  0  0  0  0  0  0  0  0  0  0
  151.0066  137.4161  155.5596 O   0  0  0  0  0  0  0  0  0  0  0  0
  143.1725  132.1433  149.9911 H   0  0  0  0  0  0  0  0  0  0  0  0
  148.9974  134.7576  154.9012 H   0  0  0  0  0  0  0  0  0  0  0  0
  150.7503  134.7848  155.0379 H   0  0  0  0  0  0  0  0  0  0  0  0
  149.9547  135.5845  153.6842 H   0  0  0  0  0  0  0  0  0  0  0  0
  149.6629  136.3509  156.6295 H   0  0  0  0  0  0  0  0  0  0  0  0
  147.6867  136.9675  155.1734 H   0  0  0  0  0  0  0  0  0  0  0  0
  148.4463  138.3093  156.0042 H   0  0  0  0  0  0  0  0  0  0  0  0
  147.4886  139.8519  154.2799 H   0  0  0  0  0  0  0  0  0  0  0  0
  147.9040  139.6155  152.5994 H   0  0  0  0  0  0  0  0  0  0  0  0
  145.9447  138.0082  154.3451 H   0  0  0  0  0  0  0  0  0  0  0  0
  145.6225  138.8345  152.8396 H   0  0  0  0  0  0  0  0  0  0  0  0
  147.5654  136.8323  152.3550 H   0  0  0  0  0  0  0  0  0  0  0  0
  147.1755  135.1247  151.4330 H   0  0  0  0  0  0  0  0  0  0  0  0
  147.1125  132.4178  150.9136 H   0  0  0  0  0  0  0  0  0  0  0  0
  143.3287  134.5372  150.8139 H   0  0  0  0  0  0  0  0  0  0  0  0
  150.3010  139.4851  153.0151 H   0  0  0  0  0  0  0  0  0  0  0  0
  150.0325  139.8096  154.7160 H   0  0  0  0  0  0  0  0  0  0  0  0
  151.3906  137.3272  153.5307 H   0  0  0  0  0  0  0  0  0  0  0  0
  152.8607  139.3368  153.5363 H   0  0  0  0  0  0  0  0  0  0  0  0
  153.4131  138.1403  154.7039 H   0  0  0  0  0  0  0  0  0  0  0  0
  152.5460  139.5713  155.2549 H   0  0  0  0  0  0  0  0  0  0  0  0
  148.9304  137.5357  153.2346 H   0  0  0  0  0  0  0  0  0  0  0  0
  1  2  1  0  0  0  0
  1 21  1  0  0  0  0
  1 22  1  0  0  0  0
  1 23  1  0  0  0  0
  2 19  1  0  0  0  0
  2  3  1  0  0  0  0
  2 24  1  0  0  0  0
  3  4  1  0  0  0  0
  3 25  1  0  0  0  0
  3 26  1  0  0  0  0
  4  5  1  0  0  0  0
  4 16  1  0  0  0  0
  4 41  1  0  0  0  0
  5  6  1  0  0  0  0
  5 27  1  0  0  0  0
  5 28  1  0  0  0  0
  6  7  1  0  0  0  0
  6 29  1  0  0  0  0
  6 30  1  0  0  0  0
  7  8  1  0  0  0  0
  7 31  1  0  0  0  0
  8  9  2  0  0  0  0
  8 10  1  0  0  0  0
 10 11  1  0  0  0  0
 10 32  1  0  0  0  0
 11 15  2  0  0  0  0
 11 12  1  0  0  0  0
 12 13  2  0  0  0  0
 12 33  1  0  0  0  0
 13 14  1  0  0  0  0
 14 20  1  0  0  0  0
 14 15  1  0  0  0  0
 15 34  1  0  0  0  0
 16 17  1  0  0  0  0
 16 35  1  0  0  0  0
 16 36  1  0  0  0  0
 17 18  1  0  0  0  0
 17 19  1  0  0  0  0
 17 37  1  0  0  0  0
 18 38  1  0  0  0  0
 18 39  1  0  0  0  0
 18 40  1  0  0  0  0
M  CHG  1   4   1
M  END
> <s_m_source_file>
AV-unprocessed.smi

> <i_m_source_file_index>
1715

> <i_lp_mmshare_version>
43012

> <i_f3d_flags>
0

> <s_epik_input>
W0NIM11bQ0BASF0xW0NIMl1OKFtDSDJdW0NASF0oTzEpW0NIM10pW0NIMl1bQ0gyXVtOSF1DKD1PKVtOSF1jMltjSF1uW25IXVtjSF0y

> <s_epik_cmdline>
J2VwaWtfcHl0aG9uJywgJy1waCcsICc3LjAnLCAnLXRuJywgJzgnLCAnLW1hJywgJzIwMCcsICctbWV0YWxfYmluZGluZycsICctaW1hZScsICc8aW5maWxlLm1hZT4nLCAnLW9tYWUnLCAnPG91dGZpbGUubWFlPic=

> <r_lp_tautomer_probability>
0.5

> <r_epik_Ionization_Penalty>
0.646007

> <r_epik_Ionization_Penalty_Charging>
0.645968

> <r_epik_Ionization_Penalty_Neutral>
3.91671e-05

> <r_epik_State_Penalty>
0.664063

> <r_epik_Charging_Adjusted_Penalty>
1.31003

> <i_epik_Tot_Q>
1

> <i_epik_Tot_abs_Q>
1

> <r_epik_Metal_State_Penalty>
0.664064

> <b_epik_Metal_Only>
0

> <s_lp_Force_Field>
OPLS_2005

> <r_lp_Energy>
20.2841

> <b_lp_Chiralities_Consistent>
1

> <s_lp_Variant>
AV-unprocessed.smi:1715-4

> <Gold.Version>
5.8.1

> <Gold.Id.Protein>
6NUR|6NUR_protein|mol2

> <Gold.PLP.Fitness>
45.9474

> <Gold.PLP.PLP>
-28.9457

> <Gold.PLP.part.hbond>
-3.0000

> <Gold.PLP.part.metal>
0.0000

> <Gold.PLP.part.buried>
-4.3322

> <Gold.PLP.part.nonpolar>
-22.5330

> <Gold.PLP.part.repulsive>
0.5748

> <Gold.PLP.ligand.clash>
0.0000

> <Gold.PLP.ligand.torsion>
0.1782

> <Gold.PLP.Chemscore.Hbond>
3.8580

> <Gold.PLP.Chemscore.CHOScore>
1.9187

> <Gold.PLP.Chemscore.Metal>
0.0000

> <Gold.Chemscore.Hbonds>
donor molecule, donor type, donor heavy atom, donor atom, acceptor molecule, acceptor atom, score
      L1  H     4    41       P1  7948  2.00
      L1  H     7    31       P1  7948  1.00
      L1  H    10    32       P1  7948  0.76
      L1  C    12    33       P1 10747  1.00
      L1  C    15    34       P1 10186  0.73

> <Gold.PLP.Chemscore.Internal.Correction>
0.0281

> <Gold.Rescore>
     Score         DG    S(hbond)    S(metal)    S(lipo)     H(rot)  DE(clash)    DE(int)     intcor
     17.07     -18.05       2.71        0.00      66.65       1.67       0.07       0.91       ----

> <Gold.Chemscore.Fitness>
17.0733

> <Gold.Chemscore.DG>
-18.0467

> <Gold.Chemscore.ZeroCoef>
-5.4800

> <Gold.Chemscore.Hbond>
2.7055

> <Gold.Chemscore.Metal>
0.0000

> <Gold.Chemscore.Lipo>
66.6512

> <Gold.Chemscore.Internal_Hbond>
0.0000

> <Gold.Chemscore.DEClash>
0.0665

> <Gold.Chemscore.DEInternal>
0.9069

> <Gold.Chemscore.Rot>
1.6671

> <Gold.Chemscore.Internal.Correction>
   9.000000E+99

> <Gold.Chemscore.Hbonds>
donor molecule, donor type, donor heavy atom, donor atom, acceptor molecule, acceptor atom, score
      L1  H     4    41       P1  7948  1.00
      L1  H     7    31       P1  7948  0.98
      L1  H    10    32       P1  7948  0.60

> <Gold.Chemscore.Hbond.Weighted>
-9.0363

> <Gold.Chemscore.Metal.Weighted>
-0.0000

> <Gold.Chemscore.Lipo.Weighted>
-7.7982

> <Gold.Chemscore.Internal_Hbond.Weighted>
0.0000

> <Gold.Chemscore.DEClash.Weighted>
0.0665

> <Gold.Chemscore.DEInternal.Weighted>
0.9069

> <Gold.Chemscore.Rot.Weighted>
4.2677

> <Gold.Chemscore.Internal.Correction.Weighted>
   9.000000E+99

> <Gold.Protein.RotatedTorsions>
[ 6907 6896 6895 6894 ] final  173.23 input  -60.11 | X-H torsion
[ 7974 7965 7964 7962 ] final    2.21 input  175.53 | X-H torsion
[ 8008 7997 7996 7995 ] final  147.84 input   59.86 | X-H torsion
[ 10167 10162 10161 10158 ] final -109.12 input  -65.29 | X-H torsion
[ 10718 10713 10712 10709 ] final  -90.53 input   66.30 | X-H torsion
[ 10763 10752 10751 10750 ] final   75.00 input  -60.55 | X-H torsion
[ 11005 11000 10999 10996 ] final  -83.08 input  -57.11 | X-H torsion

> <Gold.Protein.ActiveResidues>
 VAL166  LYS551  ARG553  GLY616  TRP617  ASP618  TYR619  PRO620  LYS621  CYS622 
 ASP623  PHE694  ASN695  SER759  ASP760  ASP761  ALA762  ILE779  LEU786  VAL792 
 PHE793  MET794  SER795  GLU796  ALA797  LYS798  CYS799  TRP800  GLU811  SER814 

> <Gold.Protein.RotatedAtoms>
  151.7716  133.3341  159.3445 H   0  0  0  0  0  0  0  0  0  0  0  0  # atno 6907 bound_to 6896
  150.7459  134.6014  159.6048 H   0  0  0  0  0  0  0  0  0  0  0  0  # atno 6908 bound_to 6896
  152.3337  134.7227  160.0334 H   0  0  0  0  0  0  0  0  0  0  0  0  # atno 6909 bound_to 6896
  146.2443  140.0870  142.8354 H   0  0  0  0  0  0  0  0  0  0  0  0  # atno 7974 bound_to 7965
  156.2811  140.2145  156.5602 H   0  0  0  0  0  0  0  0  0  0  0  0  # atno 8008 bound_to 7997
  154.7219  140.0503  157.0670 H   0  0  0  0  0  0  0  0  0  0  0  0  # atno 8009 bound_to 7997
  155.0467  140.3151  155.4709 H   0  0  0  0  0  0  0  0  0  0  0  0  # atno 8010 bound_to 7997
  140.1588  143.4137  152.1441 H   0  0  0  0  0  0  0  0  0  0  0  0  # atno 10167 bound_to 10162
  155.9988  130.4913  150.5337 H   0  0  0  0  0  0  0  0  0  0  0  0  # atno 10718 bound_to 10713
  153.0625  135.5005  154.8125 H   0  0  0  0  0  0  0  0  0  0  0  0  # atno 10763 bound_to 10752
  154.6904  135.2983  154.9490 H   0  0  0  0  0  0  0  0  0  0  0  0  # atno 10764 bound_to 10752
  154.0247  135.6737  153.4828 H   0  0  0  0  0  0  0  0  0  0  0  0  # atno 10765 bound_to 10752
  141.1660  133.7276  156.8667 H   0  0  0  0  0  0  0  0  0  0  0  0  # atno 11005 bound_to 11000
  145.0683  140.9137  143.4897 LP  0  0  0  0  0  0  0  0  0  0  0  0  # atno 17320 bound_to 7965
  145.0999  139.2830  143.5691 LP  0  0  0  0  0  0  0  0  0  0  0  0  # atno 17321 bound_to 7965
  139.5391  144.7239  151.4794 LP  0  0  0  0  0  0  0  0  0  0  0  0  # atno 17342 bound_to 10162
  140.6656  143.8405  150.6938 LP  0  0  0  0  0  0  0  0  0  0  0  0  # atno 17343 bound_to 10162
  157.3282  131.0694  151.1880 LP  0  0  0  0  0  0  0  0  0  0  0  0  # atno 17370 bound_to 10713
  157.2770  130.6732  149.6047 LP  0  0  0  0  0  0  0  0  0  0  0  0  # atno 17371 bound_to 10713
  140.1810  134.9033  157.2949 LP  0  0  0  0  0  0  0  0  0  0  0  0  # atno 17394 bound_to 11000
  140.2395  134.3813  155.7487 LP  0  0  0  0  0  0  0  0  0  0  0  0  # atno 17395 bound_to 11000

$$$$
