#       Name:                AV-unprocessed.smi:1170
#       Creating user name   scv26
#       Creation time:       Fri Mar 27 03:52:46 2020


#       File generated by GOLD software.
#

@<TRIPOS>MOLECULE
AV-unprocessed.smi:1170
    39    40     1
SMALL
NO_CHARGES


@<TRIPOS>ATOM
      1 ****        -3.2035   3.5667  -0.7314 C.3            1 S1                 0.0000
      2 ****        -1.6949   3.8185  -0.6761 C.3            1 S1                 0.0000
      3 ****        -1.0219   2.5631  -0.6792 O.3            1 S1                 0.0000
      4 ****         0.3595   2.5493  -0.6368 C.ar           1 S1                 0.0000
      5 ****         1.0162   3.7361  -0.6057 N.ar           1 S1                 0.0000
      6 ****         2.3644   3.7240  -0.5698 C.ar           1 S1                 0.0000
      7 ****         3.1240   2.5400  -0.5706 C.ar           1 S1                 0.0000
      8 ****         2.4453   1.3077  -0.6027 C.ar           1 S1                 0.0000
      9 ****         1.0292   1.3033  -0.6249 C.ar           1 S1                 0.0000
     10 ****         0.2410   0.1196  -0.6721 N.am           1 S1                 0.0000
     11 ****         0.5759  -1.1309  -0.3117 C.2            1 S1                 0.0000
     12 ****         1.6720  -1.4781   0.1274 O.2            1 S1                 0.0000
     13 ****        -0.4544  -1.9723  -0.4758 N.am           1 S1                 0.0000
     14 ****        -0.4288  -3.3949  -0.1608 C.3            1 S1                 0.0000
     15 ****        -0.5083  -3.7263   1.3175 C.3            1 S1                 0.0000
     16 ****         0.7370  -4.0247   2.1208 C.3            1 S1                 0.0000
     17 ****        -0.2353  -5.1325   1.7986 C.3            1 S1                 0.0000
     18 ****        -3.7558   4.5064  -0.7242 H              1 S1                 0.0000
     19 ****        -3.5335   2.9783   0.1250 H              1 S1                 0.0000
     20 ****        -3.4768   3.0245  -1.6368 H              1 S1                 0.0000
     21 ****        -1.3922   4.4168  -1.5369 H              1 S1                 0.0000
     22 ****        -1.4510   4.3784   0.2281 H              1 S1                 0.0000
     23 ****         2.8524   4.6872  -0.5464 H              1 S1                 0.0000
     24 ****         4.2032   2.5756  -0.5520 H              1 S1                 0.0000
     25 ****         3.0239   0.3977  -0.6232 H              1 S1                 0.0000
     26 ****        -0.7206   0.2573  -0.9471 H              1 S1                 0.0000
     27 ****        -1.3202  -1.6014  -0.8392 H              1 S1                 0.0000
     28 ****        -1.2836  -3.8551  -0.6564 H              1 S1                 0.0000
     29 ****         0.4599  -3.8562  -0.5950 H              1 S1                 0.0000
     30 ****        -1.3063  -3.2033   1.8416 H              1 S1                 0.0000
     31 ****         1.6910  -4.0262   1.5972 H              1 S1                 0.0000
     32 ****         0.7694  -3.6623   3.1461 H              1 S1                 0.0000
     33 ****        -0.8491  -5.5143   2.6117 H              1 S1                 0.0000
     34 ****         0.0720  -5.8704   1.0599 H              1 S1                 0.0000
     35 ****        -1.2953   2.0848  -1.5137 LP             1 S1                 0.0000
     36 ****        -1.3457   2.0538   0.1182 LP             1 S1                 0.0000
     37 ****         0.5123   4.5998  -0.6093 LP             1 S1                 0.0000
     38 ****         2.4017  -0.8038   0.2407 LP             1 S1                 0.0000
     39 ****         1.8329  -2.4346   0.3709 LP             1 S1                 0.0000
@<TRIPOS>BOND
    1    1    2 1     
    2    1   18 1     
    3    1   19 1     
    4    1   20 1     
    5    2    3 1     
    6    2   21 1     
    7    2   22 1     
    8    3    4 1     
    9    4    9 ar    
   10    4    5 ar    
   11    5    6 ar    
   12    6    7 ar    
   13    6   23 1     
   14    7    8 ar    
   15    7   24 1     
   16    8    9 ar    
   17    8   25 1     
   18    9   10 1     
   19   10   11 am    
   20   10   26 1     
   21   11   12 2     
   22   11   13 am    
   23   13   14 1     
   24   13   27 1     
   25   14   15 1     
   26   14   28 1     
   27   14   29 1     
   28   15   17 1     
   29   15   16 1     
   30   15   30 1     
   31   16   17 1     
   32   16   31 1     
   33   16   32 1     
   34   17   33 1     
   35   17   34 1     
   36    3   35 1     
   37    3   36 1     
   38    5   37 1     
   39   12   38 1     
   40   12   39 1     
@<TRIPOS>SUBSTRUCTURE
      1 S1             1
@<TRIPOS>SET
LONE_PAIRS      STATIC     ATOMS    <user>   **** ""
5 35 36 37 38 39
DONOR_HYDROGENS      STATIC     ATOMS    <user>   **** ""
2 26 27
ATOM$BLUE        STATIC     ATOMS    COLORGROUP SYSTEM
5 35 36 37 38 39
ATOM$RED        STATIC     ATOMS    COLORGROUP SYSTEM
2 26 27
