AV-unprocessed.smi:2197|AV-procd|sdf|8910|dock2
  -GOLD-   2272012123D 1   1.00000     0.00000
 Structure written by MMmdl.
 27 27  0  0  0  0  0  0  0  0  2 V2000
  152.8196  144.6728  158.1129 C   0  0  0  0  0  0  0  0  0  0  0  0
  151.6305  144.9882  159.0265 C   0  0  0  0  0  0  0  0  0  0  0  0
  150.6060  143.8428  159.0737 C   0  0  0  0  0  0  0  0  0  0  0  0
  150.3053  143.3356  157.7401 N   0  0  0  0  0  0  0  0  0  0  0  0
  150.6914  142.1431  157.2618 C   0  0  0  0  0  0  0  0  0  0  0  0
  151.3384  141.3288  157.9222 O   0  0  0  0  0  0  0  0  0  0  0  0
  150.2481  141.8161  155.8290 C   0  0  0  0  0  0  0  0  0  0  0  0
  150.6059  140.4503  155.4129 N   0  0  0  0  0  0  0  0  0  0  0  0
  151.9473  140.0533  155.5554 C   0  0  0  0  0  0  0  0  0  0  0  0
  152.3662  138.8242  155.1987 C   0  0  0  0  0  0  0  0  0  0  0  0
  151.3870  137.8929  154.6518 C   0  0  0  0  0  0  0  0  0  0  0  0
  151.7505  136.7645  154.3261 O   0  0  0  0  0  0  0  0  0  0  0  0
  150.0984  138.3269  154.5281 N   0  5  0  0  0  0  0  0  0  0  0  0
  149.6874  139.5813  154.8926 C   0  0  0  0  0  0  0  0  0  0  0  0
  148.5198  139.9536  154.7699 O   0  0  0  0  0  0  0  0  0  0  0  0
  153.5287  145.5007  158.0987 H   0  0  0  0  0  0  0  0  0  0  0  0
  152.4937  144.4960  157.0875 H   0  0  0  0  0  0  0  0  0  0  0  0
  153.3520  143.7844  158.4540 H   0  0  0  0  0  0  0  0  0  0  0  0
  152.0001  145.1965  160.0315 H   0  0  0  0  0  0  0  0  0  0  0  0
  151.1444  145.9015  158.6811 H   0  0  0  0  0  0  0  0  0  0  0  0
  150.9996  143.0174  159.6674 H   0  0  0  0  0  0  0  0  0  0  0  0
  149.6884  144.1690  159.5665 H   0  0  0  0  0  0  0  0  0  0  0  0
  149.7745  143.9400  157.1299 H   0  0  0  0  0  0  0  0  0  0  0  0
  149.1689  141.9616  155.7676 H   0  0  0  0  0  0  0  0  0  0  0  0
  150.6743  142.5429  155.1347 H   0  0  0  0  0  0  0  0  0  0  0  0
  152.6086  140.8044  155.9617 H   0  0  0  0  0  0  0  0  0  0  0  0
  153.4009  138.5359  155.3113 H   0  0  0  0  0  0  0  0  0  0  0  0
  1  2  1  0  0  0  0
  1 16  1  0  0  0  0
  1 17  1  0  0  0  0
  1 18  1  0  0  0  0
  2  3  1  0  0  0  0
  2 19  1  0  0  0  0
  2 20  1  0  0  0  0
  3  4  1  0  0  0  0
  3 21  1  0  0  0  0
  3 22  1  0  0  0  0
  4  5  1  0  0  0  0
  4 23  1  0  0  0  0
  5  6  2  0  0  0  0
  5  7  1  0  0  0  0
  7  8  1  0  0  0  0
  7 24  1  0  0  0  0
  7 25  1  0  0  0  0
  8 14  1  0  0  0  0
  8  9  1  0  0  0  0
  9 10  2  0  0  0  0
  9 26  1  0  0  0  0
 10 11  1  0  0  0  0
 10 27  1  0  0  0  0
 11 12  2  0  0  0  0
 11 13  1  0  0  0  0
 13 14  1  0  0  0  0
 14 15  2  0  0  0  0
M  CHG  1  13  -1
M  END
> <s_m_source_file>
AV-unprocessed.smi

> <i_m_source_file_index>
2197

> <i_lp_mmshare_version>
43012

> <i_f3d_flags>
0

> <s_epik_input>
W0NIM11bQ0gyXVtDSDJdW05IXUMoPU8pW0NIMl1uMVtjSF1bY0hdYyg9TylbbkhdYzE9Tw==

> <s_epik_cmdline>
J2VwaWtfcHl0aG9uJywgJy1waCcsICc3LjAnLCAnLXRuJywgJzgnLCAnLW1hJywgJzIwMCcsICctbWV0YWxfYmluZGluZycsICctaW1hZScsICc8aW5maWxlLm1hZT4nLCAnLW9tYWUnLCAnPG91dGZpbGUubWFlPic=

> <r_lp_tautomer_probability>
0.999537

> <r_epik_Ionization_Penalty>
3.07884

> <r_epik_Ionization_Penalty_Charging>
2.69291e-08

> <r_epik_Ionization_Penalty_Neutral>
3.07884

> <r_epik_State_Penalty>
3.07787

> <r_epik_Charging_Adjusted_Penalty>
3.07787

> <i_epik_Tot_Q>
-1

> <i_epik_Tot_abs_Q>
1

> <r_epik_Metal_State_Penalty>
0.459856

> <b_epik_Metal_Only>
1

> <s_lp_Force_Field>
OPLS_2005

> <r_lp_Energy>
11.489

> <b_lp_Chiralities_Consistent>
1

> <s_lp_Variant>
AV-unprocessed.smi:2197-2

> <Gold.Version>
5.8.1

> <Gold.Id.Protein>
6NUR|6NUR_protein|mol2

> <Gold.PLP.Fitness>
38.3972

> <Gold.PLP.PLP>
-32.7162

> <Gold.PLP.part.hbond>
-2.0000

> <Gold.PLP.part.metal>
0.0000

> <Gold.PLP.part.buried>
-3.4170

> <Gold.PLP.part.nonpolar>
-28.1417

> <Gold.PLP.part.repulsive>
0.8491

> <Gold.PLP.ligand.clash>
0.0000

> <Gold.PLP.ligand.torsion>
0.1767

> <Gold.PLP.Chemscore.Hbond>
2.0000

> <Gold.PLP.Chemscore.CHOScore>
0.0000

> <Gold.PLP.Chemscore.Metal>
0.0000

> <Gold.Chemscore.Hbonds>
donor molecule, donor type, donor heavy atom, donor atom, acceptor molecule, acceptor atom, score
      L1  H     4    23       P1  8028  1.00
      P1  H 10752 10764       L1    12  1.00

> <Gold.PLP.Chemscore.Internal.Correction>
0.0345

> <Gold.Rescore>
     Score         DG    S(hbond)    S(metal)    S(lipo)     H(rot)  DE(clash)    DE(int)     intcor
     12.69     -14.27       1.97        0.00      62.79       2.00       0.14       1.44       ----

> <Gold.Chemscore.Fitness>
12.6888

> <Gold.Chemscore.DG>
-14.2692

> <Gold.Chemscore.ZeroCoef>
-5.4800

> <Gold.Chemscore.Hbond>
1.9661

> <Gold.Chemscore.Metal>
0.0000

> <Gold.Chemscore.Lipo>
62.7889

> <Gold.Chemscore.Internal_Hbond>
0.0000

> <Gold.Chemscore.DEClash>
0.1427

> <Gold.Chemscore.DEInternal>
1.4377

> <Gold.Chemscore.Rot>
2.0015

> <Gold.Chemscore.Internal.Correction>
   9.000000E+99

> <Gold.Chemscore.Hbonds>
donor molecule, donor type, donor heavy atom, donor atom, acceptor molecule, acceptor atom, score
      L1  H     4    23       P1  8028  0.82
      P1  H 10752 10764       L1    12  0.98

> <Gold.Chemscore.Hbond.Weighted>
-6.5668

> <Gold.Chemscore.Metal.Weighted>
-0.0000

> <Gold.Chemscore.Lipo.Weighted>
-7.3463

> <Gold.Chemscore.Internal_Hbond.Weighted>
0.0000

> <Gold.Chemscore.DEClash.Weighted>
0.1427

> <Gold.Chemscore.DEInternal.Weighted>
1.4377

> <Gold.Chemscore.Rot.Weighted>
5.1240

> <Gold.Chemscore.Internal.Correction.Weighted>
   9.000000E+99

> <Gold.Protein.RotatedTorsions>
[ 6907 6896 6895 6894 ] final  -83.20 input  -60.11 | X-H torsion
[ 7974 7965 7964 7962 ] final  174.40 input  175.53 | X-H torsion
[ 8008 7997 7996 7995 ] final  149.47 input   59.86 | X-H torsion
[ 10167 10162 10161 10158 ] final  -91.83 input  -65.29 | X-H torsion
[ 10718 10713 10712 10709 ] final  141.96 input   66.30 | X-H torsion
[ 10763 10752 10751 10750 ] final  -63.75 input  -60.55 | X-H torsion
[ 11005 11000 10999 10996 ] final  105.13 input  -57.11 | X-H torsion

> <Gold.Protein.ActiveResidues>
 VAL166  LYS551  ARG553  GLY616  TRP617  ASP618  TYR619  PRO620  LYS621  CYS622 
 ASP623  PHE694  ASN695  SER759  ASP760  ASP761  ALA762  ILE779  LEU786  VAL792 
 PHE793  MET794  SER795  GLU796  ALA797  LYS798  CYS799  TRP800  GLU811  SER814 

> <Gold.Protein.RotatedAtoms>
  150.6888  134.3548  159.4924 H   0  0  0  0  0  0  0  0  0  0  0  0  # atno 6907 bound_to 6896
  152.1384  134.9078  160.0564 H   0  0  0  0  0  0  0  0  0  0  0  0  # atno 6908 bound_to 6896
  152.0221  133.3868  159.4299 H   0  0  0  0  0  0  0  0  0  0  0  0  # atno 6909 bound_to 6896
  144.7222  139.9792  143.6438 H   0  0  0  0  0  0  0  0  0  0  0  0  # atno 7974 bound_to 7965
  156.2753  140.2101  156.5864 H   0  0  0  0  0  0  0  0  0  0  0  0  # atno 8008 bound_to 7997
  154.7017  140.0520  157.0488 H   0  0  0  0  0  0  0  0  0  0  0  0  # atno 8009 bound_to 7997
  155.0725  140.3178  155.4629 H   0  0  0  0  0  0  0  0  0  0  0  0  # atno 8010 bound_to 7997
  140.3410  143.2942  151.9835 H   0  0  0  0  0  0  0  0  0  0  0  0  # atno 10167 bound_to 10162
  157.3861  131.0998  151.0692 H   0  0  0  0  0  0  0  0  0  0  0  0  # atno 10718 bound_to 10713
  154.3198  135.6198  153.5502 H   0  0  0  0  0  0  0  0  0  0  0  0  # atno 10763 bound_to 10752
  152.9821  135.5721  154.5083 H   0  0  0  0  0  0  0  0  0  0  0  0  # atno 10764 bound_to 10752
  154.4749  135.2861  155.1591 H   0  0  0  0  0  0  0  0  0  0  0  0  # atno 10765 bound_to 10752
  139.8799  134.9325  156.5467 H   0  0  0  0  0  0  0  0  0  0  0  0  # atno 11005 bound_to 11000
  146.0501  139.3503  143.0644 LP  0  0  0  0  0  0  0  0  0  0  0  0  # atno 17320 bound_to 7965
  145.8225  140.9672  143.0891 LP  0  0  0  0  0  0  0  0  0  0  0  0  # atno 17321 bound_to 7965
  139.4840  144.6157  151.7351 LP  0  0  0  0  0  0  0  0  0  0  0  0  # atno 17342 bound_to 10162
  140.5309  144.0731  150.6053 LP  0  0  0  0  0  0  0  0  0  0  0  0  # atno 17343 bound_to 10162
  157.1743  130.6281  149.5651 LP  0  0  0  0  0  0  0  0  0  0  0  0  # atno 17370 bound_to 10713
  155.9787  130.4775  150.6671 LP  0  0  0  0  0  0  0  0  0  0  0  0  # atno 17371 bound_to 10713
  140.8270  133.8308  155.8949 LP  0  0  0  0  0  0  0  0  0  0  0  0  # atno 17394 bound_to 11000
  140.9364  134.1956  157.4828 LP  0  0  0  0  0  0  0  0  0  0  0  0  # atno 17395 bound_to 11000

$$$$
