#       Name:                AV-unprocessed.smi:3254
#       Creating user name   scv26
#       Creation time:       Fri Mar 27 18:35:13 2020


#       File generated by GOLD software.
#

@<TRIPOS>MOLECULE
AV-unprocessed.smi:3254
    41    42     1
SMALL
NO_CHARGES


@<TRIPOS>ATOM
      1 ****        -3.5191  -3.9872  -1.9098 C.3            1 S1                 0.0000
      2 ****        -2.1010  -3.4095  -1.8043 C.3            1 S1                 0.0000
      3 ****        -1.9328  -2.6058  -0.5961 N.am           1 S1                 0.0000
      4 ****        -1.9098  -1.1545  -0.6680 C.3            1 S1                 0.0000
      5 ****        -1.5158  -0.6721   0.7453 C.3            1 S1                 0.0000
      6 ****        -0.1091  -0.0543   0.7785 C.2            1 S1                 0.0000
      7 ****         0.8696  -0.7214   0.4407 O.2            1 S1                 0.0000
      8 ****        -0.0240   1.2226   1.1819 N.am           1 S1                 0.0000
      9 ****         1.2133   1.9878   1.2755 C.3            1 S1                 0.0000
     10 ****         1.6798   2.4812  -0.1041 C.3            1 S1                 0.0000
     11 ****         2.8973   3.2596  -0.0051 N.pl3          1 S1                 0.0000
     12 ****         4.1975   2.7754   0.0510 C.2            1 S1                 0.0000
     13 ****         5.0219   3.8744   0.1421 C.2            1 S1                 0.0000
     14 ****         4.2548   5.0371   0.1450 N.2            1 S1                 0.0000
     15 ****         3.0075   4.5937   0.0549 C.2            1 S1                 0.0000
     16 ****        -1.6054  -1.9264   1.6374 C.3            1 S1                 0.0000
     17 ****        -1.7877  -3.0675   0.6508 C.2            1 S1                 0.0000
     18 ****        -1.7853  -4.2495   0.9914 O.2            1 S1                 0.0000
     19 ****        -3.6342  -4.5629  -2.8283 H              1 S1                 0.0000
     20 ****        -4.2671  -3.1939  -1.9189 H              1 S1                 0.0000
     21 ****        -3.7433  -4.6510  -1.0745 H              1 S1                 0.0000
     22 ****        -1.3670  -4.2166  -1.8087 H              1 S1                 0.0000
     23 ****        -1.8890  -2.7977  -2.6818 H              1 S1                 0.0000
     24 ****        -1.2165  -0.8191  -1.4416 H              1 S1                 0.0000
     25 ****        -2.9026  -0.7924  -0.9378 H              1 S1                 0.0000
     26 ****        -2.2378   0.0711   1.0880 H              1 S1                 0.0000
     27 ****        -0.8763   1.6975   1.4424 H              1 S1                 0.0000
     28 ****         1.0356   2.8382   1.9344 H              1 S1                 0.0000
     29 ****         1.9889   1.3840   1.7501 H              1 S1                 0.0000
     30 ****         1.8657   1.6411  -0.7744 H              1 S1                 0.0000
     31 ****         0.9087   3.0953  -0.5713 H              1 S1                 0.0000
     32 ****         4.4219   1.7191   0.0236 H              1 S1                 0.0000
     33 ****         6.0993   3.9170   0.2063 H              1 S1                 0.0000
     34 ****         2.1539   5.2552   0.0338 H              1 S1                 0.0000
     35 ****        -0.7207  -2.0929   2.2543 H              1 S1                 0.0000
     36 ****        -2.4713  -1.8768   2.2982 H              1 S1                 0.0000
     37 ****         0.7505  -1.6687   0.1434 LP             1 S1                 0.0000
     38 ****         1.7833  -0.3157   0.4637 LP             1 S1                 0.0000
     39 ****         4.5703   5.9844   0.2017 LP             1 S1                 0.0000
     40 ****        -1.8995  -4.9678   0.3051 LP             1 S1                 0.0000
     41 ****        -1.6692  -4.4920   1.9545 LP             1 S1                 0.0000
@<TRIPOS>BOND
    1    1    2 1     
    2    1   19 1     
    3    1   20 1     
    4    1   21 1     
    5    2    3 1     
    6    2   22 1     
    7    2   23 1     
    8    3   17 am    
    9    3    4 1     
   10    4    5 1     
   11    4   24 1     
   12    4   25 1     
   13    5    6 1     
   14    5   16 1     
   15    5   26 1     
   16    6    7 2     
   17    6    8 am    
   18    8    9 1     
   19    8   27 1     
   20    9   10 1     
   21    9   28 1     
   22    9   29 1     
   23   10   11 1     
   24   10   30 1     
   25   10   31 1     
   26   11   15 1     
   27   11   12 1     
   28   12   13 2     
   29   12   32 1     
   30   13   14 1     
   31   13   33 1     
   32   14   15 2     
   33   15   34 1     
   34   16   17 1     
   35   16   35 1     
   36   16   36 1     
   37   17   18 2     
   38    7   37 1     
   39    7   38 1     
   40   14   39 1     
   41   18   40 1     
   42   18   41 1     
@<TRIPOS>SUBSTRUCTURE
      1 S1             1
@<TRIPOS>SET
LONE_PAIRS      STATIC     ATOMS    <user>   **** ""
5 37 38 39 40 41
DONOR_HYDROGENS      STATIC     ATOMS    <user>   **** ""
1 27
ATOM$BLUE        STATIC     ATOMS    COLORGROUP SYSTEM
5 37 38 39 40 41
ATOM$RED        STATIC     ATOMS    COLORGROUP SYSTEM
1 27
