AV-unprocessed.smi:2492|AV-procd|sdf|9816|dock1
  -GOLD-   2272013443D 1   1.00000     0.00000
 Structure written by MMmdl.
 32 33  0  0  0  0  0  0  0  0  2 V2000
  150.1355  144.5839  160.2788 C   0  0  0  0  0  0  0  0  0  0  0  0
  151.5144  144.9591  159.1644 S   0  0  0  0  0  0  0  0  0  0  0  0
  152.7702  143.8130  159.8045 C   0  0  1  0  0  0  0  0  0  0  0  0
  152.4864  143.3386  161.2286 C   0  0  0  0  0  0  0  0  0  0  0  0
  153.3262  142.0688  161.3718 C   0  0  0  0  0  0  0  0  0  0  0  0
  153.3995  141.4459  159.9654 C   0  0  1  0  0  0  0  0  0  0  0  0
  152.6239  140.2086  159.9106 N   0  0  0  0  0  0  0  0  0  0  0  0
  152.6555  139.3062  158.9192 C   0  0  0  0  0  0  0  0  0  0  0  0
  153.3891  139.4894  157.9448 O   0  0  0  0  0  0  0  0  0  0  0  0
  151.8334  138.2508  159.1169 N   0  5  0  0  0  0  0  0  0  0  0  0
  151.7131  137.3068  158.1689 C   0  0  0  0  0  0  0  0  0  0  0  0
  150.9634  136.2065  158.2480 N   0  0  0  0  0  0  0  0  0  0  0  0
  151.1927  135.6248  157.0404 C   0  0  0  0  0  0  0  0  0  0  0  0
  150.5662  134.3362  156.6305 C   0  0  0  0  0  0  0  0  0  0  0  0
  152.0094  136.2802  156.2294 N   0  0  0  0  0  0  0  0  0  0  0  0
  152.3588  137.4125  156.9782 O   0  0  0  0  0  0  0  0  0  0  0  0
  152.8485  142.5140  158.9976 C   0  0  0  0  0  0  0  0  0  0  0  0
  149.2894  145.2348  160.0595 H   0  0  0  0  0  0  0  0  0  0  0  0
  150.4306  144.7387  161.3166 H   0  0  0  0  0  0  0  0  0  0  0  0
  149.8135  143.5498  160.1572 H   0  0  0  0  0  0  0  0  0  0  0  0
  153.7439  144.3040  159.7758 H   0  0  0  0  0  0  0  0  0  0  0  0
  152.7343  144.0865  161.9819 H   0  0  0  0  0  0  0  0  0  0  0  0
  151.4294  143.0913  161.3368 H   0  0  0  0  0  0  0  0  0  0  0  0
  154.3321  142.3387  161.6966 H   0  0  0  0  0  0  0  0  0  0  0  0
  152.9183  141.3930  162.1247 H   0  0  0  0  0  0  0  0  0  0  0  0
  154.4436  141.2283  159.7325 H   0  0  0  0  0  0  0  0  0  0  0  0
  152.0094  140.0205  160.6890 H   0  0  0  0  0  0  0  0  0  0  0  0
  149.6434  134.5259  156.0824 H   0  0  0  0  0  0  0  0  0  0  0  0
  150.3321  133.7298  157.5057 H   0  0  0  0  0  0  0  0  0  0  0  0
  151.2408  133.7677  155.9896 H   0  0  0  0  0  0  0  0  0  0  0  0
  151.8490  142.2364  158.6585 H   0  0  0  0  0  0  0  0  0  0  0  0
  153.4702  142.6207  158.1081 H   0  0  0  0  0  0  0  0  0  0  0  0
  1  2  1  0  0  0  0
  1 18  1  0  0  0  0
  1 19  1  0  0  0  0
  1 20  1  0  0  0  0
  2  3  1  0  0  0  0
  3 17  1  0  0  0  0
  3  4  1  0  0  0  0
  3 21  1  0  0  0  0
  4  5  1  0  0  0  0
  4 22  1  0  0  0  0
  4 23  1  0  0  0  0
  5  6  1  0  0  0  0
  5 24  1  0  0  0  0
  5 25  1  0  0  0  0
  6  7  1  0  0  0  0
  6 17  1  0  0  0  0
  6 26  1  0  0  0  0
  7  8  1  0  0  0  0
  7 27  1  0  0  0  0
  8  9  2  0  0  0  0
  8 10  1  0  0  0  0
 10 11  1  0  0  0  0
 11 16  1  0  0  0  0
 11 12  2  0  0  0  0
 12 13  1  0  0  0  0
 13 14  1  0  0  0  0
 13 15  2  0  0  0  0
 14 28  1  0  0  0  0
 14 29  1  0  0  0  0
 14 30  1  0  0  0  0
 15 16  1  0  0  0  0
 17 31  1  0  0  0  0
 17 32  1  0  0  0  0
M  CHG  1  10  -1
M  END
> <s_m_source_file>
AV-unprocessed.smi

> <i_m_source_file_index>
2492

> <i_lp_mmshare_version>
43012

> <i_f3d_flags>
0

> <s_epik_input>
W0NIM11TW0NAQEhdMVtDSDJdW0NIMl1bQ0BIXShbQ0gyXTEpW05IXUMoPU8pW05IXWMybmMoW0NIM10pbm8y

> <s_epik_cmdline>
J2VwaWtfcHl0aG9uJywgJy1waCcsICc3LjAnLCAnLXRuJywgJzgnLCAnLW1hJywgJzIwMCcsICctbWV0YWxfYmluZGluZycsICctaW1hZScsICc8aW5maWxlLm1hZT4nLCAnLW9tYWUnLCAnPG91dGZpbGUubWFlPic=

> <r_lp_tautomer_probability>
1

> <r_epik_Ionization_Penalty>
6.26454

> <r_epik_Ionization_Penalty_Charging>
6.26445

> <r_epik_Ionization_Penalty_Neutral>
9.05726e-05

> <r_epik_State_Penalty>
6.26444

> <r_epik_Charging_Adjusted_Penalty>
12.5289

> <i_epik_Tot_Q>
-1

> <i_epik_Tot_abs_Q>
1

> <r_epik_Metal_State_Penalty>
2.20125

> <b_epik_Metal_Only>
1

> <s_lp_Force_Field>
OPLS_2005

> <r_lp_Energy>
11.8534

> <b_lp_Chiralities_Consistent>
1

> <s_lp_Variant>
AV-unprocessed.smi:2492-6

> <Gold.Version>
5.8.1

> <Gold.Id.Protein>
6NUR|6NUR_protein|mol2

> <Gold.PLP.Fitness>
39.3561

> <Gold.PLP.PLP>
-32.9468

> <Gold.PLP.part.hbond>
-3.0000

> <Gold.PLP.part.metal>
0.0000

> <Gold.PLP.part.buried>
-5.1458

> <Gold.PLP.part.nonpolar>
-26.0474

> <Gold.PLP.part.repulsive>
0.1535

> <Gold.PLP.ligand.clash>
0.0000

> <Gold.PLP.ligand.torsion>
0.6946

> <Gold.PLP.Chemscore.Hbond>
2.5814

> <Gold.PLP.Chemscore.CHOScore>
0.0000

> <Gold.PLP.Chemscore.Metal>
0.0000

> <Gold.Chemscore.Hbonds>
donor molecule, donor type, donor heavy atom, donor atom, acceptor molecule, acceptor atom, score
      P1  H  6896  6907       L1    12  0.62
      P1  H  7997  8008       L1     9  1.00
      P1  H 10752 10764       L1    15  1.00

> <Gold.PLP.Chemscore.Internal.Correction>
0.0544

> <Gold.Rescore>
     Score         DG    S(hbond)    S(metal)    S(lipo)     H(rot)  DE(clash)    DE(int)     intcor
     18.06     -20.47       2.58        0.00      82.29       1.27       0.00       2.41       ----

> <Gold.Chemscore.Fitness>
18.0572

> <Gold.Chemscore.DG>
-20.4652

> <Gold.Chemscore.ZeroCoef>
-5.4800

> <Gold.Chemscore.Hbond>
2.5782

> <Gold.Chemscore.Metal>
0.0000

> <Gold.Chemscore.Lipo>
82.2927

> <Gold.Chemscore.Internal_Hbond>
0.0000

> <Gold.Chemscore.DEClash>
0.0000

> <Gold.Chemscore.DEInternal>
2.4080

> <Gold.Chemscore.Rot>
1.2712

> <Gold.Chemscore.Internal.Correction>
   9.000000E+99

> <Gold.Chemscore.Hbonds>
donor molecule, donor type, donor heavy atom, donor atom, acceptor molecule, acceptor atom, score
      P1  H  6896  6907       L1    12  0.52
      P1  H  7997  8008       L1     9  0.99
      P1  H 10752 10764       L1    15  0.99

> <Gold.Chemscore.Hbond.Weighted>
-8.6111

> <Gold.Chemscore.Metal.Weighted>
-0.0000

> <Gold.Chemscore.Lipo.Weighted>
-9.6283

> <Gold.Chemscore.Internal_Hbond.Weighted>
0.0000

> <Gold.Chemscore.DEClash.Weighted>
0.0000

> <Gold.Chemscore.DEInternal.Weighted>
2.4080

> <Gold.Chemscore.Rot.Weighted>
3.2542

> <Gold.Chemscore.Internal.Correction.Weighted>
   9.000000E+99

> <Gold.Protein.RotatedTorsions>
[ 6907 6896 6895 6894 ] final  -41.97 input  -60.11 | X-H torsion
[ 7974 7965 7964 7962 ] final   -2.02 input  175.53 | X-H torsion
[ 8008 7997 7996 7995 ] final  -97.61 input   59.86 | X-H torsion
[ 10167 10162 10161 10158 ] final  -18.90 input  -65.29 | X-H torsion
[ 10718 10713 10712 10709 ] final -103.18 input   66.30 | X-H torsion
[ 10763 10752 10751 10750 ] final  -31.67 input  -60.55 | X-H torsion
[ 11005 11000 10999 10996 ] final  -45.23 input  -57.11 | X-H torsion

> <Gold.Protein.ActiveResidues>
 VAL166  LYS551  ARG553  GLY616  TRP617  ASP618  TYR619  PRO620  LYS621  CYS622 
 ASP623  PHE694  ASN695  SER759  ASP760  ASP761  ALA762  ILE779  LEU786  VAL792 
 PHE793  MET794  SER795  GLU796  ALA797  LYS798  CYS799  TRP800  GLU811  SER814 

> <Gold.Protein.RotatedAtoms>
  150.9606  134.8995  159.7728 H   0  0  0  0  0  0  0  0  0  0  0  0  # atno 6907 bound_to 6896
  152.5155  134.3678  159.9317 H   0  0  0  0  0  0  0  0  0  0  0  0  # atno 6908 bound_to 6896
  151.3690  133.3821  159.2732 H   0  0  0  0  0  0  0  0  0  0  0  0  # atno 6909 bound_to 6896
  146.2410  140.1508  142.8334 H   0  0  0  0  0  0  0  0  0  0  0  0  # atno 7974 bound_to 7965
  154.7900  140.0461  157.1193 H   0  0  0  0  0  0  0  0  0  0  0  0  # atno 8008 bound_to 7997
  154.9602  140.3076  155.5014 H   0  0  0  0  0  0  0  0  0  0  0  0  # atno 8009 bound_to 7997
  156.2948  140.2272  156.4687 H   0  0  0  0  0  0  0  0  0  0  0  0  # atno 8010 bound_to 7997
  140.7263  143.4871  151.0040 H   0  0  0  0  0  0  0  0  0  0  0  0  # atno 10167 bound_to 10162
  156.0256  130.5455  150.7216 H   0  0  0  0  0  0  0  0  0  0  0  0  # atno 10718 bound_to 10713
  153.8011  135.6890  153.4855 H   0  0  0  0  0  0  0  0  0  0  0  0  # atno 10763 bound_to 10752
  153.1688  135.4551  154.9872 H   0  0  0  0  0  0  0  0  0  0  0  0  # atno 10764 bound_to 10752
  154.8006  135.3336  154.7500 H   0  0  0  0  0  0  0  0  0  0  0  0  # atno 10765 bound_to 10752
  141.0502  133.6746  156.2983 H   0  0  0  0  0  0  0  0  0  0  0  0  # atno 11005 bound_to 11000
  145.0169  140.8761  143.5190 LP  0  0  0  0  0  0  0  0  0  0  0  0  # atno 17320 bound_to 7965
  145.1551  139.2491  143.5421 LP  0  0  0  0  0  0  0  0  0  0  0  0  # atno 17321 bound_to 7965
  139.8573  143.7360  152.3175 LP  0  0  0  0  0  0  0  0  0  0  0  0  # atno 17342 bound_to 10162
  139.7563  144.7520  151.0430 LP  0  0  0  0  0  0  0  0  0  0  0  0  # atno 17343 bound_to 10162
  157.4830  131.0904  151.0514 LP  0  0  0  0  0  0  0  0  0  0  0  0  # atno 17370 bound_to 10713
  157.0942  130.5955  149.5446 LP  0  0  0  0  0  0  0  0  0  0  0  0  # atno 17371 bound_to 10713
  140.6070  134.5497  157.5527 LP  0  0  0  0  0  0  0  0  0  0  0  0  # atno 17394 bound_to 11000
  139.9344  134.7903  156.0843 LP  0  0  0  0  0  0  0  0  0  0  0  0  # atno 17395 bound_to 11000

$$$$
