AV-unprocessed.smi:1965|AV-procd|sdf|7934|dock4
  -GOLD-   2272010103D 1   1.00000     0.00000
 Structure written by MMmdl.
 37 39  0  0  0  0  0  0  0  0  2 V2000
  149.3559  140.7261  157.4063 O   0  0  0  0  0  0  0  0  0  0  0  0
  149.4011  141.8214  156.8491 C   0  0  0  0  0  0  0  0  0  0  0  0
  148.9160  141.9880  155.6002 N   0  0  0  0  0  0  0  0  0  0  0  0
  148.2971  141.0770  154.6951 C   0  0  0  0  0  0  0  0  0  0  0  0
  148.7024  139.8221  154.4610 N   0  0  0  0  0  0  0  0  0  0  0  0
  147.8930  139.1704  153.5270 C   0  0  0  0  0  0  0  0  0  0  0  0
  146.8646  139.9476  153.0567 C   0  0  0  0  0  0  0  0  0  0  0  0
  146.8736  141.5374  153.7714 S   0  0  0  0  0  0  0  0  0  0  0  0
  149.9299  142.9090  157.4331 N   0  0  0  0  0  0  0  0  0  0  0  0
  150.5213  142.9561  158.7660 C   0  0  2  0  0  0  0  0  0  0  0  0
  151.0045  144.3645  159.1555 C   0  0  0  0  0  0  0  0  0  0  0  0
  152.3157  144.1460  159.9357 C   0  0  0  0  0  0  0  0  0  0  0  0
  152.4644  142.6826  160.0481 N   0  3  2  0  0  0  0  0  0  0  0  0
  153.8333  142.1575  160.2436 C   0  0  0  0  0  0  0  0  0  0  0  0
  153.7696  140.6274  160.4226 C   0  0  0  0  0  0  0  0  0  0  0  0
  153.0079  139.9476  159.2667 C   0  0  0  0  0  0  0  0  0  0  0  0
  151.6284  140.5992  159.0495 C   0  0  0  0  0  0  0  0  0  0  0  0
  151.7977  142.1171  158.8655 C   0  0  1  0  0  0  0  0  0  0  0  0
  148.9869  142.9326  155.2502 H   0  0  0  0  0  0  0  0  0  0  0  0
  148.1209  138.1505  153.2543 H   0  0  0  0  0  0  0  0  0  0  0  0
  146.1052  139.6823  152.3362 H   0  0  0  0  0  0  0  0  0  0  0  0
  149.9251  143.7700  156.9044 H   0  0  0  0  0  0  0  0  0  0  0  0
  149.8037  142.6197  159.5175 H   0  0  0  0  0  0  0  0  0  0  0  0
  151.1986  144.9779  158.2741 H   0  0  0  0  0  0  0  0  0  0  0  0
  150.2561  144.8829  159.7558 H   0  0  0  0  0  0  0  0  0  0  0  0
  153.1552  144.5672  159.3803 H   0  0  0  0  0  0  0  0  0  0  0  0
  152.2956  144.6094  160.9225 H   0  0  0  0  0  0  0  0  0  0  0  0
  154.4573  142.4172  159.3870 H   0  0  0  0  0  0  0  0  0  0  0  0
  154.2817  142.6212  161.1229 H   0  0  0  0  0  0  0  0  0  0  0  0
  154.7772  140.2176  160.4980 H   0  0  0  0  0  0  0  0  0  0  0  0
  153.2722  140.3953  161.3653 H   0  0  0  0  0  0  0  0  0  0  0  0
  153.5943  140.0280  158.3504 H   0  0  0  0  0  0  0  0  0  0  0  0
  152.8926  138.8820  159.4675 H   0  0  0  0  0  0  0  0  0  0  0  0
  151.1461  140.1608  158.1755 H   0  0  0  0  0  0  0  0  0  0  0  0
  150.9804  140.3928  159.9023 H   0  0  0  0  0  0  0  0  0  0  0  0
  152.4219  142.3095  157.9894 H   0  0  0  0  0  0  0  0  0  0  0  0
  151.9155  142.3986  160.8469 H   0  0  0  0  0  0  0  0  0  0  0  0
  1  2  2  0  0  0  0
  2  3  1  0  0  0  0
  2  9  1  0  0  0  0
  3  4  1  0  0  0  0
  3 19  1  0  0  0  0
  4  8  1  0  0  0  0
  4  5  2  0  0  0  0
  5  6  1  0  0  0  0
  6  7  2  0  0  0  0
  6 20  1  0  0  0  0
  7  8  1  0  0  0  0
  7 21  1  0  0  0  0
  9 10  1  0  0  0  0
  9 22  1  0  0  0  0
 10 18  1  0  0  0  0
 10 11  1  0  0  0  0
 10 23  1  0  0  0  0
 11 12  1  0  0  0  0
 11 24  1  0  0  0  0
 11 25  1  0  0  0  0
 12 13  1  0  0  0  0
 12 26  1  0  0  0  0
 12 27  1  0  0  0  0
 13 18  1  0  0  0  0
 13 14  1  0  0  0  0
 13 37  1  0  0  0  0
 14 15  1  0  0  0  0
 14 28  1  0  0  0  0
 14 29  1  0  0  0  0
 15 16  1  0  0  0  0
 15 30  1  0  0  0  0
 15 31  1  0  0  0  0
 16 17  1  0  0  0  0
 16 32  1  0  0  0  0
 16 33  1  0  0  0  0
 17 18  1  0  0  0  0
 17 34  1  0  0  0  0
 17 35  1  0  0  0  0
 18 36  1  0  0  0  0
M  CHG  1  13   1
M  END
> <s_m_source_file>
AV-unprocessed.smi

> <i_m_source_file_index>
1965

> <i_lp_mmshare_version>
43012

> <i_f3d_flags>
0

> <s_epik_input>
czFbY0hdW2NIXW5jMVtOSF1DKD1PKVtOSF1bQ0BIXShbQ0gyXVtDSDJdMilbQ0BASF0oTjIzKVtDSDJdW0NIMl1bQ0gyXVtDSDJdMw==

> <s_epik_cmdline>
J2VwaWtfcHl0aG9uJywgJy1waCcsICc3LjAnLCAnLXRuJywgJzgnLCAnLW1hJywgJzIwMCcsICctbWV0YWxfYmluZGluZycsICctaW1hZScsICc8aW5maWxlLm1hZT4nLCAnLW9tYWUnLCAnPG91dGZpbGUubWFlPic=

> <r_lp_tautomer_probability>
1

> <r_epik_Ionization_Penalty>
0.00125962

> <r_epik_Ionization_Penalty_Charging>
0.00107044

> <r_epik_Ionization_Penalty_Neutral>
0.000189176

> <r_epik_State_Penalty>
-0

> <r_epik_Charging_Adjusted_Penalty>
0.00107044

> <i_epik_Tot_Q>
1

> <i_epik_Tot_abs_Q>
1

> <r_epik_Metal_State_Penalty>
0.0179285

> <b_epik_Metal_Only>
0

> <s_lp_Force_Field>
OPLS_2005

> <r_lp_Energy>
35.2759

> <b_lp_Chiralities_Consistent>
1

> <s_lp_Variant>
AV-unprocessed.smi:1965-3

> <Gold.Version>
5.8.1

> <Gold.Id.Protein>
6NUR|6NUR_protein|mol2

> <Gold.PLP.Fitness>
43.3291

> <Gold.PLP.PLP>
-33.0081

> <Gold.PLP.part.hbond>
-2.0000

> <Gold.PLP.part.metal>
0.0000

> <Gold.PLP.part.buried>
-4.6157

> <Gold.PLP.part.nonpolar>
-27.9680

> <Gold.PLP.part.repulsive>
0.3471

> <Gold.PLP.ligand.clash>
0.0000

> <Gold.PLP.ligand.torsion>
0.3685

> <Gold.PLP.Chemscore.Hbond>
1.7920

> <Gold.PLP.Chemscore.CHOScore>
1.8908

> <Gold.PLP.Chemscore.Metal>
0.0000

> <Gold.Chemscore.Hbonds>
donor molecule, donor type, donor heavy atom, donor atom, acceptor molecule, acceptor atom, score
      L1  H     3    19       P1  8028  0.93
      L1  H     9    22       P1  8028  0.85
      L1  C     6    20       P1  7948  1.00
      L1  C     7    21       P1 10175  0.85

> <Gold.PLP.Chemscore.Internal.Correction>
0.0094

> <Gold.Rescore>
     Score         DG    S(hbond)    S(metal)    S(lipo)     H(rot)  DE(clash)    DE(int)     intcor
     17.92     -19.67       1.80        0.00      91.80       1.00       0.05       1.70       ----

> <Gold.Chemscore.Fitness>
17.9223

> <Gold.Chemscore.DG>
-19.6693

> <Gold.Chemscore.ZeroCoef>
-5.4800

> <Gold.Chemscore.Hbond>
1.7989

> <Gold.Chemscore.Metal>
0.0000

> <Gold.Chemscore.Lipo>
91.8026

> <Gold.Chemscore.Internal_Hbond>
0.0000

> <Gold.Chemscore.DEClash>
0.0451

> <Gold.Chemscore.DEInternal>
1.7020

> <Gold.Chemscore.Rot>
1.0000

> <Gold.Chemscore.Internal.Correction>
   9.000000E+99

> <Gold.Chemscore.Hbonds>
donor molecule, donor type, donor heavy atom, donor atom, acceptor molecule, acceptor atom, score
      L1  H     3    19       P1  8028  0.91
      L1  H     9    22       P1  8028  0.82

> <Gold.Chemscore.Hbond.Weighted>
-6.0084

> <Gold.Chemscore.Metal.Weighted>
-0.0000

> <Gold.Chemscore.Lipo.Weighted>
-10.7409

> <Gold.Chemscore.Internal_Hbond.Weighted>
0.0000

> <Gold.Chemscore.DEClash.Weighted>
0.0451

> <Gold.Chemscore.DEInternal.Weighted>
1.7020

> <Gold.Chemscore.Rot.Weighted>
2.5600

> <Gold.Chemscore.Internal.Correction.Weighted>
   9.000000E+99

> <Gold.Protein.RotatedTorsions>
[ 6907 6896 6895 6894 ] final -121.92 input  -60.11 | X-H torsion
[ 7974 7965 7964 7962 ] final -115.57 input  175.53 | X-H torsion
[ 8008 7997 7996 7995 ] final   97.72 input   59.86 | X-H torsion
[ 10167 10162 10161 10158 ] final    2.15 input  -65.29 | X-H torsion
[ 10718 10713 10712 10709 ] final -169.36 input   66.30 | X-H torsion
[ 10763 10752 10751 10750 ] final -120.38 input  -60.55 | X-H torsion
[ 11005 11000 10999 10996 ] final   47.83 input  -57.11 | X-H torsion

> <Gold.Protein.ActiveResidues>
 VAL166  LYS551  ARG553  GLY616  TRP617  ASP618  TYR619  PRO620  LYS621  CYS622 
 ASP623  PHE694  ASN695  SER759  ASP760  ASP761  ALA762  ILE779  LEU786  VAL792 
 PHE793  MET794  SER795  GLU796  ALA797  LYS798  CYS799  TRP800  GLU811  SER814 

> <Gold.Protein.RotatedAtoms>
  150.8528  133.7761  159.3019 H   0  0  0  0  0  0  0  0  0  0  0  0  # atno 6907 bound_to 6896
  151.5428  135.1066  159.9940 H   0  0  0  0  0  0  0  0  0  0  0  0  # atno 6908 bound_to 6896
  152.4566  133.7692  159.6845 H   0  0  0  0  0  0  0  0  0  0  0  0  # atno 6909 bound_to 6896
  145.1068  140.8587  143.3893 H   0  0  0  0  0  0  0  0  0  0  0  0  # atno 7974 bound_to 7965
  156.0930  140.3254  155.7841 H   0  0  0  0  0  0  0  0  0  0  0  0  # atno 8008 bound_to 7997
  155.4964  140.0565  157.2963 H   0  0  0  0  0  0  0  0  0  0  0  0  # atno 8009 bound_to 7997
  154.4649  140.1984  156.0160 H   0  0  0  0  0  0  0  0  0  0  0  0  # atno 8010 bound_to 7997
  140.6649  143.7207  150.7807 H   0  0  0  0  0  0  0  0  0  0  0  0  # atno 10167 bound_to 10162
  156.7105  130.9231  151.3088 H   0  0  0  0  0  0  0  0  0  0  0  0  # atno 10718 bound_to 10713
  154.8642  135.4205  154.2450 H   0  0  0  0  0  0  0  0  0  0  0  0  # atno 10763 bound_to 10752
  153.3407  135.6993  153.6875 H   0  0  0  0  0  0  0  0  0  0  0  0  # atno 10764 bound_to 10752
  153.5854  135.3565  155.2864 H   0  0  0  0  0  0  0  0  0  0  0  0  # atno 10765 bound_to 10752
  140.1244  134.4787  155.8571 H   0  0  0  0  0  0  0  0  0  0  0  0  # atno 11005 bound_to 11000
  145.0892  139.2902  143.5743 LP  0  0  0  0  0  0  0  0  0  0  0  0  # atno 17320 bound_to 7965
  146.3528  140.0424  142.8642 LP  0  0  0  0  0  0  0  0  0  0  0  0  # atno 17321 bound_to 7965
  140.0882  143.4903  152.2493 LP  0  0  0  0  0  0  0  0  0  0  0  0  # atno 17342 bound_to 10162
  139.5894  144.7544  151.3438 LP  0  0  0  0  0  0  0  0  0  0  0  0  # atno 17343 bound_to 10162
  157.6938  130.9261  150.0587 LP  0  0  0  0  0  0  0  0  0  0  0  0  # atno 17370 bound_to 10713
  156.1665  130.3645  149.9225 LP  0  0  0  0  0  0  0  0  0  0  0  0  # atno 17371 bound_to 10713
  141.2158  133.6772  156.6950 LP  0  0  0  0  0  0  0  0  0  0  0  0  # atno 17394 bound_to 11000
  140.2923  134.8230  157.4027 LP  0  0  0  0  0  0  0  0  0  0  0  0  # atno 17395 bound_to 11000

$$$$
