AV-unprocessed.smi:290|AV-procd|sdf|2226|dock2
  -GOLD-   2262022 83D 1   1.00000     0.00000
 Structure written by MMmdl.
 59 62  0  0  0  0  0  0  0  0  2 V2000
  155.2690  140.8013  160.4125 C   0  0  0  0  0  0  0  0  0  0  0  0
  153.9212  141.0505  161.1075 C   0  0  1  0  0  0  0  0  0  0  0  0
  154.1371  141.9830  162.1629 O   0  0  0  0  0  0  0  0  0  0  0  0
  152.9371  142.7022  162.3820 C   0  0  0  0  0  0  0  0  0  0  0  0
  152.4537  142.9618  160.9637 C   0  0  0  0  0  0  0  0  0  0  0  0
  152.7808  141.6566  160.2404 C   0  0  2  0  0  0  0  0  0  0  0  0
  151.6541  140.8040  160.3563 O   0  0  0  0  0  0  0  0  0  0  0  0
  153.0872  141.8458  158.7314 C   0  0  0  0  0  0  0  0  0  0  0  0
  151.9277  141.6401  157.8767 N   0  0  0  0  0  0  0  0  0  0  0  0
  150.7444  142.3448  157.9101 C   0  0  0  0  0  0  0  0  0  0  0  0
  149.8466  141.9708  157.0395 N   0  0  0  0  0  0  0  0  0  0  0  0
  150.4634  140.9367  156.3483 C   0  0  0  0  0  0  0  0  0  0  0  0
  150.0667  140.0949  155.2783 C   0  0  0  0  0  0  0  0  0  0  0  0
  148.8482  140.2093  154.7058 N   0  0  0  0  0  0  0  0  0  0  0  0
  148.2481  141.5291  154.8207 C   0  0  0  0  0  0  0  0  0  0  0  0
  146.7705  141.3511  154.4499 C   0  0  0  0  0  0  0  0  0  0  0  0
  146.5015  139.8368  154.5932 C   0  0  1  0  0  0  0  0  0  0  0  0
  146.0061  139.1622  153.3523 N   0  3  2  0  0  0  0  0  0  0  0  0
  145.3985  137.8206  153.5488 C   0  0  0  0  0  0  0  0  0  0  0  0
  146.9875  139.1714  152.2372 C   0  0  0  0  0  0  0  0  0  0  0  0
  146.3492  138.7690  150.8965 C   0  0  0  0  0  0  0  0  0  0  0  0
  146.8732  137.5309  150.4653 O   0  0  0  0  0  0  0  0  0  0  0  0
  147.8265  139.2649  155.1365 C   0  0  1  0  0  0  0  0  0  0  0  0
  148.1424  137.7925  154.8043 C   0  0  0  0  0  0  0  0  0  0  0  0
  150.9538  139.1657  154.8342 N   0  0  0  0  0  0  0  0  0  0  0  0
  152.1585  139.0692  155.4056 C   0  0  0  0  0  0  0  0  0  0  0  0
  152.6655  139.7869  156.4110 N   0  0  0  0  0  0  0  0  0  0  0  0
  151.7737  140.7180  156.8563 C   0  0  0  0  0  0  0  0  0  0  0  0
  145.7564  139.6857  155.3739 H   0  0  0  0  0  0  0  0  0  0  0  0
  147.7654  139.3347  156.2242 H   0  0  0  0  0  0  0  0  0  0  0  0
  155.1699  140.0872  159.5948 H   0  0  0  0  0  0  0  0  0  0  0  0
  155.9924  140.3910  161.1173 H   0  0  0  0  0  0  0  0  0  0  0  0
  155.6924  141.7233  160.0135 H   0  0  0  0  0  0  0  0  0  0  0  0
  153.5931  140.1139  161.5631 H   0  0  0  0  0  0  0  0  0  0  0  0
  152.2279  142.0844  162.9348 H   0  0  0  0  0  0  0  0  0  0  0  0
  153.1124  143.6197  162.9437 H   0  0  0  0  0  0  0  0  0  0  0  0
  151.4013  143.2450  160.9134 H   0  0  0  0  0  0  0  0  0  0  0  0
  153.0378  143.7811  160.5431 H   0  0  0  0  0  0  0  0  0  0  0  0
  151.5945  140.2760  159.5748 H   0  0  0  0  0  0  0  0  0  0  0  0
  153.4553  142.8542  158.5405 H   0  0  0  0  0  0  0  0  0  0  0  0
  153.8757  141.1632  158.4118 H   0  0  0  0  0  0  0  0  0  0  0  0
  150.5649  143.1489  158.6091 H   0  0  0  0  0  0  0  0  0  0  0  0
  148.3383  141.9041  155.8414 H   0  0  0  0  0  0  0  0  0  0  0  0
  148.7422  142.2394  154.1570 H   0  0  0  0  0  0  0  0  0  0  0  0
  146.1376  141.9302  155.1229 H   0  0  0  0  0  0  0  0  0  0  0  0
  146.5791  141.7284  153.4474 H   0  0  0  0  0  0  0  0  0  0  0  0
  146.1532  137.0459  153.6823 H   0  0  0  0  0  0  0  0  0  0  0  0
  144.8102  137.5520  152.6711 H   0  0  0  0  0  0  0  0  0  0  0  0
  144.7276  137.7930  154.4062 H   0  0  0  0  0  0  0  0  0  0  0  0
  147.4449  140.1590  152.1618 H   0  0  0  0  0  0  0  0  0  0  0  0
  147.8027  138.4772  152.4494 H   0  0  0  0  0  0  0  0  0  0  0  0
  145.2634  138.7045  150.9584 H   0  0  0  0  0  0  0  0  0  0  0  0
  146.5787  139.5188  150.1391 H   0  0  0  0  0  0  0  0  0  0  0  0
  147.2155  137.0693  151.2163 H   0  0  0  0  0  0  0  0  0  0  0  0
  147.3177  137.1424  155.0971 H   0  0  0  0  0  0  0  0  0  0  0  0
  149.0285  137.4529  155.3416 H   0  0  0  0  0  0  0  0  0  0  0  0
  148.3315  137.6384  153.7426 H   0  0  0  0  0  0  0  0  0  0  0  0
  152.8095  138.3090  154.9995 H   0  0  0  0  0  0  0  0  0  0  0  0
  145.2462  139.7421  153.0248 H   0  0  0  0  0  0  0  0  0  0  0  0
  1  2  1  0  0  0  0
  1 31  1  0  0  0  0
  1 32  1  0  0  0  0
  1 33  1  0  0  0  0
  2  6  1  0  0  0  0
  2  3  1  0  0  0  0
  2 34  1  0  0  0  0
  3  4  1  0  0  0  0
  4  5  1  0  0  0  0
  4 35  1  0  0  0  0
  4 36  1  0  0  0  0
  5  6  1  0  0  0  0
  5 37  1  0  0  0  0
  5 38  1  0  0  0  0
  6  7  1  0  0  0  0
  6  8  1  0  0  0  0
  7 39  1  0  0  0  0
  8  9  1  0  0  0  0
  8 40  1  0  0  0  0
  8 41  1  0  0  0  0
  9 28  1  0  0  0  0
  9 10  1  0  0  0  0
 10 11  2  0  0  0  0
 10 42  1  0  0  0  0
 11 12  1  0  0  0  0
 12 28  2  0  0  0  0
 12 13  1  0  0  0  0
 13 14  1  0  0  0  0
 13 25  2  0  0  0  0
 14 23  1  0  0  0  0
 14 15  1  0  0  0  0
 15 16  1  0  0  0  0
 15 43  1  0  0  0  0
 15 44  1  0  0  0  0
 16 17  1  0  0  0  0
 16 45  1  0  0  0  0
 16 46  1  0  0  0  0
 17 29  1  0  0  0  0
 17 18  1  0  0  0  0
 17 23  1  0  0  0  0
 18 19  1  0  0  0  0
 18 20  1  0  0  0  0
 18 59  1  0  0  0  0
 19 47  1  0  0  0  0
 19 48  1  0  0  0  0
 19 49  1  0  0  0  0
 20 21  1  0  0  0  0
 20 50  1  0  0  0  0
 20 51  1  0  0  0  0
 21 22  1  0  0  0  0
 21 52  1  0  0  0  0
 21 53  1  0  0  0  0
 22 54  1  0  0  0  0
 23 30  1  0  0  0  0
 23 24  1  0  0  0  0
 24 55  1  0  0  0  0
 24 56  1  0  0  0  0
 24 57  1  0  0  0  0
 25 26  1  0  0  0  0
 26 27  2  0  0  0  0
 26 58  1  0  0  0  0
 27 28  1  0  0  0  0
M  CHG  1  18   1
M  END
> <s_m_source_file>
AV-unprocessed.smi

> <i_m_source_file_index>
290

> <i_lp_mmshare_version>
43012

> <i_f3d_flags>
0

> <s_epik_input>
W0NIMl0xW0NIMl1PW0NAQEhdKFtDSDNdKVtDQEBdMShbT0hdKVtDSDJdbihbY0hdbjIpYyhjMjMpbltjSF1uYzNONFtDSDJdW0NIMl1bQ0BIXShbQ0BIXTRbQ0gzXSlOKFtDSDNdKVtDSDJdW0NIMl1bT0hd

> <s_epik_cmdline>
J2VwaWtfcHl0aG9uJywgJy1waCcsICc3LjAnLCAnLXRuJywgJzgnLCAnLW1hJywgJzIwMCcsICctbWV0YWxfYmluZGluZycsICctaW1hZScsICc8aW5maWxlLm1hZT4nLCAnLW9tYWUnLCAnPG91dGZpbGUubWFlPic=

> <r_lp_tautomer_probability>
1

> <r_epik_Ionization_Penalty>
0.0036983

> <r_epik_Ionization_Penalty_Charging>
0.0032725

> <r_epik_Ionization_Penalty_Neutral>
0.000425798

> <r_epik_State_Penalty>
-0

> <r_epik_Charging_Adjusted_Penalty>
0.0032725

> <i_epik_Tot_Q>
1

> <i_epik_Tot_abs_Q>
1

> <r_epik_Metal_State_Penalty>
-0

> <b_epik_Metal_Only>
0

> <s_lp_Force_Field>
OPLS_2005

> <r_lp_Energy>
69.8612

> <b_lp_Chiralities_Consistent>
1

> <s_lp_Variant>
AV-unprocessed.smi:290-12

> <Gold.Version>
5.8.1

> <Gold.Id.Protein>
6NUR|6NUR_protein|mol2

> <Gold.PLP.Fitness>
53.1006

> <Gold.PLP.PLP>
-42.5438

> <Gold.PLP.part.hbond>
-7.2136

> <Gold.PLP.part.metal>
0.0000

> <Gold.PLP.part.buried>
5.1716

> <Gold.PLP.part.nonpolar>
-40.1181

> <Gold.PLP.part.repulsive>
0.3069

> <Gold.PLP.ligand.clash>
0.0000

> <Gold.PLP.ligand.torsion>
1.8850

> <Gold.PLP.Chemscore.Hbond>
4.6335

> <Gold.PLP.Chemscore.CHOScore>
0.0000

> <Gold.PLP.Chemscore.Metal>
0.0000

> <Gold.Chemscore.Hbonds>
donor molecule, donor type, donor heavy atom, donor atom, acceptor molecule, acceptor atom, score
      L1  H    18    59       P1 10175  2.00
      L1  H    22    54       P1  7948  0.75
      P1  H  7954  7966       L1    22  0.62
      P1  H  7989  7998       L1    25  0.04
      P1  H  7997  8009       L1    27  1.00

> <Gold.PLP.Chemscore.Internal.Correction>
0.4261

> <Gold.Rescore>
     Score         DG    S(hbond)    S(metal)    S(lipo)     H(rot)  DE(clash)    DE(int)     intcor
      9.72     -18.37       2.74        0.00     112.07       3.67       4.13       4.51       ----

> <Gold.Chemscore.Fitness>
9.7201

> <Gold.Chemscore.DG>
-18.3685

> <Gold.Chemscore.ZeroCoef>
-5.4800

> <Gold.Chemscore.Hbond>
2.7426

> <Gold.Chemscore.Metal>
0.0000

> <Gold.Chemscore.Lipo>
112.0741

> <Gold.Chemscore.Internal_Hbond>
0.0000

> <Gold.Chemscore.DEClash>
4.1344

> <Gold.Chemscore.DEInternal>
4.5140

> <Gold.Chemscore.Rot>
3.6658

> <Gold.Chemscore.Internal.Correction>
   9.000000E+99

> <Gold.Chemscore.Hbonds>
donor molecule, donor type, donor heavy atom, donor atom, acceptor molecule, acceptor atom, score
      L1  H    18    59       P1 10175  1.00
      L1  H    22    54       P1  7948  0.73
      P1  H  7954  7966       L1    22  0.04
      P1  H  7997  8009       L1    27  0.96

> <Gold.Chemscore.Hbond.Weighted>
-9.1602

> <Gold.Chemscore.Metal.Weighted>
-0.0000

> <Gold.Chemscore.Lipo.Weighted>
-13.1127

> <Gold.Chemscore.Internal_Hbond.Weighted>
0.0000

> <Gold.Chemscore.DEClash.Weighted>
4.1344

> <Gold.Chemscore.DEInternal.Weighted>
4.5140

> <Gold.Chemscore.Rot.Weighted>
9.3844

> <Gold.Chemscore.Internal.Correction.Weighted>
   9.000000E+99

> <Gold.Protein.RotatedTorsions>
[ 6907 6896 6895 6894 ] final  -51.96 input  -60.11 | X-H torsion
[ 7974 7965 7964 7962 ] final  -30.56 input  175.53 | X-H torsion
[ 8008 7997 7996 7995 ] final -170.18 input   59.86 | X-H torsion
[ 10167 10162 10161 10158 ] final   29.09 input  -65.29 | X-H torsion
[ 10718 10713 10712 10709 ] final   87.48 input   66.30 | X-H torsion
[ 10763 10752 10751 10750 ] final   68.94 input  -60.55 | X-H torsion
[ 11005 11000 10999 10996 ] final   55.99 input  -57.11 | X-H torsion

> <Gold.Protein.ActiveResidues>
 VAL166  LYS551  ARG553  GLY616  TRP617  ASP618  TYR619  PRO620  LYS621  CYS622 
 ASP623  PHE694  ASN695  SER759  ASP760  ASP761  ALA762  ILE779  LEU786  VAL792 
 PHE793  MET794  SER795  GLU796  ALA797  LYS798  CYS799  TRP800  GLU811  SER814 

> <Gold.Protein.RotatedAtoms>
  150.8562  134.7902  159.7047 H   0  0  0  0  0  0  0  0  0  0  0  0  # atno 6907 bound_to 6896
  152.4613  134.5174  159.9782 H   0  0  0  0  0  0  0  0  0  0  0  0  # atno 6908 bound_to 6896
  151.5286  133.3415  159.2950 H   0  0  0  0  0  0  0  0  0  0  0  0  # atno 6909 bound_to 6896
  146.1133  140.5556  142.8768 H   0  0  0  0  0  0  0  0  0  0  0  0  # atno 7974 bound_to 7965
  155.9149  140.1064  157.1251 H   0  0  0  0  0  0  0  0  0  0  0  0  # atno 8008 bound_to 7997
  154.4045  140.1267  156.4670 H   0  0  0  0  0  0  0  0  0  0  0  0  # atno 8009 bound_to 7997
  155.7266  140.3469  155.5042 H   0  0  0  0  0  0  0  0  0  0  0  0  # atno 8010 bound_to 7997
  140.4796  144.0637  150.6261 H   0  0  0  0  0  0  0  0  0  0  0  0  # atno 10167 bound_to 10162
  157.6940  131.0257  150.3129 H   0  0  0  0  0  0  0  0  0  0  0  0  # atno 10718 bound_to 10713
  153.0261  135.5229  154.7212 H   0  0  0  0  0  0  0  0  0  0  0  0  # atno 10763 bound_to 10752
  154.6267  135.2895  155.0266 H   0  0  0  0  0  0  0  0  0  0  0  0  # atno 10764 bound_to 10752
  154.1233  135.6604  153.4960 H   0  0  0  0  0  0  0  0  0  0  0  0  # atno 10765 bound_to 10752
  140.0564  134.5665  155.9203 H   0  0  0  0  0  0  0  0  0  0  0  0  # atno 11005 bound_to 11000
  144.7531  140.5240  143.6788 LP  0  0  0  0  0  0  0  0  0  0  0  0  # atno 17320 bound_to 7965
  145.5618  139.1480  143.3337 LP  0  0  0  0  0  0  0  0  0  0  0  0  # atno 17321 bound_to 7965
  140.3875  143.2770  152.0099 LP  0  0  0  0  0  0  0  0  0  0  0  0  # atno 17342 bound_to 10162
  139.4831  144.6105  151.7443 LP  0  0  0  0  0  0  0  0  0  0  0  0  # atno 17343 bound_to 10162
  156.3628  130.3850  149.7237 LP  0  0  0  0  0  0  0  0  0  0  0  0  # atno 17370 bound_to 10713
  156.4678  130.7982  151.3001 LP  0  0  0  0  0  0  0  0  0  0  0  0  # atno 17371 bound_to 10713
  141.1953  133.6587  156.5639 LP  0  0  0  0  0  0  0  0  0  0  0  0  # atno 17394 bound_to 11000
  140.3838  134.7500  157.4678 LP  0  0  0  0  0  0  0  0  0  0  0  0  # atno 17395 bound_to 11000

$$$$
