AV-unprocessed.smi:1127|AV-procd|sdf|4841|dock7
  -GOLD-   22720 3403D 1   1.00000     0.00000
 Structure written by MMmdl.
 42 43  0  0  0  0  0  0  0  0  1 V2000
  151.2599  138.9738  155.9118 C   0  0  0  0  0  0  0  0  0  0  0  0
  150.8228  137.6203  154.7217 S   0  0  1  0  0  0  0  0  0  0  0  0
  152.1330  137.1091  154.1196 O   0  0  0  0  0  0  0  0  0  0  0  0
  150.4174  136.4048  156.0238 C   0  0  0  0  0  0  0  0  0  0  0  0
  150.3428  136.7039  157.3242 N   0  0  0  0  0  0  0  0  0  0  0  0
  150.0046  135.5156  157.9436 N   0  0  0  0  0  0  0  0  0  0  0  0
  149.9123  134.6291  156.9501 C   0  0  0  0  0  0  0  0  0  0  0  0
  150.1582  135.1180  155.7243 N   0  0  0  0  0  0  0  0  0  0  0  0
  150.1401  134.4252  154.4465 C   0  0  0  0  0  0  0  0  0  0  0  0
  148.8658  133.5948  154.2692 C   0  0  0  0  0  0  0  0  0  0  0  0
  148.6517  132.6219  154.9925 O   0  0  0  0  0  0  0  0  0  0  0  0
  148.0204  134.0065  153.3120 N   0  0  0  0  0  0  0  0  0  0  0  0
  146.7229  133.4088  153.0053 C   0  0  0  0  0  0  0  0  0  0  0  0
  146.7899  132.7328  151.6189 C   0  0  0  0  0  0  0  0  0  0  0  0
  145.4391  132.2603  151.0443 C   0  0  0  0  0  0  0  0  0  0  0  0
  144.8540  133.1742  149.9479 C   0  0  0  0  0  0  0  0  0  0  0  0
  144.3497  134.5628  150.3921 C   0  0  0  0  0  0  0  0  0  0  0  0
  145.4572  135.5427  150.8300 C   0  0  0  0  0  0  0  0  0  0  0  0
  145.6243  135.7167  152.3517 C   0  0  0  0  0  0  0  0  0  0  0  0
  145.5859  134.4365  153.2102 C   0  0  0  0  0  0  0  0  0  0  0  0
  150.5895  138.9670  156.7718 H   0  0  0  0  0  0  0  0  0  0  0  0
  151.1803  139.9437  155.4222 H   0  0  0  0  0  0  0  0  0  0  0  0
  152.2827  138.8490  156.2669 H   0  0  0  0  0  0  0  0  0  0  0  0
  149.6565  133.5940  157.1230 H   0  0  0  0  0  0  0  0  0  0  0  0
  150.2394  135.1625  153.6484 H   0  0  0  0  0  0  0  0  0  0  0  0
  151.0071  133.7664  154.3874 H   0  0  0  0  0  0  0  0  0  0  0  0
  148.2834  134.8155  152.7679 H   0  0  0  0  0  0  0  0  0  0  0  0
  146.5380  132.6043  153.7196 H   0  0  0  0  0  0  0  0  0  0  0  0
  147.3079  133.3621  150.8963 H   0  0  0  0  0  0  0  0  0  0  0  0
  147.4349  131.8589  151.7211 H   0  0  0  0  0  0  0  0  0  0  0  0
  145.6028  131.2842  150.5859 H   0  0  0  0  0  0  0  0  0  0  0  0
  144.7105  132.0779  151.8340 H   0  0  0  0  0  0  0  0  0  0  0  0
  145.5836  133.2924  149.1460 H   0  0  0  0  0  0  0  0  0  0  0  0
  144.0129  132.6481  149.4948 H   0  0  0  0  0  0  0  0  0  0  0  0
  143.8457  135.0042  149.5314 H   0  0  0  0  0  0  0  0  0  0  0  0
  143.5742  134.4736  151.1530 H   0  0  0  0  0  0  0  0  0  0  0  0
  146.4062  135.2804  150.3654 H   0  0  0  0  0  0  0  0  0  0  0  0
  145.2237  136.5264  150.4210 H   0  0  0  0  0  0  0  0  0  0  0  0
  146.5440  136.2678  152.5472 H   0  0  0  0  0  0  0  0  0  0  0  0
  144.8200  136.3646  152.7022 H   0  0  0  0  0  0  0  0  0  0  0  0
  144.6182  133.9489  153.1069 H   0  0  0  0  0  0  0  0  0  0  0  0
  145.6088  134.7483  154.2551 H   0  0  0  0  0  0  0  0  0  0  0  0
  1  2  1  0  0  0  0
  1 21  1  0  0  0  0
  1 22  1  0  0  0  0
  1 23  1  0  0  0  0
  2  3  2  0  0  0  0
  2  4  1  0  0  0  0
  4  8  1  0  0  0  0
  4  5  2  0  0  0  0
  5  6  1  0  0  0  0
  6  7  2  0  0  0  0
  7  8  1  0  0  0  0
  7 24  1  0  0  0  0
  8  9  1  0  0  0  0
  9 10  1  0  0  0  0
  9 25  1  0  0  0  0
  9 26  1  0  0  0  0
 10 11  2  0  0  0  0
 10 12  1  0  0  0  0
 12 13  1  0  0  0  0
 12 27  1  0  0  0  0
 13 20  1  0  0  0  0
 13 14  1  0  0  0  0
 13 28  1  0  0  0  0
 14 15  1  0  0  0  0
 14 29  1  0  0  0  0
 14 30  1  0  0  0  0
 15 16  1  0  0  0  0
 15 31  1  0  0  0  0
 15 32  1  0  0  0  0
 16 17  1  0  0  0  0
 16 33  1  0  0  0  0
 16 34  1  0  0  0  0
 17 18  1  0  0  0  0
 17 35  1  0  0  0  0
 17 36  1  0  0  0  0
 18 19  1  0  0  0  0
 18 37  1  0  0  0  0
 18 38  1  0  0  0  0
 19 20  1  0  0  0  0
 19 39  1  0  0  0  0
 19 40  1  0  0  0  0
 20 41  1  0  0  0  0
 20 42  1  0  0  0  0
M  END
> <s_m_source_file>
AV-unprocessed.smi

> <i_m_source_file_index>
1127

> <i_lp_mmshare_version>
43012

> <i_f3d_flags>
0

> <s_epik_input>
W0NIM11bU0BdKD1PKWMxbm5bY0hdbjFbQ0gyXUMoPU8pW05IXVtDSF0yW0NIMl1bQ0gyXVtDSDJdW0NIMl1bQ0gyXVtDSDJdW0NIMl0y

> <s_epik_cmdline>
J2VwaWtfcHl0aG9uJywgJy1waCcsICc3LjAnLCAnLXRuJywgJzgnLCAnLW1hJywgJzIwMCcsICctbWV0YWxfYmluZGluZycsICctaW1hZScsICc8aW5maWxlLm1hZT4nLCAnLW9tYWUnLCAnPG91dGZpbGUubWFlPic=

> <r_lp_tautomer_probability>
1

> <r_epik_Ionization_Penalty>
7.34999e-08

> <r_epik_Ionization_Penalty_Charging>
0

> <r_epik_Ionization_Penalty_Neutral>
7.34999e-08

> <r_epik_State_Penalty>
-0

> <r_epik_Charging_Adjusted_Penalty>
0

> <i_epik_Tot_Q>
0

> <i_epik_Tot_abs_Q>
0

> <r_epik_Metal_State_Penalty>
-0

> <b_epik_Metal_Only>
0

> <s_lp_Force_Field>
OPLS_2005

> <r_lp_Energy>
17.4242

> <b_lp_Chiralities_Consistent>
1

> <s_lp_Variant>
AV-unprocessed.smi:1127-2

> <Gold.Version>
5.8.1

> <Gold.Id.Protein>
6NUR|6NUR_protein|mol2

> <Gold.PLP.Fitness>
39.0098

> <Gold.PLP.PLP>
-30.8051

> <Gold.PLP.part.hbond>
-3.0000

> <Gold.PLP.part.metal>
0.0000

> <Gold.PLP.part.buried>
-4.4137

> <Gold.PLP.part.nonpolar>
-24.6545

> <Gold.PLP.part.repulsive>
0.7149

> <Gold.PLP.ligand.clash>
0.0000

> <Gold.PLP.ligand.torsion>
0.7953

> <Gold.PLP.Chemscore.Hbond>
2.9117

> <Gold.PLP.Chemscore.CHOScore>
0.0000

> <Gold.PLP.Chemscore.Metal>
0.0000

> <Gold.Chemscore.Hbonds>
donor molecule, donor type, donor heavy atom, donor atom, acceptor molecule, acceptor atom, score
      L1  H    12    27       P1  7948  1.00
      P1  H  6896  6908       L1     6  0.88
      P1  H 10752 10764       L1     3  0.98

> <Gold.PLP.Chemscore.Internal.Correction>
1.0601

> <Gold.Rescore>
     Score         DG    S(hbond)    S(metal)    S(lipo)     H(rot)  DE(clash)    DE(int)     intcor
     14.86     -16.94       2.73        0.00      57.27       1.70       0.01       2.07       ----

> <Gold.Chemscore.Fitness>
14.8606

> <Gold.Chemscore.DG>
-16.9356

> <Gold.Chemscore.ZeroCoef>
-5.4800

> <Gold.Chemscore.Hbond>
2.7301

> <Gold.Chemscore.Metal>
0.0000

> <Gold.Chemscore.Lipo>
57.2657

> <Gold.Chemscore.Internal_Hbond>
0.0000

> <Gold.Chemscore.DEClash>
0.0077

> <Gold.Chemscore.DEInternal>
2.0673

> <Gold.Chemscore.Rot>
1.7044

> <Gold.Chemscore.Internal.Correction>
   9.000000E+99

> <Gold.Chemscore.Hbonds>
donor molecule, donor type, donor heavy atom, donor atom, acceptor molecule, acceptor atom, score
      L1  H    12    27       P1  7948  0.60
      P1  H  6896  6908       L1     6  0.56
      P1  H 10752 10764       L1     3  0.92

> <Gold.Chemscore.Hbond.Weighted>
-9.1187

> <Gold.Chemscore.Metal.Weighted>
-0.0000

> <Gold.Chemscore.Lipo.Weighted>
-6.7001

> <Gold.Chemscore.Internal_Hbond.Weighted>
0.0000

> <Gold.Chemscore.DEClash.Weighted>
0.0077

> <Gold.Chemscore.DEInternal.Weighted>
2.0673

> <Gold.Chemscore.Rot.Weighted>
4.3631

> <Gold.Chemscore.Internal.Correction.Weighted>
   9.000000E+99

> <Gold.Protein.RotatedTorsions>
[ 6907 6896 6895 6894 ] final  168.93 input  -60.11 | X-H torsion
[ 7974 7965 7964 7962 ] final   16.05 input  175.53 | X-H torsion
[ 8008 7997 7996 7995 ] final -170.24 input   59.86 | X-H torsion
[ 10167 10162 10161 10158 ] final  111.46 input  -65.29 | X-H torsion
[ 10718 10713 10712 10709 ] final  -49.90 input   66.30 | X-H torsion
[ 10763 10752 10751 10750 ] final  -85.05 input  -60.55 | X-H torsion
[ 11005 11000 10999 10996 ] final  114.69 input  -57.11 | X-H torsion

> <Gold.Protein.ActiveResidues>
 VAL166  LYS551  ARG553  GLY616  TRP617  ASP618  TYR619  PRO620  LYS621  CYS622 
 ASP623  PHE694  ASN695  SER759  ASP760  ASP761  ALA762  ILE779  LEU786  VAL792 
 PHE793  MET794  SER795  GLU796  ALA797  LYS798  CYS799  TRP800  GLU811  SER814 

> <Gold.Protein.RotatedAtoms>
  151.8398  133.3422  159.3639 H   0  0  0  0  0  0  0  0  0  0  0  0  # atno 6907 bound_to 6896
  150.7238  134.5402  159.5753 H   0  0  0  0  0  0  0  0  0  0  0  0  # atno 6908 bound_to 6896
  152.2873  134.7762  160.0436 H   0  0  0  0  0  0  0  0  0  0  0  0  # atno 6909 bound_to 6896
  146.2261  139.8805  142.8571 H   0  0  0  0  0  0  0  0  0  0  0  0  # atno 7974 bound_to 7965
  155.9157  140.1065  157.1245 H   0  0  0  0  0  0  0  0  0  0  0  0  # atno 8008 bound_to 7997
  154.4046  140.1265  156.4679 H   0  0  0  0  0  0  0  0  0  0  0  0  # atno 8009 bound_to 7997
  155.7257  140.3469  155.5038 H   0  0  0  0  0  0  0  0  0  0  0  0  # atno 8010 bound_to 7997
  139.6610  144.7128  151.1866 H   0  0  0  0  0  0  0  0  0  0  0  0  # atno 10167 bound_to 10162
  156.1850  130.4151  149.9452 H   0  0  0  0  0  0  0  0  0  0  0  0  # atno 10718 bound_to 10713
  154.6066  135.5499  153.7429 H   0  0  0  0  0  0  0  0  0  0  0  0  # atno 10763 bound_to 10752
  153.0177  135.6379  154.1639 H   0  0  0  0  0  0  0  0  0  0  0  0  # atno 10764 bound_to 10752
  154.1577  135.2899  155.3097 H   0  0  0  0  0  0  0  0  0  0  0  0  # atno 10765 bound_to 10752
  139.8988  134.9572  156.6931 H   0  0  0  0  0  0  0  0  0  0  0  0  # atno 11005 bound_to 11000
  145.2517  141.0046  143.3877 LP  0  0  0  0  0  0  0  0  0  0  0  0  # atno 17320 bound_to 7965
  144.9369  139.4233  143.6468 LP  0  0  0  0  0  0  0  0  0  0  0  0  # atno 17321 bound_to 7965
  140.7580  143.5995  150.8714 LP  0  0  0  0  0  0  0  0  0  0  0  0  # atno 17342 bound_to 10162
  139.9652  143.6118  152.2990 LP  0  0  0  0  0  0  0  0  0  0  0  0  # atno 17343 bound_to 10162
  156.7210  130.9007  151.3618 LP  0  0  0  0  0  0  0  0  0  0  0  0  # atno 17370 bound_to 10713
  157.6893  130.9217  150.0470 LP  0  0  0  0  0  0  0  0  0  0  0  0  # atno 17371 bound_to 10713
  140.7209  133.9141  155.8146 LP  0  0  0  0  0  0  0  0  0  0  0  0  # atno 17394 bound_to 11000
  141.0228  134.0865  157.4102 LP  0  0  0  0  0  0  0  0  0  0  0  0  # atno 17395 bound_to 11000

$$$$
