#       Name:                AV-unprocessed.smi:1681
#       Creating user name   scv26
#       Creation time:       Fri Mar 27 07:49:32 2020


#       File generated by GOLD software.
#

@<TRIPOS>MOLECULE
AV-unprocessed.smi:1681
    47    48     1
SMALL
NO_CHARGES


@<TRIPOS>ATOM
      1 ****        -5.4606  -1.7662  -1.5768 C.3            1 S1                 0.0000
      2 ****        -3.9765  -1.4709  -1.8044 C.2            1 S1                 0.0000
      3 ****        -3.3063  -2.3089  -2.4081 O.2            1 S1                 0.0000
      4 ****        -3.4519  -0.3128  -1.3361 N.am           1 S1                 0.0000
      5 ****        -4.1747   0.6860  -0.5379 C.3            1 S1                 0.0000
      6 ****        -3.6484   0.6355   0.9077 C.3            1 S1                 0.0000
      7 ****        -2.1230   0.8499   0.9466 C.3            1 S1                 0.0000
      8 ****        -1.3864  -0.0913  -0.0361 C.3            1 S1                 0.0000
      9 ****         0.1146   0.2235  -0.0888 C.2            1 S1                 0.0000
     10 ****         0.4941   1.3341  -0.4613 O.2            1 S1                 0.0000
     11 ****         0.9371  -0.7725   0.2861 N.am           1 S1                 0.0000
     12 ****         2.3536  -0.7510   0.3370 C.2            1 S1                 0.0000
     13 ****         3.1654  -1.8446   0.7354 C.2            1 S1                 0.0000
     14 ****         4.4505  -1.5283   0.6911 N.2            1 S1                 0.0000
     15 ****         4.4820  -0.2388   0.2702 N.pl3          1 S1                 0.0000
     16 ****         5.7576   0.4396   0.1240 C.3            1 S1                 0.0000
     17 ****         6.1762   1.1246   1.4269 C.2            1 S1                 0.0000
     18 ****         5.5283   2.2427   1.7662 N.am           1 S1                 0.0000
     19 ****         7.0777   0.6534   2.1167 O.2            1 S1                 0.0000
     20 ****         3.2167   0.2656   0.0405 C.2            1 S1                 0.0000
     21 ****        -2.0231   0.0091  -1.4408 C.3            1 S1                 0.0000
     22 ****        -5.6963  -1.7690  -0.5121 H              1 S1                 0.0000
     23 ****        -5.7229  -2.7462  -1.9771 H              1 S1                 0.0000
     24 ****        -6.0832  -1.0241  -2.0772 H              1 S1                 0.0000
     25 ****        -4.0016   1.6762  -0.9621 H              1 S1                 0.0000
     26 ****        -5.2556   0.5535  -0.5453 H              1 S1                 0.0000
     27 ****        -4.1466   1.3910   1.5159 H              1 S1                 0.0000
     28 ****        -3.8938  -0.3307   1.3506 H              1 S1                 0.0000
     29 ****        -1.9115   1.8904   0.6947 H              1 S1                 0.0000
     30 ****        -1.7556   0.6994   1.9626 H              1 S1                 0.0000
     31 ****        -1.5118  -1.1165   0.3187 H              1 S1                 0.0000
     32 ****         0.5001  -1.6388   0.5659 H              1 S1                 0.0000
     33 ****         2.8725  -2.8353   1.0504 H              1 S1                 0.0000
     34 ****         6.5168  -0.2821  -0.1819 H              1 S1                 0.0000
     35 ****         5.6774   1.1776  -0.6754 H              1 S1                 0.0000
     36 ****         5.7742   2.7325   2.6142 H              1 S1                 0.0000
     37 ****         4.7967   2.5974   1.1675 H              1 S1                 0.0000
     38 ****         3.0568   1.2785  -0.2979 H              1 S1                 0.0000
     39 ****        -1.4990  -0.6433  -2.1413 H              1 S1                 0.0000
     40 ****        -1.9148   1.0184  -1.8420 H              1 S1                 0.0000
     41 ****        -3.7348  -3.1520  -2.7332 LP             1 S1                 0.0000
     42 ****        -2.3335  -2.1465  -2.5733 LP             1 S1                 0.0000
     43 ****        -0.1751   2.0275  -0.7282 LP             1 S1                 0.0000
     44 ****         1.4715   1.5425  -0.4968 LP             1 S1                 0.0000
     45 ****         5.2291  -2.1132   0.9186 LP             1 S1                 0.0000
     46 ****         7.5431  -0.1832   1.8278 LP             1 S1                 0.0000
     47 ****         7.3457   1.1066   2.9669 LP             1 S1                 0.0000
@<TRIPOS>BOND
    1    1    2 1     
    2    1   22 1     
    3    1   23 1     
    4    1   24 1     
    5    2    3 2     
    6    2    4 am    
    7    4   21 1     
    8    4    5 1     
    9    5    6 1     
   10    5   25 1     
   11    5   26 1     
   12    6    7 1     
   13    6   27 1     
   14    6   28 1     
   15    7    8 1     
   16    7   29 1     
   17    7   30 1     
   18    8    9 1     
   19    8   21 1     
   20    8   31 1     
   21    9   10 2     
   22    9   11 am    
   23   11   12 1     
   24   11   32 1     
   25   12   20 2     
   26   12   13 1     
   27   13   14 2     
   28   13   33 1     
   29   14   15 1     
   30   15   16 1     
   31   15   20 1     
   32   16   17 1     
   33   16   34 1     
   34   16   35 1     
   35   17   18 am    
   36   17   19 2     
   37   18   36 1     
   38   18   37 1     
   39   20   38 1     
   40   21   39 1     
   41   21   40 1     
   42    3   41 1     
   43    3   42 1     
   44   10   43 1     
   45   10   44 1     
   46   14   45 1     
   47   19   46 1     
   48   19   47 1     
@<TRIPOS>SUBSTRUCTURE
      1 S1             1
@<TRIPOS>SET
LONE_PAIRS      STATIC     ATOMS    <user>   **** ""
7 41 42 43 44 45 46 47
DONOR_HYDROGENS      STATIC     ATOMS    <user>   **** ""
3 32 36 37
ATOM$BLUE        STATIC     ATOMS    COLORGROUP SYSTEM
7 41 42 43 44 45 46 47
ATOM$RED        STATIC     ATOMS    COLORGROUP SYSTEM
3 32 36 37
