AV-unprocessed.smi:336|AV-procd|sdf|2371|dock7
  -GOLD-   2262022293D 1   1.00000     0.00000
 Structure written by MMmdl.
 34 36  0  0  0  0  0  0  0  0  1 V2000
  150.1115  140.3792  157.4407 O   0  0  0  0  0  0  0  0  0  0  0  0
  150.1997  141.5284  157.0095 C   0  0  0  0  0  0  0  0  0  0  0  0
  149.5575  142.0011  155.9272 N   0  0  0  0  0  0  0  0  0  0  0  0
  148.6862  141.3084  155.0432 C   0  0  0  0  0  0  0  0  0  0  0  0
  148.8517  139.9556  154.6588 C   0  0  0  0  0  0  0  0  0  0  0  0
  147.9286  139.3864  153.7603 C   0  0  0  0  0  0  0  0  0  0  0  0
  146.8799  140.1906  153.2737 C   0  0  0  0  0  0  0  0  0  0  0  0
  146.7185  141.4851  153.6197 N   0  0  0  0  0  0  0  0  0  0  0  0
  147.6080  142.0243  154.4807 C   0  0  0  0  0  0  0  0  0  0  0  0
  150.9459  142.4850  157.5834 N   0  0  0  0  0  0  0  0  0  0  0  0
  151.7738  142.3479  158.7810 C   0  0  0  0  0  0  0  0  0  0  0  0
  152.4776  143.6324  159.1938 C   0  0  0  0  0  0  0  0  0  0  0  0
  151.7447  144.9527  159.2225 C   0  0  0  0  0  0  0  0  0  0  0  0
  152.8131  144.7010  158.1820 C   0  0  0  0  0  0  0  0  0  0  0  0
  152.7568  141.1880  158.7186 C   0  0  0  0  0  0  0  0  0  0  0  0
  152.3748  139.8125  159.2098 C   0  0  0  0  0  0  0  0  0  0  0  0
  153.3924  140.6321  159.9712 C   0  0  0  0  0  0  0  0  0  0  0  0
  149.6610  142.9886  155.7457 H   0  0  0  0  0  0  0  0  0  0  0  0
  149.6692  139.3510  155.0195 H   0  0  0  0  0  0  0  0  0  0  0  0
  148.0254  138.3573  153.4476 H   0  0  0  0  0  0  0  0  0  0  0  0
  146.1550  139.7847  152.5836 H   0  0  0  0  0  0  0  0  0  0  0  0
  147.4490  143.0628  154.7326 H   0  0  0  0  0  0  0  0  0  0  0  0
  150.9419  143.3974  157.1516 H   0  0  0  0  0  0  0  0  0  0  0  0
  151.0632  142.1132  159.5748 H   0  0  0  0  0  0  0  0  0  0  0  0
  153.2072  143.4939  159.9895 H   0  0  0  0  0  0  0  0  0  0  0  0
  150.7117  144.9730  158.8816 H   0  0  0  0  0  0  0  0  0  0  0  0
  151.9816  145.6389  160.0329 H   0  0  0  0  0  0  0  0  0  0  0  0
  153.7620  145.2205  158.2981 H   0  0  0  0  0  0  0  0  0  0  0  0
  152.4883  144.5466  157.1549 H   0  0  0  0  0  0  0  0  0  0  0  0
  153.4052  141.2120  157.8446 H   0  0  0  0  0  0  0  0  0  0  0  0
  151.3914  139.6893  159.6589 H   0  0  0  0  0  0  0  0  0  0  0  0
  152.7387  138.9587  158.6420 H   0  0  0  0  0  0  0  0  0  0  0  0
  154.4347  140.3251  159.9104 H   0  0  0  0  0  0  0  0  0  0  0  0
  153.0843  141.0475  160.9286 H   0  0  0  0  0  0  0  0  0  0  0  0
  1  2  2  0  0  0  0
  2  3  1  0  0  0  0
  2 10  1  0  0  0  0
  3  4  1  0  0  0  0
  3 18  1  0  0  0  0
  4  9  1  0  0  0  0
  4  5  2  0  0  0  0
  5  6  1  0  0  0  0
  5 19  1  0  0  0  0
  6  7  2  0  0  0  0
  6 20  1  0  0  0  0
  7  8  1  0  0  0  0
  7 21  1  0  0  0  0
  8  9  2  0  0  0  0
  9 22  1  0  0  0  0
 10 11  1  0  0  0  0
 10 23  1  0  0  0  0
 11 12  1  0  0  0  0
 11 15  1  0  0  0  0
 11 24  1  0  0  0  0
 12 14  1  0  0  0  0
 12 13  1  0  0  0  0
 12 25  1  0  0  0  0
 13 14  1  0  0  0  0
 13 26  1  0  0  0  0
 13 27  1  0  0  0  0
 14 28  1  0  0  0  0
 14 29  1  0  0  0  0
 15 17  1  0  0  0  0
 15 16  1  0  0  0  0
 15 30  1  0  0  0  0
 16 17  1  0  0  0  0
 16 31  1  0  0  0  0
 16 32  1  0  0  0  0
 17 33  1  0  0  0  0
 17 34  1  0  0  0  0
M  END
> <s_m_source_file>
AV-unprocessed.smi

> <i_m_source_file_index>
336

> <i_lp_mmshare_version>
43012

> <i_f3d_flags>
0

> <s_epik_input>
W0NIMl0xW0NIMl1bQ0hdMVtDSF0oW0NIXTJbQ0gyXVtDSDJdMilbTkhdQyg9TylbTkhdYzNbY0hdW2NIXVtjSF1uW2NIXTM=

> <s_epik_cmdline>
J2VwaWtfcHl0aG9uJywgJy1waCcsICc3LjAnLCAnLXRuJywgJzgnLCAnLW1hJywgJzIwMCcsICctbWV0YWxfYmluZGluZycsICctaW1hZScsICc8aW5maWxlLm1hZT4nLCAnLW9tYWUnLCAnPG91dGZpbGUubWFlPic=

> <r_epik_Ionization_Penalty>
0.00498677

> <r_epik_Ionization_Penalty_Charging>
0

> <r_epik_Ionization_Penalty_Neutral>
0.00498677

> <r_epik_State_Penalty>
0.00359262

> <r_epik_Charging_Adjusted_Penalty>
0.00359262

> <i_epik_Tot_Q>
0

> <i_epik_Tot_abs_Q>
0

> <r_epik_Metal_State_Penalty>
-0

> <b_epik_Metal_Only>
0

> <s_lp_Force_Field>
OPLS_2005

> <r_lp_Energy>
27.0567

> <b_lp_Chiralities_Consistent>
1

> <s_lp_Variant>
AV-unprocessed.smi:336-1

> <Gold.Version>
5.8.1

> <Gold.Id.Protein>
6NUR|6NUR_protein|mol2

> <Gold.PLP.Fitness>
43.6523

> <Gold.PLP.PLP>
-35.8859

> <Gold.PLP.part.hbond>
-1.0000

> <Gold.PLP.part.metal>
0.0000

> <Gold.PLP.part.buried>
-4.6809

> <Gold.PLP.part.nonpolar>
-31.3240

> <Gold.PLP.part.repulsive>
0.3323

> <Gold.PLP.ligand.clash>
0.0000

> <Gold.PLP.ligand.torsion>
1.4291

> <Gold.PLP.Chemscore.Hbond>
1.0000

> <Gold.PLP.Chemscore.CHOScore>
1.8200

> <Gold.PLP.Chemscore.Metal>
0.0000

> <Gold.Chemscore.Hbonds>
donor molecule, donor type, donor heavy atom, donor atom, acceptor molecule, acceptor atom, score
      L1  H     3    18       P1  8028  0.99
      L1  C     7    21       P1 10175  0.83
      L1  C     9    22       P1  8028  1.00

> <Gold.PLP.Chemscore.Internal.Correction>
2.1647

> <Gold.Rescore>
     Score         DG    S(hbond)    S(metal)    S(lipo)     H(rot)  DE(clash)    DE(int)     intcor
     15.04     -17.71       0.93        0.00     106.87       1.33       0.04       2.62       ----

> <Gold.Chemscore.Fitness>
15.0446

> <Gold.Chemscore.DG>
-17.7076

> <Gold.Chemscore.ZeroCoef>
-5.4800

> <Gold.Chemscore.Hbond>
0.9330

> <Gold.Chemscore.Metal>
0.0000

> <Gold.Chemscore.Lipo>
106.8731

> <Gold.Chemscore.Internal_Hbond>
0.0000

> <Gold.Chemscore.DEClash>
0.0402

> <Gold.Chemscore.DEInternal>
2.6227

> <Gold.Chemscore.Rot>
1.3253

> <Gold.Chemscore.Internal.Correction>
   9.000000E+99

> <Gold.Chemscore.Hbonds>
donor molecule, donor type, donor heavy atom, donor atom, acceptor molecule, acceptor atom, score
      L1  H     3    18       P1  8028  0.93

> <Gold.Chemscore.Hbond.Weighted>
-3.1162

> <Gold.Chemscore.Metal.Weighted>
-0.0000

> <Gold.Chemscore.Lipo.Weighted>
-12.5042

> <Gold.Chemscore.Internal_Hbond.Weighted>
0.0000

> <Gold.Chemscore.DEClash.Weighted>
0.0402

> <Gold.Chemscore.DEInternal.Weighted>
2.6227

> <Gold.Chemscore.Rot.Weighted>
3.3928

> <Gold.Chemscore.Internal.Correction.Weighted>
   9.000000E+99

> <Gold.Protein.RotatedTorsions>
[ 6907 6896 6895 6894 ] final  -27.32 input  -60.11 | X-H torsion
[ 7974 7965 7964 7962 ] final  173.77 input  175.53 | X-H torsion
[ 8008 7997 7996 7995 ] final  -60.02 input   59.86 | X-H torsion
[ 10167 10162 10161 10158 ] final -121.89 input  -65.29 | X-H torsion
[ 10718 10713 10712 10709 ] final -111.24 input   66.30 | X-H torsion
[ 10763 10752 10751 10750 ] final  -17.31 input  -60.55 | X-H torsion
[ 11005 11000 10999 10996 ] final  -50.43 input  -57.11 | X-H torsion

> <Gold.Protein.ActiveResidues>
 VAL166  LYS551  ARG553  GLY616  TRP617  ASP618  TYR619  PRO620  LYS621  CYS622 
 ASP623  PHE694  ASN695  SER759  ASP760  ASP761  ALA762  ILE779  LEU786  VAL792 
 PHE793  MET794  SER795  GLU796  ALA797  LYS798  CYS799  TRP800  GLU811  SER814 

> <Gold.Protein.RotatedAtoms>
  151.1486  135.0216  159.8657 H   0  0  0  0  0  0  0  0  0  0  0  0  # atno 6907 bound_to 6896
  152.5453  134.1415  159.8491 H   0  0  0  0  0  0  0  0  0  0  0  0  # atno 6908 bound_to 6896
  151.1498  133.4869  159.2628 H   0  0  0  0  0  0  0  0  0  0  0  0  # atno 6909 bound_to 6896
  144.7236  139.9697  143.6437 H   0  0  0  0  0  0  0  0  0  0  0  0  # atno 7974 bound_to 7965
  154.4379  140.1048  156.6208 H   0  0  0  0  0  0  0  0  0  0  0  0  # atno 8008 bound_to 7997
  155.5709  140.3489  155.4496 H   0  0  0  0  0  0  0  0  0  0  0  0  # atno 8009 bound_to 7997
  156.0390  140.1278  157.0165 H   0  0  0  0  0  0  0  0  0  0  0  0  # atno 8010 bound_to 7997
  140.0201  143.5353  152.2224 H   0  0  0  0  0  0  0  0  0  0  0  0  # atno 10167 bound_to 10162
  156.0636  130.5857  150.8347 H   0  0  0  0  0  0  0  0  0  0  0  0  # atno 10718 bound_to 10713
  153.5720  135.7007  153.5501 H   0  0  0  0  0  0  0  0  0  0  0  0  # atno 10763 bound_to 10752
  153.3336  135.4040  155.1515 H   0  0  0  0  0  0  0  0  0  0  0  0  # atno 10764 bound_to 10752
  154.8631  135.3725  154.5243 H   0  0  0  0  0  0  0  0  0  0  0  0  # atno 10765 bound_to 10752
  141.0815  133.6652  156.3730 H   0  0  0  0  0  0  0  0  0  0  0  0  # atno 11005 bound_to 11000
  146.0573  139.3568  143.0603 LP  0  0  0  0  0  0  0  0  0  0  0  0  # atno 17320 bound_to 7965
  145.8138  140.9712  143.0934 LP  0  0  0  0  0  0  0  0  0  0  0  0  # atno 17321 bound_to 7965
  139.6145  144.7616  151.2876 LP  0  0  0  0  0  0  0  0  0  0  0  0  # atno 17342 bound_to 10162
  140.7346  143.6761  150.8040 LP  0  0  0  0  0  0  0  0  0  0  0  0  # atno 17343 bound_to 10162
  157.5662  131.0946  150.9486 LP  0  0  0  0  0  0  0  0  0  0  0  0  # atno 17370 bound_to 10713
  156.9712  130.5491  149.5290 LP  0  0  0  0  0  0  0  0  0  0  0  0  # atno 17371 bound_to 10713
  140.5457  134.6077  157.5393 LP  0  0  0  0  0  0  0  0  0  0  0  0  # atno 17394 bound_to 11000
  139.9630  134.7421  156.0198 LP  0  0  0  0  0  0  0  0  0  0  0  0  # atno 17395 bound_to 11000

$$$$
