AV-unprocessed.smi:3201|AV-procd|sdf|12240|dock10
  -GOLD-   2272018 73D 1   1.00000     0.00000
 Structure written by MMmdl.
 41 43  0  0  0  0  0  0  0  0  2 V2000
  149.5150  138.7617  154.1187 C   0  0  0  0  0  0  0  0  0  0  0  0
  148.7120  140.0187  154.0139 C   0  0  0  0  0  0  0  0  0  0  0  0
  148.9433  141.2665  154.5288 C   0  0  0  0  0  0  0  0  0  0  0  0
  150.0939  141.7490  155.3692 C   0  0  0  0  0  0  0  0  0  0  0  0
  149.8289  141.5322  156.8645 C   0  0  0  0  0  0  0  0  0  0  0  0
  150.0415  142.7803  157.6244 N   0  3  0  0  0  0  0  0  0  0  0  0
  151.4519  143.2172  157.7149 C   0  0  1  0  0  0  0  0  0  0  0  0
  151.6378  144.7497  157.7606 C   0  0  0  0  0  0  0  0  0  0  0  0
  152.5203  144.9467  159.0089 C   0  0  1  0  0  0  0  0  0  0  0  0
  151.6551  144.7549  160.2665 C   0  0  0  0  0  0  0  0  0  0  0  0
  151.3995  143.2367  160.2688 C   0  0  0  0  0  0  0  0  0  0  0  0
  152.1541  142.7547  159.0103 C   0  0  2  0  0  0  0  0  0  0  0  0
  153.3684  143.6781  159.0193 C   0  0  0  0  0  0  0  0  0  0  0  0
  147.8281  142.0289  154.0808 C   0  0  0  0  0  0  0  0  0  0  0  0
  146.9810  141.3212  153.3563 N   0  0  0  0  0  0  0  0  0  0  0  0
  147.5192  140.0855  153.3148 N   0  0  0  0  0  0  0  0  0  0  0  0
  146.8180  139.0488  152.5814 C   0  0  0  0  0  0  0  0  0  0  0  0
  150.4448  138.9286  154.6620 H   0  0  0  0  0  0  0  0  0  0  0  0
  149.7728  138.3825  153.1296 H   0  0  0  0  0  0  0  0  0  0  0  0
  148.9556  137.9878  154.6445 H   0  0  0  0  0  0  0  0  0  0  0  0
  151.0114  141.2305  155.0883 H   0  0  0  0  0  0  0  0  0  0  0  0
  150.2875  142.8061  155.1843 H   0  0  0  0  0  0  0  0  0  0  0  0
  148.8039  141.1911  157.0165 H   0  0  0  0  0  0  0  0  0  0  0  0
  150.4887  140.7531  157.2482 H   0  0  0  0  0  0  0  0  0  0  0  0
  149.5017  143.5211  157.1998 H   0  0  0  0  0  0  0  0  0  0  0  0
  151.9953  142.8078  156.8612 H   0  0  0  0  0  0  0  0  0  0  0  0
  152.1481  145.0980  156.8618 H   0  0  0  0  0  0  0  0  0  0  0  0
  150.6981  145.2981  157.8410 H   0  0  0  0  0  0  0  0  0  0  0  0
  153.0835  145.8805  159.0058 H   0  0  0  0  0  0  0  0  0  0  0  0
  152.2007  145.0529  161.1630 H   0  0  0  0  0  0  0  0  0  0  0  0
  150.7317  145.3343  160.2300 H   0  0  0  0  0  0  0  0  0  0  0  0
  151.8240  142.7840  161.1659 H   0  0  0  0  0  0  0  0  0  0  0  0
  150.3375  142.9920  160.2530 H   0  0  0  0  0  0  0  0  0  0  0  0
  152.3911  141.6904  159.0231 H   0  0  0  0  0  0  0  0  0  0  0  0
  154.0027  143.5743  158.1372 H   0  0  0  0  0  0  0  0  0  0  0  0
  153.9841  143.5767  159.9152 H   0  0  0  0  0  0  0  0  0  0  0  0
  147.6117  143.0718  154.2599 H   0  0  0  0  0  0  0  0  0  0  0  0
  147.3036  138.0823  152.7133 H   0  0  0  0  0  0  0  0  0  0  0  0
  146.8068  139.2954  151.5195 H   0  0  0  0  0  0  0  0  0  0  0  0
  145.7908  138.9740  152.9401 H   0  0  0  0  0  0  0  0  0  0  0  0
  149.7000  142.6318  158.5632 H   0  0  0  0  0  0  0  0  0  0  0  0
  1  2  1  0  0  0  0
  1 18  1  0  0  0  0
  1 19  1  0  0  0  0
  1 20  1  0  0  0  0
  2 16  1  0  0  0  0
  2  3  2  0  0  0  0
  3  4  1  0  0  0  0
  3 14  1  0  0  0  0
  4  5  1  0  0  0  0
  4 21  1  0  0  0  0
  4 22  1  0  0  0  0
  5  6  1  0  0  0  0
  5 23  1  0  0  0  0
  5 24  1  0  0  0  0
  6  7  1  0  0  0  0
  6 25  1  0  0  0  0
  6 41  1  0  0  0  0
  7 12  1  0  0  0  0
  7  8  1  0  0  0  0
  7 26  1  0  0  0  0
  8  9  1  0  0  0  0
  8 27  1  0  0  0  0
  8 28  1  0  0  0  0
  9 13  1  0  0  0  0
  9 10  1  0  0  0  0
  9 29  1  0  0  0  0
 10 11  1  0  0  0  0
 10 30  1  0  0  0  0
 10 31  1  0  0  0  0
 11 12  1  0  0  0  0
 11 32  1  0  0  0  0
 11 33  1  0  0  0  0
 12 13  1  0  0  0  0
 12 34  1  0  0  0  0
 13 35  1  0  0  0  0
 13 36  1  0  0  0  0
 14 15  2  0  0  0  0
 14 37  1  0  0  0  0
 15 16  1  0  0  0  0
 16 17  1  0  0  0  0
 17 38  1  0  0  0  0
 17 39  1  0  0  0  0
 17 40  1  0  0  0  0
M  CHG  1   6   1
M  END
> <s_m_source_file>
AV-unprocessed.smi

> <i_m_source_file_index>
3201

> <i_lp_mmshare_version>
43012

> <i_f3d_flags>
0

> <s_epik_input>
W0NIM11uMW5bY0hdYyhjMVtDSDNdKVtDSDJdW0NIMl1bTkhdW0NASF0oW0NIMl1bQ0BIXTIzKVtDQEhdKFtDSDJdMylbQ0gyXVtDSDJdMg==

> <s_epik_cmdline>
J2VwaWtfcHl0aG9uJywgJy1waCcsICc3LjAnLCAnLXRuJywgJzgnLCAnLW1hJywgJzIwMCcsICctbWV0YWxfYmluZGluZycsICctaW1hZScsICc8aW5maWxlLm1hZT4nLCAnLW9tYWUnLCAnPG91dGZpbGUubWFlPic=

> <r_lp_tautomer_probability>
1

> <r_epik_Ionization_Penalty>
0.000331174

> <r_epik_Ionization_Penalty_Charging>
0.000242709

> <r_epik_Ionization_Penalty_Neutral>
8.84659e-05

> <r_epik_State_Penalty>
-0

> <r_epik_Charging_Adjusted_Penalty>
0.000242709

> <i_epik_Tot_Q>
1

> <i_epik_Tot_abs_Q>
1

> <r_epik_Metal_State_Penalty>
-0

> <b_epik_Metal_Only>
0

> <s_lp_Force_Field>
OPLS_2005

> <r_lp_Energy>
51.1066

> <b_lp_Chiralities_Consistent>
1

> <s_lp_Variant>
AV-unprocessed.smi:3201-4

> <Gold.Version>
5.8.1

> <Gold.Id.Protein>
6NUR|6NUR_protein|mol2

> <Gold.PLP.Fitness>
47.0661

> <Gold.PLP.PLP>
-40.5459

> <Gold.PLP.part.hbond>
-1.0000

> <Gold.PLP.part.metal>
0.0000

> <Gold.PLP.part.buried>
-2.1000

> <Gold.PLP.part.nonpolar>
-35.9582

> <Gold.PLP.part.repulsive>
0.2214

> <Gold.PLP.ligand.clash>
0.0000

> <Gold.PLP.ligand.torsion>
1.2028

> <Gold.PLP.Chemscore.Hbond>
2.0000

> <Gold.PLP.Chemscore.CHOScore>
0.9703

> <Gold.PLP.Chemscore.Metal>
0.0000

> <Gold.Chemscore.Hbonds>
donor molecule, donor type, donor heavy atom, donor atom, acceptor molecule, acceptor atom, score
      L1  H     6    25       P1  8028  1.98
      L1  C    14    37       P1  8028  1.00

> <Gold.PLP.Chemscore.Internal.Correction>
0.0151

> <Gold.Rescore>
     Score         DG    S(hbond)    S(metal)    S(lipo)     H(rot)  DE(clash)    DE(int)     intcor
     19.22     -20.64       0.90        0.00     133.56       1.36       0.51       0.91       ----

> <Gold.Chemscore.Fitness>
19.2206

> <Gold.Chemscore.DG>
-20.6449

> <Gold.Chemscore.ZeroCoef>
-5.4800

> <Gold.Chemscore.Hbond>
0.9032

> <Gold.Chemscore.Metal>
0.0000

> <Gold.Chemscore.Lipo>
133.5633

> <Gold.Chemscore.Internal_Hbond>
0.0000

> <Gold.Chemscore.DEClash>
0.5098

> <Gold.Chemscore.DEInternal>
0.9145

> <Gold.Chemscore.Rot>
1.3588

> <Gold.Chemscore.Internal.Correction>
   9.000000E+99

> <Gold.Chemscore.Hbonds>
donor molecule, donor type, donor heavy atom, donor atom, acceptor molecule, acceptor atom, score
      L1  H     6    25       P1  8028  0.78

> <Gold.Chemscore.Hbond.Weighted>
-3.0166

> <Gold.Chemscore.Metal.Weighted>
-0.0000

> <Gold.Chemscore.Lipo.Weighted>
-15.6269

> <Gold.Chemscore.Internal_Hbond.Weighted>
0.0000

> <Gold.Chemscore.DEClash.Weighted>
0.5098

> <Gold.Chemscore.DEInternal.Weighted>
0.9145

> <Gold.Chemscore.Rot.Weighted>
3.4786

> <Gold.Chemscore.Internal.Correction.Weighted>
   9.000000E+99

> <Gold.Protein.RotatedTorsions>
[ 6907 6896 6895 6894 ] final -100.70 input  -60.11 | X-H torsion
[ 7974 7965 7964 7962 ] final  146.80 input  175.53 | X-H torsion
[ 8008 7997 7996 7995 ] final  119.64 input   59.86 | X-H torsion
[ 10167 10162 10161 10158 ] final   73.13 input  -65.29 | X-H torsion
[ 10718 10713 10712 10709 ] final  -94.37 input   66.30 | X-H torsion
[ 10763 10752 10751 10750 ] final  156.49 input  -60.55 | X-H torsion
[ 11005 11000 10999 10996 ] final    3.48 input  -57.11 | X-H torsion

> <Gold.Protein.ActiveResidues>
 VAL166  LYS551  ARG553  GLY616  TRP617  ASP618  TYR619  PRO620  LYS621  CYS622 
 ASP623  PHE694  ASN695  SER759  ASP760  ASP761  ALA762  ILE779  LEU786  VAL792 
 PHE793  MET794  SER795  GLU796  ALA797  LYS798  CYS799  TRP800  GLU811  SER814 

> <Gold.Protein.RotatedAtoms>
  150.7126  134.0847  159.3910 H   0  0  0  0  0  0  0  0  0  0  0  0  # atno 6907 bound_to 6896
  151.8831  135.0443  160.0500 H   0  0  0  0  0  0  0  0  0  0  0  0  # atno 6908 bound_to 6896
  152.2552  133.5213  159.5385 H   0  0  0  0  0  0  0  0  0  0  0  0  # atno 6909 bound_to 6896
  144.8642  139.5949  143.5916 H   0  0  0  0  0  0  0  0  0  0  0  0  # atno 7974 bound_to 7965
  156.2605  140.2848  156.1023 H   0  0  0  0  0  0  0  0  0  0  0  0  # atno 8008 bound_to 7997
  155.1347  140.0394  157.2801 H   0  0  0  0  0  0  0  0  0  0  0  0  # atno 8009 bound_to 7997
  154.6574  140.2558  155.7153 H   0  0  0  0  0  0  0  0  0  0  0  0  # atno 8010 bound_to 7997
  140.0278  144.5490  150.7531 H   0  0  0  0  0  0  0  0  0  0  0  0  # atno 10167 bound_to 10162
  156.0026  130.5065  150.5917 H   0  0  0  0  0  0  0  0  0  0  0  0  # atno 10718 bound_to 10713
  154.1851  135.2797  155.3040 H   0  0  0  0  0  0  0  0  0  0  0  0  # atno 10763 bound_to 10752
  154.5972  135.5541  153.7341 H   0  0  0  0  0  0  0  0  0  0  0  0  # atno 10764 bound_to 10752
  153.0127  135.6383  154.1990 H   0  0  0  0  0  0  0  0  0  0  0  0  # atno 10765 bound_to 10752
  140.5926  133.9910  155.8095 H   0  0  0  0  0  0  0  0  0  0  0  0  # atno 11005 bound_to 11000
  146.2883  139.7068  142.9179 LP  0  0  0  0  0  0  0  0  0  0  0  0  # atno 17320 bound_to 7965
  145.4253  141.0410  143.2941 LP  0  0  0  0  0  0  0  0  0  0  0  0  # atno 17321 bound_to 7965
  140.7315  143.2695  151.3934 LP  0  0  0  0  0  0  0  0  0  0  0  0  # atno 17342 bound_to 10162
  139.6096  144.1125  152.2285 LP  0  0  0  0  0  0  0  0  0  0  0  0  # atno 17343 bound_to 10162
  157.3781  131.0776  151.1501 LP  0  0  0  0  0  0  0  0  0  0  0  0  # atno 17370 bound_to 10713
  157.2232  130.6491  149.5819 LP  0  0  0  0  0  0  0  0  0  0  0  0  # atno 17371 bound_to 10713
  141.0925  133.9895  157.3214 LP  0  0  0  0  0  0  0  0  0  0  0  0  # atno 17394 bound_to 11000
  139.9267  135.0201  156.8260 LP  0  0  0  0  0  0  0  0  0  0  0  0  # atno 17395 bound_to 11000

$$$$
