AV-unprocessed.smi:2355|AV-procd|sdf|9391|dock3
  -GOLD-   2272013 23D 1   1.00000     0.00000
 Structure written by MMmdl.
 49 50  0  0  0  0  0  0  0  0  2 V2000
  152.1761  144.4138  160.9150 C   0  0  0  0  0  0  0  0  0  0  0  0
  151.9714  143.2399  159.9805 C   0  0  0  0  0  0  0  0  0  0  0  0
  152.6796  142.0373  160.1656 C   0  0  0  0  0  0  0  0  0  0  0  0
  152.4456  140.9822  159.2623 C   0  0  0  0  0  0  0  0  0  0  0  0
  153.1764  139.6635  159.4000 C   0  0  0  0  0  0  0  0  0  0  0  0
  151.5782  141.0734  158.2315 N   0  0  0  0  0  0  0  0  0  0  0  0
  150.8905  142.2268  158.0432 C   0  0  0  0  0  0  0  0  0  0  0  0
  149.9572  142.4237  156.9904 N   0  0  0  0  0  0  0  0  0  0  0  0
  149.3535  141.4916  156.2321 C   0  0  0  0  0  0  0  0  0  0  0  0
  149.5206  140.2753  156.3274 O   0  0  0  0  0  0  0  0  0  0  0  0
  148.5234  142.0518  155.3395 N   0  0  0  0  0  0  0  0  0  0  0  0
  147.7150  141.3187  154.3658 C   0  0  2  0  0  0  0  0  0  0  0  0
  147.0329  142.3308  153.4285 C   0  0  0  0  0  0  0  0  0  0  0  0
  146.7122  140.3450  155.0612 C   0  0  1  0  0  0  0  0  0  0  0  0
  145.6927  141.1143  155.9399 C   0  0  0  0  0  0  0  0  0  0  0  0
  146.0722  139.4190  154.0679 N   0  3  0  0  0  0  0  0  0  0  0  0
  147.0290  138.9314  153.0363 C   0  0  0  0  0  0  0  0  0  0  0  0
  146.3249  138.0469  151.9947 C   0  0  0  0  0  0  0  0  0  0  0  0
  145.6957  136.9539  152.6463 O   0  0  0  0  0  0  0  0  0  0  0  0
  144.6990  137.3963  153.5548 C   0  0  0  0  0  0  0  0  0  0  0  0
  145.3402  138.2614  154.6532 C   0  0  0  0  0  0  0  0  0  0  0  0
  151.0647  143.3331  158.9052 C   0  0  0  0  0  0  0  0  0  0  0  0
  152.9489  144.2014  161.6544 H   0  0  0  0  0  0  0  0  0  0  0  0
  151.2507  144.6410  161.4444 H   0  0  0  0  0  0  0  0  0  0  0  0
  152.4773  145.2976  160.3522 H   0  0  0  0  0  0  0  0  0  0  0  0
  153.3838  141.9263  160.9773 H   0  0  0  0  0  0  0  0  0  0  0  0
  153.6951  139.5980  160.3570 H   0  0  0  0  0  0  0  0  0  0  0  0
  153.9134  139.5566  158.6035 H   0  0  0  0  0  0  0  0  0  0  0  0
  152.4769  138.8294  159.3362 H   0  0  0  0  0  0  0  0  0  0  0  0
  149.7231  143.3855  156.7941 H   0  0  0  0  0  0  0  0  0  0  0  0
  148.4472  143.0585  155.3284 H   0  0  0  0  0  0  0  0  0  0  0  0
  148.4180  140.7517  153.7568 H   0  0  0  0  0  0  0  0  0  0  0  0
  146.4624  141.8301  152.6461 H   0  0  0  0  0  0  0  0  0  0  0  0
  147.7727  142.9610  152.9336 H   0  0  0  0  0  0  0  0  0  0  0  0
  146.3531  142.9903  153.9682 H   0  0  0  0  0  0  0  0  0  0  0  0
  147.2773  139.7147  155.7498 H   0  0  0  0  0  0  0  0  0  0  0  0
  146.1852  141.8090  156.6196 H   0  0  0  0  0  0  0  0  0  0  0  0
  145.1175  140.4413  156.5758 H   0  0  0  0  0  0  0  0  0  0  0  0
  144.9899  141.6895  155.3370 H   0  0  0  0  0  0  0  0  0  0  0  0
  147.5004  139.7598  152.5119 H   0  0  0  0  0  0  0  0  0  0  0  0
  147.8283  138.3661  153.5182 H   0  0  0  0  0  0  0  0  0  0  0  0
  145.5937  138.6208  151.4234 H   0  0  0  0  0  0  0  0  0  0  0  0
  147.0516  137.6587  151.2809 H   0  0  0  0  0  0  0  0  0  0  0  0
  143.9247  137.9520  153.0231 H   0  0  0  0  0  0  0  0  0  0  0  0
  144.2158  136.5256  153.9985 H   0  0  0  0  0  0  0  0  0  0  0  0
  146.0246  137.6587  155.2525 H   0  0  0  0  0  0  0  0  0  0  0  0
  144.5388  138.5988  155.3097 H   0  0  0  0  0  0  0  0  0  0  0  0
  150.5104  144.2468  158.7449 H   0  0  0  0  0  0  0  0  0  0  0  0
  145.3749  139.9666  153.5841 H   0  0  0  0  0  0  0  0  0  0  0  0
  1  2  1  0  0  0  0
  1 23  1  0  0  0  0
  1 24  1  0  0  0  0
  1 25  1  0  0  0  0
  2 22  1  0  0  0  0
  2  3  2  0  0  0  0
  3  4  1  0  0  0  0
  3 26  1  0  0  0  0
  4  5  1  0  0  0  0
  4  6  2  0  0  0  0
  5 27  1  0  0  0  0
  5 28  1  0  0  0  0
  5 29  1  0  0  0  0
  6  7  1  0  0  0  0
  7  8  1  0  0  0  0
  7 22  2  0  0  0  0
  8  9  1  0  0  0  0
  8 30  1  0  0  0  0
  9 10  2  0  0  0  0
  9 11  1  0  0  0  0
 11 12  1  0  0  0  0
 11 31  1  0  0  0  0
 12 13  1  0  0  0  0
 12 14  1  0  0  0  0
 12 32  1  0  0  0  0
 13 33  1  0  0  0  0
 13 34  1  0  0  0  0
 13 35  1  0  0  0  0
 14 15  1  0  0  0  0
 14 16  1  0  0  0  0
 14 36  1  0  0  0  0
 15 37  1  0  0  0  0
 15 38  1  0  0  0  0
 15 39  1  0  0  0  0
 16 21  1  0  0  0  0
 16 17  1  0  0  0  0
 16 49  1  0  0  0  0
 17 18  1  0  0  0  0
 17 40  1  0  0  0  0
 17 41  1  0  0  0  0
 18 19  1  0  0  0  0
 18 42  1  0  0  0  0
 18 43  1  0  0  0  0
 19 20  1  0  0  0  0
 20 21  1  0  0  0  0
 20 44  1  0  0  0  0
 20 45  1  0  0  0  0
 21 46  1  0  0  0  0
 21 47  1  0  0  0  0
 22 48  1  0  0  0  0
M  CHG  1  16   1
M  END
> <s_m_source_file>
AV-unprocessed.smi

> <i_m_source_file_index>
2355

> <i_lp_mmshare_version>
43012

> <i_f3d_flags>
0

> <s_epik_input>
W0NIM11jMVtjSF1jKFtDSDNdKW5jKFtjSF0xKVtOSF1DKD1PKVtOSF1bQ0BIXShbQ0gzXSlbQ0BIXShbQ0gzXSlOMltDSDJdW0NIMl1PW0NIMl1bQ0gyXTI=

> <s_epik_cmdline>
J2VwaWtfcHl0aG9uJywgJy1waCcsICc3LjAnLCAnLXRuJywgJzgnLCAnLW1hJywgJzIwMCcsICctbWV0YWxfYmluZGluZycsICctaW1hZScsICc8aW5maWxlLm1hZT4nLCAnLW9tYWUnLCAnPG91dGZpbGUubWFlPic=

> <r_epik_Ionization_Penalty>
0.602711

> <r_epik_Ionization_Penalty_Charging>
0.602531

> <r_epik_Ionization_Penalty_Neutral>
0.000180055

> <r_epik_State_Penalty>
0.617039

> <r_epik_Charging_Adjusted_Penalty>
1.21957

> <i_epik_Tot_Q>
1

> <i_epik_Tot_abs_Q>
1

> <r_epik_Metal_State_Penalty>
0.617075

> <b_epik_Metal_Only>
0

> <s_lp_Force_Field>
OPLS_2005

> <r_lp_Energy>
24.3328

> <b_lp_Chiralities_Consistent>
1

> <s_lp_Variant>
AV-unprocessed.smi:2355-7

> <Gold.Version>
5.8.1

> <Gold.Id.Protein>
6NUR|6NUR_protein|mol2

> <Gold.PLP.Fitness>
46.8161

> <Gold.PLP.PLP>
-35.3464

> <Gold.PLP.part.hbond>
-3.0000

> <Gold.PLP.part.metal>
0.0000

> <Gold.PLP.part.buried>
-6.2333

> <Gold.PLP.part.nonpolar>
-27.1230

> <Gold.PLP.part.repulsive>
0.3802

> <Gold.PLP.ligand.clash>
0.0000

> <Gold.PLP.ligand.torsion>
0.3220

> <Gold.PLP.Chemscore.Hbond>
4.0000

> <Gold.PLP.Chemscore.CHOScore>
0.0000

> <Gold.PLP.Chemscore.Metal>
0.0000

> <Gold.Chemscore.Hbonds>
donor molecule, donor type, donor heavy atom, donor atom, acceptor molecule, acceptor atom, score
      L1  H     8    30       P1  8028  1.00
      L1  H    11    31       P1  8028  1.00
      L1  H    16    49       P1 10175  1.72

> <Gold.PLP.Chemscore.Internal.Correction>
0.1136

> <Gold.Rescore>
     Score         DG    S(hbond)    S(metal)    S(lipo)     H(rot)  DE(clash)    DE(int)     intcor
     19.89     -22.79       2.96        0.00      95.17       1.45       1.38       1.52       ----

> <Gold.Chemscore.Fitness>
19.8886

> <Gold.Chemscore.DG>
-22.7883

> <Gold.Chemscore.ZeroCoef>
-5.4800

> <Gold.Chemscore.Hbond>
2.9567

> <Gold.Chemscore.Metal>
0.0000

> <Gold.Chemscore.Lipo>
95.1731

> <Gold.Chemscore.Internal_Hbond>
0.0000

> <Gold.Chemscore.DEClash>
1.3793

> <Gold.Chemscore.DEInternal>
1.5205

> <Gold.Chemscore.Rot>
1.4462

> <Gold.Chemscore.Internal.Correction>
   9.000000E+99

> <Gold.Chemscore.Hbonds>
donor molecule, donor type, donor heavy atom, donor atom, acceptor molecule, acceptor atom, score
      L1  H     8    30       P1  8028  0.95
      L1  H    11    31       P1  8028  0.99
      L1  H    16    49       P1 10175  0.84

> <Gold.Chemscore.Hbond.Weighted>
-9.8753

> <Gold.Chemscore.Metal.Weighted>
-0.0000

> <Gold.Chemscore.Lipo.Weighted>
-11.1353

> <Gold.Chemscore.Internal_Hbond.Weighted>
0.0000

> <Gold.Chemscore.DEClash.Weighted>
1.3793

> <Gold.Chemscore.DEInternal.Weighted>
1.5205

> <Gold.Chemscore.Rot.Weighted>
3.7023

> <Gold.Chemscore.Internal.Correction.Weighted>
   9.000000E+99

> <Gold.Protein.RotatedTorsions>
[ 6907 6896 6895 6894 ] final  139.79 input  -60.11 | X-H torsion
[ 7974 7965 7964 7962 ] final  -47.49 input  175.53 | X-H torsion
[ 8008 7997 7996 7995 ] final  174.98 input   59.86 | X-H torsion
[ 10167 10162 10161 10158 ] final -167.96 input  -65.29 | X-H torsion
[ 10718 10713 10712 10709 ] final -134.94 input   66.30 | X-H torsion
[ 10763 10752 10751 10750 ] final   60.51 input  -60.55 | X-H torsion
[ 11005 11000 10999 10996 ] final -167.12 input  -57.11 | X-H torsion

> <Gold.Protein.ActiveResidues>
 VAL166  LYS551  ARG553  GLY616  TRP617  ASP618  TYR619  PRO620  LYS621  CYS622 
 ASP623  PHE694  ASN695  SER759  ASP760  ASP761  ALA762  ILE779  LEU786  VAL792 
 PHE793  MET794  SER795  GLU796  ALA797  LYS798  CYS799  TRP800  GLU811  SER814 

> <Gold.Protein.RotatedAtoms>
  152.2507  133.5212  159.5323 H   0  0  0  0  0  0  0  0  0  0  0  0  # atno 6907 bound_to 6896
  150.7092  134.0964  159.3959 H   0  0  0  0  0  0  0  0  0  0  0  0  # atno 6908 bound_to 6896
  151.8884  135.0426  160.0546 H   0  0  0  0  0  0  0  0  0  0  0  0  # atno 6909 bound_to 6896
  145.9610  140.7479  142.9457 H   0  0  0  0  0  0  0  0  0  0  0  0  # atno 7974 bound_to 7965
  156.0918  140.1420  156.9582 H   0  0  0  0  0  0  0  0  0  0  0  0  # atno 8008 bound_to 7997
  154.4646  140.0930  156.7034 H   0  0  0  0  0  0  0  0  0  0  0  0  # atno 8009 bound_to 7997
  155.4907  140.3448  155.4356 H   0  0  0  0  0  0  0  0  0  0  0  0  # atno 8010 bound_to 7997
  139.6016  144.0999  152.1748 H   0  0  0  0  0  0  0  0  0  0  0  0  # atno 10167 bound_to 10162
  156.2608  130.7208  151.1142 H   0  0  0  0  0  0  0  0  0  0  0  0  # atno 10718 bound_to 10713
  152.9923  135.5533  154.5886 H   0  0  0  0  0  0  0  0  0  0  0  0  # atno 10763 bound_to 10752
  154.5252  135.2810  155.1230 H   0  0  0  0  0  0  0  0  0  0  0  0  # atno 10764 bound_to 10752
  154.2567  135.6388  153.5312 H   0  0  0  0  0  0  0  0  0  0  0  0  # atno 10765 bound_to 10752
  140.5568  134.5373  157.5134 H   0  0  0  0  0  0  0  0  0  0  0  0  # atno 11005 bound_to 11000
  144.6815  140.2591  143.7321 LP  0  0  0  0  0  0  0  0  0  0  0  0  # atno 17320 bound_to 7965
  145.8040  139.1976  143.2032 LP  0  0  0  0  0  0  0  0  0  0  0  0  # atno 17321 bound_to 7965
  140.0597  144.5866  150.7272 LP  0  0  0  0  0  0  0  0  0  0  0  0  # atno 17342 bound_to 10162
  140.7253  143.2630  151.4139 LP  0  0  0  0  0  0  0  0  0  0  0  0  # atno 17343 bound_to 10162
  157.7250  131.0656  150.5972 LP  0  0  0  0  0  0  0  0  0  0  0  0  # atno 17370 bound_to 10713
  156.6060  130.4367  149.5878 LP  0  0  0  0  0  0  0  0  0  0  0  0  # atno 17371 bound_to 10713
  139.9428  134.7757  156.0637 LP  0  0  0  0  0  0  0  0  0  0  0  0  # atno 17394 bound_to 11000
  141.1139  133.6634  156.3045 LP  0  0  0  0  0  0  0  0  0  0  0  0  # atno 17395 bound_to 11000

$$$$
