#       Name:                AV-unprocessed.smi:1395
#       Creating user name   scv26
#       Creation time:       Fri Mar 27 05:29:17 2020


#       File generated by GOLD software.
#

@<TRIPOS>MOLECULE
AV-unprocessed.smi:1395
    48    49     1
SMALL
NO_CHARGES


@<TRIPOS>ATOM
      1 ****        -5.1747  -0.0141   0.3384 C.3            1 S1                 0.0000
      2 ****        -4.9092   1.4827   0.3295 C.ar           1 S1                 0.0000
      3 ****        -5.9922   2.3768   0.4668 C.ar           1 S1                 0.0000
      4 ****        -5.7451   3.7602   0.4578 C.ar           1 S1                 0.0000
      5 ****        -4.4164   4.1936   0.3111 C.ar           1 S1                 0.0000
      6 ****        -3.3755   3.3464   0.1789 N.ar           1 S1                 0.0000
      7 ****        -3.5967   2.0077   0.1855 C.ar           1 S1                 0.0000
      8 ****        -2.5482   1.0545   0.0487 N.am           1 S1                 0.0000
      9 ****        -1.2284   1.2737  -0.0870 C.2            1 S1                 0.0000
     10 ****        -0.6866   2.3792  -0.1120 O.2            1 S1                 0.0000
     11 ****        -0.5560   0.1183  -0.1915 N.am           1 S1                 0.0000
     12 ****         0.8904  -0.0045  -0.3455 C.3            1 S1                 0.0000
     13 ****         1.2316  -1.3510  -0.9989 C.3            1 S1                 0.0000
     14 ****         2.7526  -1.5766  -1.0595 C.3            1 S1                 0.0000
     15 ****         3.3356  -1.5164   0.2889 N.3            1 S1                 0.0000
     16 ****         4.7873  -1.8077   0.2952 C.3            1 S1                 0.0000
     17 ****         5.1566  -3.2183  -0.1820 C.2            1 S1                 0.0000
     18 ****         6.0786  -3.3152  -1.1429 N.am           1 S1                 0.0000
     19 ****         4.6142  -4.2065   0.3083 O.2            1 S1                 0.0000
     20 ****         3.1035  -0.1949   0.8814 C.3            1 S1                 0.0000
     21 ****         1.5961   0.0821   1.0176 C.3            1 S1                 0.0000
     22 ****        -6.2364  -0.2285   0.4633 H              1 S1                 0.0000
     23 ****        -4.6377  -0.4925   1.1581 H              1 S1                 0.0000
     24 ****        -4.8495  -0.4643  -0.5999 H              1 S1                 0.0000
     25 ****        -7.0022   2.0100   0.5778 H              1 S1                 0.0000
     26 ****        -6.5523   4.4702   0.5607 H              1 S1                 0.0000
     27 ****        -4.1821   5.2477   0.2991 H              1 S1                 0.0000
     28 ****        -2.8407   0.0889   0.0558 H              1 S1                 0.0000
     29 ****        -1.0820  -0.7426  -0.1586 H              1 S1                 0.0000
     30 ****         1.2570   0.7955  -0.9918 H              1 S1                 0.0000
     31 ****         0.7702  -2.1657  -0.4383 H              1 S1                 0.0000
     32 ****         0.8133  -1.3935  -2.0053 H              1 S1                 0.0000
     33 ****         2.9298  -2.5492  -1.5183 H              1 S1                 0.0000
     34 ****         3.2215  -0.8328  -1.7060 H              1 S1                 0.0000
     35 ****         5.3127  -1.0638  -0.3073 H              1 S1                 0.0000
     36 ****         5.1709  -1.7090   1.3118 H              1 S1                 0.0000
     37 ****         6.3532  -4.2224  -1.4901 H              1 S1                 0.0000
     38 ****         6.4974  -2.4772  -1.5200 H              1 S1                 0.0000
     39 ****         3.5592  -0.1477   1.8714 H              1 S1                 0.0000
     40 ****         3.5768   0.5817   0.2778 H              1 S1                 0.0000
     41 ****         1.4439   1.0682   1.4577 H              1 S1                 0.0000
     42 ****         1.1575  -0.6368   1.7113 H              1 S1                 0.0000
     43 ****        -2.4466   3.7025   0.0767 LP             1 S1                 0.0000
     44 ****        -1.2387   3.2087  -0.0274 LP             1 S1                 0.0000
     45 ****         0.3055   2.4476  -0.2169 LP             1 S1                 0.0000
     46 ****         2.8819  -2.2234   0.8313 LP             1 S1                 0.0000
     47 ****         3.9256  -4.0950   1.0248 LP             1 S1                 0.0000
     48 ****         4.8616  -5.1218  -0.0093 LP             1 S1                 0.0000
@<TRIPOS>BOND
    1    1    2 1     
    2    1   22 1     
    3    1   23 1     
    4    1   24 1     
    5    2    7 ar    
    6    2    3 ar    
    7    3    4 ar    
    8    3   25 1     
    9    4    5 ar    
   10    4   26 1     
   11    5    6 ar    
   12    5   27 1     
   13    6    7 ar    
   14    7    8 1     
   15    8    9 am    
   16    8   28 1     
   17    9   10 2     
   18    9   11 am    
   19   11   12 1     
   20   11   29 1     
   21   12   21 1     
   22   12   13 1     
   23   12   30 1     
   24   13   14 1     
   25   13   31 1     
   26   13   32 1     
   27   14   15 1     
   28   14   33 1     
   29   14   34 1     
   30   15   16 1     
   31   15   20 1     
   32   16   17 1     
   33   16   35 1     
   34   16   36 1     
   35   17   18 am    
   36   17   19 2     
   37   18   37 1     
   38   18   38 1     
   39   20   21 1     
   40   20   39 1     
   41   20   40 1     
   42   21   41 1     
   43   21   42 1     
   44    6   43 1     
   45   10   44 1     
   46   10   45 1     
   47   15   46 1     
   48   19   47 1     
   49   19   48 1     
@<TRIPOS>SUBSTRUCTURE
      1 S1             1
@<TRIPOS>SET
LONE_PAIRS      STATIC     ATOMS    <user>   **** ""
6 43 44 45 46 47 48
DONOR_HYDROGENS      STATIC     ATOMS    <user>   **** ""
4 28 29 37 38
ATOM$BLUE        STATIC     ATOMS    COLORGROUP SYSTEM
6 43 44 45 46 47 48
ATOM$RED        STATIC     ATOMS    COLORGROUP SYSTEM
4 28 29 37 38
