AV-unprocessed.smi:2779|AV-procd|sdf|10711|dock7
  -GOLD-   2272015143D 1   1.00000     0.00000
 Structure written by MMmdl.
 38 39  0  0  0  0  0  0  0  0  1 V2000
  149.7596  138.8923  156.0760 O   0  0  0  0  0  0  0  0  0  0  0  0
  150.2212  139.9064  156.5988 C   0  0  0  0  0  0  0  0  0  0  0  0
  151.4436  139.9104  157.3983 C   0  0  0  0  0  0  0  0  0  0  0  0
  151.9298  141.0445  157.9467 C   0  0  0  0  0  0  0  0  0  0  0  0
  151.2236  142.2985  157.7423 C   0  0  0  0  0  0  0  0  0  0  0  0
  151.6878  143.6181  158.3078 C   0  0  0  0  0  0  0  0  0  0  0  0
  150.8000  144.1084  159.1736 F   0  0  0  0  0  0  0  0  0  0  0  0
  152.8521  143.4616  158.9385 F   0  0  0  0  0  0  0  0  0  0  0  0
  151.8550  144.5041  157.3256 F   0  0  0  0  0  0  0  0  0  0  0  0
  150.1373  142.3003  157.0387 N   0  0  0  0  0  0  0  0  0  0  0  0
  149.6410  141.1363  156.4781 N   0  0  0  0  0  0  0  0  0  0  0  0
  148.4102  141.3264  155.7011 C   0  0  0  0  0  0  0  0  0  0  0  0
  148.4987  140.6664  154.3080 C   0  0  2  0  0  0  0  0  0  0  0  0
  149.5587  141.2302  153.5617 O   0  0  0  0  0  0  0  0  0  0  0  0
  147.2098  140.8172  153.4831 C   0  0  0  0  0  0  0  0  0  0  0  0
  146.5030  139.5869  153.4464 O   0  0  0  0  0  0  0  0  0  0  0  0
  146.9211  138.7435  152.3852 C   0  0  0  0  0  0  0  0  0  0  0  0
  145.9946  137.5567  152.1983 C   0  0  0  0  0  0  0  0  0  0  0  0
  144.9179  137.3441  153.0862 C   0  0  0  0  0  0  0  0  0  0  0  0
  144.0460  136.2547  152.8946 C   0  0  0  0  0  0  0  0  0  0  0  0
  144.2425  135.3765  151.8114 C   0  0  0  0  0  0  0  0  0  0  0  0
  145.3096  135.5902  150.9176 C   0  0  0  0  0  0  0  0  0  0  0  0
  146.1818  136.6798  151.1087 C   0  0  0  0  0  0  0  0  0  0  0  0
  148.7048  139.6003  154.4088 H   0  0  0  0  0  0  0  0  0  0  0  0
  151.9720  138.9809  157.5527 H   0  0  0  0  0  0  0  0  0  0  0  0
  152.8363  141.0235  158.5329 H   0  0  0  0  0  0  0  0  0  0  0  0
  147.5734  140.8986  156.2565 H   0  0  0  0  0  0  0  0  0  0  0  0
  148.1707  142.3876  155.6057 H   0  0  0  0  0  0  0  0  0  0  0  0
  150.3749  140.9895  153.9727 H   0  0  0  0  0  0  0  0  0  0  0  0
  146.5847  141.6145  153.8896 H   0  0  0  0  0  0  0  0  0  0  0  0
  147.4699  141.1036  152.4628 H   0  0  0  0  0  0  0  0  0  0  0  0
  146.9450  139.3046  151.4499 H   0  0  0  0  0  0  0  0  0  0  0  0
  147.9344  138.3881  152.5793 H   0  0  0  0  0  0  0  0  0  0  0  0
  144.7554  138.0165  153.9159 H   0  0  0  0  0  0  0  0  0  0  0  0
  143.2243  136.0948  153.5771 H   0  0  0  0  0  0  0  0  0  0  0  0
  143.5729  134.5418  151.6641 H   0  0  0  0  0  0  0  0  0  0  0  0
  145.4575  134.9200  150.0836 H   0  0  0  0  0  0  0  0  0  0  0  0
  146.9945  136.8399  150.4154 H   0  0  0  0  0  0  0  0  0  0  0  0
  1  2  2  0  0  0  0
  2 11  1  0  0  0  0
  2  3  1  0  0  0  0
  3  4  2  0  0  0  0
  3 25  1  0  0  0  0
  4  5  1  0  0  0  0
  4 26  1  0  0  0  0
  5  6  1  0  0  0  0
  5 10  2  0  0  0  0
  6  7  1  0  0  0  0
  6  8  1  0  0  0  0
  6  9  1  0  0  0  0
 10 11  1  0  0  0  0
 11 12  1  0  0  0  0
 12 13  1  0  0  0  0
 12 27  1  0  0  0  0
 12 28  1  0  0  0  0
 13 24  1  0  0  0  0
 13 14  1  0  0  0  0
 13 15  1  0  0  0  0
 14 29  1  0  0  0  0
 15 16  1  0  0  0  0
 15 30  1  0  0  0  0
 15 31  1  0  0  0  0
 16 17  1  0  0  0  0
 17 18  1  0  0  0  0
 17 32  1  0  0  0  0
 17 33  1  0  0  0  0
 18 23  1  0  0  0  0
 18 19  2  0  0  0  0
 19 20  1  0  0  0  0
 19 34  1  0  0  0  0
 20 21  2  0  0  0  0
 20 35  1  0  0  0  0
 21 22  1  0  0  0  0
 21 36  1  0  0  0  0
 22 23  2  0  0  0  0
 22 37  1  0  0  0  0
 23 38  1  0  0  0  0
M  END
> <s_m_source_file>
AV-unprocessed.smi

> <i_m_source_file_index>
2779

> <i_lp_mmshare_version>
43012

> <i_f3d_flags>
0

> <s_epik_input>
Tz1jMVtjSF1bY0hdYyhDKEYpKEYpRilubjFbQ0gyXVtDQEhdKFtPSF0pW0NIMl1PW0NIMl1jMltjSF1bY0hdW2NIXVtjSF1bY0hdMg==

> <s_epik_cmdline>
J2VwaWtfcHl0aG9uJywgJy1waCcsICc3LjAnLCAnLXRuJywgJzgnLCAnLW1hJywgJzIwMCcsICctbWV0YWxfYmluZGluZycsICctaW1hZScsICc8aW5maWxlLm1hZT4nLCAnLW9tYWUnLCAnPG91dGZpbGUubWFlPic=

> <r_lp_tautomer_probability>
1

> <r_epik_Ionization_Penalty>
6.7226e-08

> <r_epik_Ionization_Penalty_Charging>
6.11342e-09

> <r_epik_Ionization_Penalty_Neutral>
6.11126e-08

> <r_epik_State_Penalty>
-0

> <r_epik_Charging_Adjusted_Penalty>
6.11342e-09

> <i_epik_Tot_Q>
0

> <i_epik_Tot_abs_Q>
0

> <r_epik_Metal_State_Penalty>
-0

> <b_epik_Metal_Only>
0

> <s_lp_Force_Field>
OPLS_2005

> <r_lp_Energy>
33.7736

> <b_lp_Chiralities_Consistent>
1

> <s_lp_Variant>
AV-unprocessed.smi:2779-1

> <Gold.Version>
5.8.1

> <Gold.Id.Protein>
6NUR|6NUR_protein|mol2

> <Gold.PLP.Fitness>
45.5991

> <Gold.PLP.PLP>
-44.5318

> <Gold.PLP.part.hbond>
-3.0000

> <Gold.PLP.part.metal>
0.0000

> <Gold.PLP.part.buried>
-2.1950

> <Gold.PLP.part.nonpolar>
-41.3611

> <Gold.PLP.part.repulsive>
1.0782

> <Gold.PLP.ligand.clash>
0.0000

> <Gold.PLP.ligand.torsion>
1.0253

> <Gold.PLP.Chemscore.Hbond>
0.9760

> <Gold.PLP.Chemscore.CHOScore>
0.0000

> <Gold.PLP.Chemscore.Metal>
0.0000

> <Gold.Chemscore.Hbonds>
donor molecule, donor type, donor heavy atom, donor atom, acceptor molecule, acceptor atom, score
      P1  H  8011  8017       L1    14  0.96

> <Gold.PLP.Chemscore.Internal.Correction>
0.1898

> <Gold.Rescore>
     Score         DG    S(hbond)    S(metal)    S(lipo)     H(rot)  DE(clash)    DE(int)     intcor
      7.59     -10.63       0.62        0.00      87.62       2.80       0.82       2.22       ----

> <Gold.Chemscore.Fitness>
7.5874

> <Gold.Chemscore.DG>
-10.6319

> <Gold.Chemscore.ZeroCoef>
-5.4800

> <Gold.Chemscore.Hbond>
0.6209

> <Gold.Chemscore.Metal>
0.0000

> <Gold.Chemscore.Lipo>
87.6212

> <Gold.Chemscore.Internal_Hbond>
0.0000

> <Gold.Chemscore.DEClash>
0.8202

> <Gold.Chemscore.DEInternal>
2.2243

> <Gold.Chemscore.Rot>
2.8022

> <Gold.Chemscore.Internal.Correction>
   9.000000E+99

> <Gold.Chemscore.Hbonds>
donor molecule, donor type, donor heavy atom, donor atom, acceptor molecule, acceptor atom, score
      P1  H  8011  8017       L1    14  0.72

> <Gold.Chemscore.Hbond.Weighted>
-2.0738

> <Gold.Chemscore.Metal.Weighted>
-0.0000

> <Gold.Chemscore.Lipo.Weighted>
-10.2517

> <Gold.Chemscore.Internal_Hbond.Weighted>
0.0000

> <Gold.Chemscore.DEClash.Weighted>
0.8202

> <Gold.Chemscore.DEInternal.Weighted>
2.2243

> <Gold.Chemscore.Rot.Weighted>
7.1736

> <Gold.Chemscore.Internal.Correction.Weighted>
   9.000000E+99

> <Gold.Protein.RotatedTorsions>
[ 6907 6896 6895 6894 ] final  -14.82 input  -60.11 | X-H torsion
[ 7974 7965 7964 7962 ] final   25.40 input  175.53 | X-H torsion
[ 8008 7997 7996 7995 ] final  -35.54 input   59.86 | X-H torsion
[ 10167 10162 10161 10158 ] final -164.32 input  -65.29 | X-H torsion
[ 10718 10713 10712 10709 ] final   -7.63 input   66.30 | X-H torsion
[ 10763 10752 10751 10750 ] final -151.26 input  -60.55 | X-H torsion
[ 11005 11000 10999 10996 ] final   63.91 input  -57.11 | X-H torsion

> <Gold.Protein.ActiveResidues>
 VAL166  LYS551  ARG553  GLY616  TRP617  ASP618  TYR619  PRO620  LYS621  CYS622 
 ASP623  PHE694  ASN695  SER759  ASP760  ASP761  ALA762  ILE779  LEU786  VAL792 
 PHE793  MET794  SER795  GLU796  ALA797  LYS798  CYS799  TRP800  GLU811  SER814 

> <Gold.Protein.RotatedAtoms>
  151.3334  135.0847  159.9346 H   0  0  0  0  0  0  0  0  0  0  0  0  # atno 6907 bound_to 6896
  152.5229  133.9519  159.7686 H   0  0  0  0  0  0  0  0  0  0  0  0  # atno 6908 bound_to 6896
  150.9862  133.6142  159.2745 H   0  0  0  0  0  0  0  0  0  0  0  0  # atno 6909 bound_to 6896
  146.1890  139.7470  142.8845 H   0  0  0  0  0  0  0  0  0  0  0  0  # atno 7974 bound_to 7965
  154.4093  140.1654  156.2228 H   0  0  0  0  0  0  0  0  0  0  0  0  # atno 8008 bound_to 7997
  155.9349  140.3412  155.6257 H   0  0  0  0  0  0  0  0  0  0  0  0  # atno 8009 bound_to 7997
  155.7060  140.0751  157.2381 H   0  0  0  0  0  0  0  0  0  0  0  0  # atno 8010 bound_to 7997
  139.6259  144.0533  152.1974 H   0  0  0  0  0  0  0  0  0  0  0  0  # atno 10167 bound_to 10162
  156.7143  130.5131  149.5884 H   0  0  0  0  0  0  0  0  0  0  0  0  # atno 10718 bound_to 10713
  154.8069  135.3264  154.7408 H   0  0  0  0  0  0  0  0  0  0  0  0  # atno 10763 bound_to 10752
  153.8065  135.6899  153.4852 H   0  0  0  0  0  0  0  0  0  0  0  0  # atno 10764 bound_to 10752
  153.1820  135.4583  154.9985 H   0  0  0  0  0  0  0  0  0  0  0  0  # atno 10765 bound_to 10752
  139.9993  134.6467  155.9957 H   0  0  0  0  0  0  0  0  0  0  0  0  # atno 11005 bound_to 11000
  145.3851  141.0364  143.3156 LP  0  0  0  0  0  0  0  0  0  0  0  0  # atno 17320 bound_to 7965
  144.8451  139.5410  143.6882 LP  0  0  0  0  0  0  0  0  0  0  0  0  # atno 17321 bound_to 7965
  140.0187  144.6170  150.7585 LP  0  0  0  0  0  0  0  0  0  0  0  0  # atno 17342 bound_to 10162
  140.7410  143.2813  151.3591 LP  0  0  0  0  0  0  0  0  0  0  0  0  # atno 17343 bound_to 10162
  156.1639  130.6392  151.0753 LP  0  0  0  0  0  0  0  0  0  0  0  0  # atno 17370 bound_to 10713
  157.6923  131.0806  150.7070 LP  0  0  0  0  0  0  0  0  0  0  0  0  # atno 17371 bound_to 10713
  141.1629  133.6538  156.4381 LP  0  0  0  0  0  0  0  0  0  0  0  0  # atno 17394 bound_to 11000
  140.4758  134.6711  157.5149 LP  0  0  0  0  0  0  0  0  0  0  0  0  # atno 17395 bound_to 11000

$$$$
