#       Name:                AV-unprocessed.smi:2341
#       Creating user name   scv26
#       Creation time:       Fri Mar 27 12:57:30 2020


#       File generated by GOLD software.
#

@<TRIPOS>MOLECULE
AV-unprocessed.smi:2341
    55    57     1
SMALL
NO_CHARGES


@<TRIPOS>ATOM
      1 ****        -8.8938  -0.7317  -0.8649 C.3            1 S1                 0.0000
      2 ****        -7.4161  -0.6796  -0.5380 C.ar           1 S1                 0.0000
      3 ****        -6.7199  -1.8281  -0.1158 C.ar           1 S1                 0.0000
      4 ****        -5.3465  -1.7196   0.1762 C.ar           1 S1                 0.0000
      5 ****        -4.7028  -0.4690   0.0402 C.ar           1 S1                 0.0000
      6 ****        -3.3187  -0.4669   0.3599 N.am           1 S1                 0.0000
      7 ****        -2.4584   0.5660   0.3203 C.2            1 S1                 0.0000
      8 ****        -2.7391   1.7161  -0.0189 O.2            1 S1                 0.0000
      9 ****        -1.2284   0.1898   0.7009 N.am           1 S1                 0.0000
     10 ****        -0.0694   1.0741   0.7823 C.3            1 S1                 0.0000
     11 ****         0.5693   1.2755  -0.6064 C.3            1 S1                 0.0000
     12 ****         1.8848   2.0757  -0.5126 C.3            1 S1                 0.0000
     13 ****         2.8591   1.4569   0.4332 N.4            1 S1                 1.0000
     14 ****         3.5371   0.2200  -0.0864 C.3            1 S1                 0.0000
     15 ****         4.3367  -0.5448   1.0036 C.3            1 S1                 0.0000
     16 ****         5.0698  -1.7752   0.4462 C.3            1 S1                 0.0000
     17 ****         6.0037  -1.3944  -0.7072 C.3            1 S1                 0.0000
     18 ****         5.2244  -0.6693  -1.8094 C.3            1 S1                 0.0000
     19 ****         4.4939   0.5653  -1.2580 C.3            1 S1                 0.0000
     20 ****         2.2383   1.3556   1.7854 C.3            1 S1                 0.0000
     21 ****         0.9630   0.4929   1.7630 C.3            1 S1                 0.0000
     22 ****        -5.3825   0.6317  -0.3675 N.ar           1 S1                 0.0000
     23 ****        -6.6985   0.5270  -0.6474 C.ar           1 S1                 0.0000
     24 ****        -9.2730  -1.7532  -0.8247 H              1 S1                 0.0000
     25 ****        -9.0741  -0.3403  -1.8665 H              1 S1                 0.0000
     26 ****        -9.4581  -0.1288  -0.1531 H              1 S1                 0.0000
     27 ****        -7.2250  -2.7776  -0.0155 H              1 S1                 0.0000
     28 ****        -4.7971  -2.5915   0.5011 H              1 S1                 0.0000
     29 ****        -2.9419  -1.3548   0.6563 H              1 S1                 0.0000
     30 ****        -1.0867  -0.7750   0.9625 H              1 S1                 0.0000
     31 ****        -0.3891   2.0449   1.1665 H              1 S1                 0.0000
     32 ****         0.7501   0.3102  -1.0796 H              1 S1                 0.0000
     33 ****        -0.1259   1.8029  -1.2607 H              1 S1                 0.0000
     34 ****         2.3089   2.2202  -1.5035 H              1 S1                 0.0000
     35 ****         1.6595   3.0809  -0.1534 H              1 S1                 0.0000
     36 ****         2.7734  -0.4631  -0.4576 H              1 S1                 0.0000
     37 ****         5.0587   0.1251   1.4731 H              1 S1                 0.0000
     38 ****         3.6766  -0.9026   1.7932 H              1 S1                 0.0000
     39 ****         5.6401  -2.2583   1.2403 H              1 S1                 0.0000
     40 ****         4.3408  -2.5092   0.0999 H              1 S1                 0.0000
     41 ****         6.8052  -0.7533  -0.3378 H              1 S1                 0.0000
     42 ****         6.4811  -2.2872  -1.1123 H              1 S1                 0.0000
     43 ****         5.9046  -0.3722  -2.6083 H              1 S1                 0.0000
     44 ****         4.5018  -1.3526  -2.2579 H              1 S1                 0.0000
     45 ****         3.9593   1.0213  -2.0891 H              1 S1                 0.0000
     46 ****         5.2288   1.3005  -0.9266 H              1 S1                 0.0000
     47 ****         2.9427   1.0059   2.5381 H              1 S1                 0.0000
     48 ****         1.9743   2.3630   2.1107 H              1 S1                 0.0000
     49 ****         0.5352   0.4462   2.7652 H              1 S1                 0.0000
     50 ****         1.2107  -0.5330   1.4872 H              1 S1                 0.0000
     51 ****        -7.1917   1.4333  -0.9671 H              1 S1                 0.0000
     52 ****         3.6061   2.1287   0.5393 H              1 S1                 0.0000
     53 ****        -3.6733   1.9421  -0.2949 LP             1 S1                 0.0000
     54 ****        -2.0329   2.4241  -0.0182 LP             1 S1                 0.0000
     55 ****        -4.9140   1.5104  -0.4595 LP             1 S1                 0.0000
@<TRIPOS>BOND
    1    1    2 1     
    2    1   24 1     
    3    1   25 1     
    4    1   26 1     
    5    2   23 ar    
    6    2    3 ar    
    7    3    4 ar    
    8    3   27 1     
    9    4    5 ar    
   10    4   28 1     
   11    5    6 1     
   12    5   22 ar    
   13    6    7 am    
   14    6   29 1     
   15    7    8 2     
   16    7    9 am    
   17    9   10 1     
   18    9   30 1     
   19   10   21 1     
   20   10   11 1     
   21   10   31 1     
   22   11   12 1     
   23   11   32 1     
   24   11   33 1     
   25   12   13 1     
   26   12   34 1     
   27   12   35 1     
   28   13   14 1     
   29   13   20 1     
   30   13   52 1     
   31   14   19 1     
   32   14   15 1     
   33   14   36 1     
   34   15   16 1     
   35   15   37 1     
   36   15   38 1     
   37   16   17 1     
   38   16   39 1     
   39   16   40 1     
   40   17   18 1     
   41   17   41 1     
   42   17   42 1     
   43   18   19 1     
   44   18   43 1     
   45   18   44 1     
   46   19   45 1     
   47   19   46 1     
   48   20   21 1     
   49   20   47 1     
   50   20   48 1     
   51   21   49 1     
   52   21   50 1     
   53   22   23 ar    
   54   23   51 1     
   55    8   53 1     
   56    8   54 1     
   57   22   55 1     
@<TRIPOS>SUBSTRUCTURE
      1 S1             1
@<TRIPOS>SET
LONE_PAIRS      STATIC     ATOMS    <user>   **** ""
3 53 54 55
DONOR_HYDROGENS      STATIC     ATOMS    <user>   **** ""
3 29 30 52
ATOM$BLUE        STATIC     ATOMS    COLORGROUP SYSTEM
3 53 54 55
ATOM$RED        STATIC     ATOMS    COLORGROUP SYSTEM
3 29 30 52
