AV-unprocessed.smi:242|AV-procd|sdf|1847|dock5
  -GOLD-   2262020463D 1   1.00000     0.00000
 Structure written by MMmdl.
 58 61  0  0  0  0  0  0  0  0  2 V2000
  147.6891  130.8735  154.1746 C   0  0  0  0  0  0  0  0  0  0  0  0
  146.4715  130.6695  153.2520 C   0  0  0  0  0  0  0  0  0  0  0  0
  146.3878  129.1854  152.8444 C   0  0  0  0  0  0  0  0  0  0  0  0
  146.5428  131.5654  152.0629 N   0  3  1  0  0  0  0  0  0  0  0  0
  145.3625  131.5435  151.1676 C   0  0  0  0  0  0  0  0  0  0  0  0
  145.3431  132.9090  150.4873 C   0  0  0  0  0  0  0  0  0  0  0  0
  145.7710  133.8324  151.6241 C   0  0  2  0  0  0  0  0  0  0  0  0
  146.2414  135.1510  151.1877 N   0  0  0  0  0  0  0  0  0  0  0  0
  145.5925  135.7400  150.0225 C   0  0  0  0  0  0  0  0  0  0  0  0
  146.4207  136.0793  152.1576 C   0  0  0  0  0  0  0  0  0  0  0  0
  146.1216  135.7845  153.4507 N   0  0  0  0  0  0  0  0  0  0  0  0
  146.2999  136.7045  154.4040 C   0  0  0  0  0  0  0  0  0  0  0  0
  146.7559  137.9533  154.2840 N   0  0  0  0  0  0  0  0  0  0  0  0
  147.0461  138.2538  152.9854 C   0  0  0  0  0  0  0  0  0  0  0  0
  146.9067  137.3820  151.8699 C   0  0  0  0  0  0  0  0  0  0  0  0
  147.3065  138.0260  150.7062 N   0  0  0  0  0  0  0  0  0  0  0  0
  147.6648  139.2140  151.1113 C   0  0  0  0  0  0  0  0  0  0  0  0
  147.5353  139.4387  152.4640 N   0  0  0  0  0  0  0  0  0  0  0  0
  147.8656  140.6621  153.1791 C   0  0  0  0  0  0  0  0  0  0  0  0
  149.1218  140.5514  154.0788 C   0  0  0  0  0  0  0  0  0  0  0  0
  150.2604  140.5492  153.2355 O   0  0  0  0  0  0  0  0  0  0  0  0
  149.2144  141.7709  155.0179 C   0  0  0  0  0  0  0  0  0  0  0  0
  150.3464  141.6258  156.0504 C   0  0  0  0  0  0  0  0  0  0  0  0
  150.1823  140.4187  156.7845 O   0  0  0  0  0  0  0  0  0  0  0  0
  150.2724  139.2606  155.9640 C   0  0  0  0  0  0  0  0  0  0  0  0
  149.1386  139.2586  154.9231 C   0  0  0  0  0  0  0  0  0  0  0  0
  146.8358  132.9922  152.3549 C   0  0  0  0  0  0  0  0  0  0  0  0
  147.6457  130.1999  155.0311 H   0  0  0  0  0  0  0  0  0  0  0  0
  147.7450  131.8855  154.5742 H   0  0  0  0  0  0  0  0  0  0  0  0
  148.6223  130.6737  153.6470 H   0  0  0  0  0  0  0  0  0  0  0  0
  145.5680  130.9191  153.8105 H   0  0  0  0  0  0  0  0  0  0  0  0
  146.3861  128.5397  153.7232 H   0  0  0  0  0  0  0  0  0  0  0  0
  147.2375  128.8952  152.2253 H   0  0  0  0  0  0  0  0  0  0  0  0
  145.4768  128.9611  152.2896 H   0  0  0  0  0  0  0  0  0  0  0  0
  145.4141  130.7237  150.4502 H   0  0  0  0  0  0  0  0  0  0  0  0
  144.4518  131.4231  151.7571 H   0  0  0  0  0  0  0  0  0  0  0  0
  146.0718  132.9345  149.6752 H   0  0  0  0  0  0  0  0  0  0  0  0
  144.3639  133.1592  150.0776 H   0  0  0  0  0  0  0  0  0  0  0  0
  144.9143  133.9661  152.2869 H   0  0  0  0  0  0  0  0  0  0  0  0
  146.0077  136.7206  149.7845 H   0  0  0  0  0  0  0  0  0  0  0  0
  144.5221  135.8555  150.1976 H   0  0  0  0  0  0  0  0  0  0  0  0
  145.7294  135.1077  149.1455 H   0  0  0  0  0  0  0  0  0  0  0  0
  146.0407  136.3966  155.4064 H   0  0  0  0  0  0  0  0  0  0  0  0
  148.0335  139.9664  150.4293 H   0  0  0  0  0  0  0  0  0  0  0  0
  147.9919  141.4625  152.4485 H   0  0  0  0  0  0  0  0  0  0  0  0
  146.9998  140.9386  153.7822 H   0  0  0  0  0  0  0  0  0  0  0  0
  150.1557  139.8673  152.5897 H   0  0  0  0  0  0  0  0  0  0  0  0
  149.3483  142.6879  154.4426 H   0  0  0  0  0  0  0  0  0  0  0  0
  148.2723  141.8837  155.5560 H   0  0  0  0  0  0  0  0  0  0  0  0
  151.3246  141.6421  155.5675 H   0  0  0  0  0  0  0  0  0  0  0  0
  150.3250  142.4646  156.7461 H   0  0  0  0  0  0  0  0  0  0  0  0
  151.2497  139.2184  155.4812 H   0  0  0  0  0  0  0  0  0  0  0  0
  150.1966  138.3765  156.5971 H   0  0  0  0  0  0  0  0  0  0  0  0
  148.1870  139.1603  155.4470 H   0  0  0  0  0  0  0  0  0  0  0  0
  149.2312  138.3778  154.2865 H   0  0  0  0  0  0  0  0  0  0  0  0
  146.8249  133.2173  153.4216 H   0  0  0  0  0  0  0  0  0  0  0  0
  147.8371  133.2086  151.9796 H   0  0  0  0  0  0  0  0  0  0  0  0
  147.3172  131.2384  151.5028 H   0  0  0  0  0  0  0  0  0  0  0  0
  1  2  1  0  0  0  0
  1 28  1  0  0  0  0
  1 29  1  0  0  0  0
  1 30  1  0  0  0  0
  2  3  1  0  0  0  0
  2  4  1  0  0  0  0
  2 31  1  0  0  0  0
  3 32  1  0  0  0  0
  3 33  1  0  0  0  0
  3 34  1  0  0  0  0
  4 27  1  0  0  0  0
  4  5  1  0  0  0  0
  4 58  1  0  0  0  0
  5  6  1  0  0  0  0
  5 35  1  0  0  0  0
  5 36  1  0  0  0  0
  6  7  1  0  0  0  0
  6 37  1  0  0  0  0
  6 38  1  0  0  0  0
  7  8  1  0  0  0  0
  7 27  1  0  0  0  0
  7 39  1  0  0  0  0
  8  9  1  0  0  0  0
  8 10  1  0  0  0  0
  9 40  1  0  0  0  0
  9 41  1  0  0  0  0
  9 42  1  0  0  0  0
 10 15  1  0  0  0  0
 10 11  2  0  0  0  0
 11 12  1  0  0  0  0
 12 13  2  0  0  0  0
 12 43  1  0  0  0  0
 13 14  1  0  0  0  0
 14 18  1  0  0  0  0
 14 15  2  0  0  0  0
 15 16  1  0  0  0  0
 16 17  2  0  0  0  0
 17 18  1  0  0  0  0
 17 44  1  0  0  0  0
 18 19  1  0  0  0  0
 19 20  1  0  0  0  0
 19 45  1  0  0  0  0
 19 46  1  0  0  0  0
 20 26  1  0  0  0  0
 20 21  1  0  0  0  0
 20 22  1  0  0  0  0
 21 47  1  0  0  0  0
 22 23  1  0  0  0  0
 22 48  1  0  0  0  0
 22 49  1  0  0  0  0
 23 24  1  0  0  0  0
 23 50  1  0  0  0  0
 23 51  1  0  0  0  0
 24 25  1  0  0  0  0
 25 26  1  0  0  0  0
 25 52  1  0  0  0  0
 25 53  1  0  0  0  0
 26 54  1  0  0  0  0
 26 55  1  0  0  0  0
 27 56  1  0  0  0  0
 27 57  1  0  0  0  0
M  CHG  1   4   1
M  END
> <s_m_source_file>
AV-unprocessed.smi

> <i_m_source_file_index>
242

> <i_lp_mmshare_version>
43012

> <i_f3d_flags>
0

> <s_epik_input>
W0NIM11bQ0hdKFtDSDNdKU4xW0NIMl1bQ0gyXVtDQEhdKFtDSDJdMSlOKFtDSDNdKWMobltjSF1uMiljKGMyMyluW2NIXW4zW0NIMl1DNChbT0hdKVtDSDJdW0NIMl1PW0NIMl1bQ0gyXTQ=

> <s_epik_cmdline>
J2VwaWtfcHl0aG9uJywgJy1waCcsICc3LjAnLCAnLXRuJywgJzgnLCAnLW1hJywgJzIwMCcsICctbWV0YWxfYmluZGluZycsICctaW1hZScsICc8aW5maWxlLm1hZT4nLCAnLW9tYWUnLCAnPG91dGZpbGUubWFlPic=

> <r_lp_tautomer_probability>
1

> <r_epik_Ionization_Penalty>
0.000825961

> <r_epik_Ionization_Penalty_Charging>
0.00034898

> <r_epik_Ionization_Penalty_Neutral>
0.000476981

> <r_epik_State_Penalty>
-0

> <r_epik_Charging_Adjusted_Penalty>
0.00034898

> <i_epik_Tot_Q>
1

> <i_epik_Tot_abs_Q>
1

> <r_epik_Metal_State_Penalty>
-0

> <b_epik_Metal_Only>
0

> <s_lp_Force_Field>
OPLS_2005

> <r_lp_Energy>
48.0366

> <b_lp_Chiralities_Consistent>
1

> <s_lp_Variant>
AV-unprocessed.smi:242-4

> <Gold.Version>
5.8.1

> <Gold.Id.Protein>
6NUR|6NUR_protein|mol2

> <Gold.PLP.Fitness>
48.8445

> <Gold.PLP.PLP>
-37.1309

> <Gold.PLP.part.hbond>
-4.1219

> <Gold.PLP.part.metal>
0.0000

> <Gold.PLP.part.buried>
5.0089

> <Gold.PLP.part.nonpolar>
-38.9041

> <Gold.PLP.part.repulsive>
1.4138

> <Gold.PLP.ligand.clash>
0.0000

> <Gold.PLP.ligand.torsion>
0.8749

> <Gold.PLP.Chemscore.Hbond>
4.0620

> <Gold.PLP.Chemscore.CHOScore>
0.2713

> <Gold.PLP.Chemscore.Metal>
0.0000

> <Gold.Chemscore.Hbonds>
donor molecule, donor type, donor heavy atom, donor atom, acceptor molecule, acceptor atom, score
      L1  H     4    58       P1 10747  0.83
      L1  H    21    47       P1  7957  0.52
      P1  H  7954  7966       L1    16  0.12
      P1  H  7989  7998       L1    21  0.23
      P1  H  8011  8017       L1    21  0.60
      L1  C    17    44       P1  7957  0.02

> <Gold.PLP.Chemscore.Internal.Correction>
0.4634

> <Gold.Rescore>
     Score         DG    S(hbond)    S(metal)    S(lipo)     H(rot)  DE(clash)    DE(int)     intcor
     10.00     -18.30       2.40        0.00      95.68       2.50       4.40       3.90       ----

> <Gold.Chemscore.Fitness>
10.0027

> <Gold.Chemscore.DG>
-18.3034

> <Gold.Chemscore.ZeroCoef>
-5.4800

> <Gold.Chemscore.Hbond>
2.4034

> <Gold.Chemscore.Metal>
0.0000

> <Gold.Chemscore.Lipo>
95.6839

> <Gold.Chemscore.Internal_Hbond>
0.0000

> <Gold.Chemscore.DEClash>
4.4024

> <Gold.Chemscore.DEInternal>
3.8983

> <Gold.Chemscore.Rot>
2.4996

> <Gold.Chemscore.Internal.Correction>
   9.000000E+99

> <Gold.Chemscore.Hbonds>
donor molecule, donor type, donor heavy atom, donor atom, acceptor molecule, acceptor atom, score
      L1  H     4    58       P1 10747  0.82
      L1  H    21    47       P1  7957  0.49
      P1  H  7954  7966       L1    16  0.03
      P1  H  7989  7998       L1    21  0.18
      P1  H  8011  8017       L1    21  0.05

> <Gold.Chemscore.Hbond.Weighted>
-8.0273

> <Gold.Chemscore.Metal.Weighted>
-0.0000

> <Gold.Chemscore.Lipo.Weighted>
-11.1950

> <Gold.Chemscore.Internal_Hbond.Weighted>
0.0000

> <Gold.Chemscore.DEClash.Weighted>
4.4024

> <Gold.Chemscore.DEInternal.Weighted>
3.8983

> <Gold.Chemscore.Rot.Weighted>
6.3990

> <Gold.Chemscore.Internal.Correction.Weighted>
   9.000000E+99

> <Gold.Protein.RotatedTorsions>
[ 6907 6896 6895 6894 ] final  160.81 input  -60.11 | X-H torsion
[ 7974 7965 7964 7962 ] final   -7.18 input  175.53 | X-H torsion
[ 8008 7997 7996 7995 ] final   53.46 input   59.86 | X-H torsion
[ 10167 10162 10161 10158 ] final   33.25 input  -65.29 | X-H torsion
[ 10718 10713 10712 10709 ] final   85.23 input   66.30 | X-H torsion
[ 10763 10752 10751 10750 ] final   -0.71 input  -60.55 | X-H torsion
[ 11005 11000 10999 10996 ] final  174.55 input  -57.11 | X-H torsion

> <Gold.Protein.ActiveResidues>
 VAL166  LYS551  ARG553  GLY616  TRP617  ASP618  TYR619  PRO620  LYS621  CYS622 
 ASP623  PHE694  ASN695  SER759  ASP760  ASP761  ALA762  ILE779  LEU786  VAL792 
 PHE793  MET794  SER795  GLU796  ALA797  LYS798  CYS799  TRP800  GLU811  SER814 

> <Gold.Protein.RotatedAtoms>
  151.9651  133.3707  159.4049 H   0  0  0  0  0  0  0  0  0  0  0  0  # atno 6907 bound_to 6896
  150.6958  134.4199  159.5209 H   0  0  0  0  0  0  0  0  0  0  0  0  # atno 6908 bound_to 6896
  152.1894  134.8685  160.0569 H   0  0  0  0  0  0  0  0  0  0  0  0  # atno 6909 bound_to 6896
  146.2313  140.2282  142.8339 H   0  0  0  0  0  0  0  0  0  0  0  0  # atno 7974 bound_to 7965
  155.4686  140.3464  155.4322 H   0  0  0  0  0  0  0  0  0  0  0  0  # atno 8008 bound_to 7997
  156.1115  140.1462  156.9361 H   0  0  0  0  0  0  0  0  0  0  0  0  # atno 8009 bound_to 7997
  154.4760  140.0885  156.7241 H   0  0  0  0  0  0  0  0  0  0  0  0  # atno 8010 bound_to 7997
  140.4424  144.1167  150.6176 H   0  0  0  0  0  0  0  0  0  0  0  0  # atno 10167 bound_to 10162
  157.6911  131.0166  150.2791 H   0  0  0  0  0  0  0  0  0  0  0  0  # atno 10718 bound_to 10713
  153.3354  135.6977  153.6912 H   0  0  0  0  0  0  0  0  0  0  0  0  # atno 10763 bound_to 10752
  153.5698  135.3518  155.2834 H   0  0  0  0  0  0  0  0  0  0  0  0  # atno 10764 bound_to 10752
  154.8626  135.4269  154.2553 H   0  0  0  0  0  0  0  0  0  0  0  0  # atno 10765 bound_to 10752
  140.3525  134.7183  157.4277 H   0  0  0  0  0  0  0  0  0  0  0  0  # atno 11005 bound_to 11000
  144.9579  140.8245  143.5532 LP  0  0  0  0  0  0  0  0  0  0  0  0  # atno 17320 bound_to 7965
  145.2249  139.2141  143.5073 LP  0  0  0  0  0  0  0  0  0  0  0  0  # atno 17321 bound_to 7965
  140.4302  143.2571  151.9605 LP  0  0  0  0  0  0  0  0  0  0  0  0  # atno 17342 bound_to 10162
  139.4790  144.5750  151.8026 LP  0  0  0  0  0  0  0  0  0  0  0  0  # atno 17343 bound_to 10162
  156.3341  130.3805  149.7465 LP  0  0  0  0  0  0  0  0  0  0  0  0  # atno 17370 bound_to 10713
  156.4996  130.8122  151.3127 LP  0  0  0  0  0  0  0  0  0  0  0  0  # atno 17371 bound_to 10713
  140.0691  134.5887  155.8661 LP  0  0  0  0  0  0  0  0  0  0  0  0  # atno 17394 bound_to 11000
  141.2008  133.6614  156.5915 LP  0  0  0  0  0  0  0  0  0  0  0  0  # atno 17395 bound_to 11000

$$$$
