AV-unprocessed.smi:657|AV-procd|sdf|3228|dock6
  -GOLD-   22720 0173D 1   1.00000     0.00000
 Structure written by MMmdl.
 46 47  0  0  0  0  0  0  0  0  3 V2000
  146.0797  137.0453  153.8587 C   0  0  0  0  0  0  0  0  0  0  0  0
  147.1295  138.1675  154.0044 C   0  0  0  0  0  0  0  0  0  0  0  0
  147.0432  139.0683  152.7540 C   0  0  0  0  0  0  0  0  0  0  0  0
  148.5235  137.6465  154.2264 N   0  3  2  0  0  0  0  0  0  0  0  0
  148.6836  136.7751  155.4311 C   0  0  0  0  0  0  0  0  0  0  0  0
  150.0670  136.1051  155.4774 C   0  0  0  0  0  0  0  0  0  0  0  0
  151.1967  137.1348  155.4274 C   0  0  0  0  0  0  0  0  0  0  0  0
  151.0163  138.0324  154.1968 C   0  0  0  0  0  0  0  0  0  0  0  0
  149.6122  138.6776  154.1112 C   0  0  2  0  0  0  0  0  0  0  0  0
  149.4569  139.8800  155.0783 C   0  0  0  0  0  0  0  0  0  0  0  0
  148.4203  139.9906  155.7413 O   0  0  0  0  0  0  0  0  0  0  0  0
  150.5511  140.6877  155.0335 N   0  5  0  0  0  0  0  0  0  0  0  0
  151.2966  141.1142  156.2154 C   0  0  0  0  0  0  0  0  0  0  0  0
  150.3601  141.8217  157.2168 C   0  0  0  0  0  0  0  0  0  0  0  0
  151.0738  142.7541  158.1689 C   0  0  0  0  0  0  0  0  0  0  0  0
  152.2253  142.4844  158.9653 C   0  0  0  0  0  0  0  0  0  0  0  0
  152.6110  143.5245  159.6866 N   0  0  0  0  0  0  0  0  0  0  0  0
  151.7279  144.4946  159.3738 N   0  0  0  0  0  0  0  0  0  0  0  0
  151.8494  145.7976  159.9919 C   0  0  0  0  0  0  0  0  0  0  0  0
  150.7920  144.0606  158.4602 C   0  0  0  0  0  0  0  0  0  0  0  0
  145.1107  137.4506  153.5660 H   0  0  0  0  0  0  0  0  0  0  0  0
  145.9095  136.5169  154.7965 H   0  0  0  0  0  0  0  0  0  0  0  0
  146.3732  136.3185  153.1003 H   0  0  0  0  0  0  0  0  0  0  0  0
  146.8337  138.7608  154.8704 H   0  0  0  0  0  0  0  0  0  0  0  0
  146.0131  139.3653  152.5551 H   0  0  0  0  0  0  0  0  0  0  0  0
  147.4134  138.5522  151.8677 H   0  0  0  0  0  0  0  0  0  0  0  0
  147.6048  139.9946  152.8639 H   0  0  0  0  0  0  0  0  0  0  0  0
  148.4989  137.3451  156.3416 H   0  0  0  0  0  0  0  0  0  0  0  0
  147.9579  135.9646  155.4232 H   0  0  0  0  0  0  0  0  0  0  0  0
  150.1570  135.5012  156.3809 H   0  0  0  0  0  0  0  0  0  0  0  0
  150.1651  135.4168  154.6369 H   0  0  0  0  0  0  0  0  0  0  0  0
  151.2064  137.7262  156.3424 H   0  0  0  0  0  0  0  0  0  0  0  0
  152.1617  136.6294  155.3819 H   0  0  0  0  0  0  0  0  0  0  0  0
  151.7887  138.8030  154.1851 H   0  0  0  0  0  0  0  0  0  0  0  0
  151.1826  137.4334  153.3003 H   0  0  0  0  0  0  0  0  0  0  0  0
  149.5710  139.0522  153.0876 H   0  0  0  0  0  0  0  0  0  0  0  0
  151.7505  140.2590  156.7175 H   0  0  0  0  0  0  0  0  0  0  0  0
  152.1214  141.7811  155.9617 H   0  0  0  0  0  0  0  0  0  0  0  0
  149.5845  142.3567  156.6672 H   0  0  0  0  0  0  0  0  0  0  0  0
  149.8284  141.0554  157.7815 H   0  0  0  0  0  0  0  0  0  0  0  0
  152.7863  141.5645  159.0400 H   0  0  0  0  0  0  0  0  0  0  0  0
  151.2269  146.5202  159.4634 H   0  0  0  0  0  0  0  0  0  0  0  0
  152.8866  146.1326  159.9564 H   0  0  0  0  0  0  0  0  0  0  0  0
  151.5256  145.7417  161.0315 H   0  0  0  0  0  0  0  0  0  0  0  0
  150.0082  144.7082  158.0959 H   0  0  0  0  0  0  0  0  0  0  0  0
  148.6863  137.0241  153.4487 H   0  0  0  0  0  0  0  0  0  0  0  0
  1  2  1  0  0  0  0
  1 21  1  0  0  0  0
  1 22  1  0  0  0  0
  1 23  1  0  0  0  0
  2  3  1  0  0  0  0
  2  4  1  0  0  0  0
  2 24  1  0  0  0  0
  3 25  1  0  0  0  0
  3 26  1  0  0  0  0
  3 27  1  0  0  0  0
  4  9  1  0  0  0  0
  4  5  1  0  0  0  0
  4 46  1  0  0  0  0
  5  6  1  0  0  0  0
  5 28  1  0  0  0  0
  5 29  1  0  0  0  0
  6  7  1  0  0  0  0
  6 30  1  0  0  0  0
  6 31  1  0  0  0  0
  7  8  1  0  0  0  0
  7 32  1  0  0  0  0
  7 33  1  0  0  0  0
  8  9  1  0  0  0  0
  8 34  1  0  0  0  0
  8 35  1  0  0  0  0
  9 10  1  0  0  0  0
  9 36  1  0  0  0  0
 10 11  2  0  0  0  0
 10 12  1  0  0  0  0
 12 13  1  0  0  0  0
 13 14  1  0  0  0  0
 13 37  1  0  0  0  0
 13 38  1  0  0  0  0
 14 15  1  0  0  0  0
 14 39  1  0  0  0  0
 14 40  1  0  0  0  0
 15 20  2  0  0  0  0
 15 16  1  0  0  0  0
 16 17  2  0  0  0  0
 16 41  1  0  0  0  0
 17 18  1  0  0  0  0
 18 19  1  0  0  0  0
 18 20  1  0  0  0  0
 19 42  1  0  0  0  0
 19 43  1  0  0  0  0
 19 44  1  0  0  0  0
 20 45  1  0  0  0  0
M  CHG  1   4   1
M  CHG  1  12  -1
M  END
> <s_m_source_file>
AV-unprocessed.smi

> <i_m_source_file_index>
657

> <i_lp_mmshare_version>
43012

> <i_f3d_flags>
0

> <s_epik_input>
W0NIM11bQ0hdKFtDSDNdKU4xW0NIMl1bQ0gyXVtDSDJdW0NIMl1bQ0BIXTFDKD1PKVtOSF1bQ0gyXVtDSDJdYzJbY0hdbm4oW0NIM10pW2NIXTI=

> <s_epik_cmdline>
J2VwaWtfcHl0aG9uJywgJy1waCcsICc3LjAnLCAnLXRuJywgJzgnLCAnLW1hJywgJzIwMCcsICctbWV0YWxfYmluZGluZycsICctaW1hZScsICc8aW5maWxlLm1hZT4nLCAnLW9tYWUnLCAnPG91dGZpbGUubWFlPic=

> <r_lp_tautomer_probability>
1

> <r_epik_Ionization_Penalty>
6.1622

> <r_epik_Ionization_Penalty_Charging>
6.16146

> <r_epik_Ionization_Penalty_Neutral>
0.00073675

> <r_epik_State_Penalty>
6.18018

> <r_epik_Charging_Adjusted_Penalty>
12.3416

> <i_epik_Tot_Q>
0

> <i_epik_Tot_abs_Q>
2

> <r_epik_Metal_State_Penalty>
2.12232

> <b_epik_Metal_Only>
1

> <s_lp_Force_Field>
OPLS_2005

> <r_lp_Energy>
13.854

> <b_lp_Chiralities_Consistent>
1

> <s_lp_Variant>
AV-unprocessed.smi:657-9

> <Gold.Version>
5.8.1

> <Gold.Id.Protein>
6NUR|6NUR_protein|mol2

> <Gold.PLP.Fitness>
48.1087

> <Gold.PLP.PLP>
-38.0535

> <Gold.PLP.part.hbond>
-2.0000

> <Gold.PLP.part.metal>
0.0000

> <Gold.PLP.part.buried>
-3.8033

> <Gold.PLP.part.nonpolar>
-31.6054

> <Gold.PLP.part.repulsive>
0.1055

> <Gold.PLP.ligand.clash>
0.0000

> <Gold.PLP.ligand.torsion>
1.0199

> <Gold.PLP.Chemscore.Hbond>
2.8960

> <Gold.PLP.Chemscore.CHOScore>
1.0618

> <Gold.PLP.Chemscore.Metal>
0.0000

> <Gold.Chemscore.Hbonds>
donor molecule, donor type, donor heavy atom, donor atom, acceptor molecule, acceptor atom, score
      L1  H     4    46       P1  7948  2.00
      P1  H  7989  7998       L1    12  0.90
      L1  C    20    45       P1  8028  0.38
      L1  C    20    45       P1  8029  0.64

> <Gold.PLP.Chemscore.Internal.Correction>
0.2216

> <Gold.Rescore>
     Score         DG    S(hbond)    S(metal)    S(lipo)     H(rot)  DE(clash)    DE(int)     intcor
     14.69     -18.27       1.71        0.00      94.80       1.57       0.28       3.30       ----

> <Gold.Chemscore.Fitness>
14.6884

> <Gold.Chemscore.DG>
-18.2680

> <Gold.Chemscore.ZeroCoef>
-5.4800

> <Gold.Chemscore.Hbond>
1.7145

> <Gold.Chemscore.Metal>
0.0000

> <Gold.Chemscore.Lipo>
94.7972

> <Gold.Chemscore.Internal_Hbond>
0.0000

> <Gold.Chemscore.DEClash>
0.2813

> <Gold.Chemscore.DEInternal>
3.2983

> <Gold.Chemscore.Rot>
1.5741

> <Gold.Chemscore.Internal.Correction>
   9.000000E+99

> <Gold.Chemscore.Hbonds>
donor molecule, donor type, donor heavy atom, donor atom, acceptor molecule, acceptor atom, score
      L1  H     4    46       P1  7948  1.00
      P1  H  7989  7998       L1    12  0.65

> <Gold.Chemscore.Hbond.Weighted>
-5.7264

> <Gold.Chemscore.Metal.Weighted>
-0.0000

> <Gold.Chemscore.Lipo.Weighted>
-11.0913

> <Gold.Chemscore.Internal_Hbond.Weighted>
0.0000

> <Gold.Chemscore.DEClash.Weighted>
0.2813

> <Gold.Chemscore.DEInternal.Weighted>
3.2983

> <Gold.Chemscore.Rot.Weighted>
4.0297

> <Gold.Chemscore.Internal.Correction.Weighted>
   9.000000E+99

> <Gold.Protein.RotatedTorsions>
[ 6907 6896 6895 6894 ] final  107.67 input  -60.11 | X-H torsion
[ 7974 7965 7964 7962 ] final  129.93 input  175.53 | X-H torsion
[ 8008 7997 7996 7995 ] final  -36.84 input   59.86 | X-H torsion
[ 10167 10162 10161 10158 ] final  122.96 input  -65.29 | X-H torsion
[ 10718 10713 10712 10709 ] final   24.22 input   66.30 | X-H torsion
[ 10763 10752 10751 10750 ] final   86.17 input  -60.55 | X-H torsion
[ 11005 11000 10999 10996 ] final  -10.72 input  -57.11 | X-H torsion

> <Gold.Protein.ActiveResidues>
 VAL166  LYS551  ARG553  GLY616  TRP617  ASP618  TYR619  PRO620  LYS621  CYS622 
 ASP623  PHE694  ASN695  SER759  ASP760  ASP761  ALA762  ILE779  LEU786  VAL792 
 PHE793  MET794  SER795  GLU796  ALA797  LYS798  CYS799  TRP800  GLU811  SER814 

> <Gold.Protein.RotatedAtoms>
  152.5144  133.9200  159.7529 H   0  0  0  0  0  0  0  0  0  0  0  0  # atno 6907 bound_to 6896
  150.9574  133.6474  159.2767 H   0  0  0  0  0  0  0  0  0  0  0  0  # atno 6908 bound_to 6896
  151.3731  135.0931  159.9525 H   0  0  0  0  0  0  0  0  0  0  0  0  # atno 6909 bound_to 6896
  145.0234  139.4111  143.5186 H   0  0  0  0  0  0  0  0  0  0  0  0  # atno 7974 bound_to 7965
  154.4065  140.1620  156.2440 H   0  0  0  0  0  0  0  0  0  0  0  0  # atno 8008 bound_to 7997
  155.9177  140.3423  155.6125 H   0  0  0  0  0  0  0  0  0  0  0  0  # atno 8009 bound_to 7997
  155.7260  140.0774  157.2300 H   0  0  0  0  0  0  0  0  0  0  0  0  # atno 8010 bound_to 7997
  139.5828  144.6993  151.3486 H   0  0  0  0  0  0  0  0  0  0  0  0  # atno 10167 bound_to 10162
  157.1768  130.6785  149.6098 H   0  0  0  0  0  0  0  0  0  0  0  0  # atno 10718 bound_to 10713
  153.1544  135.4590  154.9683 H   0  0  0  0  0  0  0  0  0  0  0  0  # atno 10763 bound_to 10752
  154.7850  135.3201  154.7908 H   0  0  0  0  0  0  0  0  0  0  0  0  # atno 10764 bound_to 10752
  153.8408  135.6930  153.4857 H   0  0  0  0  0  0  0  0  0  0  0  0  # atno 10765 bound_to 10752
  140.7477  133.8618  155.9019 H   0  0  0  0  0  0  0  0  0  0  0  0  # atno 11005 bound_to 11000
  146.3488  139.9744  142.8702 LP  0  0  0  0  0  0  0  0  0  0  0  0  # atno 17320 bound_to 7965
  145.1866  140.9792  143.4235 LP  0  0  0  0  0  0  0  0  0  0  0  0  # atno 17321 bound_to 7965
  140.7104  143.7406  150.7556 LP  0  0  0  0  0  0  0  0  0  0  0  0  # atno 17342 bound_to 10162
  140.0943  143.4848  152.2461 LP  0  0  0  0  0  0  0  0  0  0  0  0  # atno 17343 bound_to 10162
  155.9730  130.4660  150.6274 LP  0  0  0  0  0  0  0  0  0  0  0  0  # atno 17370 bound_to 10713
  157.3990  131.0807  151.1325 LP  0  0  0  0  0  0  0  0  0  0  0  0  # atno 17371 bound_to 10713
  140.9779  134.1444  157.4520 LP  0  0  0  0  0  0  0  0  0  0  0  0  # atno 17394 bound_to 11000
  139.8793  135.0001  156.5990 LP  0  0  0  0  0  0  0  0  0  0  0  0  # atno 17395 bound_to 11000

$$$$
