AV-unprocessed.smi:19|AV-procd|sdf|111|dock8
  -GOLD-   2262015273D 1   1.00000     0.00000
 Structure written by MMmdl.
 57 60  0  0  0  0  0  0  0  0  1 V2000
  151.4565  145.2818  159.2891 C   0  0  0  0  0  0  0  0  0  0  0  0
  150.9497  144.3161  160.1934 O   0  0  0  0  0  0  0  0  0  0  0  0
  151.9599  143.7633  161.0209 C   0  0  0  0  0  0  0  0  0  0  0  0
  152.7378  142.7057  160.2272 C   0  0  2  0  0  0  0  0  0  0  0  0
  151.8802  142.0848  159.1083 C   0  0  0  0  0  0  0  0  0  0  0  0
  152.6161  141.0112  158.4449 N   0  0  0  0  0  0  0  0  0  0  0  0
  152.1200  140.5199  157.2808 C   0  0  0  0  0  0  0  0  0  0  0  0
  152.8459  139.6276  156.5545 N   0  0  0  0  0  0  0  0  0  0  0  0
  152.3683  139.1454  155.4036 C   0  0  0  0  0  0  0  0  0  0  0  0
  151.2071  139.4147  154.8044 N   0  0  0  0  0  0  0  0  0  0  0  0
  150.4710  140.3051  155.5285 C   0  0  0  0  0  0  0  0  0  0  0  0
  150.8467  140.8974  156.7675 C   0  0  0  0  0  0  0  0  0  0  0  0
  149.8314  141.7332  157.2171 N   0  0  0  0  0  0  0  0  0  0  0  0
  148.9140  141.6467  156.2937 C   0  0  0  0  0  0  0  0  0  0  0  0
  149.2219  140.8249  155.2327 N   0  0  0  0  0  0  0  0  0  0  0  0
  148.3845  140.5455  154.0743 C   0  0  0  0  0  0  0  0  0  0  0  0
  147.4981  139.2702  154.1971 C   0  0  0  0  0  0  0  0  0  0  0  0
  146.8747  138.8958  152.8216 C   0  0  0  0  0  0  0  0  0  0  0  0
  147.8373  138.4045  151.9111 O   0  0  0  0  0  0  0  0  0  0  0  0
  148.3760  138.1198  154.7515 C   0  0  0  0  0  0  0  0  0  0  0  0
  147.5551  136.8934  155.1870 C   0  0  0  0  0  0  0  0  0  0  0  0
  146.5930  137.2797  156.1595 O   0  0  0  0  0  0  0  0  0  0  0  0
  145.6503  138.2170  155.6574 C   0  0  0  0  0  0  0  0  0  0  0  0
  146.3652  139.5119  155.2277 C   0  0  0  0  0  0  0  0  0  0  0  0
  153.1148  140.0030  159.3741 C   0  0  0  0  0  0  0  0  0  0  0  0
  153.9298  140.6718  160.4959 C   0  0  2  0  0  0  0  0  0  0  0  0
  154.3737  139.6659  161.5630 C   0  0  0  0  0  0  0  0  0  0  0  0
  153.1265  141.6675  161.1241 O   0  0  0  0  0  0  0  0  0  0  0  0
  150.6451  145.6688  158.6729 H   0  0  0  0  0  0  0  0  0  0  0  0
  152.2051  144.8470  158.6257 H   0  0  0  0  0  0  0  0  0  0  0  0
  151.9052  146.1219  159.8206 H   0  0  0  0  0  0  0  0  0  0  0  0
  152.6330  144.5404  161.3871 H   0  0  0  0  0  0  0  0  0  0  0  0
  151.4909  143.2993  161.8902 H   0  0  0  0  0  0  0  0  0  0  0  0
  153.6239  143.1697  159.7897 H   0  0  0  0  0  0  0  0  0  0  0  0
  150.9538  141.6862  159.5248 H   0  0  0  0  0  0  0  0  0  0  0  0
  151.6087  142.8538  158.3836 H   0  0  0  0  0  0  0  0  0  0  0  0
  153.0090  138.4451  154.8882 H   0  0  0  0  0  0  0  0  0  0  0  0
  147.9819  142.1887  156.3602 H   0  0  0  0  0  0  0  0  0  0  0  0
  147.7639  141.4220  153.8841 H   0  0  0  0  0  0  0  0  0  0  0  0
  149.0422  140.4620  153.2079 H   0  0  0  0  0  0  0  0  0  0  0  0
  146.1058  138.1321  152.9241 H   0  0  0  0  0  0  0  0  0  0  0  0
  146.3816  139.7564  152.3694 H   0  0  0  0  0  0  0  0  0  0  0  0
  148.5643  139.0088  151.8888 H   0  0  0  0  0  0  0  0  0  0  0  0
  149.1297  137.8204  154.0226 H   0  0  0  0  0  0  0  0  0  0  0  0
  148.9315  138.4747  155.6208 H   0  0  0  0  0  0  0  0  0  0  0  0
  147.0671  136.4125  154.3386 H   0  0  0  0  0  0  0  0  0  0  0  0
  148.2141  136.1471  155.6305 H   0  0  0  0  0  0  0  0  0  0  0  0
  145.0835  137.7778  154.8359 H   0  0  0  0  0  0  0  0  0  0  0  0
  144.9296  138.4378  156.4448 H   0  0  0  0  0  0  0  0  0  0  0  0
  146.7816  139.9796  156.1210 H   0  0  0  0  0  0  0  0  0  0  0  0
  145.6285  140.2122  154.8330 H   0  0  0  0  0  0  0  0  0  0  0  0
  152.2650  139.4647  159.7964 H   0  0  0  0  0  0  0  0  0  0  0  0
  153.7348  139.2646  158.8673 H   0  0  0  0  0  0  0  0  0  0  0  0
  154.8184  141.1433  160.0723 H   0  0  0  0  0  0  0  0  0  0  0  0
  154.9938  138.8812  161.1290 H   0  0  0  0  0  0  0  0  0  0  0  0
  153.5154  139.1904  162.0385 H   0  0  0  0  0  0  0  0  0  0  0  0
  154.9568  140.1569  162.3425 H   0  0  0  0  0  0  0  0  0  0  0  0
  1  2  1  0  0  0  0
  1 29  1  0  0  0  0
  1 30  1  0  0  0  0
  1 31  1  0  0  0  0
  2  3  1  0  0  0  0
  3  4  1  0  0  0  0
  3 32  1  0  0  0  0
  3 33  1  0  0  0  0
  4 28  1  0  0  0  0
  4  5  1  0  0  0  0
  4 34  1  0  0  0  0
  5  6  1  0  0  0  0
  5 35  1  0  0  0  0
  5 36  1  0  0  0  0
  6  7  1  0  0  0  0
  6 25  1  0  0  0  0
  7 12  1  0  0  0  0
  7  8  2  0  0  0  0
  8  9  1  0  0  0  0
  9 10  2  0  0  0  0
  9 37  1  0  0  0  0
 10 11  1  0  0  0  0
 11 15  1  0  0  0  0
 11 12  2  0  0  0  0
 12 13  1  0  0  0  0
 13 14  2  0  0  0  0
 14 15  1  0  0  0  0
 14 38  1  0  0  0  0
 15 16  1  0  0  0  0
 16 17  1  0  0  0  0
 16 39  1  0  0  0  0
 16 40  1  0  0  0  0
 17 24  1  0  0  0  0
 17 18  1  0  0  0  0
 17 20  1  0  0  0  0
 18 19  1  0  0  0  0
 18 41  1  0  0  0  0
 18 42  1  0  0  0  0
 19 43  1  0  0  0  0
 20 21  1  0  0  0  0
 20 44  1  0  0  0  0
 20 45  1  0  0  0  0
 21 22  1  0  0  0  0
 21 46  1  0  0  0  0
 21 47  1  0  0  0  0
 22 23  1  0  0  0  0
 23 24  1  0  0  0  0
 23 48  1  0  0  0  0
 23 49  1  0  0  0  0
 24 50  1  0  0  0  0
 24 51  1  0  0  0  0
 25 26  1  0  0  0  0
 25 52  1  0  0  0  0
 25 53  1  0  0  0  0
 26 27  1  0  0  0  0
 26 28  1  0  0  0  0
 26 54  1  0  0  0  0
 27 55  1  0  0  0  0
 27 56  1  0  0  0  0
 27 57  1  0  0  0  0
M  END
> <s_m_source_file>
AV-unprocessed.smi

> <i_m_source_file_index>
19

> <i_lp_mmshare_version>
43012

> <i_f3d_flags>
0

> <s_epik_input>
W0NIM11PW0NIMl1bQ0BASF0xW0NIMl1OKFtDSDJdW0NASF0oTzEpW0NIM10pYyhuW2NIXW4yKWMoYzIzKW5bY0hdbjNbQ0gyXUM0KFtDSDJdW09IXSlbQ0gyXVtDSDJdT1tDSDJdW0NIMl00

> <s_epik_cmdline>
J2VwaWtfcHl0aG9uJywgJy1waCcsICc3LjAnLCAnLXRuJywgJzgnLCAnLW1hJywgJzIwMCcsICctbWV0YWxfYmluZGluZycsICctaW1hZScsICc8aW5maWxlLm1hZT4nLCAnLW9tYWUnLCAnPG91dGZpbGUubWFlPic=

> <r_lp_tautomer_probability>
1

> <r_epik_Ionization_Penalty>
6.20357e-05

> <r_epik_Ionization_Penalty_Charging>
0

> <r_epik_Ionization_Penalty_Neutral>
6.20357e-05

> <r_epik_State_Penalty>
-0

> <r_epik_Charging_Adjusted_Penalty>
0

> <i_epik_Tot_Q>
0

> <i_epik_Tot_abs_Q>
0

> <r_epik_Metal_State_Penalty>
-0

> <b_epik_Metal_Only>
0

> <s_lp_Force_Field>
OPLS_2005

> <r_lp_Energy>
33.9592

> <b_lp_Chiralities_Consistent>
1

> <s_lp_Variant>
AV-unprocessed.smi:19-3

> <Gold.Version>
5.8.1

> <Gold.Id.Protein>
6NUR|6NUR_protein|mol2

> <Gold.PLP.Fitness>
53.9953

> <Gold.PLP.PLP>
-46.2029

> <Gold.PLP.part.hbond>
-4.2259

> <Gold.PLP.part.metal>
0.0000

> <Gold.PLP.part.buried>
-4.3447

> <Gold.PLP.part.nonpolar>
-37.4015

> <Gold.PLP.part.repulsive>
0.2855

> <Gold.PLP.ligand.clash>
0.0000

> <Gold.PLP.ligand.torsion>
1.2310

> <Gold.PLP.Chemscore.Hbond>
2.8446

> <Gold.PLP.Chemscore.CHOScore>
0.4632

> <Gold.PLP.Chemscore.Metal>
0.0000

> <Gold.Chemscore.Hbonds>
donor molecule, donor type, donor heavy atom, donor atom, acceptor molecule, acceptor atom, score
      L1  H    19    43       P1  7957  1.00
      P1  H  7954  7966       L1    19  0.40
      P1  H  7989  7998       L1    10  0.50
      P1  H  7997  8008       L1     8  1.00
      L1  C    14    38       P1  8028  0.17

> <Gold.PLP.Chemscore.Internal.Correction>
0.3310

> <Gold.Rescore>
     Score         DG    S(hbond)    S(metal)    S(lipo)     H(rot)  DE(clash)    DE(int)     intcor
     11.95     -15.62       1.69        0.00     101.33       2.87       0.95       2.72       ----

> <Gold.Chemscore.Fitness>
11.9470

> <Gold.Chemscore.DG>
-15.6204

> <Gold.Chemscore.ZeroCoef>
-5.4800

> <Gold.Chemscore.Hbond>
1.6883

> <Gold.Chemscore.Metal>
0.0000

> <Gold.Chemscore.Lipo>
101.3342

> <Gold.Chemscore.Internal_Hbond>
0.0000

> <Gold.Chemscore.DEClash>
0.9542

> <Gold.Chemscore.DEInternal>
2.7192

> <Gold.Chemscore.Rot>
2.8729

> <Gold.Chemscore.Internal.Correction>
   9.000000E+99

> <Gold.Chemscore.Hbonds>
donor molecule, donor type, donor heavy atom, donor atom, acceptor molecule, acceptor atom, score
      L1  H    19    43       P1  7957  0.89
      P1  H  7954  7966       L1    19  0.02
      P1  H  7989  7998       L1    10  0.01
      P1  H  7997  8008       L1     8  0.38

> <Gold.Chemscore.Hbond.Weighted>
-5.6390

> <Gold.Chemscore.Metal.Weighted>
-0.0000

> <Gold.Chemscore.Lipo.Weighted>
-11.8561

> <Gold.Chemscore.Internal_Hbond.Weighted>
0.0000

> <Gold.Chemscore.DEClash.Weighted>
0.9542

> <Gold.Chemscore.DEInternal.Weighted>
2.7192

> <Gold.Chemscore.Rot.Weighted>
7.3546

> <Gold.Chemscore.Internal.Correction.Weighted>
   9.000000E+99

> <Gold.Protein.RotatedTorsions>
[ 6907 6896 6895 6894 ] final -123.03 input  -60.11 | X-H torsion
[ 7974 7965 7964 7962 ] final  -95.97 input  175.53 | X-H torsion
[ 8008 7997 7996 7995 ] final  -31.37 input   59.86 | X-H torsion
[ 10167 10162 10161 10158 ] final  -64.03 input  -65.29 | X-H torsion
[ 10718 10713 10712 10709 ] final -112.13 input   66.30 | X-H torsion
[ 10763 10752 10751 10750 ] final   -7.00 input  -60.55 | X-H torsion
[ 11005 11000 10999 10996 ] final  -15.33 input  -57.11 | X-H torsion

> <Gold.Protein.ActiveResidues>
 VAL166  LYS551  ARG553  GLY616  TRP617  ASP618  TYR619  PRO620  LYS621  CYS622 
 ASP623  PHE694  ASN695  SER759  ASP760  ASP761  ALA762  ILE779  LEU786  VAL792 
 PHE793  MET794  SER795  GLU796  ALA797  LYS798  CYS799  TRP800  GLU811  SER814 

> <Gold.Protein.RotatedAtoms>
  150.8631  133.7614  159.2985 H   0  0  0  0  0  0  0  0  0  0  0  0  # atno 6907 bound_to 6896
  151.5249  135.1066  159.9897 H   0  0  0  0  0  0  0  0  0  0  0  0  # atno 6908 bound_to 6896
  152.4641  133.7841  159.6922 H   0  0  0  0  0  0  0  0  0  0  0  0  # atno 6909 bound_to 6896
  145.3530  140.9479  143.2543 H   0  0  0  0  0  0  0  0  0  0  0  0  # atno 7974 bound_to 7965
  154.4216  140.1766  156.1556 H   0  0  0  0  0  0  0  0  0  0  0  0  # atno 8008 bound_to 7997
  155.9880  140.3371  155.6701 H   0  0  0  0  0  0  0  0  0  0  0  0  # atno 8009 bound_to 7997
  155.6411  140.0680  157.2609 H   0  0  0  0  0  0  0  0  0  0  0  0  # atno 8010 bound_to 7997
  140.5829  143.2330  151.6304 H   0  0  0  0  0  0  0  0  0  0  0  0  # atno 10167 bound_to 10162
  156.0687  130.5904  150.8467 H   0  0  0  0  0  0  0  0  0  0  0  0  # atno 10718 bound_to 10713
  153.4202  135.7010  153.6299 H   0  0  0  0  0  0  0  0  0  0  0  0  # atno 10763 bound_to 10752
  153.4756  135.3705  155.2415 H   0  0  0  0  0  0  0  0  0  0  0  0  # atno 10764 bound_to 10752
  154.8721  135.4053  154.3570 H   0  0  0  0  0  0  0  0  0  0  0  0  # atno 10765 bound_to 10752
  140.7955  133.8254  155.9420 H   0  0  0  0  0  0  0  0  0  0  0  0  # atno 11005 bound_to 11000
  144.8703  139.5047  143.6770 LP  0  0  0  0  0  0  0  0  0  0  0  0  # atno 17320 bound_to 7965
  146.2960  139.7279  142.9126 LP  0  0  0  0  0  0  0  0  0  0  0  0  # atno 17321 bound_to 7965
  139.5180  144.3296  152.0838 LP  0  0  0  0  0  0  0  0  0  0  0  0  # atno 17342 bound_to 10162
  140.2449  144.4230  150.6245 LP  0  0  0  0  0  0  0  0  0  0  0  0  # atno 17343 bound_to 10162
  157.5745  131.0946  150.9366 LP  0  0  0  0  0  0  0  0  0  0  0  0  # atno 17370 bound_to 10713
  156.9575  130.5443  149.5284 LP  0  0  0  0  0  0  0  0  0  0  0  0  # atno 17371 bound_to 10713
  140.9347  134.1977  157.4840 LP  0  0  0  0  0  0  0  0  0  0  0  0  # atno 17394 bound_to 11000
  139.8727  134.9847  156.5251 LP  0  0  0  0  0  0  0  0  0  0  0  0  # atno 17395 bound_to 11000

$$$$
