AV-unprocessed.smi:1575|AV-procd|sdf|6342|dock8
  -GOLD-   22720 6563D 1   1.00000     0.00000
 Structure written by MMmdl.
 40 40  0  0  0  0  0  0  0  0  2 V2000
  142.2642  137.7994  153.0031 C   0  0  0  0  0  0  0  0  0  0  0  0
  143.6153  137.4185  152.6218 N   0  0  0  0  0  0  0  0  0  0  0  0
  144.3611  136.5226  153.2840 C   0  0  0  0  0  0  0  0  0  0  0  0
  143.9717  135.9442  154.2999 O   0  0  0  0  0  0  0  0  0  0  0  0
  145.7685  136.2592  152.7224 C   0  0  1  0  0  0  0  0  0  0  0  0
  145.6110  135.7364  151.2745 C   0  0  0  0  0  0  0  0  0  0  0  0
  145.3091  134.2253  151.1486 C   0  0  0  0  0  0  0  0  0  0  0  0
  146.6022  133.4053  151.2726 C   0  0  0  0  0  0  0  0  0  0  0  0
  144.5784  133.8773  149.8409 C   0  0  0  0  0  0  0  0  0  0  0  0
  146.5285  137.5086  152.6930 N   0  0  0  0  0  0  0  0  0  0  0  0
  146.8853  138.2243  153.7706 C   0  0  0  0  0  0  0  0  0  0  0  0
  146.6377  137.8737  154.9252 O   0  0  0  0  0  0  0  0  0  0  0  0
  147.6630  139.5174  153.4930 C   0  0  0  0  0  0  0  0  0  0  0  0
  148.9987  139.5274  154.1109 N   0  0  0  0  0  0  0  0  0  0  0  0
  149.6150  138.2885  154.3599 C   0  0  0  0  0  0  0  0  0  0  0  0
  150.8345  138.2023  154.9242 C   0  0  0  0  0  0  0  0  0  0  0  0
  151.5195  139.4387  155.2801 C   0  0  0  0  0  0  0  0  0  0  0  0
  152.6362  139.3793  155.7912 O   0  0  0  0  0  0  0  0  0  0  0  0
  150.8779  140.6159  155.0236 N   0  5  0  0  0  0  0  0  0  0  0  0
  149.6363  140.6884  154.4508 C   0  0  0  0  0  0  0  0  0  0  0  0
  149.0746  141.7618  154.2295 O   0  0  0  0  0  0  0  0  0  0  0  0
  141.8740  138.5371  152.3024 H   0  0  0  0  0  0  0  0  0  0  0  0
  142.2511  138.2368  154.0019 H   0  0  0  0  0  0  0  0  0  0  0  0
  141.6001  136.9343  152.9926 H   0  0  0  0  0  0  0  0  0  0  0  0
  144.0051  137.8539  151.7985 H   0  0  0  0  0  0  0  0  0  0  0  0
  146.2752  135.5176  153.3419 H   0  0  0  0  0  0  0  0  0  0  0  0
  144.8168  136.2919  150.7727 H   0  0  0  0  0  0  0  0  0  0  0  0
  146.5224  135.9564  150.7151 H   0  0  0  0  0  0  0  0  0  0  0  0
  144.6664  133.9271  151.9775 H   0  0  0  0  0  0  0  0  0  0  0  0
  147.3004  133.6430  150.4693 H   0  0  0  0  0  0  0  0  0  0  0  0
  146.3963  132.3353  151.2289 H   0  0  0  0  0  0  0  0  0  0  0  0
  147.1049  133.6022  152.2200 H   0  0  0  0  0  0  0  0  0  0  0  0
  145.1517  134.1944  148.9694 H   0  0  0  0  0  0  0  0  0  0  0  0
  143.5986  134.3512  149.7890 H   0  0  0  0  0  0  0  0  0  0  0  0
  144.4164  132.8022  149.7576 H   0  0  0  0  0  0  0  0  0  0  0  0
  146.7690  137.8733  151.7828 H   0  0  0  0  0  0  0  0  0  0  0  0
  147.7402  139.6402  152.4119 H   0  0  0  0  0  0  0  0  0  0  0  0
  147.0869  140.3777  153.8387 H   0  0  0  0  0  0  0  0  0  0  0  0
  149.0384  137.4214  154.0725 H   0  0  0  0  0  0  0  0  0  0  0  0
  151.2929  137.2426  155.1118 H   0  0  0  0  0  0  0  0  0  0  0  0
  1  2  1  0  0  0  0
  1 22  1  0  0  0  0
  1 23  1  0  0  0  0
  1 24  1  0  0  0  0
  2  3  1  0  0  0  0
  2 25  1  0  0  0  0
  3  4  2  0  0  0  0
  3  5  1  0  0  0  0
  5  6  1  0  0  0  0
  5 10  1  0  0  0  0
  5 26  1  0  0  0  0
  6  7  1  0  0  0  0
  6 27  1  0  0  0  0
  6 28  1  0  0  0  0
  7  8  1  0  0  0  0
  7  9  1  0  0  0  0
  7 29  1  0  0  0  0
  8 30  1  0  0  0  0
  8 31  1  0  0  0  0
  8 32  1  0  0  0  0
  9 33  1  0  0  0  0
  9 34  1  0  0  0  0
  9 35  1  0  0  0  0
 10 11  1  0  0  0  0
 10 36  1  0  0  0  0
 11 12  2  0  0  0  0
 11 13  1  0  0  0  0
 13 14  1  0  0  0  0
 13 37  1  0  0  0  0
 13 38  1  0  0  0  0
 14 20  1  0  0  0  0
 14 15  1  0  0  0  0
 15 16  2  0  0  0  0
 15 39  1  0  0  0  0
 16 17  1  0  0  0  0
 16 40  1  0  0  0  0
 17 18  2  0  0  0  0
 17 19  1  0  0  0  0
 19 20  1  0  0  0  0
 20 21  2  0  0  0  0
M  CHG  1  19  -1
M  END
> <s_m_source_file>
AV-unprocessed.smi

> <i_m_source_file_index>
1575

> <i_lp_mmshare_version>
43012

> <i_f3d_flags>
0

> <s_epik_input>
W0NIM11bTkhdQyg9TylbQ0BIXShbQ0gyXVtDSF0oW0NIM10pW0NIM10pW05IXUMoPU8pW0NIMl1uMVtjSF1bY0hdYyg9TylbbkhdYzE9Tw==

> <s_epik_cmdline>
J2VwaWtfcHl0aG9uJywgJy1waCcsICc3LjAnLCAnLXRuJywgJzgnLCAnLW1hJywgJzIwMCcsICctbWV0YWxfYmluZGluZycsICctaW1hZScsICc8aW5maWxlLm1hZT4nLCAnLW9tYWUnLCAnPG91dGZpbGUubWFlPic=

> <r_lp_tautomer_probability>
0.999537

> <r_epik_Ionization_Penalty>
3.03017

> <r_epik_Ionization_Penalty_Charging>
2.35557e-08

> <r_epik_Ionization_Penalty_Neutral>
3.03017

> <r_epik_State_Penalty>
3.02913

> <r_epik_Charging_Adjusted_Penalty>
3.02913

> <i_epik_Tot_Q>
-1

> <i_epik_Tot_abs_Q>
1

> <r_epik_Metal_State_Penalty>
0.455824

> <b_epik_Metal_Only>
1

> <s_lp_Force_Field>
OPLS_2005

> <r_lp_Energy>
14.624

> <b_lp_Chiralities_Consistent>
1

> <s_lp_Variant>
AV-unprocessed.smi:1575-4

> <Gold.Version>
5.8.1

> <Gold.Id.Protein>
6NUR|6NUR_protein|mol2

> <Gold.PLP.Fitness>
42.8311

> <Gold.PLP.PLP>
-32.5420

> <Gold.PLP.part.hbond>
-6.2494

> <Gold.PLP.part.metal>
0.0000

> <Gold.PLP.part.buried>
2.0513

> <Gold.PLP.part.nonpolar>
-27.7774

> <Gold.PLP.part.repulsive>
0.4334

> <Gold.PLP.ligand.clash>
0.0000

> <Gold.PLP.ligand.torsion>
0.8375

> <Gold.PLP.Chemscore.Hbond>
3.0519

> <Gold.PLP.Chemscore.CHOScore>
0.8994

> <Gold.PLP.Chemscore.Metal>
0.0000

> <Gold.Chemscore.Hbonds>
donor molecule, donor type, donor heavy atom, donor atom, acceptor molecule, acceptor atom, score
      L1  H     2    25       P1 10171  0.80
      P1  H  7989  7998       L1    19  0.42
      P1  H  7997  8008       L1    18  1.00
      P1  H  8011  8017       L1    21  0.39
      L1  C    15    39       P1  7948  0.97

> <Gold.PLP.Chemscore.Internal.Correction>
0.1101

> <Gold.Rescore>
     Score         DG    S(hbond)    S(metal)    S(lipo)     H(rot)  DE(clash)    DE(int)     intcor
      8.70      -9.74       1.59        0.00      51.16       2.74       0.06       0.98       ----

> <Gold.Chemscore.Fitness>
8.7012

> <Gold.Chemscore.DG>
-9.7417

> <Gold.Chemscore.ZeroCoef>
-5.4800

> <Gold.Chemscore.Hbond>
1.5865

> <Gold.Chemscore.Metal>
0.0000

> <Gold.Chemscore.Lipo>
51.1631

> <Gold.Chemscore.Internal_Hbond>
0.0000

> <Gold.Chemscore.DEClash>
0.0628

> <Gold.Chemscore.DEInternal>
0.9777

> <Gold.Chemscore.Rot>
2.7435

> <Gold.Chemscore.Internal.Correction>
   9.000000E+99

> <Gold.Chemscore.Hbonds>
donor molecule, donor type, donor heavy atom, donor atom, acceptor molecule, acceptor atom, score
      L1  H     2    25       P1 10171  0.76
      P1  H  7997  8008       L1    18  1.00
      P1  H  8011  8017       L1    21  0.21

> <Gold.Chemscore.Hbond.Weighted>
-5.2989

> <Gold.Chemscore.Metal.Weighted>
-0.0000

> <Gold.Chemscore.Lipo.Weighted>
-5.9861

> <Gold.Chemscore.Internal_Hbond.Weighted>
0.0000

> <Gold.Chemscore.DEClash.Weighted>
0.0628

> <Gold.Chemscore.DEInternal.Weighted>
0.9777

> <Gold.Chemscore.Rot.Weighted>
7.0233

> <Gold.Chemscore.Internal.Correction.Weighted>
   9.000000E+99

> <Gold.Protein.RotatedTorsions>
[ 6907 6896 6895 6894 ] final -132.93 input  -60.11 | X-H torsion
[ 7974 7965 7964 7962 ] final -132.77 input  175.53 | X-H torsion
[ 8008 7997 7996 7995 ] final  -38.04 input   59.86 | X-H torsion
[ 10167 10162 10161 10158 ] final  -25.03 input  -65.29 | X-H torsion
[ 10718 10713 10712 10709 ] final   68.22 input   66.30 | X-H torsion
[ 10763 10752 10751 10750 ] final   55.19 input  -60.55 | X-H torsion
[ 11005 11000 10999 10996 ] final -164.62 input  -57.11 | X-H torsion

> <Gold.Protein.ActiveResidues>
 VAL166  LYS551  ARG553  GLY616  TRP617  ASP618  TYR619  PRO620  LYS621  CYS622 
 ASP623  PHE694  ASN695  SER759  ASP760  ASP761  ALA762  ILE779  LEU786  VAL792 
 PHE793  MET794  SER795  GLU796  ALA797  LYS798  CYS799  TRP800  GLU811  SER814 

> <Gold.Protein.RotatedAtoms>
  150.9681  133.6373  159.2742 H   0  0  0  0  0  0  0  0  0  0  0  0  # atno 6907 bound_to 6896
  151.3672  135.0914  159.9463 H   0  0  0  0  0  0  0  0  0  0  0  0  # atno 6908 bound_to 6896
  152.5173  133.9243  159.7604 H   0  0  0  0  0  0  0  0  0  0  0  0  # atno 6909 bound_to 6896
  144.9255  140.7066  143.4938 H   0  0  0  0  0  0  0  0  0  0  0  0  # atno 7974 bound_to 7965
  154.4043  140.1588  156.2634 H   0  0  0  0  0  0  0  0  0  0  0  0  # atno 8008 bound_to 7997
  155.9016  140.3433  155.6008 H   0  0  0  0  0  0  0  0  0  0  0  0  # atno 8009 bound_to 7997
  155.7441  140.0796  157.2222 H   0  0  0  0  0  0  0  0  0  0  0  0  # atno 8010 bound_to 7997
  140.7287  143.4301  151.0816 H   0  0  0  0  0  0  0  0  0  0  0  0  # atno 10167 bound_to 10162
  157.6276  130.9362  150.0347 H   0  0  0  0  0  0  0  0  0  0  0  0  # atno 10718 bound_to 10713
  152.9814  135.5719  154.5027 H   0  0  0  0  0  0  0  0  0  0  0  0  # atno 10763 bound_to 10752
  154.4544  135.2779  155.1760 H   0  0  0  0  0  0  0  0  0  0  0  0  # atno 10764 bound_to 10752
  154.3374  135.6236  153.5633 H   0  0  0  0  0  0  0  0  0  0  0  0  # atno 10765 bound_to 10752
  140.5849  134.5104  157.5184 H   0  0  0  0  0  0  0  0  0  0  0  0  # atno 11005 bound_to 11000
  145.3227  139.1783  143.4579 LP  0  0  0  0  0  0  0  0  0  0  0  0  # atno 17320 bound_to 7965
  146.3224  140.3246  142.8636 LP  0  0  0  0  0  0  0  0  0  0  0  0  # atno 17321 bound_to 7965
  139.7956  143.8156  152.3157 LP  0  0  0  0  0  0  0  0  0  0  0  0  # atno 17342 bound_to 10162
  139.8155  144.7318  150.9641 LP  0  0  0  0  0  0  0  0  0  0  0  0  # atno 17343 bound_to 10162
  156.1458  130.3642  149.9512 LP  0  0  0  0  0  0  0  0  0  0  0  0  # atno 17370 bound_to 10713
  156.7543  130.9127  151.3639 LP  0  0  0  0  0  0  0  0  0  0  0  0  # atno 17371 bound_to 10713
  139.9300  134.7981  156.0957 LP  0  0  0  0  0  0  0  0  0  0  0  0  # atno 17394 bound_to 11000
  141.0972  133.6691  156.2673 LP  0  0  0  0  0  0  0  0  0  0  0  0  # atno 17395 bound_to 11000

$$$$
