AV-unprocessed.smi:2369|AV-procd|sdf|9433|dock3
  -GOLD-   2272013 63D 1   1.00000     0.00000
 Structure written by MMmdl.
 40 41  0  0  0  0  0  0  0  0  1 V2000
  151.9085  145.5439  159.8112 C   0  0  0  0  0  0  0  0  0  0  0  0
  151.8295  144.1582  159.2058 C   0  0  0  0  0  0  0  0  0  0  0  0
  152.6272  143.1082  159.6993 C   0  0  0  0  0  0  0  0  0  0  0  0
  152.5093  141.8423  159.0929 C   0  0  0  0  0  0  0  0  0  0  0  0
  153.3376  140.6688  159.5720 C   0  0  0  0  0  0  0  0  0  0  0  0
  151.6717  141.5937  158.0635 N   0  0  0  0  0  0  0  0  0  0  0  0
  150.8994  142.5976  157.5792 C   0  0  0  0  0  0  0  0  0  0  0  0
  149.9878  142.4403  156.5014 N   0  0  0  0  0  0  0  0  0  0  0  0
  149.9601  141.4699  155.5708 C   0  0  0  0  0  0  0  0  0  0  0  0
  150.7478  140.5257  155.5014 O   0  0  0  0  0  0  0  0  0  0  0  0
  148.9518  141.6560  154.7061 N   0  0  0  0  0  0  0  0  0  0  0  0
  148.6381  140.7853  153.5770 C   0  0  2  0  0  0  0  0  0  0  0  0
  147.3571  141.2622  152.8604 C   0  0  0  0  0  0  0  0  0  0  0  0
  146.9656  140.3132  151.7163 C   0  0  0  0  0  0  0  0  0  0  0  0
  146.8090  138.8692  152.2228 C   0  0  1  0  0  0  0  0  0  0  0  0
  146.5176  138.0167  151.1356 O   0  0  0  0  0  0  0  0  0  0  0  0
  148.0899  138.3881  152.9257 C   0  0  0  0  0  0  0  0  0  0  0  0
  148.4805  139.3349  154.0720 C   0  0  0  0  0  0  0  0  0  0  0  0
  150.9554  143.8971  158.1313 C   0  0  0  0  0  0  0  0  0  0  0  0
  152.4278  145.5264  160.7699 H   0  0  0  0  0  0  0  0  0  0  0  0
  150.9084  145.9462  159.9747 H   0  0  0  0  0  0  0  0  0  0  0  0
  152.4454  146.2170  159.1425 H   0  0  0  0  0  0  0  0  0  0  0  0
  153.3112  143.2688  160.5202 H   0  0  0  0  0  0  0  0  0  0  0  0
  153.8715  140.9111  160.4913 H   0  0  0  0  0  0  0  0  0  0  0  0
  154.0701  140.3904  158.8141 H   0  0  0  0  0  0  0  0  0  0  0  0
  152.6999  139.8062  159.7678 H   0  0  0  0  0  0  0  0  0  0  0  0
  149.2746  143.1505  156.4300 H   0  0  0  0  0  0  0  0  0  0  0  0
  148.3540  142.4586  154.8391 H   0  0  0  0  0  0  0  0  0  0  0  0
  149.4687  140.8117  152.8686 H   0  0  0  0  0  0  0  0  0  0  0  0
  146.5349  141.3244  153.5749 H   0  0  0  0  0  0  0  0  0  0  0  0
  147.4981  142.2686  152.4643 H   0  0  0  0  0  0  0  0  0  0  0  0
  146.0368  140.6534  151.2570 H   0  0  0  0  0  0  0  0  0  0  0  0
  147.7292  140.3537  150.9381 H   0  0  0  0  0  0  0  0  0  0  0  0
  145.9724  138.8195  152.9208 H   0  0  0  0  0  0  0  0  0  0  0  0
  145.7252  138.3203  150.7195 H   0  0  0  0  0  0  0  0  0  0  0  0
  147.9493  137.3785  153.3134 H   0  0  0  0  0  0  0  0  0  0  0  0
  148.9097  138.3336  152.2077 H   0  0  0  0  0  0  0  0  0  0  0  0
  149.4097  138.9924  154.5294 H   0  0  0  0  0  0  0  0  0  0  0  0
  147.7178  139.2901  154.8509 H   0  0  0  0  0  0  0  0  0  0  0  0
  150.3353  144.6890  157.7361 H   0  0  0  0  0  0  0  0  0  0  0  0
  1  2  1  0  0  0  0
  1 20  1  0  0  0  0
  1 21  1  0  0  0  0
  1 22  1  0  0  0  0
  2 19  1  0  0  0  0
  2  3  2  0  0  0  0
  3  4  1  0  0  0  0
  3 23  1  0  0  0  0
  4  5  1  0  0  0  0
  4  6  2  0  0  0  0
  5 24  1  0  0  0  0
  5 25  1  0  0  0  0
  5 26  1  0  0  0  0
  6  7  1  0  0  0  0
  7  8  1  0  0  0  0
  7 19  2  0  0  0  0
  8  9  1  0  0  0  0
  8 27  1  0  0  0  0
  9 10  2  0  0  0  0
  9 11  1  0  0  0  0
 11 12  1  0  0  0  0
 11 28  1  0  0  0  0
 12 18  1  0  0  0  0
 12 13  1  0  0  0  0
 12 29  1  0  0  0  0
 13 14  1  0  0  0  0
 13 30  1  0  0  0  0
 13 31  1  0  0  0  0
 14 15  1  0  0  0  0
 14 32  1  0  0  0  0
 14 33  1  0  0  0  0
 15 16  1  0  0  0  0
 15 17  1  0  0  0  0
 15 34  1  0  0  0  0
 16 35  1  0  0  0  0
 17 18  1  0  0  0  0
 17 36  1  0  0  0  0
 17 37  1  0  0  0  0
 18 38  1  0  0  0  0
 18 39  1  0  0  0  0
 19 40  1  0  0  0  0
M  END
> <s_m_source_file>
AV-unprocessed.smi

> <i_m_source_file_index>
2369

> <i_lp_mmshare_version>
43012

> <i_f3d_flags>
0

> <s_epik_input>
W0NIM11jMVtjSF1jKFtDSDNdKW5jKFtjSF0xKVtOSF1DKD1PKVtOSF1bQ0BASF0yW0NIMl1bQ0gyXVtDQEBIXShbT0hdKVtDSDJdW0NIMl0y

> <s_epik_cmdline>
J2VwaWtfcHl0aG9uJywgJy1waCcsICc3LjAnLCAnLXRuJywgJzgnLCAnLW1hJywgJzIwMCcsICctbWV0YWxfYmluZGluZycsICctaW1hZScsICc8aW5maWxlLm1hZT4nLCAnLW9tYWUnLCAnPG91dGZpbGUubWFlPic=

> <r_lp_tautomer_probability>
1

> <r_epik_Ionization_Penalty>
0.000274852

> <r_epik_Ionization_Penalty_Charging>
0

> <r_epik_Ionization_Penalty_Neutral>
0.000274852

> <r_epik_State_Penalty>
-0

> <r_epik_Charging_Adjusted_Penalty>
0

> <i_epik_Tot_Q>
0

> <i_epik_Tot_abs_Q>
0

> <r_epik_Metal_State_Penalty>
-0

> <b_epik_Metal_Only>
0

> <s_lp_Force_Field>
OPLS_2005

> <r_lp_Energy>
9.3444

> <b_lp_Chiralities_Consistent>
1

> <s_lp_Variant>
AV-unprocessed.smi:2369-1

> <Gold.Version>
5.8.1

> <Gold.Id.Protein>
6NUR|6NUR_protein|mol2

> <Gold.PLP.Fitness>
45.3059

> <Gold.PLP.PLP>
-36.1682

> <Gold.PLP.part.hbond>
-5.1185

> <Gold.PLP.part.metal>
0.0000

> <Gold.PLP.part.buried>
8.7593

> <Gold.PLP.part.nonpolar>
-39.3694

> <Gold.PLP.part.repulsive>
0.3063

> <Gold.PLP.ligand.clash>
0.0000

> <Gold.PLP.ligand.torsion>
0.1061

> <Gold.PLP.Chemscore.Hbond>
3.1156

> <Gold.PLP.Chemscore.CHOScore>
0.0000

> <Gold.PLP.Chemscore.Metal>
0.0000

> <Gold.Chemscore.Hbonds>
donor molecule, donor type, donor heavy atom, donor atom, acceptor molecule, acceptor atom, score
      L1  H     8    27       P1  8028  0.86
      L1  H    16    35       P1 10171  0.91
      P1  H  7954  7966       L1    16  0.91
      P1  H  7989  7998       L1    10  0.52

> <Gold.PLP.Chemscore.Internal.Correction>
0.0032

> <Gold.Rescore>
     Score         DG    S(hbond)    S(metal)    S(lipo)     H(rot)  DE(clash)    DE(int)     intcor
     16.58     -24.12       2.54        0.00     118.00       1.42       5.20       2.34       ----

> <Gold.Chemscore.Fitness>
16.5756

> <Gold.Chemscore.DG>
-24.1200

> <Gold.Chemscore.ZeroCoef>
-5.4800

> <Gold.Chemscore.Hbond>
2.5368

> <Gold.Chemscore.Metal>
0.0000

> <Gold.Chemscore.Lipo>
117.9963

> <Gold.Chemscore.Internal_Hbond>
0.0000

> <Gold.Chemscore.DEClash>
5.1995

> <Gold.Chemscore.DEInternal>
2.3449

> <Gold.Chemscore.Rot>
1.4213

> <Gold.Chemscore.Internal.Correction>
   9.000000E+99

> <Gold.Chemscore.Hbonds>
donor molecule, donor type, donor heavy atom, donor atom, acceptor molecule, acceptor atom, score
      L1  H     8    27       P1  8028  0.86
      L1  H    11    28       P1  8028  0.03
      L1  H    16    35       P1 10171  0.87
      P1  H  7954  7966       L1    16  0.59
      P1  H  7989  7998       L1    10  0.13

> <Gold.Chemscore.Hbond.Weighted>
-8.4730

> <Gold.Chemscore.Metal.Weighted>
-0.0000

> <Gold.Chemscore.Lipo.Weighted>
-13.8056

> <Gold.Chemscore.Internal_Hbond.Weighted>
0.0000

> <Gold.Chemscore.DEClash.Weighted>
5.1995

> <Gold.Chemscore.DEInternal.Weighted>
2.3449

> <Gold.Chemscore.Rot.Weighted>
3.6386

> <Gold.Chemscore.Internal.Correction.Weighted>
   9.000000E+99

> <Gold.Protein.RotatedTorsions>
[ 6907 6896 6895 6894 ] final   62.82 input  -60.11 | X-H torsion
[ 7974 7965 7964 7962 ] final  109.15 input  175.53 | X-H torsion
[ 8008 7997 7996 7995 ] final   90.88 input   59.86 | X-H torsion
[ 10167 10162 10161 10158 ] final -109.46 input  -65.29 | X-H torsion
[ 10718 10713 10712 10709 ] final  -38.46 input   66.30 | X-H torsion
[ 10763 10752 10751 10750 ] final    0.73 input  -60.55 | X-H torsion
[ 11005 11000 10999 10996 ] final  -80.57 input  -57.11 | X-H torsion

> <Gold.Protein.ActiveResidues>
 VAL166  LYS551  ARG553  GLY616  TRP617  ASP618  TYR619  PRO620  LYS621  CYS622 
 ASP623  PHE694  ASN695  SER759  ASP760  ASP761  ALA762  ILE779  LEU786  VAL792 
 PHE793  MET794  SER795  GLU796  ALA797  LYS798  CYS799  TRP800  GLU811  SER814 

> <Gold.Protein.RotatedAtoms>
  152.4203  134.5967  159.9988 H   0  0  0  0  0  0  0  0  0  0  0  0  # atno 6907 bound_to 6896
  151.6118  133.3341  159.3077 H   0  0  0  0  0  0  0  0  0  0  0  0  # atno 6908 bound_to 6896
  150.8091  134.7274  159.6737 H   0  0  0  0  0  0  0  0  0  0  0  0  # atno 6909 bound_to 6896
  145.2715  139.2665  143.3964 H   0  0  0  0  0  0  0  0  0  0  0  0  # atno 7974 bound_to 7965
  156.0172  140.3344  155.7001 H   0  0  0  0  0  0  0  0  0  0  0  0  # atno 8008 bound_to 7997
  155.6074  140.0662  157.2733 H   0  0  0  0  0  0  0  0  0  0  0  0  # atno 8009 bound_to 7997
  154.4302  140.1799  156.1224 H   0  0  0  0  0  0  0  0  0  0  0  0  # atno 8010 bound_to 7997
  140.1550  143.4167  152.1467 H   0  0  0  0  0  0  0  0  0  0  0  0  # atno 10167 bound_to 10162
  156.3035  130.4243  149.8120 H   0  0  0  0  0  0  0  0  0  0  0  0  # atno 10718 bound_to 10713
  153.3169  135.6966  153.7065 H   0  0  0  0  0  0  0  0  0  0  0  0  # atno 10763 bound_to 10752
  153.5920  135.3478  155.2915 H   0  0  0  0  0  0  0  0  0  0  0  0  # atno 10764 bound_to 10752
  154.8588  135.4320  154.2323 H   0  0  0  0  0  0  0  0  0  0  0  0  # atno 10765 bound_to 10752
  141.1668  133.7156  156.8293 H   0  0  0  0  0  0  0  0  0  0  0  0  # atno 11005 bound_to 11000
  146.3245  140.3159  142.8630 LP  0  0  0  0  0  0  0  0  0  0  0  0  # atno 17320 bound_to 7965
  144.9331  140.7997  143.5677 LP  0  0  0  0  0  0  0  0  0  0  0  0  # atno 17321 bound_to 7965
  139.5407  144.7254  151.4742 LP  0  0  0  0  0  0  0  0  0  0  0  0  # atno 17342 bound_to 10162
  140.6678  143.8359  150.6963 LP  0  0  0  0  0  0  0  0  0  0  0  0  # atno 17343 bound_to 10162
  156.5489  130.8333  151.3293 LP  0  0  0  0  0  0  0  0  0  0  0  0  # atno 17370 bound_to 10713
  157.7374  130.9795  150.2189 LP  0  0  0  0  0  0  0  0  0  0  0  0  # atno 17371 bound_to 10713
  140.2063  134.8860  157.3225 LP  0  0  0  0  0  0  0  0  0  0  0  0  # atno 17394 bound_to 11000
  140.2134  134.4111  155.7601 LP  0  0  0  0  0  0  0  0  0  0  0  0  # atno 17395 bound_to 11000

$$$$
