AV-unprocessed.smi:287|AV-procd|sdf|2182|dock2
  -GOLD-   2262021553D 1   1.00000     0.00000
 Structure written by MMmdl.
 55 58  0  0  0  0  0  0  0  0  1 V2000
  152.4439  143.6411  161.5967 C   0  0  0  0  0  0  0  0  0  0  0  0
  152.6198  142.4725  160.6887 C   0  0  0  0  0  0  0  0  0  0  0  0
  151.8069  141.8399  159.7938 C   0  0  0  0  0  0  0  0  0  0  0  0
  152.5579  140.7737  159.2149 C   0  0  0  0  0  0  0  0  0  0  0  0
  152.0565  139.7958  158.1603 C   0  0  2  0  0  0  0  0  0  0  0  0
  152.2383  138.3527  158.6594 C   0  0  0  0  0  0  0  0  0  0  0  0
  152.7877  139.8687  156.9516 O   0  0  0  0  0  0  0  0  0  0  0  0
  150.5788  140.0422  157.7785 C   0  0  0  0  0  0  0  0  0  0  0  0
  149.9464  138.8801  157.1673 N   0  0  0  0  0  0  0  0  0  0  0  0
  149.2478  138.9945  156.0181 C   0  0  0  0  0  0  0  0  0  0  0  0
  149.7081  139.9238  155.1467 N   0  0  0  0  0  0  0  0  0  0  0  0
  149.0843  140.1205  153.9818 C   0  0  0  0  0  0  0  0  0  0  0  0
  148.0034  139.5046  153.4996 N   0  0  0  0  0  0  0  0  0  0  0  0
  147.5365  138.5632  154.3699 C   0  0  0  0  0  0  0  0  0  0  0  0
  148.0927  138.2456  155.6419 C   0  0  0  0  0  0  0  0  0  0  0  0
  147.3358  137.2375  156.2300 N   0  0  0  0  0  0  0  0  0  0  0  0
  146.3944  136.9856  155.3613 C   0  0  0  0  0  0  0  0  0  0  0  0
  146.4493  137.7332  154.2047 N   0  0  0  0  0  0  0  0  0  0  0  0
  145.5372  137.7208  153.0160 C   0  0  2  0  0  0  0  0  0  0  0  0
  144.4217  136.9420  153.3295 O   0  0  0  0  0  0  0  0  0  0  0  0
  144.6173  135.6170  152.8462 C   0  0  1  0  0  0  0  0  0  0  0  0
  143.2912  134.8388  152.7893 C   0  0  0  0  0  0  0  0  0  0  0  0
  143.5178  133.5329  152.3030 O   0  0  0  0  0  0  0  0  0  0  0  0
  145.2964  135.8763  151.4963 C   0  0  1  0  0  0  0  0  0  0  0  0
  144.3316  136.2112  150.5113 O   0  0  0  0  0  0  0  0  0  0  0  0
  146.2343  137.0386  151.8225 C   0  0  1  0  0  0  0  0  0  0  0  0
  146.4382  137.9046  150.7215 O   0  0  0  0  0  0  0  0  0  0  0  0
  153.7859  140.8367  159.8291 C   0  0  0  0  0  0  0  0  0  0  0  0
  155.0404  140.0335  159.7273 C   0  0  0  0  0  0  0  0  0  0  0  0
  153.8325  141.8661  160.7199 O   0  0  0  0  0  0  0  0  0  0  0  0
  145.2657  138.7657  152.8590 H   0  0  0  0  0  0  0  0  0  0  0  0
  145.3277  135.0968  153.4918 H   0  0  0  0  0  0  0  0  0  0  0  0
  145.8480  135.0029  151.1471 H   0  0  0  0  0  0  0  0  0  0  0  0
  147.1997  136.6427  152.1424 H   0  0  0  0  0  0  0  0  0  0  0  0
  151.5153  144.1682  161.3778 H   0  0  0  0  0  0  0  0  0  0  0  0
  153.2671  144.3470  161.4837 H   0  0  0  0  0  0  0  0  0  0  0  0
  152.4133  143.3197  162.6377 H   0  0  0  0  0  0  0  0  0  0  0  0
  150.7863  142.1146  159.5726 H   0  0  0  0  0  0  0  0  0  0  0  0
  151.6766  138.1784  159.5779 H   0  0  0  0  0  0  0  0  0  0  0  0
  153.2862  138.1349  158.8697 H   0  0  0  0  0  0  0  0  0  0  0  0
  151.8911  137.6274  157.9224 H   0  0  0  0  0  0  0  0  0  0  0  0
  152.1792  139.9987  156.2404 H   0  0  0  0  0  0  0  0  0  0  0  0
  150.0073  140.3752  158.6459 H   0  0  0  0  0  0  0  0  0  0  0  0
  150.5412  140.8489  157.0451 H   0  0  0  0  0  0  0  0  0  0  0  0
  150.1338  137.9949  157.6160 H   0  0  0  0  0  0  0  0  0  0  0  0
  149.5126  140.8807  153.3453 H   0  0  0  0  0  0  0  0  0  0  0  0
  145.6334  136.2421  155.5489 H   0  0  0  0  0  0  0  0  0  0  0  0
  142.8088  134.7992  153.7663 H   0  0  0  0  0  0  0  0  0  0  0  0
  142.5986  135.3270  152.1029 H   0  0  0  0  0  0  0  0  0  0  0  0
  143.6777  132.9624  153.0392 H   0  0  0  0  0  0  0  0  0  0  0  0
  144.4340  137.1260  150.2958 H   0  0  0  0  0  0  0  0  0  0  0  0
  145.5955  138.1118  150.3461 H   0  0  0  0  0  0  0  0  0  0  0  0
  154.8320  138.9722  159.8625 H   0  0  0  0  0  0  0  0  0  0  0  0
  155.7632  140.3312  160.4877 H   0  0  0  0  0  0  0  0  0  0  0  0
  155.5059  140.1673  158.7508 H   0  0  0  0  0  0  0  0  0  0  0  0
  1  2  1  0  0  0  0
  1 35  1  0  0  0  0
  1 36  1  0  0  0  0
  1 37  1  0  0  0  0
  2 30  1  0  0  0  0
  2  3  2  0  0  0  0
  3  4  1  0  0  0  0
  3 38  1  0  0  0  0
  4  5  1  0  0  0  0
  4 28  2  0  0  0  0
  5  6  1  0  0  0  0
  5  7  1  0  0  0  0
  5  8  1  0  0  0  0
  6 39  1  0  0  0  0
  6 40  1  0  0  0  0
  6 41  1  0  0  0  0
  7 42  1  0  0  0  0
  8  9  1  0  0  0  0
  8 43  1  0  0  0  0
  8 44  1  0  0  0  0
  9 10  1  0  0  0  0
  9 45  1  0  0  0  0
 10 15  1  0  0  0  0
 10 11  2  0  0  0  0
 11 12  1  0  0  0  0
 12 13  2  0  0  0  0
 12 46  1  0  0  0  0
 13 14  1  0  0  0  0
 14 18  1  0  0  0  0
 14 15  2  0  0  0  0
 15 16  1  0  0  0  0
 16 17  2  0  0  0  0
 17 18  1  0  0  0  0
 17 47  1  0  0  0  0
 18 19  1  0  0  0  0
 19 31  1  0  0  0  0
 19 26  1  0  0  0  0
 19 20  1  0  0  0  0
 20 21  1  0  0  0  0
 21 32  1  0  0  0  0
 21 22  1  0  0  0  0
 21 24  1  0  0  0  0
 22 23  1  0  0  0  0
 22 48  1  0  0  0  0
 22 49  1  0  0  0  0
 23 50  1  0  0  0  0
 24 33  1  0  0  0  0
 24 25  1  0  0  0  0
 24 26  1  0  0  0  0
 25 51  1  0  0  0  0
 26 34  1  0  0  0  0
 26 27  1  0  0  0  0
 27 52  1  0  0  0  0
 28 29  1  0  0  0  0
 28 30  1  0  0  0  0
 29 53  1  0  0  0  0
 29 54  1  0  0  0  0
 29 55  1  0  0  0  0
M  END
> <s_m_source_file>
AV-unprocessed.smi

> <i_m_source_file_index>
287

> <i_lp_mmshare_version>
43012

> <i_f3d_flags>
0

> <s_epik_input>
W0NIM11jMVtjSF1jKGMobzEpW0NIM10pW0NAQF0oW0NIM10pKFtPSF0pW0NIMl1bTkhdYyhuW2NIXW4yKWMoYzIzKW5bY0hdbjNbQ0BASF00T1tDQEhdKFtDSDJdW09IXSlbQ0BASF0oW09IXSlbQ0BIXTRbT0hd

> <s_epik_cmdline>
J2VwaWtfcHl0aG9uJywgJy1waCcsICc3LjAnLCAnLXRuJywgJzgnLCAnLW1hJywgJzIwMCcsICctbWV0YWxfYmluZGluZycsICctaW1hZScsICc8aW5maWxlLm1hZT4nLCAnLW9tYWUnLCAnPG91dGZpbGUubWFlPic=

> <r_lp_tautomer_probability>
1

> <r_epik_Ionization_Penalty>
0.000992612

> <r_epik_Ionization_Penalty_Charging>
0

> <r_epik_Ionization_Penalty_Neutral>
0.000992612

> <r_epik_State_Penalty>
-0

> <r_epik_Charging_Adjusted_Penalty>
0

> <i_epik_Tot_Q>
0

> <i_epik_Tot_abs_Q>
0

> <r_epik_Metal_State_Penalty>
-0

> <b_epik_Metal_Only>
0

> <s_epik_Chemistry_Notes>
This compound contains an acetal/aminal-like group ( X-CH(R)-Y where X, Y are N, S, or O) that may be acid/base labile, releasing an aldehyde.

> <s_lp_Force_Field>
OPLS_2005

> <r_lp_Energy>
45.3255

> <b_lp_Chiralities_Consistent>
1

> <s_lp_Variant>
AV-unprocessed.smi:287-6

> <Gold.Version>
5.8.1

> <Gold.Id.Protein>
6NUR|6NUR_protein|mol2

> <Gold.PLP.Fitness>
53.2712

> <Gold.PLP.PLP>
-37.6038

> <Gold.PLP.part.hbond>
-6.0000

> <Gold.PLP.part.metal>
0.0000

> <Gold.PLP.part.buried>
-5.1345

> <Gold.PLP.part.nonpolar>
-28.2466

> <Gold.PLP.part.repulsive>
1.9064

> <Gold.PLP.ligand.clash>
0.0000

> <Gold.PLP.ligand.torsion>
0.8875

> <Gold.PLP.Chemscore.Hbond>
4.9920

> <Gold.PLP.Chemscore.CHOScore>
0.7349

> <Gold.PLP.Chemscore.Metal>
0.0000

> <Gold.Chemscore.Hbonds>
donor molecule, donor type, donor heavy atom, donor atom, acceptor molecule, acceptor atom, score
      L1  H    23    50       P1 10957  0.22
      L1  H    25    51       P1 10171  1.00
      L1  H    27    52       P1 10171  1.00
      P1  H  7954  7966       L1    27  1.00
      P1  H  7997  8010       L1     7  1.00
      L1  C    12    46       P1  7957  0.58

> <Gold.PLP.Chemscore.Internal.Correction>
0.2618

> <Gold.Rescore>
     Score         DG    S(hbond)    S(metal)    S(lipo)     H(rot)  DE(clash)    DE(int)     intcor
     15.81     -17.41       4.58        0.00      86.35       5.27       0.58       1.02       ----

> <Gold.Chemscore.Fitness>
15.8098

> <Gold.Chemscore.DG>
-17.4062

> <Gold.Chemscore.ZeroCoef>
-5.4800

> <Gold.Chemscore.Hbond>
4.5828

> <Gold.Chemscore.Metal>
0.0000

> <Gold.Chemscore.Lipo>
86.3546

> <Gold.Chemscore.Internal_Hbond>
0.0000

> <Gold.Chemscore.DEClash>
0.5752

> <Gold.Chemscore.DEInternal>
1.0212

> <Gold.Chemscore.Rot>
5.2672

> <Gold.Chemscore.Internal.Correction>
   9.000000E+99

> <Gold.Chemscore.Hbonds>
donor molecule, donor type, donor heavy atom, donor atom, acceptor molecule, acceptor atom, score
      L1  H    23    50       P1 10957  0.11
      L1  H    25    51       P1 10171  0.96
      L1  H    27    52       P1 10171  1.00
      P1  H  7954  7966       L1    27  0.91
      P1  H  7997  8010       L1     7  0.88

> <Gold.Chemscore.Hbond.Weighted>
-15.3067

> <Gold.Chemscore.Metal.Weighted>
-0.0000

> <Gold.Chemscore.Lipo.Weighted>
-10.1035

> <Gold.Chemscore.Internal_Hbond.Weighted>
0.0000

> <Gold.Chemscore.DEClash.Weighted>
0.5752

> <Gold.Chemscore.DEInternal.Weighted>
1.0212

> <Gold.Chemscore.Rot.Weighted>
13.4839

> <Gold.Chemscore.Internal.Correction.Weighted>
   9.000000E+99

> <Gold.Protein.RotatedTorsions>
[ 6907 6896 6895 6894 ] final   44.44 input  -60.11 | X-H torsion
[ 7974 7965 7964 7962 ] final   85.04 input  175.53 | X-H torsion
[ 8008 7997 7996 7995 ] final   65.50 input   59.86 | X-H torsion
[ 10167 10162 10161 10158 ] final  140.27 input  -65.29 | X-H torsion
[ 10718 10713 10712 10709 ] final  143.26 input   66.30 | X-H torsion
[ 10763 10752 10751 10750 ] final  112.28 input  -60.55 | X-H torsion
[ 11005 11000 10999 10996 ] final   12.98 input  -57.11 | X-H torsion

> <Gold.Protein.ActiveResidues>
 VAL166  LYS551  ARG553  GLY616  TRP617  ASP618  TYR619  PRO620  LYS621  CYS622 
 ASP623  PHE694  ASN695  SER759  ASP760  ASP761  ALA762  ILE779  LEU786  VAL792 
 PHE793  MET794  SER795  GLU796  ALA797  LYS798  CYS799  TRP800  GLU811  SER814 

> <Gold.Protein.RotatedAtoms>
  152.2325  134.8307  160.0471 H   0  0  0  0  0  0  0  0  0  0  0  0  # atno 6907 bound_to 6896
  151.9051  133.3542  159.3852 H   0  0  0  0  0  0  0  0  0  0  0  0  # atno 6908 bound_to 6896
  150.7030  134.4714  159.5471 H   0  0  0  0  0  0  0  0  0  0  0  0  # atno 6909 bound_to 6896
  145.5908  139.2338  143.2300 H   0  0  0  0  0  0  0  0  0  0  0  0  # atno 7974 bound_to 7965
  155.6628  140.3497  155.4789 H   0  0  0  0  0  0  0  0  0  0  0  0  # atno 8008 bound_to 7997
  155.9754  140.1164  157.0797 H   0  0  0  0  0  0  0  0  0  0  0  0  # atno 8009 bound_to 7997
  154.4177  140.1148  156.5350 H   0  0  0  0  0  0  0  0  0  0  0  0  # atno 8010 bound_to 7997
  139.5054  144.6244  151.5972 H   0  0  0  0  0  0  0  0  0  0  0  0  # atno 10167 bound_to 10162
  157.3710  131.0979  151.0828 H   0  0  0  0  0  0  0  0  0  0  0  0  # atno 10718 bound_to 10713
  153.4755  135.3691  155.2414 H   0  0  0  0  0  0  0  0  0  0  0  0  # atno 10763 bound_to 10752
  154.8756  135.3942  154.3761 H   0  0  0  0  0  0  0  0  0  0  0  0  # atno 10764 bound_to 10752
  153.4356  135.7083  153.6267 H   0  0  0  0  0  0  0  0  0  0  0  0  # atno 10765 bound_to 10752
  140.4859  134.0889  155.7760 H   0  0  0  0  0  0  0  0  0  0  0  0  # atno 11005 bound_to 11000
  146.1648  140.6734  142.9260 LP  0  0  0  0  0  0  0  0  0  0  0  0  # atno 17320 bound_to 7965
  144.7352  140.4788  143.6909 LP  0  0  0  0  0  0  0  0  0  0  0  0  # atno 17321 bound_to 7965
  140.5956  143.9701  150.6352 LP  0  0  0  0  0  0  0  0  0  0  0  0  # atno 17342 bound_to 10162
  140.2896  143.3333  152.1075 LP  0  0  0  0  0  0  0  0  0  0  0  0  # atno 17343 bound_to 10162
  157.1932  130.6361  149.5712 LP  0  0  0  0  0  0  0  0  0  0  0  0  # atno 17370 bound_to 10713
  155.9755  130.4715  150.6468 LP  0  0  0  0  0  0  0  0  0  0  0  0  # atno 17371 bound_to 10713
  141.1508  133.8972  157.2102 LP  0  0  0  0  0  0  0  0  0  0  0  0  # atno 17394 bound_to 11000
  139.9798  135.0102  156.9722 LP  0  0  0  0  0  0  0  0  0  0  0  0  # atno 17395 bound_to 11000

$$$$
