AV-unprocessed.smi:2212|AV-procd|sdf|8951|dock1
  -GOLD-   2272012163D 1   1.00000     0.00000
 Structure written by MMmdl.
 31 32  0  0  0  0  0  0  0  0  1 V2000
  151.7026  140.5946  156.1620 C   0  0  0  0  0  0  0  0  0  0  0  0
  150.8762  140.5425  155.0062 O   0  0  0  0  0  0  0  0  0  0  0  0
  150.2300  139.2940  154.7550 C   0  0  0  0  0  0  0  0  0  0  0  0
  151.2382  138.1819  154.4340 C   0  0  0  0  0  0  0  0  0  0  0  0
  150.5508  136.9608  154.0358 N   0  0  0  0  0  0  0  0  0  0  0  0
  150.7793  135.7554  154.5721 C   0  0  0  0  0  0  0  0  0  0  0  0
  151.6076  135.5521  155.4604 O   0  0  0  0  0  0  0  0  0  0  0  0
  149.9962  134.8159  154.0203 N   0  0  0  0  0  0  0  0  0  0  0  0
  149.9767  133.4415  154.3519 C   0  0  0  0  0  0  0  0  0  0  0  0
  149.1347  132.5782  153.7904 N   0  0  0  0  0  0  0  0  0  0  0  0
  149.4417  131.3619  154.3845 C   0  0  0  0  0  0  0  0  0  0  0  0
  150.4620  131.5652  155.2786 C   0  0  0  0  0  0  0  0  0  0  0  0
  150.8152  132.8878  155.2697 O   0  0  0  0  0  0  0  0  0  0  0  0
  149.2235  139.0415  155.8935 C   0  0  0  0  0  0  0  0  0  0  0  0
  148.1851  138.6552  154.8386 C   0  0  0  0  0  0  0  0  0  0  0  0
  149.0036  139.4716  153.8372 C   0  0  0  0  0  0  0  0  0  0  0  0
  152.2209  141.5529  156.1871 H   0  0  0  0  0  0  0  0  0  0  0  0
  152.4591  139.8098  156.1589 H   0  0  0  0  0  0  0  0  0  0  0  0
  151.1203  140.5179  157.0799 H   0  0  0  0  0  0  0  0  0  0  0  0
  151.8962  138.4922  153.6209 H   0  0  0  0  0  0  0  0  0  0  0  0
  151.8888  137.9791  155.2854 H   0  0  0  0  0  0  0  0  0  0  0  0
  149.8508  137.0458  153.3132 H   0  0  0  0  0  0  0  0  0  0  0  0
  149.3545  135.1087  153.2986 H   0  0  0  0  0  0  0  0  0  0  0  0
  148.9154  130.4544  154.1275 H   0  0  0  0  0  0  0  0  0  0  0  0
  151.0102  130.9214  155.9504 H   0  0  0  0  0  0  0  0  0  0  0  0
  149.4927  138.2353  156.5766 H   0  0  0  0  0  0  0  0  0  0  0  0
  148.9493  139.9483  156.4359 H   0  0  0  0  0  0  0  0  0  0  0  0
  148.1826  137.5871  154.6156 H   0  0  0  0  0  0  0  0  0  0  0  0
  147.1802  139.0346  155.0254 H   0  0  0  0  0  0  0  0  0  0  0  0
  148.6603  140.5054  153.7676 H   0  0  0  0  0  0  0  0  0  0  0  0
  149.0991  139.0142  152.8520 H   0  0  0  0  0  0  0  0  0  0  0  0
  1  2  1  0  0  0  0
  1 17  1  0  0  0  0
  1 18  1  0  0  0  0
  1 19  1  0  0  0  0
  2  3  1  0  0  0  0
  3 16  1  0  0  0  0
  3  4  1  0  0  0  0
  3 14  1  0  0  0  0
  4  5  1  0  0  0  0
  4 20  1  0  0  0  0
  4 21  1  0  0  0  0
  5  6  1  0  0  0  0
  5 22  1  0  0  0  0
  6  7  2  0  0  0  0
  6  8  1  0  0  0  0
  8  9  1  0  0  0  0
  8 23  1  0  0  0  0
  9 13  1  0  0  0  0
  9 10  2  0  0  0  0
 10 11  1  0  0  0  0
 11 12  2  0  0  0  0
 11 24  1  0  0  0  0
 12 13  1  0  0  0  0
 12 25  1  0  0  0  0
 14 15  1  0  0  0  0
 14 26  1  0  0  0  0
 14 27  1  0  0  0  0
 15 16  1  0  0  0  0
 15 28  1  0  0  0  0
 15 29  1  0  0  0  0
 16 30  1  0  0  0  0
 16 31  1  0  0  0  0
M  END
> <s_m_source_file>
AV-unprocessed.smi

> <i_m_source_file_index>
2212

> <i_lp_mmshare_version>
43012

> <i_f3d_flags>
0

> <s_epik_input>
W0NIMl0xW0NIMl1bQ0gyXUMxKE9bQ0gzXSlbQ0gyXVtOSF1DKD1PKVtOSF1jMm5bY0hdW2NIXW8y

> <s_epik_cmdline>
J2VwaWtfcHl0aG9uJywgJy1waCcsICc3LjAnLCAnLXRuJywgJzgnLCAnLW1hJywgJzIwMCcsICctbWV0YWxfYmluZGluZycsICctaW1hZScsICc8aW5maWxlLm1hZT4nLCAnLW9tYWUnLCAnPG91dGZpbGUubWFlPic=

> <r_lp_tautomer_probability>
0.785861

> <r_epik_Ionization_Penalty>
4.58897e-05

> <r_epik_Ionization_Penalty_Charging>
0

> <r_epik_Ionization_Penalty_Neutral>
4.58897e-05

> <r_epik_State_Penalty>
0.0380021

> <r_epik_Charging_Adjusted_Penalty>
0.0380021

> <i_epik_Tot_Q>
0

> <i_epik_Tot_abs_Q>
0

> <r_epik_Metal_State_Penalty>
0.0585611

> <b_epik_Metal_Only>
0

> <s_lp_Force_Field>
OPLS_2005

> <r_lp_Energy>
14.4029

> <b_lp_Chiralities_Consistent>
1

> <s_lp_Variant>
AV-unprocessed.smi:2212-1

> <Gold.Version>
5.8.1

> <Gold.Id.Protein>
6NUR|6NUR_protein|mol2

> <Gold.PLP.Fitness>
34.2944

> <Gold.PLP.PLP>
-22.9585

> <Gold.PLP.part.hbond>
-5.4219

> <Gold.PLP.part.metal>
0.0000

> <Gold.PLP.part.buried>
1.3484

> <Gold.PLP.part.nonpolar>
-18.6703

> <Gold.PLP.part.repulsive>
0.3411

> <Gold.PLP.ligand.clash>
0.0000

> <Gold.PLP.ligand.torsion>
0.2435

> <Gold.PLP.Chemscore.Hbond>
3.8384

> <Gold.PLP.Chemscore.CHOScore>
0.0000

> <Gold.PLP.Chemscore.Metal>
0.0000

> <Gold.Chemscore.Hbonds>
donor molecule, donor type, donor heavy atom, donor atom, acceptor molecule, acceptor atom, score
      L1  H     5    22       P1  7948  0.93
      L1  H     8    23       P1  7948  0.63
      P1  H  7989  7998       L1     2  1.00
      P1  H 10752 10763       L1     7  0.98

> <Gold.PLP.Chemscore.Internal.Correction>
0.3078

> <Gold.Rescore>
     Score         DG    S(hbond)    S(metal)    S(lipo)     H(rot)  DE(clash)    DE(int)     intcor
     11.29     -14.17       2.48        0.00      39.49       1.64       0.01       2.88       ----

> <Gold.Chemscore.Fitness>
11.2872

> <Gold.Chemscore.DG>
-14.1706

> <Gold.Chemscore.ZeroCoef>
-5.4800

> <Gold.Chemscore.Hbond>
2.4766

> <Gold.Chemscore.Metal>
0.0000

> <Gold.Chemscore.Lipo>
39.4866

> <Gold.Chemscore.Internal_Hbond>
0.0000

> <Gold.Chemscore.DEClash>
0.0050

> <Gold.Chemscore.DEInternal>
2.8783

> <Gold.Chemscore.Rot>
1.6411

> <Gold.Chemscore.Internal.Correction>
   9.000000E+99

> <Gold.Chemscore.Hbonds>
donor molecule, donor type, donor heavy atom, donor atom, acceptor molecule, acceptor atom, score
      L1  H     5    22       P1  7948  0.36
      L1  H     8    23       P1  7948  0.05
      P1  H  7989  7998       L1     2  0.35
      P1  H 10752 10763       L1     7  0.87

> <Gold.Chemscore.Hbond.Weighted>
-8.2718

> <Gold.Chemscore.Metal.Weighted>
-0.0000

> <Gold.Chemscore.Lipo.Weighted>
-4.6199

> <Gold.Chemscore.Internal_Hbond.Weighted>
0.0000

> <Gold.Chemscore.DEClash.Weighted>
0.0050

> <Gold.Chemscore.DEInternal.Weighted>
2.8783

> <Gold.Chemscore.Rot.Weighted>
4.2011

> <Gold.Chemscore.Internal.Correction.Weighted>
   9.000000E+99

> <Gold.Protein.RotatedTorsions>
[ 6907 6896 6895 6894 ] final  -57.48 input  -60.11 | X-H torsion
[ 7974 7965 7964 7962 ] final   71.83 input  175.53 | X-H torsion
[ 8008 7997 7996 7995 ] final -119.33 input   59.86 | X-H torsion
[ 10167 10162 10161 10158 ] final -150.85 input  -65.29 | X-H torsion
[ 10718 10713 10712 10709 ] final   83.33 input   66.30 | X-H torsion
[ 10763 10752 10751 10750 ] final   90.83 input  -60.55 | X-H torsion
[ 11005 11000 10999 10996 ] final -133.19 input  -57.11 | X-H torsion

> <Gold.Protein.ActiveResidues>
 VAL166  LYS551  ARG553  GLY616  TRP617  ASP618  TYR619  PRO620  LYS621  CYS622 
 ASP623  PHE694  ASN695  SER759  ASP760  ASP761  ALA762  ILE779  LEU786  VAL792 
 PHE793  MET794  SER795  GLU796  ALA797  LYS798  CYS799  TRP800  GLU811  SER814 

> <Gold.Protein.RotatedAtoms>
  150.8082  134.7221  159.6663 H   0  0  0  0  0  0  0  0  0  0  0  0  # atno 6907 bound_to 6896
  152.4202  134.5965  159.9998 H   0  0  0  0  0  0  0  0  0  0  0  0  # atno 6908 bound_to 6896
  151.6183  133.3304  159.3118 H   0  0  0  0  0  0  0  0  0  0  0  0  # atno 6909 bound_to 6896
  145.7610  139.2800  143.1376 H   0  0  0  0  0  0  0  0  0  0  0  0  # atno 7974 bound_to 7965
  155.1139  140.0397  157.2731 H   0  0  0  0  0  0  0  0  0  0  0  0  # atno 8008 bound_to 7997
  154.6664  140.2602  155.7028 H   0  0  0  0  0  0  0  0  0  0  0  0  # atno 8009 bound_to 7997
  156.2640  140.2806  156.1156 H   0  0  0  0  0  0  0  0  0  0  0  0  # atno 8010 bound_to 7997
  139.7318  143.8796  152.2537 H   0  0  0  0  0  0  0  0  0  0  0  0  # atno 10167 bound_to 10162
  157.6876  131.0086  150.2508 H   0  0  0  0  0  0  0  0  0  0  0  0  # atno 10718 bound_to 10713
  153.2017  135.4419  155.0275 H   0  0  0  0  0  0  0  0  0  0  0  0  # atno 10763 bound_to 10752
  154.8151  135.3311  154.7202 H   0  0  0  0  0  0  0  0  0  0  0  0  # atno 10764 bound_to 10752
  153.7646  135.6989  153.4974 H   0  0  0  0  0  0  0  0  0  0  0  0  # atno 10765 bound_to 10752
  140.9103  134.1577  157.4395 H   0  0  0  0  0  0  0  0  0  0  0  0  # atno 11005 bound_to 11000
  146.0264  140.8299  142.9898 LP  0  0  0  0  0  0  0  0  0  0  0  0  # atno 17320 bound_to 7965
  144.6830  140.2704  143.7306 LP  0  0  0  0  0  0  0  0  0  0  0  0  # atno 17321 bound_to 7965
  139.8721  144.7062  150.8975 LP  0  0  0  0  0  0  0  0  0  0  0  0  # atno 17342 bound_to 10162
  140.7772  143.3729  151.1615 LP  0  0  0  0  0  0  0  0  0  0  0  0  # atno 17343 bound_to 10162
  156.3105  130.3771  149.7666 LP  0  0  0  0  0  0  0  0  0  0  0  0  # atno 17370 bound_to 10713
  156.5268  130.8240  151.3223 LP  0  0  0  0  0  0  0  0  0  0  0  0  # atno 17371 bound_to 10713
  139.8756  134.9933  156.5637 LP  0  0  0  0  0  0  0  0  0  0  0  0  # atno 17394 bound_to 11000
  140.8119  133.8422  155.8818 LP  0  0  0  0  0  0  0  0  0  0  0  0  # atno 17395 bound_to 11000

$$$$
