AV-unprocessed.smi:2477|AV-procd|sdf|9762|dock9
  -GOLD-   2272013403D 1   1.00000     0.00000
 Structure written by MMmdl.
 51 53  0  0  0  0  0  0  0  0  1 V2000
  150.5440  140.7653  155.5092 C   0  0  0  0  0  0  0  0  0  0  0  0
  149.2718  140.5789  154.8066 N   0  0  0  0  0  0  0  0  0  0  0  0
  148.3618  141.6495  154.8141 C   0  0  0  0  0  0  0  0  0  0  0  0
  147.1757  141.5684  154.1952 C   0  0  0  0  0  0  0  0  0  0  0  0
  146.8424  140.3440  153.5078 C   0  0  0  0  0  0  0  0  0  0  0  0
  147.7025  139.2946  153.4955 C   0  0  0  0  0  0  0  0  0  0  0  0
  147.4650  138.0703  152.8464 N   0  0  0  0  0  0  0  0  0  0  0  0
  146.4338  137.2166  152.9792 C   0  0  0  0  0  0  0  0  0  0  0  0
  145.4690  137.3610  153.7292 O   0  0  0  0  0  0  0  0  0  0  0  0
  146.6075  136.1383  152.2012 N   0  0  0  0  0  0  0  0  0  0  0  0
  145.7282  134.9722  152.1581 C   0  0  1  0  0  0  0  0  0  0  0  0
  144.9804  134.9593  150.8107 C   0  0  0  0  0  0  0  0  0  0  0  0
  144.0850  133.7184  150.6695 C   0  0  0  0  0  0  0  0  0  0  0  0
  144.8929  132.4263  150.8595 C   0  0  0  0  0  0  0  0  0  0  0  0
  145.6314  132.4324  152.2060 C   0  0  0  0  0  0  0  0  0  0  0  0
  146.5384  133.6675  152.3472 C   0  0  2  0  0  0  0  0  0  0  0  0
  147.0929  133.6311  153.6577 O   0  0  0  0  0  0  0  0  0  0  0  0
  148.1148  132.6593  153.8516 C   0  0  0  0  0  0  0  0  0  0  0  0
  148.6029  132.6786  155.3028 C   0  0  0  0  0  0  0  0  0  0  0  0
  149.5322  133.8927  155.3834 C   0  0  0  0  0  0  0  0  0  0  0  0
  150.0777  134.1063  153.9627 C   0  0  0  0  0  0  0  0  0  0  0  0
  149.3466  133.1022  153.0613 C   0  0  0  0  0  0  0  0  0  0  0  0
  149.0071  139.3945  154.1789 C   0  0  0  0  0  0  0  0  0  0  0  0
  149.8234  138.4697  154.1921 O   0  0  0  0  0  0  0  0  0  0  0  0
  150.6467  141.7623  155.9387 H   0  0  0  0  0  0  0  0  0  0  0  0
  151.3841  140.6188  154.8287 H   0  0  0  0  0  0  0  0  0  0  0  0
  150.6379  140.0476  156.3253 H   0  0  0  0  0  0  0  0  0  0  0  0
  148.6843  142.5308  155.3489 H   0  0  0  0  0  0  0  0  0  0  0  0
  146.4859  142.3992  154.2104 H   0  0  0  0  0  0  0  0  0  0  0  0
  145.8939  140.3120  152.9975 H   0  0  0  0  0  0  0  0  0  0  0  0
  148.2075  137.7774  152.2279 H   0  0  0  0  0  0  0  0  0  0  0  0
  147.4314  136.1034  151.6189 H   0  0  0  0  0  0  0  0  0  0  0  0
  144.9823  135.0416  152.9525 H   0  0  0  0  0  0  0  0  0  0  0  0
  144.3740  135.8604  150.7119 H   0  0  0  0  0  0  0  0  0  0  0  0
  145.6980  134.9794  149.9888 H   0  0  0  0  0  0  0  0  0  0  0  0
  143.2833  133.7609  151.4079 H   0  0  0  0  0  0  0  0  0  0  0  0
  143.6045  133.7158  149.6907 H   0  0  0  0  0  0  0  0  0  0  0  0
  144.2306  131.5620  150.8022 H   0  0  0  0  0  0  0  0  0  0  0  0
  145.6129  132.3199  150.0471 H   0  0  0  0  0  0  0  0  0  0  0  0
  144.9033  132.4178  153.0183 H   0  0  0  0  0  0  0  0  0  0  0  0
  146.2237  131.5227  152.3075 H   0  0  0  0  0  0  0  0  0  0  0  0
  147.3159  133.6087  151.5824 H   0  0  0  0  0  0  0  0  0  0  0  0
  147.7821  131.6702  153.5332 H   0  0  0  0  0  0  0  0  0  0  0  0
  147.7947  132.7185  156.0333 H   0  0  0  0  0  0  0  0  0  0  0  0
  149.1764  131.7721  155.5006 H   0  0  0  0  0  0  0  0  0  0  0  0
  148.9616  134.7702  155.6899 H   0  0  0  0  0  0  0  0  0  0  0  0
  150.3273  133.7479  156.1153 H   0  0  0  0  0  0  0  0  0  0  0  0
  149.8778  135.1280  153.6374 H   0  0  0  0  0  0  0  0  0  0  0  0
  151.1566  133.9545  153.9182 H   0  0  0  0  0  0  0  0  0  0  0  0
  149.9905  132.2387  152.8899 H   0  0  0  0  0  0  0  0  0  0  0  0
  149.0939  133.5168  152.0847 H   0  0  0  0  0  0  0  0  0  0  0  0
  1  2  1  0  0  0  0
  1 25  1  0  0  0  0
  1 26  1  0  0  0  0
  1 27  1  0  0  0  0
  2 23  1  0  0  0  0
  2  3  1  0  0  0  0
  3  4  2  0  0  0  0
  3 28  1  0  0  0  0
  4  5  1  0  0  0  0
  4 29  1  0  0  0  0
  5  6  2  0  0  0  0
  5 30  1  0  0  0  0
  6  7  1  0  0  0  0
  6 23  1  0  0  0  0
  7  8  1  0  0  0  0
  7 31  1  0  0  0  0
  8  9  2  0  0  0  0
  8 10  1  0  0  0  0
 10 11  1  0  0  0  0
 10 32  1  0  0  0  0
 11 16  1  0  0  0  0
 11 12  1  0  0  0  0
 11 33  1  0  0  0  0
 12 13  1  0  0  0  0
 12 34  1  0  0  0  0
 12 35  1  0  0  0  0
 13 14  1  0  0  0  0
 13 36  1  0  0  0  0
 13 37  1  0  0  0  0
 14 15  1  0  0  0  0
 14 38  1  0  0  0  0
 14 39  1  0  0  0  0
 15 16  1  0  0  0  0
 15 40  1  0  0  0  0
 15 41  1  0  0  0  0
 16 17  1  0  0  0  0
 16 42  1  0  0  0  0
 17 18  1  0  0  0  0
 18 22  1  0  0  0  0
 18 19  1  0  0  0  0
 18 43  1  0  0  0  0
 19 20  1  0  0  0  0
 19 44  1  0  0  0  0
 19 45  1  0  0  0  0
 20 21  1  0  0  0  0
 20 46  1  0  0  0  0
 20 47  1  0  0  0  0
 21 22  1  0  0  0  0
 21 48  1  0  0  0  0
 21 49  1  0  0  0  0
 22 50  1  0  0  0  0
 22 51  1  0  0  0  0
 23 24  2  0  0  0  0
M  END
> <s_m_source_file>
AV-unprocessed.smi

> <i_m_source_file_index>
2477

> <i_lp_mmshare_version>
43012

> <i_f3d_flags>
0

> <s_epik_input>
W0NIM11uMVtjSF1bY0hdW2NIXWMoYzE9TylbTkhdQyg9TylbTkhdW0NAQEhdMltDSDJdW0NIMl1bQ0gyXVtDSDJdW0NASF0yT1tDSF0zW0NIMl1bQ0gyXVtDSDJdW0NIMl0z

> <s_epik_cmdline>
J2VwaWtfcHl0aG9uJywgJy1waCcsICc3LjAnLCAnLXRuJywgJzgnLCAnLW1hJywgJzIwMCcsICctbWV0YWxfYmluZGluZycsICctaW1hZScsICc8aW5maWxlLm1hZT4nLCAnLW9tYWUnLCAnPG91dGZpbGUubWFlPic=

> <r_lp_tautomer_probability>
1

> <r_epik_Ionization_Penalty>
2.40753e-05

> <r_epik_Ionization_Penalty_Charging>
4.84018e-06

> <r_epik_Ionization_Penalty_Neutral>
1.92352e-05

> <r_epik_State_Penalty>
-0

> <r_epik_Charging_Adjusted_Penalty>
4.84018e-06

> <i_epik_Tot_Q>
0

> <i_epik_Tot_abs_Q>
0

> <r_epik_Metal_State_Penalty>
-0

> <b_epik_Metal_Only>
0

> <s_lp_Force_Field>
OPLS_2005

> <r_lp_Energy>
41.4138

> <b_lp_Chiralities_Consistent>
1

> <s_lp_Variant>
AV-unprocessed.smi:2477-4

> <Gold.Version>
5.8.1

> <Gold.Id.Protein>
6NUR|6NUR_protein|mol2

> <Gold.PLP.Fitness>
45.0411

> <Gold.PLP.PLP>
-38.1439

> <Gold.PLP.part.hbond>
-1.6362

> <Gold.PLP.part.metal>
0.0000

> <Gold.PLP.part.buried>
-2.8914

> <Gold.PLP.part.nonpolar>
-35.3546

> <Gold.PLP.part.repulsive>
0.5267

> <Gold.PLP.ligand.clash>
0.0000

> <Gold.PLP.ligand.torsion>
0.7050

> <Gold.PLP.Chemscore.Hbond>
1.7520

> <Gold.PLP.Chemscore.CHOScore>
1.0000

> <Gold.PLP.Chemscore.Metal>
0.0000

> <Gold.Chemscore.Hbonds>
donor molecule, donor type, donor heavy atom, donor atom, acceptor molecule, acceptor atom, score
      L1  H     7    31       P1  7948  0.72
      L1  H    10    32       P1  7948  0.71
      L1  C     3    28       P1  8028  1.00

> <Gold.PLP.Chemscore.Internal.Correction>
0.0511

> <Gold.Rescore>
     Score         DG    S(hbond)    S(metal)    S(lipo)     H(rot)  DE(clash)    DE(int)     intcor
     17.59     -18.41       1.84        0.00      87.63       1.36       0.10       0.72       ----

> <Gold.Chemscore.Fitness>
17.5913

> <Gold.Chemscore.DG>
-18.4092

> <Gold.Chemscore.ZeroCoef>
-5.4800

> <Gold.Chemscore.Hbond>
1.8410

> <Gold.Chemscore.Metal>
0.0000

> <Gold.Chemscore.Lipo>
87.6305

> <Gold.Chemscore.Internal_Hbond>
0.0000

> <Gold.Chemscore.DEClash>
0.0982

> <Gold.Chemscore.DEInternal>
0.7196

> <Gold.Chemscore.Rot>
1.3564

> <Gold.Chemscore.Internal.Correction>
   9.000000E+99

> <Gold.Chemscore.Hbonds>
donor molecule, donor type, donor heavy atom, donor atom, acceptor molecule, acceptor atom, score
      L1  H     7    31       P1  7948  0.72
      L1  H    10    32       P1  7948  0.66

> <Gold.Chemscore.Hbond.Weighted>
-6.1488

> <Gold.Chemscore.Metal.Weighted>
-0.0000

> <Gold.Chemscore.Lipo.Weighted>
-10.2528

> <Gold.Chemscore.Internal_Hbond.Weighted>
0.0000

> <Gold.Chemscore.DEClash.Weighted>
0.0982

> <Gold.Chemscore.DEInternal.Weighted>
0.7196

> <Gold.Chemscore.Rot.Weighted>
3.4724

> <Gold.Chemscore.Internal.Correction.Weighted>
   9.000000E+99

> <Gold.Protein.RotatedTorsions>
[ 6907 6896 6895 6894 ] final   24.10 input  -60.11 | X-H torsion
[ 7974 7965 7964 7962 ] final  -16.55 input  175.53 | X-H torsion
[ 8008 7997 7996 7995 ] final  -82.43 input   59.86 | X-H torsion
[ 10167 10162 10161 10158 ] final -126.54 input  -65.29 | X-H torsion
[ 10718 10713 10712 10709 ] final   95.80 input   66.30 | X-H torsion
[ 10763 10752 10751 10750 ] final  179.55 input  -60.55 | X-H torsion
[ 11005 11000 10999 10996 ] final -136.82 input  -57.11 | X-H torsion

> <Gold.Protein.ActiveResidues>
 VAL166  LYS551  ARG553  GLY616  TRP617  ASP618  TYR619  PRO620  LYS621  CYS622 
 ASP623  PHE694  ASN695  SER759  ASP760  ASP761  ALA762  ILE779  LEU786  VAL792 
 PHE793  MET794  SER795  GLU796  ALA797  LYS798  CYS799  TRP800  GLU811  SER814 

> <Gold.Protein.RotatedAtoms>
  151.9524  135.0163  160.0542 H   0  0  0  0  0  0  0  0  0  0  0  0  # atno 6907 bound_to 6896
  152.1941  133.4789  159.5032 H   0  0  0  0  0  0  0  0  0  0  0  0  # atno 6908 bound_to 6896
  150.6941  134.1591  159.4212 H   0  0  0  0  0  0  0  0  0  0  0  0  # atno 6909 bound_to 6896
  146.1982  140.3653  142.8433 H   0  0  0  0  0  0  0  0  0  0  0  0  # atno 7974 bound_to 7965
  154.6086  140.0633  156.9463 H   0  0  0  0  0  0  0  0  0  0  0  0  # atno 8008 bound_to 7997
  155.2012  140.3315  155.4324 H   0  0  0  0  0  0  0  0  0  0  0  0  # atno 8009 bound_to 7997
  156.2362  140.1864  156.7095 H   0  0  0  0  0  0  0  0  0  0  0  0  # atno 8010 bound_to 7997
  139.9703  143.5852  152.2415 H   0  0  0  0  0  0  0  0  0  0  0  0  # atno 10167 bound_to 10162
  157.6934  131.0557  150.4395 H   0  0  0  0  0  0  0  0  0  0  0  0  # atno 10718 bound_to 10713
  154.5221  135.2794  155.1253 H   0  0  0  0  0  0  0  0  0  0  0  0  # atno 10763 bound_to 10752
  154.2807  135.6286  153.5349 H   0  0  0  0  0  0  0  0  0  0  0  0  # atno 10764 bound_to 10752
  152.9939  135.5650  154.5713 H   0  0  0  0  0  0  0  0  0  0  0  0  # atno 10765 bound_to 10752
  140.8769  134.1981  157.4616 H   0  0  0  0  0  0  0  0  0  0  0  0  # atno 11005 bound_to 11000
  144.8626  140.7160  143.6098 LP  0  0  0  0  0  0  0  0  0  0  0  0  # atno 17320 bound_to 7965
  145.3573  139.1691  143.4402 LP  0  0  0  0  0  0  0  0  0  0  0  0  # atno 17321 bound_to 7965
  139.6486  144.7659  151.2194 LP  0  0  0  0  0  0  0  0  0  0  0  0  # atno 17342 bound_to 10162
  140.7524  143.6198  150.8524 LP  0  0  0  0  0  0  0  0  0  0  0  0  # atno 17343 bound_to 10162
  156.4754  130.4062  149.6493 LP  0  0  0  0  0  0  0  0  0  0  0  0  # atno 17370 bound_to 10713
  156.3558  130.7455  151.2421 LP  0  0  0  0  0  0  0  0  0  0  0  0  # atno 17371 bound_to 10713
  139.8716  134.9799  156.5057 LP  0  0  0  0  0  0  0  0  0  0  0  0  # atno 17394 bound_to 11000
  140.8508  133.8134  155.9166 LP  0  0  0  0  0  0  0  0  0  0  0  0  # atno 17395 bound_to 11000

$$$$
