AV-unprocessed.smi:1732|AV-procd|sdf|6976|dock4
  -GOLD-   22720 8193D 1   1.00000     0.00000
 Structure written by MMmdl.
 36 37  0  0  0  0  0  0  0  0  1 V2000
  152.0987  138.4055  159.3785 O   0  0  0  0  0  0  0  0  0  0  0  0
  152.2329  139.4820  158.7980 C   0  0  0  0  0  0  0  0  0  0  0  0
  152.7376  140.6937  159.5791 C   0  0  0  0  0  0  0  0  0  0  0  0
  151.7626  141.7239  159.5045 O   0  0  0  0  0  0  0  0  0  0  0  0
  152.3008  143.0333  159.6076 C   0  0  0  0  0  0  0  0  0  0  0  0
  151.9982  143.6235  160.9830 C   0  0  0  0  0  0  0  0  0  0  0  0
  152.1475  145.1324  160.7836 C   0  0  0  0  0  0  0  0  0  0  0  0
  151.7639  145.4013  159.3205 C   0  0  0  0  0  0  0  0  0  0  0  0
  151.6488  144.0289  158.6411 C   0  0  0  0  0  0  0  0  0  0  0  0
  151.9976  139.6979  157.4884 N   0  0  0  0  0  0  0  0  0  0  0  0
  151.5001  138.8191  156.5119 C   0  0  0  0  0  0  0  0  0  0  0  0
  150.5762  137.8488  156.7381 C   0  0  0  0  0  0  0  0  0  0  0  0
  150.0875  136.9864  155.6753 C   0  0  0  0  0  0  0  0  0  0  0  0
  149.1141  135.8520  155.9557 C   0  0  0  0  0  0  0  0  0  0  0  0
  149.6713  134.6644  155.7151 F   0  0  0  0  0  0  0  0  0  0  0  0
  148.7077  135.8741  157.2252 F   0  0  0  0  0  0  0  0  0  0  0  0
  148.0412  135.9729  155.1750 F   0  0  0  0  0  0  0  0  0  0  0  0
  150.6033  137.1931  154.4494 C   0  0  0  0  0  0  0  0  0  0  0  0
  151.5366  138.2026  154.2044 N   0  0  0  0  0  0  0  0  0  0  0  0
  152.0231  139.0343  155.1525 C   0  0  0  0  0  0  0  0  0  0  0  0
  152.8470  139.8992  154.8562 O   0  0  0  0  0  0  0  0  0  0  0  0
  151.8638  138.3045  153.2545 H   0  0  0  0  0  0  0  0  0  0  0  0
  152.9171  140.4172  160.6194 H   0  0  0  0  0  0  0  0  0  0  0  0
  153.6864  141.0186  159.1506 H   0  0  0  0  0  0  0  0  0  0  0  0
  153.3827  143.0195  159.4614 H   0  0  0  0  0  0  0  0  0  0  0  0
  150.9703  143.3934  161.2673 H   0  0  0  0  0  0  0  0  0  0  0  0
  152.6541  143.2335  161.7621 H   0  0  0  0  0  0  0  0  0  0  0  0
  151.5366  145.7010  161.4856 H   0  0  0  0  0  0  0  0  0  0  0  0
  153.1869  145.4206  160.9460 H   0  0  0  0  0  0  0  0  0  0  0  0
  150.8191  145.9415  159.2521 H   0  0  0  0  0  0  0  0  0  0  0  0
  152.5249  146.0149  158.8371 H   0  0  0  0  0  0  0  0  0  0  0  0
  152.1099  144.0139  157.6533 H   0  0  0  0  0  0  0  0  0  0  0  0
  150.5945  143.7788  158.5145 H   0  0  0  0  0  0  0  0  0  0  0  0
  152.2278  140.6194  157.1445 H   0  0  0  0  0  0  0  0  0  0  0  0
  150.1531  137.7023  157.7185 H   0  0  0  0  0  0  0  0  0  0  0  0
  150.3502  136.6094  153.5766 H   0  0  0  0  0  0  0  0  0  0  0  0
  1  2  2  0  0  0  0
  2  3  1  0  0  0  0
  2 10  1  0  0  0  0
  3  4  1  0  0  0  0
  3 23  1  0  0  0  0
  3 24  1  0  0  0  0
  4  5  1  0  0  0  0
  5  9  1  0  0  0  0
  5  6  1  0  0  0  0
  5 25  1  0  0  0  0
  6  7  1  0  0  0  0
  6 26  1  0  0  0  0
  6 27  1  0  0  0  0
  7  8  1  0  0  0  0
  7 28  1  0  0  0  0
  7 29  1  0  0  0  0
  8  9  1  0  0  0  0
  8 30  1  0  0  0  0
  8 31  1  0  0  0  0
  9 32  1  0  0  0  0
  9 33  1  0  0  0  0
 10 11  1  0  0  0  0
 10 34  1  0  0  0  0
 11 20  1  0  0  0  0
 11 12  2  0  0  0  0
 12 13  1  0  0  0  0
 12 35  1  0  0  0  0
 13 14  1  0  0  0  0
 13 18  2  0  0  0  0
 14 15  1  0  0  0  0
 14 16  1  0  0  0  0
 14 17  1  0  0  0  0
 18 19  1  0  0  0  0
 18 36  1  0  0  0  0
 19 22  1  0  0  0  0
 19 20  1  0  0  0  0
 20 21  2  0  0  0  0
M  END
> <s_m_source_file>
AV-unprocessed.smi

> <i_m_source_file_index>
1732

> <i_lp_mmshare_version>
43012

> <i_f3d_flags>
0

> <s_epik_input>
W0NIMl0xW0NIMl1bQ0gyXVtDSDJdW0NIXTFPW0NIMl1DKD1PKVtOSF1jMltjSF1jKEMoRikoRilGKVtjSF1bbkhdYzI9Tw==

> <s_epik_cmdline>
J2VwaWtfcHl0aG9uJywgJy1waCcsICc3LjAnLCAnLXRuJywgJzgnLCAnLW1hJywgJzIwMCcsICctbWV0YWxfYmluZGluZycsICctaW1hZScsICc8aW5maWxlLm1hZT4nLCAnLW9tYWUnLCAnPG91dGZpbGUubWFlPic=

> <r_lp_tautomer_probability>
0.999

> <r_epik_Ionization_Penalty>
0.0109735

> <r_epik_Ionization_Penalty_Charging>
0.0109734

> <r_epik_Ionization_Penalty_Neutral>
9.17026e-08

> <r_epik_State_Penalty>
0.0084206

> <r_epik_Charging_Adjusted_Penalty>
0.019394

> <i_epik_Tot_Q>
0

> <i_epik_Tot_abs_Q>
0

> <r_epik_Metal_State_Penalty>
0.328349

> <b_epik_Metal_Only>
0

> <s_lp_Force_Field>
OPLS_2005

> <r_lp_Energy>
36.3652

> <b_lp_Chiralities_Consistent>
1

> <s_lp_Variant>
AV-unprocessed.smi:1732-1

> <Gold.Version>
5.8.1

> <Gold.Id.Protein>
6NUR|6NUR_protein|mol2

> <Gold.PLP.Fitness>
40.3418

> <Gold.PLP.PLP>
-35.4958

> <Gold.PLP.part.hbond>
-2.0000

> <Gold.PLP.part.metal>
0.0000

> <Gold.PLP.part.buried>
-4.8001

> <Gold.PLP.part.nonpolar>
-29.0450

> <Gold.PLP.part.repulsive>
0.2674

> <Gold.PLP.ligand.clash>
0.0000

> <Gold.PLP.ligand.torsion>
1.0631

> <Gold.PLP.Chemscore.Hbond>
1.4160

> <Gold.PLP.Chemscore.CHOScore>
0.8815

> <Gold.PLP.Chemscore.Metal>
0.0000

> <Gold.Chemscore.Hbonds>
donor molecule, donor type, donor heavy atom, donor atom, acceptor molecule, acceptor atom, score
      P1  H  7989  7998       L1    21  0.35
      P1  H  7997  8009       L1    21  1.00
      L1  C    18    36       P1  7948  0.52
      L1  C    18    36       P1  7949  0.23

> <Gold.PLP.Chemscore.Internal.Correction>
0.0799

> <Gold.Rescore>
     Score         DG    S(hbond)    S(metal)    S(lipo)     H(rot)  DE(clash)    DE(int)     intcor
     14.91     -15.97       1.16        0.00      91.62       1.60       0.10       0.96       ----

> <Gold.Chemscore.Fitness>
14.9106

> <Gold.Chemscore.DG>
-15.9711

> <Gold.Chemscore.ZeroCoef>
-5.4800

> <Gold.Chemscore.Hbond>
1.1588

> <Gold.Chemscore.Metal>
0.0000

> <Gold.Chemscore.Lipo>
91.6161

> <Gold.Chemscore.Internal_Hbond>
0.0000

> <Gold.Chemscore.DEClash>
0.0998

> <Gold.Chemscore.DEInternal>
0.9607

> <Gold.Chemscore.Rot>
1.6009

> <Gold.Chemscore.Internal.Correction>
   9.000000E+99

> <Gold.Chemscore.Hbonds>
donor molecule, donor type, donor heavy atom, donor atom, acceptor molecule, acceptor atom, score
      P1  H  7989  7998       L1    21  0.06
      P1  H  7997  8009       L1    21  0.99

> <Gold.Chemscore.Hbond.Weighted>
-3.8703

> <Gold.Chemscore.Metal.Weighted>
-0.0000

> <Gold.Chemscore.Lipo.Weighted>
-10.7191

> <Gold.Chemscore.Internal_Hbond.Weighted>
0.0000

> <Gold.Chemscore.DEClash.Weighted>
0.0998

> <Gold.Chemscore.DEInternal.Weighted>
0.9607

> <Gold.Chemscore.Rot.Weighted>
4.0982

> <Gold.Chemscore.Internal.Correction.Weighted>
   9.000000E+99

> <Gold.Protein.RotatedTorsions>
[ 6907 6896 6895 6894 ] final  -52.64 input  -60.11 | X-H torsion
[ 7974 7965 7964 7962 ] final   29.44 input  175.53 | X-H torsion
[ 8008 7997 7996 7995 ] final -131.31 input   59.86 | X-H torsion
[ 10167 10162 10161 10158 ] final  159.90 input  -65.29 | X-H torsion
[ 10718 10713 10712 10709 ] final -122.26 input   66.30 | X-H torsion
[ 10763 10752 10751 10750 ] final   -4.50 input  -60.55 | X-H torsion
[ 11005 11000 10999 10996 ] final   37.85 input  -57.11 | X-H torsion

> <Gold.Protein.ActiveResidues>
 VAL166  LYS551  ARG553  GLY616  TRP617  ASP618  TYR619  PRO620  LYS621  CYS622 
 ASP623  PHE694  ASN695  SER759  ASP760  ASP761  ALA762  ILE779  LEU786  VAL792 
 PHE793  MET794  SER795  GLU796  ALA797  LYS798  CYS799  TRP800  GLU811  SER814 

> <Gold.Protein.RotatedAtoms>
  150.8499  134.7821  159.7000 H   0  0  0  0  0  0  0  0  0  0  0  0  # atno 6907 bound_to 6896
  152.4566  134.5273  159.9810 H   0  0  0  0  0  0  0  0  0  0  0  0  # atno 6908 bound_to 6896
  151.5396  133.3397  159.2969 H   0  0  0  0  0  0  0  0  0  0  0  0  # atno 6909 bound_to 6896
  146.1671  139.6922  142.8993 H   0  0  0  0  0  0  0  0  0  0  0  0  # atno 7974 bound_to 7965
  155.3103  140.0457  157.3034 H   0  0  0  0  0  0  0  0  0  0  0  0  # atno 8008 bound_to 7997
  154.5437  140.2295  155.8566 H   0  0  0  0  0  0  0  0  0  0  0  0  # atno 8009 bound_to 7997
  156.1904  140.3052  155.9328 H   0  0  0  0  0  0  0  0  0  0  0  0  # atno 8010 bound_to 7997
  139.4836  144.4686  151.8608 H   0  0  0  0  0  0  0  0  0  0  0  0  # atno 10167 bound_to 10162
  156.1404  130.6462  150.9762 H   0  0  0  0  0  0  0  0  0  0  0  0  # atno 10718 bound_to 10713
  153.3857  135.7000  153.6532 H   0  0  0  0  0  0  0  0  0  0  0  0  # atno 10763 bound_to 10752
  153.5125  135.3629  155.2594 H   0  0  0  0  0  0  0  0  0  0  0  0  # atno 10764 bound_to 10752
  154.8697  135.4138  154.3164 H   0  0  0  0  0  0  0  0  0  0  0  0  # atno 10765 bound_to 10752
  140.2184  134.3670  155.8016 H   0  0  0  0  0  0  0  0  0  0  0  0  # atno 11005 bound_to 11000
  145.4438  141.0424  143.2843 LP  0  0  0  0  0  0  0  0  0  0  0  0  # atno 17320 bound_to 7965
  144.8108  139.5965  143.7030 LP  0  0  0  0  0  0  0  0  0  0  0  0  # atno 17321 bound_to 7965
  140.4153  144.2315  150.5888 LP  0  0  0  0  0  0  0  0  0  0  0  0  # atno 17342 bound_to 10162
  140.4927  143.2342  151.8795 LP  0  0  0  0  0  0  0  0  0  0  0  0  # atno 17343 bound_to 10162
  157.6571  131.0887  150.7923 LP  0  0  0  0  0  0  0  0  0  0  0  0  # atno 17370 bound_to 10713
  156.7999  130.4918  149.5371 LP  0  0  0  0  0  0  0  0  0  0  0  0  # atno 17371 bound_to 10713
  141.2224  133.7180  156.8535 LP  0  0  0  0  0  0  0  0  0  0  0  0  # atno 17394 bound_to 11000
  140.1875  134.8989  157.3022 LP  0  0  0  0  0  0  0  0  0  0  0  0  # atno 17395 bound_to 11000

$$$$
