AV-unprocessed.smi:249|AV-procd|sdf|1905|dock5
  -GOLD-   2262020583D 1   1.00000     0.00000
 Structure written by MMmdl.
 64 67  0  0  0  0  0  0  0  0  2 V2000
  145.3323  126.8188  155.6766 C   0  0  0  0  0  0  0  0  0  0  0  0
  145.8530  126.8742  154.2325 C   0  0  0  0  0  0  0  0  0  0  0  0
  145.7898  128.2365  153.6378 N   0  3  1  0  0  0  0  0  0  0  0  0
  146.6183  129.2184  154.3881 C   0  0  0  0  0  0  0  0  0  0  0  0
  146.3451  130.6562  153.9188 C   0  0  0  0  0  0  0  0  0  0  0  0
  146.5661  130.7904  152.3989 C   0  0  2  0  0  0  0  0  0  0  0  0
  146.3864  132.1565  151.8892 N   0  0  0  0  0  0  0  0  0  0  0  0
  146.6571  132.4118  150.4798 C   0  0  0  0  0  0  0  0  0  0  0  0
  146.5798  133.2442  152.6768 C   0  0  0  0  0  0  0  0  0  0  0  0
  147.4287  133.1827  153.7358 N   0  0  0  0  0  0  0  0  0  0  0  0
  147.6311  134.2594  154.5014 C   0  0  0  0  0  0  0  0  0  0  0  0
  147.0968  135.4766  154.3870 N   0  0  0  0  0  0  0  0  0  0  0  0
  146.2475  135.5444  153.3224 C   0  0  0  0  0  0  0  0  0  0  0  0
  145.9376  134.4871  152.4217 C   0  0  0  0  0  0  0  0  0  0  0  0
  145.0305  134.9291  151.4661 N   0  0  0  0  0  0  0  0  0  0  0  0
  144.8166  136.1774  151.7832 C   0  0  0  0  0  0  0  0  0  0  0  0
  145.5105  136.6288  152.8832 N   0  0  0  0  0  0  0  0  0  0  0  0
  145.4647  137.9612  153.4582 C   0  0  0  0  0  0  0  0  0  0  0  0
  146.8437  138.6654  153.4727 C   0  0  1  0  0  0  0  0  0  0  0  0
  147.3406  139.0318  152.0531 C   0  0  0  0  0  0  0  0  0  0  0  0
  147.1417  137.9679  151.1446 O   0  0  0  0  0  0  0  0  0  0  0  0
  146.8503  139.8797  154.4352 C   0  0  2  0  0  0  0  0  0  0  0  0
  148.1530  140.6589  154.4742 C   0  0  0  0  0  0  0  0  0  0  0  0
  148.0219  141.4320  155.7806 C   0  0  0  0  0  0  0  0  0  0  0  0
  147.3091  140.5695  156.6588 O   0  0  0  0  0  0  0  0  0  0  0  0
  146.6963  139.5183  155.9174 C   0  0  0  0  0  0  0  0  0  0  0  0
  145.7286  129.7338  151.6461 C   0  0  0  0  0  0  0  0  0  0  0  0
  146.0005  128.3046  152.1578 C   0  0  1  0  0  0  0  0  0  0  0  0
  147.3737  127.7680  151.6988 C   0  0  0  0  0  0  0  0  0  0  0  0
  145.5253  125.8394  156.1146 H   0  0  0  0  0  0  0  0  0  0  0  0
  144.2569  126.9859  155.7310 H   0  0  0  0  0  0  0  0  0  0  0  0
  145.8249  127.5631  156.3032 H   0  0  0  0  0  0  0  0  0  0  0  0
  146.8956  126.5542  154.2478 H   0  0  0  0  0  0  0  0  0  0  0  0
  145.3286  126.1531  153.6058 H   0  0  0  0  0  0  0  0  0  0  0  0
  146.3907  129.1506  155.4524 H   0  0  0  0  0  0  0  0  0  0  0  0
  147.6765  128.9765  154.2842 H   0  0  0  0  0  0  0  0  0  0  0  0
  145.3250  130.9238  154.1903 H   0  0  0  0  0  0  0  0  0  0  0  0
  146.9969  131.3435  154.4590 H   0  0  0  0  0  0  0  0  0  0  0  0
  147.6136  130.5562  152.2073 H   0  0  0  0  0  0  0  0  0  0  0  0
  145.8775  133.0364  150.0436 H   0  0  0  0  0  0  0  0  0  0  0  0
  146.6924  131.4815  149.9124 H   0  0  0  0  0  0  0  0  0  0  0  0
  147.6150  132.9184  150.3540 H   0  0  0  0  0  0  0  0  0  0  0  0
  148.3218  134.1282  155.3213 H   0  0  0  0  0  0  0  0  0  0  0  0
  144.1466  136.8090  151.2177 H   0  0  0  0  0  0  0  0  0  0  0  0
  144.7409  138.5553  152.8989 H   0  0  0  0  0  0  0  0  0  0  0  0
  145.0691  137.8686  154.4698 H   0  0  0  0  0  0  0  0  0  0  0  0
  147.5610  137.9443  153.8677 H   0  0  0  0  0  0  0  0  0  0  0  0
  146.8241  139.9143  151.6766 H   0  0  0  0  0  0  0  0  0  0  0  0
  148.3994  139.2903  152.0634 H   0  0  0  0  0  0  0  0  0  0  0  0
  146.2717  138.0407  150.7825 H   0  0  0  0  0  0  0  0  0  0  0  0
  146.0467  140.5666  154.1636 H   0  0  0  0  0  0  0  0  0  0  0  0
  149.0045  139.9788  154.5253 H   0  0  0  0  0  0  0  0  0  0  0  0
  148.2892  141.3159  153.6149 H   0  0  0  0  0  0  0  0  0  0  0  0
  148.9875  141.7195  156.1965 H   0  0  0  0  0  0  0  0  0  0  0  0
  147.4334  142.3376  155.6284 H   0  0  0  0  0  0  0  0  0  0  0  0
  145.6529  139.3933  156.2077 H   0  0  0  0  0  0  0  0  0  0  0  0
  147.2224  138.5909  156.1476 H   0  0  0  0  0  0  0  0  0  0  0  0
  144.6643  129.9363  151.7642 H   0  0  0  0  0  0  0  0  0  0  0  0
  145.9283  129.7917  150.5753 H   0  0  0  0  0  0  0  0  0  0  0  0
  145.2452  127.6771  151.6861 H   0  0  0  0  0  0  0  0  0  0  0  0
  147.4787  127.8602  150.6175 H   0  0  0  0  0  0  0  0  0  0  0  0
  147.4946  126.7111  151.9342 H   0  0  0  0  0  0  0  0  0  0  0  0
  148.2058  128.3068  152.1505 H   0  0  0  0  0  0  0  0  0  0  0  0
  144.8369  128.5391  153.7820 H   0  0  0  0  0  0  0  0  0  0  0  0
  1  2  1  0  0  0  0
  1 30  1  0  0  0  0
  1 31  1  0  0  0  0
  1 32  1  0  0  0  0
  2  3  1  0  0  0  0
  2 33  1  0  0  0  0
  2 34  1  0  0  0  0
  3 28  1  0  0  0  0
  3  4  1  0  0  0  0
  3 64  1  0  0  0  0
  4  5  1  0  0  0  0
  4 35  1  0  0  0  0
  4 36  1  0  0  0  0
  5  6  1  0  0  0  0
  5 37  1  0  0  0  0
  5 38  1  0  0  0  0
  6  7  1  0  0  0  0
  6 27  1  0  0  0  0
  6 39  1  0  0  0  0
  7  8  1  0  0  0  0
  7  9  1  0  0  0  0
  8 40  1  0  0  0  0
  8 41  1  0  0  0  0
  8 42  1  0  0  0  0
  9 14  1  0  0  0  0
  9 10  2  0  0  0  0
 10 11  1  0  0  0  0
 11 12  2  0  0  0  0
 11 43  1  0  0  0  0
 12 13  1  0  0  0  0
 13 17  1  0  0  0  0
 13 14  2  0  0  0  0
 14 15  1  0  0  0  0
 15 16  2  0  0  0  0
 16 17  1  0  0  0  0
 16 44  1  0  0  0  0
 17 18  1  0  0  0  0
 18 19  1  0  0  0  0
 18 45  1  0  0  0  0
 18 46  1  0  0  0  0
 19 20  1  0  0  0  0
 19 22  1  0  0  0  0
 19 47  1  0  0  0  0
 20 21  1  0  0  0  0
 20 48  1  0  0  0  0
 20 49  1  0  0  0  0
 21 50  1  0  0  0  0
 22 26  1  0  0  0  0
 22 23  1  0  0  0  0
 22 51  1  0  0  0  0
 23 24  1  0  0  0  0
 23 52  1  0  0  0  0
 23 53  1  0  0  0  0
 24 25  1  0  0  0  0
 24 54  1  0  0  0  0
 24 55  1  0  0  0  0
 25 26  1  0  0  0  0
 26 56  1  0  0  0  0
 26 57  1  0  0  0  0
 27 28  1  0  0  0  0
 27 58  1  0  0  0  0
 27 59  1  0  0  0  0
 28 29  1  0  0  0  0
 28 60  1  0  0  0  0
 29 61  1  0  0  0  0
 29 62  1  0  0  0  0
 29 63  1  0  0  0  0
M  CHG  1   3   1
M  END
> <s_m_source_file>
AV-unprocessed.smi

> <i_m_source_file_index>
249

> <i_lp_mmshare_version>
43012

> <i_f3d_flags>
0

> <s_epik_input>
W0NIM11bQ0gyXU4xW0NIMl1bQ0gyXVtDQEhdKFtDSDJdW0NASF0xW0NIM10pTihbQ0gzXSljKG5bY0hdbjIpYyhjMjMpbltjSF1uM1tDSDJdW0NASF0oW0NIMl1bT0hdKVtDQEBIXTRbQ0gyXVtDSDJdT1tDSDJdNA==

> <s_epik_cmdline>
J2VwaWtfcHl0aG9uJywgJy1waCcsICc3LjAnLCAnLXRuJywgJzgnLCAnLW1hJywgJzIwMCcsICctbWV0YWxfYmluZGluZycsICctaW1hZScsICc8aW5maWxlLm1hZT4nLCAnLW9tYWUnLCAnPG91dGZpbGUubWFlPic=

> <r_lp_tautomer_probability>
1

> <r_epik_Ionization_Penalty>
0.00294688

> <r_epik_Ionization_Penalty_Charging>
0.00169971

> <r_epik_Ionization_Penalty_Neutral>
0.00124717

> <r_epik_State_Penalty>
-0

> <r_epik_Charging_Adjusted_Penalty>
0.00169971

> <i_epik_Tot_Q>
1

> <i_epik_Tot_abs_Q>
1

> <r_epik_Metal_State_Penalty>
-0

> <b_epik_Metal_Only>
0

> <s_lp_Force_Field>
OPLS_2005

> <r_lp_Energy>
52.9117

> <b_lp_Chiralities_Consistent>
1

> <s_lp_Variant>
AV-unprocessed.smi:249-8

> <Gold.Version>
5.8.1

> <Gold.Id.Protein>
6NUR|6NUR_protein|mol2

> <Gold.PLP.Fitness>
55.0100

> <Gold.PLP.PLP>
-41.2577

> <Gold.PLP.part.hbond>
-3.5699

> <Gold.PLP.part.metal>
0.0000

> <Gold.PLP.part.buried>
1.0674

> <Gold.PLP.part.nonpolar>
-40.1238

> <Gold.PLP.part.repulsive>
1.7390

> <Gold.PLP.ligand.clash>
0.0000

> <Gold.PLP.ligand.torsion>
1.3086

> <Gold.PLP.Chemscore.Hbond>
4.0000

> <Gold.PLP.Chemscore.CHOScore>
0.9965

> <Gold.PLP.Chemscore.Metal>
0.0000

> <Gold.Chemscore.Hbonds>
donor molecule, donor type, donor heavy atom, donor atom, acceptor molecule, acceptor atom, score
      L1  H     3    64       P1 10956  1.66
      P1  H  7954  7966       L1    21  1.00
      L1  C    16    44       P1 10171  1.00

> <Gold.PLP.Chemscore.Internal.Correction>
1.3798

> <Gold.Rescore>
     Score         DG    S(hbond)    S(metal)    S(lipo)     H(rot)  DE(clash)    DE(int)     intcor
     12.13     -19.02       2.66        0.00      97.89       2.65       2.87       4.02       ----

> <Gold.Chemscore.Fitness>
12.1296

> <Gold.Chemscore.DG>
-19.0161

> <Gold.Chemscore.ZeroCoef>
-5.4800

> <Gold.Chemscore.Hbond>
2.6558

> <Gold.Chemscore.Metal>
0.0000

> <Gold.Chemscore.Lipo>
97.8947

> <Gold.Chemscore.Internal_Hbond>
0.0000

> <Gold.Chemscore.DEClash>
2.8701

> <Gold.Chemscore.DEInternal>
4.0164

> <Gold.Chemscore.Rot>
2.6515

> <Gold.Chemscore.Internal.Correction>
   9.000000E+99

> <Gold.Chemscore.Hbonds>
donor molecule, donor type, donor heavy atom, donor atom, acceptor molecule, acceptor atom, score
      L1  H     3    64       P1 10956  0.81
      P1  H  7954  7966       L1    21  0.56

> <Gold.Chemscore.Hbond.Weighted>
-8.8703

> <Gold.Chemscore.Metal.Weighted>
-0.0000

> <Gold.Chemscore.Lipo.Weighted>
-11.4537

> <Gold.Chemscore.Internal_Hbond.Weighted>
0.0000

> <Gold.Chemscore.DEClash.Weighted>
2.8701

> <Gold.Chemscore.DEInternal.Weighted>
4.0164

> <Gold.Chemscore.Rot.Weighted>
6.7880

> <Gold.Chemscore.Internal.Correction.Weighted>
   9.000000E+99

> <Gold.Protein.RotatedTorsions>
[ 6907 6896 6895 6894 ] final   42.96 input  -60.11 | X-H torsion
[ 7974 7965 7964 7962 ] final -105.88 input  175.53 | X-H torsion
[ 8008 7997 7996 7995 ] final -115.85 input   59.86 | X-H torsion
[ 10167 10162 10161 10158 ] final -163.39 input  -65.29 | X-H torsion
[ 10718 10713 10712 10709 ] final   -4.92 input   66.30 | X-H torsion
[ 10763 10752 10751 10750 ] final  160.84 input  -60.55 | X-H torsion
[ 11005 11000 10999 10996 ] final  135.33 input  -57.11 | X-H torsion

> <Gold.Protein.ActiveResidues>
 VAL166  LYS551  ARG553  GLY616  TRP617  ASP618  TYR619  PRO620  LYS621  CYS622 
 ASP623  PHE694  ASN695  SER759  ASP760  ASP761  ALA762  ILE779  LEU786  VAL792 
 PHE793  MET794  SER795  GLU796  ALA797  LYS798  CYS799  TRP800  GLU811  SER814 

> <Gold.Protein.RotatedAtoms>
  152.2144  134.8472  160.0493 H   0  0  0  0  0  0  0  0  0  0  0  0  # atno 6907 bound_to 6896
  151.9278  133.3598  159.3928 H   0  0  0  0  0  0  0  0  0  0  0  0  # atno 6908 bound_to 6896
  150.6984  134.4493  159.5373 H   0  0  0  0  0  0  0  0  0  0  0  0  # atno 6909 bound_to 6896
  145.2248  140.9148  143.3238 H   0  0  0  0  0  0  0  0  0  0  0  0  # atno 7974 bound_to 7965
  155.0586  140.0393  157.2569 H   0  0  0  0  0  0  0  0  0  0  0  0  # atno 8008 bound_to 7997
  154.7078  140.2686  155.6634 H   0  0  0  0  0  0  0  0  0  0  0  0  # atno 8009 bound_to 7997
  156.2780  140.2727  156.1710 H   0  0  0  0  0  0  0  0  0  0  0  0  # atno 8010 bound_to 7997
  139.6324  144.0414  152.2027 H   0  0  0  0  0  0  0  0  0  0  0  0  # atno 10167 bound_to 10162
  156.7542  130.5249  149.5798 H   0  0  0  0  0  0  0  0  0  0  0  0  # atno 10718 bound_to 10713
  154.2537  135.2770  155.2806 H   0  0  0  0  0  0  0  0  0  0  0  0  # atno 10763 bound_to 10752
  154.5443  135.5693  153.6870 H   0  0  0  0  0  0  0  0  0  0  0  0  # atno 10764 bound_to 10752
  152.9975  135.6259  154.2685 H   0  0  0  0  0  0  0  0  0  0  0  0  # atno 10765 bound_to 10752
  139.9973  134.9492  156.9992 H   0  0  0  0  0  0  0  0  0  0  0  0  # atno 11005 bound_to 11000
  144.9731  139.3859  143.6299 LP  0  0  0  0  0  0  0  0  0  0  0  0  # atno 17320 bound_to 7965
  146.3367  139.8838  142.8820 LP  0  0  0  0  0  0  0  0  0  0  0  0  # atno 17321 bound_to 7965
  140.0082  144.6243  150.7670 LP  0  0  0  0  0  0  0  0  0  0  0  0  # atno 17342 bound_to 10162
  140.7447  143.2864  151.3452 LP  0  0  0  0  0  0  0  0  0  0  0  0  # atno 17343 bound_to 10162
  156.1381  130.6225  151.0429 LP  0  0  0  0  0  0  0  0  0  0  0  0  # atno 17370 bound_to 10713
  157.6763  131.0849  150.7485 LP  0  0  0  0  0  0  0  0  0  0  0  0  # atno 17371 bound_to 10713
  140.4794  134.1304  155.7214 LP  0  0  0  0  0  0  0  0  0  0  0  0  # atno 17394 bound_to 11000
  141.1614  133.8785  157.1837 LP  0  0  0  0  0  0  0  0  0  0  0  0  # atno 17395 bound_to 11000

$$$$
