AV-unprocessed.smi:2062|AV-procd|sdf|8400|dock1
  -GOLD-   2272011 83D 1   1.00000     0.00000
 Structure written by MMmdl.
 42 43  0  0  0  0  0  0  0  0  1 V2000
  149.3752  141.4773  157.9861 C   0  0  0  0  0  0  0  0  0  0  0  0
  150.8806  141.6662  157.7308 C   0  0  0  0  0  0  0  0  0  0  0  0
  151.5206  142.6906  158.6829 C   0  0  0  0  0  0  0  0  0  0  0  0
  151.2377  141.8898  156.2403 C   0  0  0  0  0  0  0  0  0  0  0  0
  150.9477  140.8028  155.2996 N   0  0  0  0  0  0  0  0  0  0  0  0
  151.5907  139.5662  155.7321 C   0  0  0  0  0  0  0  0  0  0  0  0
  151.3116  138.4003  154.7702 C   0  0  0  0  0  0  0  0  0  0  0  0
  149.9061  138.2204  154.6440 O   0  0  0  0  0  0  0  0  0  0  0  0
  149.2414  139.3850  154.1605 C   0  0  1  0  0  0  0  0  0  0  0  0
  147.7382  139.0790  154.0466 C   0  0  0  0  0  0  0  0  0  0  0  0
  147.4922  137.8451  153.3079 N   0  0  0  0  0  0  0  0  0  0  0  0
  146.2894  137.2766  153.1409 C   0  0  0  0  0  0  0  0  0  0  0  0
  145.2495  137.7388  153.6116 O   0  0  0  0  0  0  0  0  0  0  0  0
  146.3782  136.1566  152.4024 N   0  0  0  0  0  0  0  0  0  0  0  0
  145.3344  135.2763  152.0133 C   0  0  0  0  0  0  0  0  0  0  0  0
  144.7594  134.3809  152.8249 N   0  0  0  0  0  0  0  0  0  0  0  0
  143.7622  133.6485  152.1757 C   0  0  0  0  0  0  0  0  0  0  0  0
  143.5892  134.0024  150.8608 C   0  0  0  0  0  0  0  0  0  0  0  0
  144.6782  135.2773  150.3827 S   0  0  0  0  0  0  0  0  0  0  0  0
  149.5185  140.5553  155.1254 C   0  0  0  0  0  0  0  0  0  0  0  0
  148.8041  142.3914  157.8394 H   0  0  0  0  0  0  0  0  0  0  0  0
  149.1971  141.1497  159.0107 H   0  0  0  0  0  0  0  0  0  0  0  0
  148.9585  140.7161  157.3264 H   0  0  0  0  0  0  0  0  0  0  0  0
  151.3253  140.7035  157.9866 H   0  0  0  0  0  0  0  0  0  0  0  0
  151.1024  143.6879  158.5463 H   0  0  0  0  0  0  0  0  0  0  0  0
  152.5971  142.7557  158.5214 H   0  0  0  0  0  0  0  0  0  0  0  0
  151.3610  142.4083  159.7239 H   0  0  0  0  0  0  0  0  0  0  0  0
  150.6634  142.7607  155.9205 H   0  0  0  0  0  0  0  0  0  0  0  0
  152.2823  142.1918  156.1505 H   0  0  0  0  0  0  0  0  0  0  0  0
  152.6681  139.7161  155.8083 H   0  0  0  0  0  0  0  0  0  0  0  0
  151.2422  139.2981  156.7309 H   0  0  0  0  0  0  0  0  0  0  0  0
  151.7529  138.5903  153.7905 H   0  0  0  0  0  0  0  0  0  0  0  0
  151.7564  137.4806  155.1500 H   0  0  0  0  0  0  0  0  0  0  0  0
  149.6355  139.6381  153.1743 H   0  0  0  0  0  0  0  0  0  0  0  0
  147.3000  138.9797  155.0402 H   0  0  0  0  0  0  0  0  0  0  0  0
  147.2183  139.9072  153.5616 H   0  0  0  0  0  0  0  0  0  0  0  0
  148.2941  137.4022  152.8838 H   0  0  0  0  0  0  0  0  0  0  0  0
  147.3013  135.9020  152.0835 H   0  0  0  0  0  0  0  0  0  0  0  0
  143.2237  132.8916  152.7270 H   0  0  0  0  0  0  0  0  0  0  0  0
  142.8899  133.5919  150.1476 H   0  0  0  0  0  0  0  0  0  0  0  0
  149.0560  140.3528  156.0927 H   0  0  0  0  0  0  0  0  0  0  0  0
  149.0341  141.4402  154.7199 H   0  0  0  0  0  0  0  0  0  0  0  0
  1  2  1  0  0  0  0
  1 21  1  0  0  0  0
  1 22  1  0  0  0  0
  1 23  1  0  0  0  0
  2  3  1  0  0  0  0
  2  4  1  0  0  0  0
  2 24  1  0  0  0  0
  3 25  1  0  0  0  0
  3 26  1  0  0  0  0
  3 27  1  0  0  0  0
  4  5  1  0  0  0  0
  4 28  1  0  0  0  0
  4 29  1  0  0  0  0
  5 20  1  0  0  0  0
  5  6  1  0  0  0  0
  6  7  1  0  0  0  0
  6 30  1  0  0  0  0
  6 31  1  0  0  0  0
  7  8  1  0  0  0  0
  7 32  1  0  0  0  0
  7 33  1  0  0  0  0
  8  9  1  0  0  0  0
  9 10  1  0  0  0  0
  9 20  1  0  0  0  0
  9 34  1  0  0  0  0
 10 11  1  0  0  0  0
 10 35  1  0  0  0  0
 10 36  1  0  0  0  0
 11 12  1  0  0  0  0
 11 37  1  0  0  0  0
 12 13  2  0  0  0  0
 12 14  1  0  0  0  0
 14 15  1  0  0  0  0
 14 38  1  0  0  0  0
 15 19  1  0  0  0  0
 15 16  2  0  0  0  0
 16 17  1  0  0  0  0
 17 18  2  0  0  0  0
 17 39  1  0  0  0  0
 18 19  1  0  0  0  0
 18 40  1  0  0  0  0
 20 41  1  0  0  0  0
 20 42  1  0  0  0  0
M  END
> <s_m_source_file>
AV-unprocessed.smi

> <i_m_source_file_index>
2062

> <i_lp_mmshare_version>
43012

> <i_f3d_flags>
0

> <s_epik_input>
W0NIM11bQ0hdKFtDSDNdKVtDSDJdTjFbQ0gyXVtDSDJdT1tDQEhdKFtDSDJdMSlbQ0gyXVtOSF1DKD1PKVtOSF1jMm5bY0hdW2NIXXMy

> <s_epik_cmdline>
J2VwaWtfcHl0aG9uJywgJy1waCcsICc3LjAnLCAnLXRuJywgJzgnLCAnLW1hJywgJzIwMCcsICctbWV0YWxfYmluZGluZycsICctaW1hZScsICc8aW5maWxlLm1hZT4nLCAnLW9tYWUnLCAnPG91dGZpbGUubWFlPic=

> <r_lp_tautomer_probability>
0.999

> <r_epik_Ionization_Penalty>
1.11227

> <r_epik_Ionization_Penalty_Charging>
0

> <r_epik_Ionization_Penalty_Neutral>
1.11227

> <r_epik_State_Penalty>
1.17021

> <r_epik_Charging_Adjusted_Penalty>
1.17021

> <i_epik_Tot_Q>
0

> <i_epik_Tot_abs_Q>
0

> <r_epik_Metal_State_Penalty>
1.22349

> <b_epik_Metal_Only>
0

> <s_lp_Force_Field>
OPLS_2005

> <r_lp_Energy>
27.0187

> <b_lp_Chiralities_Consistent>
1

> <s_lp_Variant>
AV-unprocessed.smi:2062-5

> <Gold.Version>
5.8.1

> <Gold.Id.Protein>
6NUR|6NUR_protein|mol2

> <Gold.PLP.Fitness>
39.6125

> <Gold.PLP.PLP>
-26.9670

> <Gold.PLP.part.hbond>
-3.0000

> <Gold.PLP.part.metal>
0.0000

> <Gold.PLP.part.buried>
-0.5044

> <Gold.PLP.part.nonpolar>
-23.2268

> <Gold.PLP.part.repulsive>
0.5320

> <Gold.PLP.ligand.clash>
0.0000

> <Gold.PLP.ligand.torsion>
0.8351

> <Gold.PLP.Chemscore.Hbond>
2.8160

> <Gold.PLP.Chemscore.CHOScore>
1.9345

> <Gold.PLP.Chemscore.Metal>
0.0000

> <Gold.Chemscore.Hbonds>
donor molecule, donor type, donor heavy atom, donor atom, acceptor molecule, acceptor atom, score
      L1  H    11    37       P1  7948  1.00
      L1  H    14    38       P1  7948  1.00
      P1  H  7989  7998       L1     5  0.76
      L1  C    17    39       P1 10957  1.00
      L1  C    18    40       P1 10186  0.94

> <Gold.PLP.Chemscore.Internal.Correction>
0.0643

> <Gold.Rescore>
     Score         DG    S(hbond)    S(metal)    S(lipo)     H(rot)  DE(clash)    DE(int)     intcor
     15.18     -16.20       1.91        0.00      74.73       1.72       0.17       0.86       ----

> <Gold.Chemscore.Fitness>
15.1781

> <Gold.Chemscore.DG>
-16.2004

> <Gold.Chemscore.ZeroCoef>
-5.4800

> <Gold.Chemscore.Hbond>
1.9099

> <Gold.Chemscore.Metal>
0.0000

> <Gold.Chemscore.Lipo>
74.7274

> <Gold.Chemscore.Internal_Hbond>
0.0000

> <Gold.Chemscore.DEClash>
0.1670

> <Gold.Chemscore.DEInternal>
0.8553

> <Gold.Chemscore.Rot>
1.7195

> <Gold.Chemscore.Internal.Correction>
   9.000000E+99

> <Gold.Chemscore.Hbonds>
donor molecule, donor type, donor heavy atom, donor atom, acceptor molecule, acceptor atom, score
      L1  H    11    37       P1  7948  0.95
      L1  H    14    38       P1  7948  0.97
      P1  H  7989  7998       L1     5  0.07

> <Gold.Chemscore.Hbond.Weighted>
-6.3791

> <Gold.Chemscore.Metal.Weighted>
-0.0000

> <Gold.Chemscore.Lipo.Weighted>
-8.7431

> <Gold.Chemscore.Internal_Hbond.Weighted>
0.0000

> <Gold.Chemscore.DEClash.Weighted>
0.1670

> <Gold.Chemscore.DEInternal.Weighted>
0.8553

> <Gold.Chemscore.Rot.Weighted>
4.4019

> <Gold.Chemscore.Internal.Correction.Weighted>
   9.000000E+99

> <Gold.Protein.RotatedTorsions>
[ 6907 6896 6895 6894 ] final   22.80 input  -60.11 | X-H torsion
[ 7974 7965 7964 7962 ] final  117.45 input  175.53 | X-H torsion
[ 8008 7997 7996 7995 ] final   49.53 input   59.86 | X-H torsion
[ 10167 10162 10161 10158 ] final  -84.66 input  -65.29 | X-H torsion
[ 10718 10713 10712 10709 ] final   81.48 input   66.30 | X-H torsion
[ 10763 10752 10751 10750 ] final  -71.22 input  -60.55 | X-H torsion
[ 11005 11000 10999 10996 ] final  105.25 input  -57.11 | X-H torsion

> <Gold.Protein.ActiveResidues>
 VAL166  LYS551  ARG553  GLY616  TRP617  ASP618  TYR619  PRO620  LYS621  CYS622 
 ASP623  PHE694  ASN695  SER759  ASP760  ASP761  ALA762  ILE779  LEU786  VAL792 
 PHE793  MET794  SER795  GLU796  ALA797  LYS798  CYS799  TRP800  GLU811  SER814 

> <Gold.Protein.RotatedAtoms>
  151.9326  135.0249  160.0530 H   0  0  0  0  0  0  0  0  0  0  0  0  # atno 6907 bound_to 6896
  152.2105  133.4903  159.5116 H   0  0  0  0  0  0  0  0  0  0  0  0  # atno 6908 bound_to 6896
  150.6975  134.1390  159.4140 H   0  0  0  0  0  0  0  0  0  0  0  0  # atno 6909 bound_to 6896
  145.1672  139.3121  143.4486 H   0  0  0  0  0  0  0  0  0  0  0  0  # atno 7974 bound_to 7965
  155.4037  140.3439  155.4259 H   0  0  0  0  0  0  0  0  0  0  0  0  # atno 8008 bound_to 7997
  156.1489  140.1564  156.8835 H   0  0  0  0  0  0  0  0  0  0  0  0  # atno 8009 bound_to 7997
  154.5034  140.0808  156.7826 H   0  0  0  0  0  0  0  0  0  0  0  0  # atno 8010 bound_to 7997
  140.4111  143.2622  151.9016 H   0  0  0  0  0  0  0  0  0  0  0  0  # atno 10167 bound_to 10162
  157.6834  131.0006  150.2233 H   0  0  0  0  0  0  0  0  0  0  0  0  # atno 10718 bound_to 10713
  154.4287  135.5969  153.6055 H   0  0  0  0  0  0  0  0  0  0  0  0  # atno 10763 bound_to 10752
  152.9797  135.5970  154.3865 H   0  0  0  0  0  0  0  0  0  0  0  0  # atno 10764 bound_to 10752
  154.3700  135.2841  155.2250 H   0  0  0  0  0  0  0  0  0  0  0  0  # atno 10765 bound_to 10752
  139.8800  134.9329  156.5485 H   0  0  0  0  0  0  0  0  0  0  0  0  # atno 11005 bound_to 11000
  146.3474  140.1805  142.8589 LP  0  0  0  0  0  0  0  0  0  0  0  0  # atno 17320 bound_to 7965
  145.0269  140.8840  143.5133 LP  0  0  0  0  0  0  0  0  0  0  0  0  # atno 17321 bound_to 7965
  139.4782  144.5535  151.8349 LP  0  0  0  0  0  0  0  0  0  0  0  0  # atno 17342 bound_to 10162
  140.4636  144.1686  150.5909 LP  0  0  0  0  0  0  0  0  0  0  0  0  # atno 17343 bound_to 10162
  156.2881  130.3742  149.7869 LP  0  0  0  0  0  0  0  0  0  0  0  0  # atno 17370 bound_to 10713
  156.5537  130.8353  151.3307 LP  0  0  0  0  0  0  0  0  0  0  0  0  # atno 17371 bound_to 10713
  140.8258  133.8318  155.8937 LP  0  0  0  0  0  0  0  0  0  0  0  0  # atno 17394 bound_to 11000
  140.9376  134.1942  157.4821 LP  0  0  0  0  0  0  0  0  0  0  0  0  # atno 17395 bound_to 11000

$$$$
