#       Name:                AV-unprocessed.smi:3330
#       Creating user name   scv26
#       Creation time:       Fri Mar 27 19:18:16 2020


#       File generated by GOLD software.
#

@<TRIPOS>MOLECULE
AV-unprocessed.smi:3330
    44    45     1
SMALL
NO_CHARGES


@<TRIPOS>ATOM
      1 ****        -1.9890  -1.5218  -1.4012 C.3            1 S1                 0.0000
      2 ****        -1.4847  -0.7866  -0.1434 C.3            1 S1                 0.0000
      3 ****        -0.0242  -0.7976  -0.1536 N.3            1 S1                 0.0000
      4 ****         0.5328   0.2824  -0.9533 C.3            1 S1                 0.0000
      5 ****         2.0648   0.2541  -0.8482 C.3            1 S1                 0.0000
      6 ****         2.6670   1.3211  -1.6523 N.am           1 S1                 0.0000
      7 ****         3.0525   1.1777  -2.9240 C.2            1 S1                 0.0000
      8 ****         2.9889   0.1675  -3.6254 O.2            1 S1                 0.0000
      9 ****         3.5935   2.5100  -3.3884 C.3            1 S1                 0.0000
     10 ****         3.4265   3.3374  -2.2150 N.pl3          1 S1                -1.0000
     11 ****         2.8754   2.5844  -1.2340 C.2            1 S1                 0.0000
     12 ****         2.5813   2.9575  -0.0986 O.2            1 S1                 0.0000
     13 ****        -1.9758  -1.4379   1.1784 C.3            1 S1                 0.0000
     14 ****        -3.5104  -1.5464   1.2700 C.3            1 S1                 0.0000
     15 ****        -1.4576  -0.7263   2.3431 N.pl3          1 S1                 0.0000
     16 ****        -0.5222  -1.1616   3.2596 C.2            1 S1                 0.0000
     17 ****        -0.3290  -0.1526   4.1590 C.2            1 S1                 0.0000
     18 ****        -1.1968   0.8776   3.7017 C.2            1 S1                 0.0000
     19 ****        -1.8708   0.5326   2.6170 N.2            1 S1                 0.0000
     20 ****        -3.0741  -1.4687  -1.4844 H              1 S1                 0.0000
     21 ****        -1.7068  -2.5750  -1.3856 H              1 S1                 0.0000
     22 ****        -1.5888  -1.0856  -2.3161 H              1 S1                 0.0000
     23 ****        -1.8373   0.2458  -0.1671 H              1 S1                 0.0000
     24 ****         0.3191  -1.6908  -0.4764 H              1 S1                 0.0000
     25 ****         0.2279   0.1793  -1.9946 H              1 S1                 0.0000
     26 ****         0.1528   1.2393  -0.5923 H              1 S1                 0.0000
     27 ****         2.3710   0.3580   0.1944 H              1 S1                 0.0000
     28 ****         2.4459  -0.7159  -1.1726 H              1 S1                 0.0000
     29 ****         4.6346   2.4018  -3.6940 H              1 S1                 0.0000
     30 ****         3.0236   2.8620  -4.2489 H              1 S1                 0.0000
     31 ****        -1.5802  -2.4539   1.2265 H              1 S1                 0.0000
     32 ****        -3.9106  -2.2291   0.5211 H              1 S1                 0.0000
     33 ****        -3.9904  -0.5774   1.1297 H              1 S1                 0.0000
     34 ****        -3.8162  -1.9304   2.2439 H              1 S1                 0.0000
     35 ****        -0.0734  -2.1417   3.1932 H              1 S1                 0.0000
     36 ****         0.3356  -0.1489   5.0101 H              1 S1                 0.0000
     37 ****        -1.3554   1.8596   4.1225 H              1 S1                 0.0000
     38 ****         0.2784  -0.6507   0.7881 LP             1 S1                 0.0000
     39 ****         2.6114  -0.6790  -3.2499 LP             1 S1                 0.0000
     40 ****         3.3148   0.1936  -4.5705 LP             1 S1                 0.0000
     41 ****         3.6759   4.3029  -2.1404 LP             1 S1                 0.0000
     42 ****         2.1727   2.3143   0.5489 LP             1 S1                 0.0000
     43 ****         2.7509   3.9039   0.1763 LP             1 S1                 0.0000
     44 ****        -2.5375   1.0805   2.1117 LP             1 S1                 0.0000
@<TRIPOS>BOND
    1    1    2 1     
    2    1   20 1     
    3    1   21 1     
    4    1   22 1     
    5    2    3 1     
    6    2   13 1     
    7    2   23 1     
    8    3    4 1     
    9    3   24 1     
   10    4    5 1     
   11    4   25 1     
   12    4   26 1     
   13    5    6 1     
   14    5   27 1     
   15    5   28 1     
   16    6   11 am    
   17    6    7 am    
   18    7    8 2     
   19    7    9 1     
   20    9   10 1     
   21    9   29 1     
   22    9   30 1     
   23   10   11 1     
   24   11   12 2     
   25   13   14 1     
   26   13   15 1     
   27   13   31 1     
   28   14   32 1     
   29   14   33 1     
   30   14   34 1     
   31   15   19 1     
   32   15   16 1     
   33   16   17 2     
   34   16   35 1     
   35   17   18 1     
   36   17   36 1     
   37   18   19 2     
   38   18   37 1     
   39    3   38 1     
   40    8   39 1     
   41    8   40 1     
   42   10   41 1     
   43   12   42 1     
   44   12   43 1     
   45   19   44 1     
@<TRIPOS>SUBSTRUCTURE
      1 S1             1
@<TRIPOS>SET
LONE_PAIRS      STATIC     ATOMS    <user>   **** ""
7 38 39 40 41 42 43 44
DONOR_HYDROGENS      STATIC     ATOMS    <user>   **** ""
1 24
ATOM$BLUE        STATIC     ATOMS    COLORGROUP SYSTEM
7 38 39 40 41 42 43 44
ATOM$RED        STATIC     ATOMS    COLORGROUP SYSTEM
1 24
