AV-unprocessed.smi:1825|AV-procd|sdf|7413|dock9
  -GOLD-   22720 9 93D 1   1.00000     0.00000
 Structure written by MMmdl.
 34 35  0  0  0  0  0  0  0  0  1 V2000
  145.2730  138.0707  153.8481 O   0  0  0  0  0  0  0  0  0  0  0  0
  146.2507  137.5553  153.3053 C   0  0  0  0  0  0  0  0  0  0  0  0
  146.2245  136.3500  152.7193 N   0  0  0  0  0  0  0  0  0  0  0  0
  145.0678  135.4585  152.6781 C   0  0  0  0  0  0  0  0  0  0  0  0
  145.0287  134.5625  151.4137 C   0  0  0  0  0  0  0  0  0  0  0  0
  145.0576  135.4263  150.2920 O   0  0  0  0  0  0  0  0  0  0  0  0
  146.3107  133.6970  151.3529 C   0  0  0  0  0  0  0  0  0  0  0  0
  146.3219  132.7129  150.1695 C   0  0  0  0  0  0  0  0  0  0  0  0
  145.0704  131.8247  150.1722 C   0  0  0  0  0  0  0  0  0  0  0  0
  143.7943  132.6774  150.1617 C   0  0  0  0  0  0  0  0  0  0  0  0
  143.7652  133.6663  151.3411 C   0  0  0  0  0  0  0  0  0  0  0  0
  147.4741  138.1068  153.2228 N   0  0  0  0  0  0  0  0  0  0  0  0
  147.9052  139.3650  153.7183 C   0  0  0  0  0  0  0  0  0  0  0  0
  149.1580  139.6363  154.1031 N   0  0  0  0  0  0  0  0  0  0  0  0
  149.2959  140.9530  154.5493 C   0  0  0  0  0  0  0  0  0  0  0  0
  148.1296  141.6751  154.4976 C   0  0  0  0  0  0  0  0  0  0  0  0
  146.8035  140.7242  153.8840 S   0  0  0  0  0  0  0  0  0  0  0  0
  147.0746  136.0078  152.2965 H   0  0  0  0  0  0  0  0  0  0  0  0
  144.9960  134.8580  153.5871 H   0  0  0  0  0  0  0  0  0  0  0  0
  144.1913  136.1070  152.6851 H   0  0  0  0  0  0  0  0  0  0  0  0
  145.4712  134.9714  149.5746 H   0  0  0  0  0  0  0  0  0  0  0  0
  147.1953  134.3341  151.3087 H   0  0  0  0  0  0  0  0  0  0  0  0
  146.4011  133.1232  152.2765 H   0  0  0  0  0  0  0  0  0  0  0  0
  146.3804  133.2626  149.2293 H   0  0  0  0  0  0  0  0  0  0  0  0
  147.2164  132.0914  150.2155 H   0  0  0  0  0  0  0  0  0  0  0  0
  145.0823  131.1618  149.3065 H   0  0  0  0  0  0  0  0  0  0  0  0
  145.0765  131.1835  151.0546 H   0  0  0  0  0  0  0  0  0  0  0  0
  143.7275  133.2243  149.2204 H   0  0  0  0  0  0  0  0  0  0  0  0
  142.9174  132.0305  150.2017 H   0  0  0  0  0  0  0  0  0  0  0  0
  143.6750  133.1010  152.2697 H   0  0  0  0  0  0  0  0  0  0  0  0
  142.8633  134.2752  151.2679 H   0  0  0  0  0  0  0  0  0  0  0  0
  148.1824  137.5589  152.7572 H   0  0  0  0  0  0  0  0  0  0  0  0
  150.2632  141.2941  154.8873 H   0  0  0  0  0  0  0  0  0  0  0  0
  147.9710  142.7044  154.7827 H   0  0  0  0  0  0  0  0  0  0  0  0
  1  2  2  0  0  0  0
  2  3  1  0  0  0  0
  2 12  1  0  0  0  0
  3  4  1  0  0  0  0
  3 18  1  0  0  0  0
  4  5  1  0  0  0  0
  4 19  1  0  0  0  0
  4 20  1  0  0  0  0
  5 11  1  0  0  0  0
  5  6  1  0  0  0  0
  5  7  1  0  0  0  0
  6 21  1  0  0  0  0
  7  8  1  0  0  0  0
  7 22  1  0  0  0  0
  7 23  1  0  0  0  0
  8  9  1  0  0  0  0
  8 24  1  0  0  0  0
  8 25  1  0  0  0  0
  9 10  1  0  0  0  0
  9 26  1  0  0  0  0
  9 27  1  0  0  0  0
 10 11  1  0  0  0  0
 10 28  1  0  0  0  0
 10 29  1  0  0  0  0
 11 30  1  0  0  0  0
 11 31  1  0  0  0  0
 12 13  1  0  0  0  0
 12 32  1  0  0  0  0
 13 17  1  0  0  0  0
 13 14  2  0  0  0  0
 14 15  1  0  0  0  0
 15 16  2  0  0  0  0
 15 33  1  0  0  0  0
 16 17  1  0  0  0  0
 16 34  1  0  0  0  0
M  END
> <s_m_source_file>
AV-unprocessed.smi

> <i_m_source_file_index>
1825

> <i_lp_mmshare_version>
43012

> <i_f3d_flags>
0

> <s_epik_input>
czFbY0hdW2NIXW5jMVtOSF1DKD1PKVtOSF1bQ0gyXUMyKFtPSF0pW0NIMl1bQ0gyXVtDSDJdW0NIMl1bQ0gyXTI=

> <s_epik_cmdline>
J2VwaWtfcHl0aG9uJywgJy1waCcsICc3LjAnLCAnLXRuJywgJzgnLCAnLW1hJywgJzIwMCcsICctbWV0YWxfYmluZGluZycsICctaW1hZScsICc8aW5maWxlLm1hZT4nLCAnLW9tYWUnLCAnPG91dGZpbGUubWFlPic=

> <r_lp_tautomer_probability>
0.999

> <r_epik_Ionization_Penalty>
0.000358719

> <r_epik_Ionization_Penalty_Charging>
0

> <r_epik_Ionization_Penalty_Neutral>
0.000358719

> <r_epik_State_Penalty>
0.000177984

> <r_epik_Charging_Adjusted_Penalty>
0.000177984

> <i_epik_Tot_Q>
0

> <i_epik_Tot_abs_Q>
0

> <r_epik_Metal_State_Penalty>
0.00708714

> <b_epik_Metal_Only>
0

> <s_lp_Force_Field>
OPLS_2005

> <r_lp_Energy>
11.7205

> <b_lp_Chiralities_Consistent>
1

> <s_lp_Variant>
AV-unprocessed.smi:1825-1

> <Gold.Version>
5.8.1

> <Gold.Id.Protein>
6NUR|6NUR_protein|mol2

> <Gold.PLP.Fitness>
42.8677

> <Gold.PLP.PLP>
-31.5938

> <Gold.PLP.part.hbond>
-3.0000

> <Gold.PLP.part.metal>
0.0000

> <Gold.PLP.part.buried>
-5.1796

> <Gold.PLP.part.nonpolar>
-24.9690

> <Gold.PLP.part.repulsive>
1.2437

> <Gold.PLP.ligand.clash>
0.0000

> <Gold.PLP.ligand.torsion>
0.3665

> <Gold.PLP.Chemscore.Hbond>
3.0000

> <Gold.PLP.Chemscore.CHOScore>
1.0000

> <Gold.PLP.Chemscore.Metal>
0.0000

> <Gold.Chemscore.Hbonds>
donor molecule, donor type, donor heavy atom, donor atom, acceptor molecule, acceptor atom, score
      L1  H     3    18       P1  7948  1.00
      L1  H     6    21       P1  7921  0.94
      L1  H    12    32       P1  7948  1.00
      L1  C    16    34       P1  8028  1.00

> <Gold.PLP.Chemscore.Internal.Correction>
0.0069

> <Gold.Rescore>
     Score         DG    S(hbond)    S(metal)    S(lipo)     H(rot)  DE(clash)    DE(int)     intcor
     18.47     -19.09       2.94        0.00      72.99       1.86       0.19       0.44       ----

> <Gold.Chemscore.Fitness>
18.4669

> <Gold.Chemscore.DG>
-19.0914

> <Gold.Chemscore.ZeroCoef>
-5.4800

> <Gold.Chemscore.Hbond>
2.9420

> <Gold.Chemscore.Metal>
0.0000

> <Gold.Chemscore.Lipo>
72.9900

> <Gold.Chemscore.Internal_Hbond>
0.0000

> <Gold.Chemscore.DEClash>
0.1882

> <Gold.Chemscore.DEInternal>
0.4363

> <Gold.Chemscore.Rot>
1.8572

> <Gold.Chemscore.Internal.Correction>
   9.000000E+99

> <Gold.Chemscore.Hbonds>
donor molecule, donor type, donor heavy atom, donor atom, acceptor molecule, acceptor atom, score
      L1  H     3    18       P1  7948  0.96
      L1  H     6    21       P1  7921  0.87
      L1  H    12    32       P1  7948  1.00

> <Gold.Chemscore.Hbond.Weighted>
-9.8262

> <Gold.Chemscore.Metal.Weighted>
-0.0000

> <Gold.Chemscore.Lipo.Weighted>
-8.5398

> <Gold.Chemscore.Internal_Hbond.Weighted>
0.0000

> <Gold.Chemscore.DEClash.Weighted>
0.1882

> <Gold.Chemscore.DEInternal.Weighted>
0.4363

> <Gold.Chemscore.Rot.Weighted>
4.7545

> <Gold.Chemscore.Internal.Correction.Weighted>
   9.000000E+99

> <Gold.Protein.RotatedTorsions>
[ 6907 6896 6895 6894 ] final   68.27 input  -60.11 | X-H torsion
[ 7974 7965 7964 7962 ] final  -18.82 input  175.53 | X-H torsion
[ 8008 7997 7996 7995 ] final  -42.64 input   59.86 | X-H torsion
[ 10167 10162 10161 10158 ] final   14.33 input  -65.29 | X-H torsion
[ 10718 10713 10712 10709 ] final   33.32 input   66.30 | X-H torsion
[ 10763 10752 10751 10750 ] final  -69.89 input  -60.55 | X-H torsion
[ 11005 11000 10999 10996 ] final -157.72 input  -57.11 | X-H torsion

> <Gold.Protein.ActiveResidues>
 VAL166  LYS551  ARG553  GLY616  TRP617  ASP618  TYR619  PRO620  LYS621  CYS622 
 ASP623  PHE694  ASN695  SER759  ASP760  ASP761  ALA762  ILE779  LEU786  VAL792 
 PHE793  MET794  SER795  GLU796  ALA797  LYS798  CYS799  TRP800  GLU811  SER814 

> <Gold.Protein.RotatedAtoms>
  152.4609  134.5186  159.9775 H   0  0  0  0  0  0  0  0  0  0  0  0  # atno 6907 bound_to 6896
  151.5235  133.3456  159.2913 H   0  0  0  0  0  0  0  0  0  0  0  0  # atno 6908 bound_to 6896
  150.8572  134.7943  159.7117 H   0  0  0  0  0  0  0  0  0  0  0  0  # atno 6909 bound_to 6896
  146.1873  140.3976  142.8471 H   0  0  0  0  0  0  0  0  0  0  0  0  # atno 7974 bound_to 7965
  154.3998  140.1468  156.3388 H   0  0  0  0  0  0  0  0  0  0  0  0  # atno 8008 bound_to 7997
  155.8376  140.3463  155.5590 H   0  0  0  0  0  0  0  0  0  0  0  0  # atno 8009 bound_to 7997
  155.8122  140.0885  157.1888 H   0  0  0  0  0  0  0  0  0  0  0  0  # atno 8010 bound_to 7997
  140.5943  143.8733  150.6903 H   0  0  0  0  0  0  0  0  0  0  0  0  # atno 10167 bound_to 10162
  157.2964  130.7328  149.6641 H   0  0  0  0  0  0  0  0  0  0  0  0  # atno 10718 bound_to 10713
  154.4098  135.6011  153.5946 H   0  0  0  0  0  0  0  0  0  0  0  0  # atno 10763 bound_to 10752
  152.9790  135.5926  154.4083 H   0  0  0  0  0  0  0  0  0  0  0  0  # atno 10764 bound_to 10752
  154.3894  135.2842  155.2142 H   0  0  0  0  0  0  0  0  0  0  0  0  # atno 10765 bound_to 10752
  140.6615  134.4344  157.5234 H   0  0  0  0  0  0  0  0  0  0  0  0  # atno 11005 bound_to 11000
  144.8420  140.6871  143.6223 LP  0  0  0  0  0  0  0  0  0  0  0  0  # atno 17320 bound_to 7965
  145.3901  139.1618  143.4234 LP  0  0  0  0  0  0  0  0  0  0  0  0  # atno 17321 bound_to 7965
  140.2264  143.3769  152.1602 LP  0  0  0  0  0  0  0  0  0  0  0  0  # atno 17342 bound_to 10162
  139.5248  144.7088  151.5272 LP  0  0  0  0  0  0  0  0  0  0  0  0  # atno 17343 bound_to 10162
  155.9669  130.4293  150.4827 LP  0  0  0  0  0  0  0  0  0  0  0  0  # atno 17370 bound_to 10713
  157.2799  131.0605  151.2204 LP  0  0  0  0  0  0  0  0  0  0  0  0  # atno 17371 bound_to 10713
  139.9011  134.8553  156.1892 LP  0  0  0  0  0  0  0  0  0  0  0  0  # atno 17394 bound_to 11000
  141.0461  133.6912  156.1686 LP  0  0  0  0  0  0  0  0  0  0  0  0  # atno 17395 bound_to 11000

$$$$
