#       Name:                AV-unprocessed.smi:1345
#       Creating user name   scv26
#       Creation time:       Fri Mar 27 05:09:27 2020


#       File generated by GOLD software.
#

@<TRIPOS>MOLECULE
AV-unprocessed.smi:1345
    45    46     1
SMALL
NO_CHARGES


@<TRIPOS>ATOM
      1 ****        -1.8435   0.8864  -3.3005 C.3            1 S1                 0.0000
      2 ****        -2.5315   0.3629  -2.0244 C.3            1 S1                 0.0000
      3 ****        -4.0242   0.1194  -2.3116 C.3            1 S1                 0.0000
      4 ****        -2.3072   1.3018  -0.8094 C.3            1 S1                 0.0000
      5 ****        -2.9169   0.7618   0.4985 C.3            1 S1                 0.0000
      6 ****        -0.8769   1.5223  -0.6026 N.am           1 S1                 0.0000
      7 ****        -0.3183   2.6297  -0.0877 C.2            1 S1                 0.0000
      8 ****        -0.9634   3.6183   0.2608 O.2            1 S1                 0.0000
      9 ****         1.2042   2.6184   0.0584 C.3            1 S1                 0.0000
     10 ****         1.6139   1.6671   1.1455 C.2            1 S1                 0.0000
     11 ****         1.6993   1.9397   2.4890 C.2            1 S1                 0.0000
     12 ****         2.1992   0.5466   3.4078 S.3            1 S1                 0.0000
     13 ****         2.2806  -0.3747   1.9032 C.2            1 S1                 0.0000
     14 ****         2.6440  -1.7476   1.7696 N.am           1 S1                 0.0000
     15 ****         2.6664  -2.4123   0.4701 C.3            1 S1                 0.0000
     16 ****         3.0965  -3.8393   0.7961 C.3            1 S1                 0.0000
     17 ****         3.2584  -3.7875   2.2299 N.am           1 S1                 0.0000
     18 ****         2.9954  -2.5910   2.7607 C.2            1 S1                 0.0000
     19 ****         3.0727  -2.3400   3.9620 O.2            1 S1                 0.0000
     20 ****         1.9541   0.3479   0.8265 N.2            1 S1                 0.0000
     21 ****        -2.2128   1.8764  -3.5696 H              1 S1                 0.0000
     22 ****        -2.0280   0.2237  -4.1466 H              1 S1                 0.0000
     23 ****        -0.7621   0.9548  -3.1828 H              1 S1                 0.0000
     24 ****        -2.0839  -0.6042  -1.7907 H              1 S1                 0.0000
     25 ****        -4.5524   1.0574  -2.4860 H              1 S1                 0.0000
     26 ****        -4.5176  -0.3966  -1.4887 H              1 S1                 0.0000
     27 ****        -4.1564  -0.5036  -3.1966 H              1 S1                 0.0000
     28 ****        -2.7791   2.2598  -1.0360 H              1 S1                 0.0000
     29 ****        -4.0024   0.6908   0.4402 H              1 S1                 0.0000
     30 ****        -2.6913   1.4188   1.3391 H              1 S1                 0.0000
     31 ****        -2.5270  -0.2276   0.7395 H              1 S1                 0.0000
     32 ****        -0.2616   0.7630  -0.8572 H              1 S1                 0.0000
     33 ****         1.6537   2.3408  -0.8959 H              1 S1                 0.0000
     34 ****         1.5540   3.6272   0.2815 H              1 S1                 0.0000
     35 ****         1.4918   2.8723   2.9927 H              1 S1                 0.0000
     36 ****         1.6783  -2.3893   0.0079 H              1 S1                 0.0000
     37 ****         3.3766  -1.9254  -0.2000 H              1 S1                 0.0000
     38 ****         2.3354  -4.5706   0.5213 H              1 S1                 0.0000
     39 ****         4.0376  -4.1052   0.3131 H              1 S1                 0.0000
     40 ****         3.5450  -4.5905   2.7712 H              1 S1                 0.0000
     41 ****        -1.9589   3.6244   0.1666 LP             1 S1                 0.0000
     42 ****        -0.4920   4.4154   0.6382 LP             1 S1                 0.0000
     43 ****         2.8616  -1.4212   4.2954 LP             1 S1                 0.0000
     44 ****         3.3466  -3.0548   4.6056 LP             1 S1                 0.0000
     45 ****         1.9532  -0.0151  -0.1053 LP             1 S1                 0.0000
@<TRIPOS>BOND
    1    1    2 1     
    2    1   21 1     
    3    1   22 1     
    4    1   23 1     
    5    2    3 1     
    6    2    4 1     
    7    2   24 1     
    8    3   25 1     
    9    3   26 1     
   10    3   27 1     
   11    4    5 1     
   12    4    6 1     
   13    4   28 1     
   14    5   29 1     
   15    5   30 1     
   16    5   31 1     
   17    6    7 am    
   18    6   32 1     
   19    7    8 2     
   20    7    9 1     
   21    9   10 1     
   22    9   33 1     
   23    9   34 1     
   24   10   20 1     
   25   10   11 2     
   26   11   12 1     
   27   11   35 1     
   28   12   13 1     
   29   13   14 1     
   30   13   20 2     
   31   14   18 am    
   32   14   15 1     
   33   15   16 1     
   34   15   36 1     
   35   15   37 1     
   36   16   17 1     
   37   16   38 1     
   38   16   39 1     
   39   17   18 am    
   40   17   40 1     
   41   18   19 2     
   42    8   41 1     
   43    8   42 1     
   44   19   43 1     
   45   19   44 1     
   46   20   45 1     
@<TRIPOS>SUBSTRUCTURE
      1 S1             1
@<TRIPOS>SET
LONE_PAIRS      STATIC     ATOMS    <user>   **** ""
5 41 42 43 44 45
DONOR_HYDROGENS      STATIC     ATOMS    <user>   **** ""
2 32 40
ATOM$BLUE        STATIC     ATOMS    COLORGROUP SYSTEM
5 41 42 43 44 45
ATOM$RED        STATIC     ATOMS    COLORGROUP SYSTEM
2 32 40
