#       Name:                AV-unprocessed.smi:3091
#       Creating user name   scv26
#       Creation time:       Fri Mar 27 17:16:01 2020


#       File generated by GOLD software.
#

@<TRIPOS>MOLECULE
AV-unprocessed.smi:3091
    34    35     1
SMALL
NO_CHARGES


@<TRIPOS>ATOM
      1 ****        -4.1322   0.4216   1.1305 N.4            1 S1                 1.0000
      2 ****        -3.6734  -0.7618   0.3859 C.3            1 S1                 0.0000
      3 ****        -2.1756  -0.9365   0.5287 C.ar           1 S1                 0.0000
      4 ****        -1.6383  -1.6920   1.5902 C.ar           1 S1                 0.0000
      5 ****        -0.2384  -1.8188   1.6802 C.ar           1 S1                 0.0000
      6 ****         0.6138  -1.2503   0.8015 N.ar           1 S1                 0.0000
      7 ****         0.0971  -0.5223  -0.2195 C.ar           1 S1                 0.0000
      8 ****         0.9550   0.0640  -1.1292 O.3            1 S1                 0.0000
      9 ****         2.3674  -0.0686  -0.9541 C.3            1 S1                 0.0000
     10 ****         2.8832   0.9140   0.0896 C.3            1 S1                 0.0000
     11 ****         3.1655   2.1575  -0.7405 C.3            1 S1                 0.0000
     12 ****         3.7240   1.6240  -1.9287 O.3            1 S1                 0.0000
     13 ****         3.0539   0.4072  -2.2435 C.3            1 S1                 0.0000
     14 ****        -1.2905  -0.3398  -0.3924 C.ar           1 S1                 0.0000
     15 ****        -5.1327   0.5175   1.0315 H              1 S1                 0.0000
     16 ****        -3.6757   1.2451   0.7649 H              1 S1                 0.0000
     17 ****        -4.1898  -1.6466   0.7598 H              1 S1                 0.0000
     18 ****        -3.9388  -0.6525  -0.6661 H              1 S1                 0.0000
     19 ****        -2.2789  -2.1662   2.3195 H              1 S1                 0.0000
     20 ****         0.2085  -2.3911   2.4796 H              1 S1                 0.0000
     21 ****         2.6516  -1.0987  -0.7333 H              1 S1                 0.0000
     22 ****         2.1869   1.0992   0.9077 H              1 S1                 0.0000
     23 ****         3.8143   0.5417   0.5185 H              1 S1                 0.0000
     24 ****         2.2415   2.6884  -0.9749 H              1 S1                 0.0000
     25 ****         3.8491   2.8501  -0.2491 H              1 S1                 0.0000
     26 ****         3.7826  -0.3205  -2.6018 H              1 S1                 0.0000
     27 ****         2.3322   0.5755  -3.0439 H              1 S1                 0.0000
     28 ****        -1.6633   0.2473  -1.2193 H              1 S1                 0.0000
     29 ****        -3.8977   0.3139   2.1069 H              1 S1                 0.0000
     30 ****         1.6024  -1.3632   0.9009 LP             1 S1                 0.0000
     31 ****         0.7530   1.0433  -1.1294 LP             1 S1                 0.0000
     32 ****         0.7359  -0.3218  -2.0254 LP             1 S1                 0.0000
     33 ****         4.6983   1.4456  -1.7916 LP             1 S1                 0.0000
     34 ****         3.6066   2.2760  -2.6777 LP             1 S1                 0.0000
@<TRIPOS>BOND
    1    1    2 1     
    2    1   15 1     
    3    1   16 1     
    4    1   29 1     
    5    2    3 1     
    6    2   17 1     
    7    2   18 1     
    8    3   14 ar    
    9    3    4 ar    
   10    4    5 ar    
   11    4   19 1     
   12    5    6 ar    
   13    5   20 1     
   14    6    7 ar    
   15    7    8 1     
   16    7   14 ar    
   17    8    9 1     
   18    9   13 1     
   19    9   10 1     
   20    9   21 1     
   21   10   11 1     
   22   10   22 1     
   23   10   23 1     
   24   11   12 1     
   25   11   24 1     
   26   11   25 1     
   27   12   13 1     
   28   13   26 1     
   29   13   27 1     
   30   14   28 1     
   31    6   30 1     
   32    8   31 1     
   33    8   32 1     
   34   12   33 1     
   35   12   34 1     
@<TRIPOS>SUBSTRUCTURE
      1 S1             1
@<TRIPOS>SET
LONE_PAIRS      STATIC     ATOMS    <user>   **** ""
5 30 31 32 33 34
DONOR_HYDROGENS      STATIC     ATOMS    <user>   **** ""
3 15 16 29
ATOM$BLUE        STATIC     ATOMS    COLORGROUP SYSTEM
5 30 31 32 33 34
ATOM$RED        STATIC     ATOMS    COLORGROUP SYSTEM
3 15 16 29
