AV-unprocessed.smi:2568|AV-procd|sdf|10094|dock8
  -GOLD-   2272014113D 1   1.00000     0.00000
 Structure written by MMmdl.
 25 26  0  0  0  0  0  0  0  0  2 V2000
  148.3152  135.0282  155.1028 C   0  0  0  0  0  0  0  0  0  0  0  0
  147.2365  134.4522  154.2494 C   0  0  0  0  0  0  0  0  0  0  0  0
  146.1668  133.7944  154.7056 N   0  0  0  0  0  0  0  0  0  0  0  0
  145.4417  133.4439  153.5795 N   0  0  0  0  0  0  0  0  0  0  0  0
  146.1392  133.9199  152.5424 C   0  0  0  0  0  0  0  0  0  0  0  0
  145.7377  133.7928  151.1065 C   0  0  2  0  0  0  0  0  0  0  0  0
  144.3307  134.3607  150.8369 C   0  0  0  0  0  0  0  0  0  0  0  0
  143.9478  134.1162  149.4326 N   0  3  0  0  0  0  0  0  0  0  0  0
  144.0518  132.6849  149.0859 C   0  0  0  0  0  0  0  0  0  0  0  0
  145.4616  132.1616  149.4127 C   0  0  0  0  0  0  0  0  0  0  0  0
  145.7587  132.4043  150.7841 O   0  0  0  0  0  0  0  0  0  0  0  0
  147.2596  134.5576  152.9131 N   0  0  0  0  0  0  0  0  0  0  0  0
  147.9536  135.0045  152.3314 H   0  0  0  0  0  0  0  0  0  0  0  0
  148.1935  134.7091  156.1385 H   0  0  0  0  0  0  0  0  0  0  0  0
  148.2789  136.1171  155.0671 H   0  0  0  0  0  0  0  0  0  0  0  0
  149.2919  134.6960  154.7500 H   0  0  0  0  0  0  0  0  0  0  0  0
  146.4756  134.3138  150.4931 H   0  0  0  0  0  0  0  0  0  0  0  0
  143.5963  133.8884  151.4912 H   0  0  0  0  0  0  0  0  0  0  0  0
  144.3008  135.4315  151.0395 H   0  0  0  0  0  0  0  0  0  0  0  0
  142.9991  134.4301  149.2833 H   0  0  0  0  0  0  0  0  0  0  0  0
  143.3031  132.1249  149.6480 H   0  0  0  0  0  0  0  0  0  0  0  0
  143.8270  132.5505  148.0277 H   0  0  0  0  0  0  0  0  0  0  0  0
  145.5185  131.0896  149.2226 H   0  0  0  0  0  0  0  0  0  0  0  0
  146.2107  132.6372  148.7775 H   0  0  0  0  0  0  0  0  0  0  0  0
  144.5666  134.6409  148.8310 H   0  0  0  0  0  0  0  0  0  0  0  0
  1 14  1  0  0  0  0
  1 15  1  0  0  0  0
  1 16  1  0  0  0  0
  1  2  1  0  0  0  0
  2  3  2  0  0  0  0
  2 12  1  0  0  0  0
  3  4  1  0  0  0  0
  4  5  2  0  0  0  0
  5 12  1  0  0  0  0
  5  6  1  0  0  0  0
  6 11  1  0  0  0  0
  6  7  1  0  0  0  0
  6 17  1  0  0  0  0
  7  8  1  0  0  0  0
  7 18  1  0  0  0  0
  7 19  1  0  0  0  0
  8  9  1  0  0  0  0
  8 20  1  0  0  0  0
  8 25  1  0  0  0  0
  9 10  1  0  0  0  0
  9 21  1  0  0  0  0
  9 22  1  0  0  0  0
 10 11  1  0  0  0  0
 10 23  1  0  0  0  0
 10 24  1  0  0  0  0
 12 13  1  0  0  0  0
M  CHG  1   8   1
M  END
> <s_m_source_file>
AV-unprocessed.smi

> <i_m_source_file_index>
2568

> <i_lp_mmshare_version>
43012

> <i_f3d_flags>
0

> <s_epik_input>
W0NIM11jMW5bbkhdYyhuMSlbQ0BASF0yW0NIMl1bTkhdW0NIMl1bQ0gyXU8y

> <s_epik_cmdline>
J2VwaWtfcHl0aG9uJywgJy1waCcsICc3LjAnLCAnLXRuJywgJzgnLCAnLW1hJywgJzIwMCcsICctbWV0YWxfYmluZGluZycsICctaW1hZScsICc8aW5maWxlLm1hZT4nLCAnLW9tYWUnLCAnPG91dGZpbGUubWFlPic=

> <r_lp_tautomer_probability>
0.0517155

> <r_epik_Ionization_Penalty>
0.290065

> <r_epik_Ionization_Penalty_Charging>
0.125708

> <r_epik_Ionization_Penalty_Neutral>
0.164357

> <r_epik_State_Penalty>
2.14308

> <r_epik_Charging_Adjusted_Penalty>
2.26879

> <i_epik_Tot_Q>
1

> <i_epik_Tot_abs_Q>
1

> <r_epik_Metal_State_Penalty>
2.44434

> <b_epik_Metal_Only>
0

> <s_lp_Force_Field>
OPLS_2005

> <r_lp_Energy>
13.5699

> <b_lp_Chiralities_Consistent>
1

> <s_lp_Variant>
AV-unprocessed.smi:2568-7

> <Gold.Version>
5.8.1

> <Gold.Id.Protein>
6NUR|6NUR_protein|mol2

> <Gold.PLP.Fitness>
31.2646

> <Gold.PLP.PLP>
-19.3331

> <Gold.PLP.part.hbond>
-3.0000

> <Gold.PLP.part.metal>
0.0000

> <Gold.PLP.part.buried>
-4.0394

> <Gold.PLP.part.nonpolar>
-13.1440

> <Gold.PLP.part.repulsive>
0.4017

> <Gold.PLP.ligand.clash>
0.0000

> <Gold.PLP.ligand.torsion>
0.0347

> <Gold.PLP.Chemscore.Hbond>
4.0000

> <Gold.PLP.Chemscore.CHOScore>
0.0000

> <Gold.PLP.Chemscore.Metal>
0.0000

> <Gold.Chemscore.Hbonds>
donor molecule, donor type, donor heavy atom, donor atom, acceptor molecule, acceptor atom, score
      L1  H     8    20       P1 10186  2.00
      L1  H     8    25       P1  7921  1.00
      L1  H    12    13       P1  7948  1.00

> <Gold.PLP.Chemscore.Internal.Correction>
0.0009

> <Gold.Rescore>
     Score         DG    S(hbond)    S(metal)    S(lipo)     H(rot)  DE(clash)    DE(int)     intcor
     17.45     -17.48       2.91        0.00      41.30       1.00       0.00       0.04       ----

> <Gold.Chemscore.Fitness>
17.4452

> <Gold.Chemscore.DG>
-17.4844

> <Gold.Chemscore.ZeroCoef>
-5.4800

> <Gold.Chemscore.Hbond>
2.9137

> <Gold.Chemscore.Metal>
0.0000

> <Gold.Chemscore.Lipo>
41.3044

> <Gold.Chemscore.Internal_Hbond>
0.0000

> <Gold.Chemscore.DEClash>
0.0000

> <Gold.Chemscore.DEInternal>
0.0392

> <Gold.Chemscore.Rot>
1.0000

> <Gold.Chemscore.Internal.Correction>
   9.000000E+99

> <Gold.Chemscore.Hbonds>
donor molecule, donor type, donor heavy atom, donor atom, acceptor molecule, acceptor atom, score
      L1  H     8    20       P1 10186  0.94
      L1  H     8    25       P1  7921  0.95
      L1  H    12    13       P1  7948  0.81

> <Gold.Chemscore.Hbond.Weighted>
-9.7318

> <Gold.Chemscore.Metal.Weighted>
-0.0000

> <Gold.Chemscore.Lipo.Weighted>
-4.8326

> <Gold.Chemscore.Internal_Hbond.Weighted>
0.0000

> <Gold.Chemscore.DEClash.Weighted>
0.0000

> <Gold.Chemscore.DEInternal.Weighted>
0.0392

> <Gold.Chemscore.Rot.Weighted>
2.5600

> <Gold.Chemscore.Internal.Correction.Weighted>
   9.000000E+99

> <Gold.Protein.RotatedTorsions>
[ 6907 6896 6895 6894 ] final  132.14 input  -60.11 | X-H torsion
[ 7974 7965 7964 7962 ] final  101.31 input  175.53 | X-H torsion
[ 8008 7997 7996 7995 ] final   94.84 input   59.86 | X-H torsion
[ 10167 10162 10161 10158 ] final  -98.40 input  -65.29 | X-H torsion
[ 10718 10713 10712 10709 ] final  170.55 input   66.30 | X-H torsion
[ 10763 10752 10751 10750 ] final  102.04 input  -60.55 | X-H torsion
[ 11005 11000 10999 10996 ] final   45.46 input  -57.11 | X-H torsion

> <Gold.Protein.ActiveResidues>
 VAL166  LYS551  ARG553  GLY616  TRP617  ASP618  TYR619  PRO620  LYS621  CYS622 
 ASP623  PHE694  ASN695  SER759  ASP760  ASP761  ALA762  ILE779  LEU786  VAL792 
 PHE793  MET794  SER795  GLU796  ALA797  LYS798  CYS799  TRP800  GLU811  SER814 

> <Gold.Protein.RotatedAtoms>
  152.3354  133.6006  159.5838 H   0  0  0  0  0  0  0  0  0  0  0  0  # atno 6907 bound_to 6896
  150.7447  133.9804  159.3583 H   0  0  0  0  0  0  0  0  0  0  0  0  # atno 6908 bound_to 6896
  151.7674  135.0796  160.0406 H   0  0  0  0  0  0  0  0  0  0  0  0  # atno 6909 bound_to 6896
  145.3740  139.2392  143.3440 H   0  0  0  0  0  0  0  0  0  0  0  0  # atno 7974 bound_to 7965
  156.0624  140.3294  155.7477 H   0  0  0  0  0  0  0  0  0  0  0  0  # atno 8008 bound_to 7997
  155.5435  140.0604  157.2882 H   0  0  0  0  0  0  0  0  0  0  0  0  # atno 8009 bound_to 7997
  154.4488  140.1906  156.0602 H   0  0  0  0  0  0  0  0  0  0  0  0  # atno 8010 bound_to 7997
  140.2733  143.3329  152.0513 H   0  0  0  0  0  0  0  0  0  0  0  0  # atno 10167 bound_to 10162
  157.0064  131.0191  151.2816 H   0  0  0  0  0  0  0  0  0  0  0  0  # atno 10718 bound_to 10713
  153.3345  135.4024  155.1522 H   0  0  0  0  0  0  0  0  0  0  0  0  # atno 10763 bound_to 10752
  154.8630  135.3618  154.5427 H   0  0  0  0  0  0  0  0  0  0  0  0  # atno 10764 bound_to 10752
  153.5868  135.7075  153.5499 H   0  0  0  0  0  0  0  0  0  0  0  0  # atno 10765 bound_to 10752
  140.1458  134.4525  155.8417 H   0  0  0  0  0  0  0  0  0  0  0  0  # atno 11005 bound_to 11000
  146.2872  140.4396  142.8753 LP  0  0  0  0  0  0  0  0  0  0  0  0  # atno 17320 bound_to 7965
  144.8556  140.7065  143.6140 LP  0  0  0  0  0  0  0  0  0  0  0  0  # atno 17321 bound_to 7965
  139.4983  144.6641  151.6396 LP  0  0  0  0  0  0  0  0  0  0  0  0  # atno 17342 bound_to 10162
  140.5872  143.9844  150.6302 LP  0  0  0  0  0  0  0  0  0  0  0  0  # atno 17343 bound_to 10162
  157.5352  130.8084  149.7964 LP  0  0  0  0  0  0  0  0  0  0  0  0  # atno 17370 bound_to 10713
  156.0152  130.3816  150.2134 LP  0  0  0  0  0  0  0  0  0  0  0  0  # atno 17371 bound_to 10713
  141.2192  133.6852  156.7331 LP  0  0  0  0  0  0  0  0  0  0  0  0  # atno 17394 bound_to 11000
  140.2665  134.8425  157.3808 LP  0  0  0  0  0  0  0  0  0  0  0  0  # atno 17395 bound_to 11000

$$$$
