AV-unprocessed.smi:102|AV-procd|sdf|970|dock7
  -GOLD-   2262017523D 1   1.00000     0.00000
 Structure written by MMmdl.
 43 44  0  0  0  0  0  0  0  0  2 V2000
  152.8500  137.6564  158.2665 C   0  0  0  0  0  0  0  0  0  0  0  0
  152.8273  136.3995  157.4067 C   0  0  0  0  0  0  0  0  0  0  0  0
  153.8570  135.9437  156.9086 O   0  0  0  0  0  0  0  0  0  0  0  0
  151.5892  135.8883  157.2809 O   0  0  0  0  0  0  0  0  0  0  0  0
  151.3778  134.6846  156.5555 C   0  0  0  0  0  0  0  0  0  0  0  0
  149.9637  134.1350  156.8000 C   0  0  1  0  0  0  0  0  0  0  0  0
  149.6158  134.2536  158.1696 O   0  0  0  0  0  0  0  0  0  0  0  0
  148.2308  134.1913  158.2832 C   0  0  1  0  0  0  0  0  0  0  0  0
  147.8044  134.9745  159.5052 N   0  0  0  0  0  0  0  0  0  0  0  0
  147.0891  134.3654  160.5228 C   0  0  0  0  0  0  0  0  0  0  0  0
  146.7235  135.0512  161.6249 C   0  0  0  0  0  0  0  0  0  0  0  0
  146.0309  134.4344  162.5980 F   0  0  0  0  0  0  0  0  0  0  0  0
  147.0896  136.4607  161.7542 C   0  0  0  0  0  0  0  0  0  0  0  0
  146.7445  137.0838  162.7570 O   0  0  0  0  0  0  0  0  0  0  0  0
  147.8108  137.0284  160.7438 N   0  5  0  0  0  0  0  0  0  0  0  0
  148.1902  136.3360  159.6299 C   0  0  0  0  0  0  0  0  0  0  0  0
  148.8633  136.8301  158.7249 O   0  0  0  0  0  0  0  0  0  0  0  0
  147.6366  134.7394  156.9690 C   0  0  1  0  0  0  0  0  0  0  0  0
  146.9443  135.9699  157.1578 O   0  0  0  0  0  0  0  0  0  0  0  0
  146.4945  136.6652  156.1014 C   0  0  0  0  0  0  0  0  0  0  0  0
  145.7176  137.9069  156.5167 C   0  0  0  0  0  0  0  0  0  0  0  0
  146.6664  136.3787  154.9164 O   0  0  0  0  0  0  0  0  0  0  0  0
  148.8713  134.9454  156.0978 C   0  0  2  0  0  0  0  0  0  0  0  0
  148.6090  134.4441  154.7932 O   0  0  0  0  0  0  0  0  0  0  0  0
  148.4177  133.1295  154.5925 C   0  0  0  0  0  0  0  0  0  0  0  0
  148.2163  132.7915  153.1215 C   0  0  0  0  0  0  0  0  0  0  0  0
  148.3976  132.2567  155.4602 O   0  0  0  0  0  0  0  0  0  0  0  0
  152.6027  137.4125  159.2998 H   0  0  0  0  0  0  0  0  0  0  0  0
  152.1248  138.3819  157.8977 H   0  0  0  0  0  0  0  0  0  0  0  0
  153.8383  138.1162  158.2469 H   0  0  0  0  0  0  0  0  0  0  0  0
  151.5740  134.8109  155.4896 H   0  0  0  0  0  0  0  0  0  0  0  0
  152.1097  133.9644  156.9204 H   0  0  0  0  0  0  0  0  0  0  0  0
  149.8960  133.0852  156.5079 H   0  0  0  0  0  0  0  0  0  0  0  0
  147.9585  133.1509  158.4688 H   0  0  0  0  0  0  0  0  0  0  0  0
  146.8209  133.3221  160.4464 H   0  0  0  0  0  0  0  0  0  0  0  0
  146.9776  133.9684  156.5658 H   0  0  0  0  0  0  0  0  0  0  0  0
  144.8166  137.6230  157.0608 H   0  0  0  0  0  0  0  0  0  0  0  0
  145.4256  138.4880  155.6418 H   0  0  0  0  0  0  0  0  0  0  0  0
  146.3285  138.5375  157.1627 H   0  0  0  0  0  0  0  0  0  0  0  0
  149.1369  136.0042  156.1002 H   0  0  0  0  0  0  0  0  0  0  0  0
  149.1764  132.7698  152.6057 H   0  0  0  0  0  0  0  0  0  0  0  0
  147.5805  133.5357  152.6415 H   0  0  0  0  0  0  0  0  0  0  0  0
  147.7438  131.8150  153.0156 H   0  0  0  0  0  0  0  0  0  0  0  0
  1  2  1  0  0  0  0
  1 28  1  0  0  0  0
  1 29  1  0  0  0  0
  1 30  1  0  0  0  0
  2  3  2  0  0  0  0
  2  4  1  0  0  0  0
  4  5  1  0  0  0  0
  5  6  1  0  0  0  0
  5 31  1  0  0  0  0
  5 32  1  0  0  0  0
  6 23  1  0  0  0  0
  6  7  1  0  0  0  0
  6 33  1  0  0  0  0
  7  8  1  0  0  0  0
  8  9  1  0  0  0  0
  8 18  1  0  0  0  0
  8 34  1  0  0  0  0
  9 16  1  0  0  0  0
  9 10  1  0  0  0  0
 10 11  2  0  0  0  0
 10 35  1  0  0  0  0
 11 12  1  0  0  0  0
 11 13  1  0  0  0  0
 13 14  2  0  0  0  0
 13 15  1  0  0  0  0
 15 16  1  0  0  0  0
 16 17  2  0  0  0  0
 18 19  1  0  0  0  0
 18 23  1  0  0  0  0
 18 36  1  0  0  0  0
 19 20  1  0  0  0  0
 20 21  1  0  0  0  0
 20 22  2  0  0  0  0
 21 37  1  0  0  0  0
 21 38  1  0  0  0  0
 21 39  1  0  0  0  0
 23 24  1  0  0  0  0
 23 40  1  0  0  0  0
 24 25  1  0  0  0  0
 25 26  1  0  0  0  0
 25 27  2  0  0  0  0
 26 41  1  0  0  0  0
 26 42  1  0  0  0  0
 26 43  1  0  0  0  0
M  CHG  1  15  -1
M  END
> <s_m_source_file>
AV-unprocessed.smi

> <i_m_source_file_index>
102

> <i_lp_mmshare_version>
43012

> <i_f3d_flags>
0

> <s_epik_input>
W0NIM11DKD1PKU9bQ0gyXVtDQEBIXTFPW0NASF0oW0NAQEhdKE9DKD1PKVtDSDNdKVtDQEhdMU9DKD1PKVtDSDNdKW4yW2NIXWMoRiljKD1PKVtuSF1jMj1P

> <s_epik_cmdline>
J2VwaWtfcHl0aG9uJywgJy1waCcsICc3LjAnLCAnLXRuJywgJzgnLCAnLW1hJywgJzIwMCcsICctbWV0YWxfYmluZGluZycsICctaW1hZScsICc8aW5maWxlLm1hZT4nLCAnLW9tYWUnLCAnPG91dGZpbGUubWFlPic=

> <r_epik_Ionization_Penalty>
1.40304

> <r_epik_Ionization_Penalty_Charging>
1.43915e-08

> <r_epik_Ionization_Penalty_Neutral>
1.40304

> <r_epik_State_Penalty>
1.48536

> <r_epik_Charging_Adjusted_Penalty>
1.48536

> <i_epik_Tot_Q>
-1

> <i_epik_Tot_abs_Q>
1

> <r_epik_Metal_State_Penalty>
0.00663881

> <b_epik_Metal_Only>
0

> <s_epik_Chemistry_Notes>
This compound has an ester and may undergo hydrolysis at high or low pH. This compound contains an acetal/aminal-like group ( X-CH(R)-Y where X, Y are N, S, or O) that may be acid/base labile, releasing an aldehyde.

> <s_lp_Force_Field>
OPLS_2005

> <r_lp_Energy>
20.3433

> <b_lp_Chiralities_Consistent>
1

> <s_lp_Variant>
AV-unprocessed.smi:102-26

> <Gold.Version>
5.8.1

> <Gold.Id.Protein>
6NUR|6NUR_protein|mol2

> <Gold.PLP.Fitness>
43.5402

> <Gold.PLP.PLP>
-27.3440

> <Gold.PLP.part.hbond>
-4.2578

> <Gold.PLP.part.metal>
0.0000

> <Gold.PLP.part.buried>
-5.1820

> <Gold.PLP.part.nonpolar>
-19.7465

> <Gold.PLP.part.repulsive>
0.1805

> <Gold.PLP.ligand.clash>
0.0000

> <Gold.PLP.ligand.torsion>
0.2634

> <Gold.PLP.Chemscore.Hbond>
5.5200

> <Gold.PLP.Chemscore.CHOScore>
0.0000

> <Gold.PLP.Chemscore.Metal>
0.0000

> <Gold.Chemscore.Hbonds>
donor molecule, donor type, donor heavy atom, donor atom, acceptor molecule, acceptor atom, score
      P1  H  6896  6907       L1     7  1.00
      P1  H  6931  6943       L1    15  1.49
      P1  H  6934  6947       L1    15  1.49
      P1  H 10752 10765       L1     3  1.00

> <Gold.PLP.Chemscore.Internal.Correction>
0.1630

> <Gold.Rescore>
     Score         DG    S(hbond)    S(metal)    S(lipo)     H(rot)  DE(clash)    DE(int)     intcor
     -0.87      -9.63       3.11        0.00      34.24       4.00       0.07      10.44       ----

> <Gold.Chemscore.Fitness>
-0.8747

> <Gold.Chemscore.DG>
-9.6306

> <Gold.Chemscore.ZeroCoef>
-5.4800

> <Gold.Chemscore.Hbond>
3.1053

> <Gold.Chemscore.Metal>
0.0000

> <Gold.Chemscore.Lipo>
34.2415

> <Gold.Chemscore.Internal_Hbond>
0.0000

> <Gold.Chemscore.DEClash>
0.0650

> <Gold.Chemscore.DEInternal>
10.4403

> <Gold.Chemscore.Rot>
3.9951

> <Gold.Chemscore.Internal.Correction>
   9.000000E+99

> <Gold.Chemscore.Hbonds>
donor molecule, donor type, donor heavy atom, donor atom, acceptor molecule, acceptor atom, score
      P1  H  6896  6907       L1     7  0.97
      P1  H  6931  6943       L1    15  0.16
      P1  H  6934  6947       L1    15  0.18
      P1  H 10752 10765       L1     3  0.99

> <Gold.Chemscore.Hbond.Weighted>
-10.3718

> <Gold.Chemscore.Metal.Weighted>
-0.0000

> <Gold.Chemscore.Lipo.Weighted>
-4.0063

> <Gold.Chemscore.Internal_Hbond.Weighted>
0.0000

> <Gold.Chemscore.DEClash.Weighted>
0.0650

> <Gold.Chemscore.DEInternal.Weighted>
10.4403

> <Gold.Chemscore.Rot.Weighted>
10.2274

> <Gold.Chemscore.Internal.Correction.Weighted>
   9.000000E+99

> <Gold.Protein.RotatedTorsions>
[ 6907 6896 6895 6894 ] final  -85.29 input  -60.11 | X-H torsion
[ 7974 7965 7964 7962 ] final   18.83 input  175.53 | X-H torsion
[ 8008 7997 7996 7995 ] final  160.56 input   59.86 | X-H torsion
[ 10167 10162 10161 10158 ] final -157.87 input  -65.29 | X-H torsion
[ 10718 10713 10712 10709 ] final  150.20 input   66.30 | X-H torsion
[ 10763 10752 10751 10750 ] final  -95.95 input  -60.55 | X-H torsion
[ 11005 11000 10999 10996 ] final   23.95 input  -57.11 | X-H torsion

> <Gold.Protein.ActiveResidues>
 VAL166  LYS551  ARG553  GLY616  TRP617  ASP618  TYR619  PRO620  LYS621  CYS622 
 ASP623  PHE694  ASN695  SER759  ASP760  ASP761  ALA762  ILE779  LEU786  VAL792 
 PHE793  MET794  SER795  GLU796  ALA797  LYS798  CYS799  TRP800  GLU811  SER814 

> <Gold.Protein.RotatedAtoms>
  150.6871  134.3228  159.4793 H   0  0  0  0  0  0  0  0  0  0  0  0  # atno 6907 bound_to 6896
  152.1101  134.9278  160.0576 H   0  0  0  0  0  0  0  0  0  0  0  0  # atno 6908 bound_to 6896
  152.0523  133.3990  159.4419 H   0  0  0  0  0  0  0  0  0  0  0  0  # atno 6909 bound_to 6896
  146.2171  139.8400  142.8643 H   0  0  0  0  0  0  0  0  0  0  0  0  # atno 7974 bound_to 7965
  156.2163  140.1801  156.7580 H   0  0  0  0  0  0  0  0  0  0  0  0  # atno 8008 bound_to 7997
  154.5797  140.0668  156.9115 H   0  0  0  0  0  0  0  0  0  0  0  0  # atno 8009 bound_to 7997
  155.2524  140.3330  155.4283 H   0  0  0  0  0  0  0  0  0  0  0  0  # atno 8010 bound_to 7997
  139.6737  143.9701  152.2298 H   0  0  0  0  0  0  0  0  0  0  0  0  # atno 10167 bound_to 10162
  157.2865  131.0845  151.1494 H   0  0  0  0  0  0  0  0  0  0  0  0  # atno 10718 bound_to 10713
  154.7195  135.5102  153.8789 H   0  0  0  0  0  0  0  0  0  0  0  0  # atno 10763 bound_to 10752
  153.0849  135.6642  153.9977 H   0  0  0  0  0  0  0  0  0  0  0  0  # atno 10764 bound_to 10752
  153.9803  135.3029  155.3400 H   0  0  0  0  0  0  0  0  0  0  0  0  # atno 10765 bound_to 10752
  140.3640  134.2094  155.7670 H   0  0  0  0  0  0  0  0  0  0  0  0  # atno 11005 bound_to 11000
  145.2909  141.0167  143.3664 LP  0  0  0  0  0  0  0  0  0  0  0  0  # atno 17320 bound_to 7965
  144.9078  139.4567  143.6601 LP  0  0  0  0  0  0  0  0  0  0  0  0  # atno 17321 bound_to 7965
  139.9472  144.6644  150.8207 LP  0  0  0  0  0  0  0  0  0  0  0  0  # atno 17342 bound_to 10162
  140.7627  143.3206  151.2632 LP  0  0  0  0  0  0  0  0  0  0  0  0  # atno 17343 bound_to 10162
  157.2907  130.6795  149.6113 LP  0  0  0  0  0  0  0  0  0  0  0  0  # atno 17370 bound_to 10713
  155.9665  130.4421  150.5370 LP  0  0  0  0  0  0  0  0  0  0  0  0  # atno 17371 bound_to 10713
  141.1975  133.8057  157.0624 LP  0  0  0  0  0  0  0  0  0  0  0  0  # atno 17394 bound_to 11000
  140.0604  134.9758  157.1294 LP  0  0  0  0  0  0  0  0  0  0  0  0  # atno 17395 bound_to 11000

$$$$
