AV-unprocessed.smi:2855|AV-procd|sdf|10977|dock3
  -GOLD-   2272015433D 1   1.00000     0.00000
 Structure written by MMmdl.
 47 48  0  0  0  0  0  0  0  0  1 V2000
  149.7261  139.3196  154.6494 C   0  0  0  0  0  0  0  0  0  0  0  0
  150.0688  139.9853  155.9899 C   0  0  2  0  0  0  0  0  0  0  0  0
  149.4155  141.3705  156.1142 C   0  0  0  0  0  0  0  0  0  0  0  0
  149.7554  142.0433  157.4535 C   0  0  0  0  0  0  0  0  0  0  0  0
  151.2825  142.1790  157.6798 C   0  0  1  0  0  0  0  0  0  0  0  0
  151.6236  142.8904  159.0270 C   0  0  0  0  0  0  0  0  0  0  0  0
  151.2384  144.3824  159.0221 C   0  0  0  0  0  0  0  0  0  0  0  0
  153.1116  142.7660  159.4092 C   0  0  0  0  0  0  0  0  0  0  0  0
  151.9655  140.7912  157.5154 C   0  0  1  0  0  0  0  0  0  0  0  0
  151.6578  139.9202  158.6496 N   0  0  0  0  0  0  0  0  0  0  0  0
  152.2272  138.7336  158.9068 C   0  0  0  0  0  0  0  0  0  0  0  0
  153.0444  138.1953  158.1592 O   0  0  0  0  0  0  0  0  0  0  0  0
  151.8000  138.0460  160.2093 C   0  0  0  0  0  0  0  0  0  0  0  0
  152.8774  138.0398  161.2085 N   0  0  0  0  0  0  0  0  0  0  0  0
  153.4007  139.2328  161.6864 C   0  0  0  0  0  0  0  0  0  0  0  0
  154.3851  139.2962  162.6142 C   0  0  0  0  0  0  0  0  0  0  0  0
  154.9561  138.0741  163.1704 C   0  0  0  0  0  0  0  0  0  0  0  0
  155.8493  138.0286  164.0130 O   0  0  0  0  0  0  0  0  0  0  0  0
  154.4019  136.8944  162.6662 N   0  0  0  0  0  0  0  0  0  0  0  0
  153.3871  136.8217  161.7108 C   0  0  0  0  0  0  0  0  0  0  0  0
  152.9669  135.7269  161.3366 O   0  0  0  0  0  0  0  0  0  0  0  0
  151.5905  140.1056  156.1859 C   0  0  0  0  0  0  0  0  0  0  0  0
  154.7641  136.0226  163.0242 H   0  0  0  0  0  0  0  0  0  0  0  0
  150.0940  139.9079  153.8083 H   0  0  0  0  0  0  0  0  0  0  0  0
  148.6480  139.2078  154.5312 H   0  0  0  0  0  0  0  0  0  0  0  0
  150.1697  138.3261  154.5796 H   0  0  0  0  0  0  0  0  0  0  0  0
  149.6692  139.3494  156.7810 H   0  0  0  0  0  0  0  0  0  0  0  0
  149.7454  142.0100  155.2941 H   0  0  0  0  0  0  0  0  0  0  0  0
  148.3329  141.2805  156.0175 H   0  0  0  0  0  0  0  0  0  0  0  0
  149.2762  143.0209  157.4610 H   0  0  0  0  0  0  0  0  0  0  0  0
  149.3073  141.4770  158.2709 H   0  0  0  0  0  0  0  0  0  0  0  0
  151.6665  142.8128  156.8787 H   0  0  0  0  0  0  0  0  0  0  0  0
  151.0479  142.4177  159.8239 H   0  0  0  0  0  0  0  0  0  0  0  0
  151.6991  144.9083  158.1854 H   0  0  0  0  0  0  0  0  0  0  0  0
  151.5628  144.8748  159.9393 H   0  0  0  0  0  0  0  0  0  0  0  0
  150.1606  144.5274  158.9615 H   0  0  0  0  0  0  0  0  0  0  0  0
  153.7572  143.1538  158.6208 H   0  0  0  0  0  0  0  0  0  0  0  0
  153.4001  141.7339  159.6049 H   0  0  0  0  0  0  0  0  0  0  0  0
  153.3309  143.3232  160.3202 H   0  0  0  0  0  0  0  0  0  0  0  0
  153.0434  140.9541  157.4785 H   0  0  0  0  0  0  0  0  0  0  0  0
  150.9886  140.2734  159.3183 H   0  0  0  0  0  0  0  0  0  0  0  0
  150.9111  138.5262  160.6246 H   0  0  0  0  0  0  0  0  0  0  0  0
  151.4919  137.0277  159.9680 H   0  0  0  0  0  0  0  0  0  0  0  0
  153.0052  140.1642  161.3064 H   0  0  0  0  0  0  0  0  0  0  0  0
  154.7510  140.2564  162.9481 H   0  0  0  0  0  0  0  0  0  0  0  0
  152.0541  139.1195  156.1325 H   0  0  0  0  0  0  0  0  0  0  0  0
  152.0133  140.6810  155.3612 H   0  0  0  0  0  0  0  0  0  0  0  0
  1  2  1  0  0  0  0
  1 24  1  0  0  0  0
  1 25  1  0  0  0  0
  1 26  1  0  0  0  0
  2 22  1  0  0  0  0
  2  3  1  0  0  0  0
  2 27  1  0  0  0  0
  3  4  1  0  0  0  0
  3 28  1  0  0  0  0
  3 29  1  0  0  0  0
  4  5  1  0  0  0  0
  4 30  1  0  0  0  0
  4 31  1  0  0  0  0
  5  6  1  0  0  0  0
  5  9  1  0  0  0  0
  5 32  1  0  0  0  0
  6  7  1  0  0  0  0
  6  8  1  0  0  0  0
  6 33  1  0  0  0  0
  7 34  1  0  0  0  0
  7 35  1  0  0  0  0
  7 36  1  0  0  0  0
  8 37  1  0  0  0  0
  8 38  1  0  0  0  0
  8 39  1  0  0  0  0
  9 10  1  0  0  0  0
  9 22  1  0  0  0  0
  9 40  1  0  0  0  0
 10 11  1  0  0  0  0
 10 41  1  0  0  0  0
 11 12  2  0  0  0  0
 11 13  1  0  0  0  0
 13 14  1  0  0  0  0
 13 42  1  0  0  0  0
 13 43  1  0  0  0  0
 14 20  1  0  0  0  0
 14 15  1  0  0  0  0
 15 16  2  0  0  0  0
 15 44  1  0  0  0  0
 16 17  1  0  0  0  0
 16 45  1  0  0  0  0
 17 18  2  0  0  0  0
 17 19  1  0  0  0  0
 19 23  1  0  0  0  0
 19 20  1  0  0  0  0
 20 21  2  0  0  0  0
 22 46  1  0  0  0  0
 22 47  1  0  0  0  0
M  END
> <s_m_source_file>
AV-unprocessed.smi

> <i_m_source_file_index>
2855

> <i_lp_mmshare_version>
43012

> <i_f3d_flags>
0

> <s_epik_input>
W0NIM11bQ0BASF0xW0NIMl1bQ0gyXVtDQEBIXShbQ0hdKFtDSDNdKVtDSDNdKVtDQEhdKFtDSDJdMSlbTkhdQyg9TylbQ0gyXW4yW2NIXVtjSF1jKD1PKVtuSF1jMj1P

> <s_epik_cmdline>
J2VwaWtfcHl0aG9uJywgJy1waCcsICc3LjAnLCAnLXRuJywgJzgnLCAnLW1hJywgJzIwMCcsICctbWV0YWxfYmluZGluZycsICctaW1hZScsICc8aW5maWxlLm1hZT4nLCAnLW9tYWUnLCAnPG91dGZpbGUubWFlPic=

> <r_lp_tautomer_probability>
0.999537

> <r_epik_Ionization_Penalty>
0.00306256

> <r_epik_Ionization_Penalty_Charging>
0.00306254

> <r_epik_Ionization_Penalty_Neutral>
2.0223e-08

> <r_epik_State_Penalty>
0.0021533

> <r_epik_Charging_Adjusted_Penalty>
0.00521583

> <i_epik_Tot_Q>
0

> <i_epik_Tot_abs_Q>
0

> <r_epik_Metal_State_Penalty>
0.362116

> <b_epik_Metal_Only>
0

> <s_lp_Force_Field>
OPLS_2005

> <r_lp_Energy>
12.8991

> <b_lp_Chiralities_Consistent>
1

> <s_lp_Variant>
AV-unprocessed.smi:2855-1

> <Gold.Version>
5.8.1

> <Gold.Id.Protein>
6NUR|6NUR_protein|mol2

> <Gold.PLP.Fitness>
39.2464

> <Gold.PLP.PLP>
-33.8713

> <Gold.PLP.part.hbond>
-2.0000

> <Gold.PLP.part.metal>
0.0000

> <Gold.PLP.part.buried>
-4.8372

> <Gold.PLP.part.nonpolar>
-26.7933

> <Gold.PLP.part.repulsive>
0.1023

> <Gold.PLP.ligand.clash>
0.0000

> <Gold.PLP.ligand.torsion>
0.3358

> <Gold.PLP.Chemscore.Hbond>
2.0000

> <Gold.PLP.Chemscore.CHOScore>
0.0000

> <Gold.PLP.Chemscore.Metal>
0.0000

> <Gold.Chemscore.Hbonds>
donor molecule, donor type, donor heavy atom, donor atom, acceptor molecule, acceptor atom, score
      P1  H  6896  6908       L1    21  0.56

> <Gold.PLP.Chemscore.Internal.Correction>
0.0468

> <Gold.Rescore>
     Score         DG    S(hbond)    S(metal)    S(lipo)     H(rot)  DE(clash)    DE(int)     intcor
     18.19     -18.47       1.99        0.00      94.90       1.85       0.10       0.19       ----

> <Gold.Chemscore.Fitness>
18.1853

> <Gold.Chemscore.DG>
-18.4749

> <Gold.Chemscore.ZeroCoef>
-5.4800

> <Gold.Chemscore.Hbond>
1.9872

> <Gold.Chemscore.Metal>
0.0000

> <Gold.Chemscore.Lipo>
94.9025

> <Gold.Chemscore.Internal_Hbond>
0.0000

> <Gold.Chemscore.DEClash>
0.0973

> <Gold.Chemscore.DEInternal>
0.1924

> <Gold.Chemscore.Rot>
1.8539

> <Gold.Chemscore.Internal.Correction>
   9.000000E+99

> <Gold.Chemscore.Hbonds>
donor molecule, donor type, donor heavy atom, donor atom, acceptor molecule, acceptor atom, score
      P1  H  6896  6908       L1    21  0.56

> <Gold.Chemscore.Hbond.Weighted>
-6.6374

> <Gold.Chemscore.Metal.Weighted>
-0.0000

> <Gold.Chemscore.Lipo.Weighted>
-11.1036

> <Gold.Chemscore.Internal_Hbond.Weighted>
0.0000

> <Gold.Chemscore.DEClash.Weighted>
0.0973

> <Gold.Chemscore.DEInternal.Weighted>
0.1924

> <Gold.Chemscore.Rot.Weighted>
4.7460

> <Gold.Chemscore.Internal.Correction.Weighted>
   9.000000E+99

> <Gold.Protein.RotatedTorsions>
[ 6907 6896 6895 6894 ] final  -59.92 input  -60.11 | X-H torsion
[ 7974 7965 7964 7962 ] final  -73.64 input  175.53 | X-H torsion
[ 8008 7997 7996 7995 ] final   28.01 input   59.86 | X-H torsion
[ 10167 10162 10161 10158 ] final  164.35 input  -65.29 | X-H torsion
[ 10718 10713 10712 10709 ] final -103.25 input   66.30 | X-H torsion
[ 10763 10752 10751 10750 ] final  -21.36 input  -60.55 | X-H torsion
[ 11005 11000 10999 10996 ] final   31.05 input  -57.11 | X-H torsion

> <Gold.Protein.ActiveResidues>
 VAL166  LYS551  ARG553  GLY616  TRP617  ASP618  TYR619  PRO620  LYS621  CYS622 
 ASP623  PHE694  ASN695  SER759  ASP760  ASP761  ALA762  ILE779  LEU786  VAL792 
 PHE793  MET794  SER795  GLU796  ALA797  LYS798  CYS799  TRP800  GLU811  SER814 

> <Gold.Protein.RotatedAtoms>
  150.7895  134.6906  159.6494 H   0  0  0  0  0  0  0  0  0  0  0  0  # atno 6907 bound_to 6896
  152.3997  134.6303  160.0083 H   0  0  0  0  0  0  0  0  0  0  0  0  # atno 6908 bound_to 6896
  151.6578  133.3281  159.3203 H   0  0  0  0  0  0  0  0  0  0  0  0  # atno 6909 bound_to 6896
  145.6495  140.9287  143.0992 H   0  0  0  0  0  0  0  0  0  0  0  0  # atno 7974 bound_to 7965
  155.0519  140.3180  155.4689 H   0  0  0  0  0  0  0  0  0  0  0  0  # atno 8008 bound_to 7997
  156.2832  140.2144  156.5588 H   0  0  0  0  0  0  0  0  0  0  0  0  # atno 8009 bound_to 7997
  154.7204  140.0490  157.0621 H   0  0  0  0  0  0  0  0  0  0  0  0  # atno 8010 bound_to 7997
  139.4887  144.4244  151.9147 H   0  0  0  0  0  0  0  0  0  0  0  0  # atno 10167 bound_to 10162
  156.0258  130.5458  150.7226 H   0  0  0  0  0  0  0  0  0  0  0  0  # atno 10718 bound_to 10713
  153.6348  135.6987  153.5262 H   0  0  0  0  0  0  0  0  0  0  0  0  # atno 10763 bound_to 10752
  153.2830  135.4180  155.1095 H   0  0  0  0  0  0  0  0  0  0  0  0  # atno 10764 bound_to 10752
  154.8513  135.3606  154.5892 H   0  0  0  0  0  0  0  0  0  0  0  0  # atno 10765 bound_to 10752
  140.2880  134.2897  155.7783 H   0  0  0  0  0  0  0  0  0  0  0  0  # atno 11005 bound_to 11000
  144.7127  139.8309  143.7409 LP  0  0  0  0  0  0  0  0  0  0  0  0  # atno 17320 bound_to 7965
  146.1215  139.4234  143.0225 LP  0  0  0  0  0  0  0  0  0  0  0  0  # atno 17321 bound_to 7965
  140.3690  144.2879  150.5922 LP  0  0  0  0  0  0  0  0  0  0  0  0  # atno 17342 bound_to 10162
  140.5336  143.2238  151.8199 LP  0  0  0  0  0  0  0  0  0  0  0  0  # atno 17343 bound_to 10162
  157.4838  131.0905  151.0506 LP  0  0  0  0  0  0  0  0  0  0  0  0  # atno 17370 bound_to 10713
  157.0932  130.5951  149.5444 LP  0  0  0  0  0  0  0  0  0  0  0  0  # atno 17371 bound_to 10713
  141.2151  133.7567  156.9581 LP  0  0  0  0  0  0  0  0  0  0  0  0  # atno 17394 bound_to 11000
  140.1222  134.9410  157.2219 LP  0  0  0  0  0  0  0  0  0  0  0  0  # atno 17395 bound_to 11000

$$$$
