AV-unprocessed.smi:308|AV-procd|sdf|2288|dock10
  -GOLD-   2262022193D 1   1.00000     0.00000
 Structure written by MMmdl.
 50 51  0  0  0  0  0  0  0  0  2 V2000
  144.0516  133.5275  151.8542 C   0  0  0  0  0  0  0  0  0  0  0  0
  145.5605  133.7978  151.7184 C   0  0  2  0  0  0  0  0  0  0  0  0
  146.2327  134.1128  153.0668 C   0  0  0  0  0  0  0  0  0  0  0  0
  145.8864  135.5239  153.5756 C   0  0  0  0  0  0  0  0  0  0  0  0
  146.2255  136.5620  152.5680 N   0  3  2  0  0  0  0  0  0  0  0  0
  146.0130  137.9359  153.0894 C   0  0  0  0  0  0  0  0  0  0  0  0
  146.9690  138.9633  152.4525 C   0  0  0  0  0  0  0  0  0  0  0  0
  148.2418  139.0228  153.1623 N   0  0  0  0  0  0  0  0  0  0  0  0
  148.5129  139.8539  154.1788 C   0  0  0  0  0  0  0  0  0  0  0  0
  147.6962  140.6569  154.6297 O   0  0  0  0  0  0  0  0  0  0  0  0
  149.7756  139.6986  154.6123 N   0  0  0  0  0  0  0  0  0  0  0  0
  150.4453  140.3966  155.6534 C   0  0  0  0  0  0  0  0  0  0  0  0
  151.4647  139.8420  156.4610 C   0  0  0  0  0  0  0  0  0  0  0  0
  152.0604  140.6418  157.4553 C   0  0  0  0  0  0  0  0  0  0  0  0
  151.6322  141.9827  157.6185 C   0  0  0  0  0  0  0  0  0  0  0  0
  152.1964  142.8224  158.6061 N   0  0  0  0  0  0  0  0  0  0  0  0
  151.8941  144.2502  158.6046 C   0  0  0  0  0  0  0  0  0  0  0  0
  153.0072  142.2536  159.6757 C   0  0  0  0  0  0  0  0  0  0  0  0
  150.6667  142.5127  156.8282 N   0  0  0  0  0  0  0  0  0  0  0  0
  150.0985  141.7432  155.8771 C   0  0  0  0  0  0  0  0  0  0  0  0
  145.5338  136.3147  151.2747 C   0  0  0  0  0  0  0  0  0  0  0  0
  145.8771  134.9221  150.7159 C   0  0  0  0  0  0  0  0  0  0  0  0
  143.5096  134.3929  152.2342 H   0  0  0  0  0  0  0  0  0  0  0  0
  143.8644  132.6972  152.5356 H   0  0  0  0  0  0  0  0  0  0  0  0
  143.6147  133.2627  150.8910 H   0  0  0  0  0  0  0  0  0  0  0  0
  146.0047  132.8784  151.3346 H   0  0  0  0  0  0  0  0  0  0  0  0
  145.9534  133.3669  153.8117 H   0  0  0  0  0  0  0  0  0  0  0  0
  147.3148  134.0341  152.9527 H   0  0  0  0  0  0  0  0  0  0  0  0
  144.8279  135.5916  153.8304 H   0  0  0  0  0  0  0  0  0  0  0  0
  146.4420  135.7115  154.4954 H   0  0  0  0  0  0  0  0  0  0  0  0
  144.9701  138.2219  152.9435 H   0  0  0  0  0  0  0  0  0  0  0  0
  146.1848  137.9428  154.1667 H   0  0  0  0  0  0  0  0  0  0  0  0
  147.1717  138.6884  151.4170 H   0  0  0  0  0  0  0  0  0  0  0  0
  146.5300  139.9609  152.4281 H   0  0  0  0  0  0  0  0  0  0  0  0
  148.9712  138.3989  152.8488 H   0  0  0  0  0  0  0  0  0  0  0  0
  150.3479  139.0501  154.0915 H   0  0  0  0  0  0  0  0  0  0  0  0
  151.8115  138.8288  156.3322 H   0  0  0  0  0  0  0  0  0  0  0  0
  152.8369  140.2111  158.0689 H   0  0  0  0  0  0  0  0  0  0  0  0
  150.8262  144.4152  158.7523 H   0  0  0  0  0  0  0  0  0  0  0  0
  152.1879  144.7038  157.6574 H   0  0  0  0  0  0  0  0  0  0  0  0
  152.4269  144.7707  159.4005 H   0  0  0  0  0  0  0  0  0  0  0  0
  153.9177  141.8112  159.2707 H   0  0  0  0  0  0  0  0  0  0  0  0
  152.4518  141.4836  160.2120 H   0  0  0  0  0  0  0  0  0  0  0  0
  153.2997  143.0142  160.3996 H   0  0  0  0  0  0  0  0  0  0  0  0
  149.3355  142.2198  155.2789 H   0  0  0  0  0  0  0  0  0  0  0  0
  144.4560  136.4162  151.4092 H   0  0  0  0  0  0  0  0  0  0  0  0
  145.8244  137.0641  150.5399 H   0  0  0  0  0  0  0  0  0  0  0  0
  146.9395  134.8923  150.4696 H   0  0  0  0  0  0  0  0  0  0  0  0
  145.3458  134.7536  149.7784 H   0  0  0  0  0  0  0  0  0  0  0  0
  147.2163  136.4702  152.3948 H   0  0  0  0  0  0  0  0  0  0  0  0
  1  2  1  0  0  0  0
  1 23  1  0  0  0  0
  1 24  1  0  0  0  0
  1 25  1  0  0  0  0
  2 22  1  0  0  0  0
  2  3  1  0  0  0  0
  2 26  1  0  0  0  0
  3  4  1  0  0  0  0
  3 27  1  0  0  0  0
  3 28  1  0  0  0  0
  4  5  1  0  0  0  0
  4 29  1  0  0  0  0
  4 30  1  0  0  0  0
  5  6  1  0  0  0  0
  5 21  1  0  0  0  0
  5 50  1  0  0  0  0
  6  7  1  0  0  0  0
  6 31  1  0  0  0  0
  6 32  1  0  0  0  0
  7  8  1  0  0  0  0
  7 33  1  0  0  0  0
  7 34  1  0  0  0  0
  8  9  1  0  0  0  0
  8 35  1  0  0  0  0
  9 10  2  0  0  0  0
  9 11  1  0  0  0  0
 11 12  1  0  0  0  0
 11 36  1  0  0  0  0
 12 20  1  0  0  0  0
 12 13  2  0  0  0  0
 13 14  1  0  0  0  0
 13 37  1  0  0  0  0
 14 15  2  0  0  0  0
 14 38  1  0  0  0  0
 15 16  1  0  0  0  0
 15 19  1  0  0  0  0
 16 17  1  0  0  0  0
 16 18  1  0  0  0  0
 17 39  1  0  0  0  0
 17 40  1  0  0  0  0
 17 41  1  0  0  0  0
 18 42  1  0  0  0  0
 18 43  1  0  0  0  0
 18 44  1  0  0  0  0
 19 20  2  0  0  0  0
 20 45  1  0  0  0  0
 21 22  1  0  0  0  0
 21 46  1  0  0  0  0
 21 47  1  0  0  0  0
 22 48  1  0  0  0  0
 22 49  1  0  0  0  0
M  CHG  1   5   1
M  END
> <s_m_source_file>
AV-unprocessed.smi

> <i_m_source_file_index>
308

> <i_lp_mmshare_version>
43012

> <i_f3d_flags>
0

> <s_epik_input>
W0NIM11bQ0hdMVtDSDJdW0NIMl1OKFtDSDJdW0NIMl0xKVtDSDJdW0NIMl1bTkhdQyg9TylbTkhdYzJbY0hdW2NIXWMoTihbQ0gzXSlbQ0gzXSluW2NIXTI=

> <s_epik_cmdline>
J2VwaWtfcHl0aG9uJywgJy1waCcsICc3LjAnLCAnLXRuJywgJzgnLCAnLW1hJywgJzIwMCcsICctbWV0YWxfYmluZGluZycsICctaW1hZScsICc8aW5maWxlLm1hZT4nLCAnLW9tYWUnLCAnPG91dGZpbGUubWFlPic=

> <r_lp_tautomer_probability>
1

> <r_epik_Ionization_Penalty>
0.536661

> <r_epik_Ionization_Penalty_Charging>
0.00139388

> <r_epik_Ionization_Penalty_Neutral>
0.535267

> <r_epik_State_Penalty>
0.543381

> <r_epik_Charging_Adjusted_Penalty>
0.544775

> <i_epik_Tot_Q>
1

> <i_epik_Tot_abs_Q>
1

> <r_epik_Metal_State_Penalty>
0.284523

> <b_epik_Metal_Only>
0

> <s_lp_Force_Field>
OPLS_2005

> <r_lp_Energy>
22.9976

> <b_lp_Chiralities_Consistent>
1

> <s_lp_Variant>
AV-unprocessed.smi:308-4

> <Gold.Version>
5.8.1

> <Gold.Id.Protein>
6NUR|6NUR_protein|mol2

> <Gold.PLP.Fitness>
47.4245

> <Gold.PLP.PLP>
-40.6534

> <Gold.PLP.part.hbond>
-2.7431

> <Gold.PLP.part.metal>
0.0000

> <Gold.PLP.part.buried>
-3.6373

> <Gold.PLP.part.nonpolar>
-34.1892

> <Gold.PLP.part.repulsive>
0.7607

> <Gold.PLP.ligand.clash>
0.0000

> <Gold.PLP.ligand.torsion>
0.9094

> <Gold.PLP.Chemscore.Hbond>
2.1747

> <Gold.PLP.Chemscore.CHOScore>
0.6731

> <Gold.PLP.Chemscore.Metal>
0.0000

> <Gold.Chemscore.Hbonds>
donor molecule, donor type, donor heavy atom, donor atom, acceptor molecule, acceptor atom, score
      L1  H     5    50       P1  7948  2.00
      L1  H     8    35       P1  7948  0.15
      L1  C    20    45       P1  8028  0.71

> <Gold.PLP.Chemscore.Internal.Correction>
0.0466

> <Gold.Rescore>
     Score         DG    S(hbond)    S(metal)    S(lipo)     H(rot)  DE(clash)    DE(int)     intcor
     15.85     -18.07       1.77        0.00      88.30       1.42       0.07       2.15       ----

> <Gold.Chemscore.Fitness>
15.8464

> <Gold.Chemscore.DG>
-18.0697

> <Gold.Chemscore.ZeroCoef>
-5.4800

> <Gold.Chemscore.Hbond>
1.7676

> <Gold.Chemscore.Metal>
0.0000

> <Gold.Chemscore.Lipo>
88.3042

> <Gold.Chemscore.Internal_Hbond>
0.0000

> <Gold.Chemscore.DEClash>
0.0708

> <Gold.Chemscore.DEInternal>
2.1525

> <Gold.Chemscore.Rot>
1.4241

> <Gold.Chemscore.Internal.Correction>
   9.000000E+99

> <Gold.Chemscore.Hbonds>
donor molecule, donor type, donor heavy atom, donor atom, acceptor molecule, acceptor atom, score
      L1  H     5    50       P1  7948  1.00
      L1  H     8    35       P1  7948  0.14

> <Gold.Chemscore.Hbond.Weighted>
-5.9038

> <Gold.Chemscore.Metal.Weighted>
-0.0000

> <Gold.Chemscore.Lipo.Weighted>
-10.3316

> <Gold.Chemscore.Internal_Hbond.Weighted>
0.0000

> <Gold.Chemscore.DEClash.Weighted>
0.0708

> <Gold.Chemscore.DEInternal.Weighted>
2.1525

> <Gold.Chemscore.Rot.Weighted>
3.6456

> <Gold.Chemscore.Internal.Correction.Weighted>
   9.000000E+99

> <Gold.Protein.RotatedTorsions>
[ 6907 6896 6895 6894 ] final    6.25 input  -60.11 | X-H torsion
[ 7974 7965 7964 7962 ] final -172.13 input  175.53 | X-H torsion
[ 8008 7997 7996 7995 ] final  -68.04 input   59.86 | X-H torsion
[ 10167 10162 10161 10158 ] final   37.09 input  -65.29 | X-H torsion
[ 10718 10713 10712 10709 ] final   78.68 input   66.30 | X-H torsion
[ 10763 10752 10751 10750 ] final  -56.42 input  -60.55 | X-H torsion
[ 11005 11000 10999 10996 ] final  -51.92 input  -57.11 | X-H torsion

> <Gold.Protein.ActiveResidues>
 VAL166  LYS551  ARG553  GLY616  TRP617  ASP618  TYR619  PRO620  LYS621  CYS622 
 ASP623  PHE694  ASN695  SER759  ASP760  ASP761  ALA762  ILE779  LEU786  VAL792 
 PHE793  MET794  SER795  GLU796  ALA797  LYS798  CYS799  TRP800  GLU811  SER814 

> <Gold.Protein.RotatedAtoms>
  151.6706  135.0976  160.0196 H   0  0  0  0  0  0  0  0  0  0  0  0  # atno 6907 bound_to 6896
  152.3894  133.6652  159.6233 H   0  0  0  0  0  0  0  0  0  0  0  0  # atno 6908 bound_to 6896
  150.7812  133.8897  159.3351 H   0  0  0  0  0  0  0  0  0  0  0  0  # atno 6909 bound_to 6896
  144.7149  140.1818  143.6357 H   0  0  0  0  0  0  0  0  0  0  0  0  # atno 7974 bound_to 7965
  154.4841  140.0880  156.7445 H   0  0  0  0  0  0  0  0  0  0  0  0  # atno 8008 bound_to 7997
  155.4396  140.3453  155.4270 H   0  0  0  0  0  0  0  0  0  0  0  0  # atno 8009 bound_to 7997
  156.1235  140.1481  156.9158 H   0  0  0  0  0  0  0  0  0  0  0  0  # atno 8010 bound_to 7997
  140.4065  144.1651  150.6136 H   0  0  0  0  0  0  0  0  0  0  0  0  # atno 10167 bound_to 10162
  157.6753  130.9879  150.1822 H   0  0  0  0  0  0  0  0  0  0  0  0  # atno 10718 bound_to 10713
  154.2064  135.6402  153.5102 H   0  0  0  0  0  0  0  0  0  0  0  0  # atno 10763 bound_to 10752
  153.0000  135.5463  154.6261 H   0  0  0  0  0  0  0  0  0  0  0  0  # atno 10764 bound_to 10752
  154.5687  135.2915  155.0822 H   0  0  0  0  0  0  0  0  0  0  0  0  # atno 10765 bound_to 10752
  141.0897  133.6635  156.3948 H   0  0  0  0  0  0  0  0  0  0  0  0  # atno 11005 bound_to 11000
  145.8849  139.2343  143.1583 LP  0  0  0  0  0  0  0  0  0  0  0  0  # atno 17320 bound_to 7965
  145.9959  140.8562  143.0043 LP  0  0  0  0  0  0  0  0  0  0  0  0  # atno 17321 bound_to 7965
  140.4684  143.2422  151.9124 LP  0  0  0  0  0  0  0  0  0  0  0  0  # atno 17342 bound_to 10162
  139.4783  144.5396  151.8548 LP  0  0  0  0  0  0  0  0  0  0  0  0  # atno 17343 bound_to 10162
  156.2552  130.3705  149.8189 LP  0  0  0  0  0  0  0  0  0  0  0  0  # atno 17370 bound_to 10713
  156.5951  130.8523  151.3418 LP  0  0  0  0  0  0  0  0  0  0  0  0  # atno 17371 bound_to 10713
  140.5281  134.6239  157.5341 LP  0  0  0  0  0  0  0  0  0  0  0  0  # atno 17394 bound_to 11000
  139.9721  134.7276  156.0022 LP  0  0  0  0  0  0  0  0  0  0  0  0  # atno 17395 bound_to 11000

$$$$
