#       Name:                AV-unprocessed.smi:561
#       Creating user name   scv26
#       Creation time:       Thu Mar 26 23:43:42 2020


#       File generated by GOLD software.
#

@<TRIPOS>MOLECULE
AV-unprocessed.smi:561
    42    43     1
SMALL
NO_CHARGES


@<TRIPOS>ATOM
      1 ****        -3.0072  -0.6932  -1.9375 C.3            1 S1                 0.0000
      2 ****        -2.4198  -0.0364  -0.6796 C.3            1 S1                 0.0000
      3 ****        -2.9619  -0.6890   0.6063 C.3            1 S1                 0.0000
      4 ****        -2.5045  -0.0060   1.8027 N.pl3          1 S1                 0.0000
      5 ****        -3.0549   1.1302   2.3805 C.2            1 S1                 0.0000
      6 ****        -2.2860   1.4211   3.4846 C.2            1 S1                 0.0000
      7 ****        -1.2644   0.4817   3.6059 N.2            1 S1                 0.0000
      8 ****        -1.4594  -0.3317   2.5763 C.2            1 S1                 0.0000
      9 ****        -0.9621  -0.1279  -0.7040 N.am           1 S1                 0.0000
     10 ****        -0.1234   0.7777  -1.2390 C.2            1 S1                 0.0000
     11 ****        -0.5101   1.7794  -1.8415 O.2            1 S1                 0.0000
     12 ****         1.3261   0.5048  -1.0491 C.2            1 S1                 0.0000
     13 ****         1.7058  -0.4757  -0.2907 N.2            1 S1                 0.0000
     14 ****         3.0366  -0.7585  -0.0637 N.am           1 S1                 0.0000
     15 ****         3.2543  -1.7045   1.0304 C.3            1 S1                 0.0000
     16 ****         4.0654  -0.2383  -0.7817 C.2            1 S1                 0.0000
     17 ****         5.2528  -0.4723  -0.5576 O.2            1 S1                 0.0000
     18 ****         3.6857   0.6703  -1.9550 C.3            1 S1                 0.0000
     19 ****         2.3486   1.3996  -1.7191 C.3            1 S1                 0.0000
     20 ****        -4.0949  -0.6174  -1.9468 H              1 S1                 0.0000
     21 ****        -2.7466  -1.7507  -1.9919 H              1 S1                 0.0000
     22 ****        -2.6376  -0.2114  -2.8433 H              1 S1                 0.0000
     23 ****        -2.7165   1.0143  -0.6748 H              1 S1                 0.0000
     24 ****        -4.0526  -0.6730   0.6057 H              1 S1                 0.0000
     25 ****        -2.6641  -1.7371   0.6633 H              1 S1                 0.0000
     26 ****        -3.9216   1.6253   1.9676 H              1 S1                 0.0000
     27 ****        -2.3883   2.2283   4.1949 H              1 S1                 0.0000
     28 ****        -0.8220  -1.1808   2.3756 H              1 S1                 0.0000
     29 ****        -0.5507  -0.9224  -0.2355 H              1 S1                 0.0000
     30 ****         4.2976  -1.9936   1.1632 H              1 S1                 0.0000
     31 ****         2.6854  -2.6185   0.8556 H              1 S1                 0.0000
     32 ****         2.9110  -1.2712   1.9706 H              1 S1                 0.0000
     33 ****         4.4820   1.3904  -2.1462 H              1 S1                 0.0000
     34 ****         3.6098   0.0429  -2.8438 H              1 S1                 0.0000
     35 ****         1.9758   1.7576  -2.6795 H              1 S1                 0.0000
     36 ****         2.5112   2.2844  -1.1026 H              1 S1                 0.0000
     37 ****        -0.5513   0.4322   4.3052 LP             1 S1                 0.0000
     38 ****        -1.4893   1.9499  -1.9515 LP             1 S1                 0.0000
     39 ****         0.1551   2.4226  -2.2209 LP             1 S1                 0.0000
     40 ****         1.0099  -1.0466   0.1447 LP             1 S1                 0.0000
     41 ****         5.5095  -1.0800   0.1939 LP             1 S1                 0.0000
     42 ****         5.9609  -0.0546  -1.1270 LP             1 S1                 0.0000
@<TRIPOS>BOND
    1    1    2 1     
    2    1   20 1     
    3    1   21 1     
    4    1   22 1     
    5    2    3 1     
    6    2    9 1     
    7    2   23 1     
    8    3    4 1     
    9    3   24 1     
   10    3   25 1     
   11    4    8 1     
   12    4    5 1     
   13    5    6 2     
   14    5   26 1     
   15    6    7 1     
   16    6   27 1     
   17    7    8 2     
   18    8   28 1     
   19    9   10 am    
   20    9   29 1     
   21   10   11 2     
   22   10   12 1     
   23   12   19 1     
   24   12   13 2     
   25   13   14 1     
   26   14   15 1     
   27   14   16 am    
   28   15   30 1     
   29   15   31 1     
   30   15   32 1     
   31   16   17 2     
   32   16   18 1     
   33   18   19 1     
   34   18   33 1     
   35   18   34 1     
   36   19   35 1     
   37   19   36 1     
   38    7   37 1     
   39   11   38 1     
   40   11   39 1     
   41   13   40 1     
   42   17   41 1     
   43   17   42 1     
@<TRIPOS>SUBSTRUCTURE
      1 S1             1
@<TRIPOS>SET
LONE_PAIRS      STATIC     ATOMS    <user>   **** ""
6 37 38 39 40 41 42
DONOR_HYDROGENS      STATIC     ATOMS    <user>   **** ""
1 29
ATOM$BLUE        STATIC     ATOMS    COLORGROUP SYSTEM
6 37 38 39 40 41 42
ATOM$RED        STATIC     ATOMS    COLORGROUP SYSTEM
1 29
