AV-unprocessed.smi:2852|AV-procd|sdf|10972|dock1
  -GOLD-   2272015423D 1   1.00000     0.00000
 Structure written by MMmdl.
 28 29  0  0  0  0  0  0  0  0  1 V2000
  147.2216  138.6820  153.1584 C   0  0  0  0  0  0  0  0  0  0  0  0
  148.1260  139.7671  153.5061 N   0  0  0  0  0  0  0  0  0  0  0  0
  148.2978  140.2384  154.7501 C   0  0  0  0  0  0  0  0  0  0  0  0
  147.7118  139.7838  155.7327 O   0  0  0  0  0  0  0  0  0  0  0  0
  149.2819  141.3981  154.9140 C   0  0  0  0  0  0  0  0  0  0  0  0
  150.4462  140.9858  155.7572 C   0  0  0  0  0  0  0  0  0  0  0  0
  151.3912  140.1811  155.2848 N   0  0  0  0  0  0  0  0  0  0  0  0
  152.2724  140.0450  156.3673 O   0  0  0  0  0  0  0  0  0  0  0  0
  151.7503  140.7940  157.3680 C   0  0  0  0  0  0  0  0  0  0  0  0
  152.4628  140.8296  158.6402 C   0  0  0  0  0  0  0  0  0  0  0  0
  152.4062  141.8331  159.5338 C   0  0  0  0  0  0  0  0  0  0  0  0
  153.0793  141.9937  160.8755 C   0  0  0  0  0  0  0  0  0  0  0  0
  152.3447  143.3473  160.9128 C   0  0  0  0  0  0  0  0  0  0  0  0
  151.6645  143.1505  159.5451 C   0  0  0  0  0  0  0  0  0  0  0  0
  150.6150  141.4093  157.0409 N   0  0  0  0  0  0  0  0  0  0  0  0
  147.2840  138.4739  152.0905 H   0  0  0  0  0  0  0  0  0  0  0  0
  146.1904  138.9481  153.3939 H   0  0  0  0  0  0  0  0  0  0  0  0
  147.4791  137.7706  153.6995 H   0  0  0  0  0  0  0  0  0  0  0  0
  148.6456  140.1954  152.7533 H   0  0  0  0  0  0  0  0  0  0  0  0
  149.6315  141.7251  153.9337 H   0  0  0  0  0  0  0  0  0  0  0  0
  148.7805  142.2519  155.3719 H   0  0  0  0  0  0  0  0  0  0  0  0
  153.0782  139.9711  158.8668 H   0  0  0  0  0  0  0  0  0  0  0  0
  152.7592  141.3267  161.6767 H   0  0  0  0  0  0  0  0  0  0  0  0
  154.1634  142.1096  160.8805 H   0  0  0  0  0  0  0  0  0  0  0  0
  151.6305  143.4195  161.7343 H   0  0  0  0  0  0  0  0  0  0  0  0
  153.0267  144.1987  160.9278 H   0  0  0  0  0  0  0  0  0  0  0  0
  151.9707  143.9026  158.8174 H   0  0  0  0  0  0  0  0  0  0  0  0
  150.5778  143.1105  159.6240 H   0  0  0  0  0  0  0  0  0  0  0  0
  1  2  1  0  0  0  0
  1 16  1  0  0  0  0
  1 17  1  0  0  0  0
  1 18  1  0  0  0  0
  2  3  1  0  0  0  0
  2 19  1  0  0  0  0
  3  4  2  0  0  0  0
  3  5  1  0  0  0  0
  5  6  1  0  0  0  0
  5 20  1  0  0  0  0
  5 21  1  0  0  0  0
  6 15  1  0  0  0  0
  6  7  2  0  0  0  0
  7  8  1  0  0  0  0
  8  9  1  0  0  0  0
  9 10  1  0  0  0  0
  9 15  2  0  0  0  0
 10 11  2  0  0  0  0
 10 22  1  0  0  0  0
 11 14  1  0  0  0  0
 11 12  1  0  0  0  0
 12 13  1  0  0  0  0
 12 23  1  0  0  0  0
 12 24  1  0  0  0  0
 13 14  1  0  0  0  0
 13 25  1  0  0  0  0
 13 26  1  0  0  0  0
 14 27  1  0  0  0  0
 14 28  1  0  0  0  0
M  END
> <s_m_source_file>
AV-unprocessed.smi

> <i_m_source_file_index>
2852

> <i_lp_mmshare_version>
43012

> <i_f3d_flags>
0

> <s_epik_input>
W0NIM11bTkhdQyg9TylbQ0gyXWMxbm9jKG4xKVtDSF09QzJbQ0gyXVtDSDJdW0NIMl0y

> <s_epik_cmdline>
J2VwaWtfcHl0aG9uJywgJy1waCcsICc3LjAnLCAnLXRuJywgJzgnLCAnLW1hJywgJzIwMCcsICctbWV0YWxfYmluZGluZycsICctaW1hZScsICc8aW5maWxlLm1hZT4nLCAnLW9tYWUnLCAnPG91dGZpbGUubWFlPic=

> <r_lp_tautomer_probability>
1

> <r_epik_Ionization_Penalty>
1.02917e-07

> <r_epik_Ionization_Penalty_Charging>
0

> <r_epik_Ionization_Penalty_Neutral>
1.02917e-07

> <r_epik_State_Penalty>
-0

> <r_epik_Charging_Adjusted_Penalty>
0

> <i_epik_Tot_Q>
0

> <i_epik_Tot_abs_Q>
0

> <r_epik_Metal_State_Penalty>
-0

> <b_epik_Metal_Only>
0

> <s_lp_Force_Field>
OPLS_2005

> <r_lp_Energy>
12.6474

> <b_lp_Chiralities_Consistent>
1

> <s_lp_Variant>
AV-unprocessed.smi:2852-1

> <Gold.Version>
5.8.1

> <Gold.Id.Protein>
6NUR|6NUR_protein|mol2

> <Gold.PLP.Fitness>
39.2114

> <Gold.PLP.PLP>
-31.2453

> <Gold.PLP.part.hbond>
-2.9775

> <Gold.PLP.part.metal>
0.0000

> <Gold.PLP.part.buried>
-3.2166

> <Gold.PLP.part.nonpolar>
-24.9209

> <Gold.PLP.part.repulsive>
0.1968

> <Gold.PLP.ligand.clash>
0.0000

> <Gold.PLP.ligand.torsion>
0.3223

> <Gold.PLP.Chemscore.Hbond>
2.8700

> <Gold.PLP.Chemscore.CHOScore>
0.0000

> <Gold.PLP.Chemscore.Metal>
0.0000

> <Gold.Chemscore.Hbonds>
donor molecule, donor type, donor heavy atom, donor atom, acceptor molecule, acceptor atom, score
      L1  H     2    19       P1  7957  1.00
      P1  H  7989  7998       L1     7  1.00
      P1  H  7997  8010       L1     8  0.93

> <Gold.PLP.Chemscore.Internal.Correction>
0.0008

> <Gold.Rescore>
     Score         DG    S(hbond)    S(metal)    S(lipo)     H(rot)  DE(clash)    DE(int)     intcor
     16.82     -17.15       2.22        0.00      65.88       1.35       0.13       0.20       ----

> <Gold.Chemscore.Fitness>
16.8225

> <Gold.Chemscore.DG>
-17.1550

> <Gold.Chemscore.ZeroCoef>
-5.4800

> <Gold.Chemscore.Hbond>
2.2241

> <Gold.Chemscore.Metal>
0.0000

> <Gold.Chemscore.Lipo>
65.8772

> <Gold.Chemscore.Internal_Hbond>
0.0000

> <Gold.Chemscore.DEClash>
0.1345

> <Gold.Chemscore.DEInternal>
0.1980

> <Gold.Chemscore.Rot>
1.3519

> <Gold.Chemscore.Internal.Correction>
   9.000000E+99

> <Gold.Chemscore.Hbonds>
donor molecule, donor type, donor heavy atom, donor atom, acceptor molecule, acceptor atom, score
      L1  H     2    19       P1  7957  0.94
      P1  H  7989  7998       L1     7  0.33
      P1  H  7997  8010       L1     8  0.72

> <Gold.Chemscore.Hbond.Weighted>
-7.4283

> <Gold.Chemscore.Metal.Weighted>
-0.0000

> <Gold.Chemscore.Lipo.Weighted>
-7.7076

> <Gold.Chemscore.Internal_Hbond.Weighted>
0.0000

> <Gold.Chemscore.DEClash.Weighted>
0.1345

> <Gold.Chemscore.DEInternal.Weighted>
0.1980

> <Gold.Chemscore.Rot.Weighted>
3.4610

> <Gold.Chemscore.Internal.Correction.Weighted>
   9.000000E+99

> <Gold.Protein.RotatedTorsions>
[ 6907 6896 6895 6894 ] final   73.10 input  -60.11 | X-H torsion
[ 7974 7965 7964 7962 ] final -172.97 input  175.53 | X-H torsion
[ 8008 7997 7996 7995 ] final   79.07 input   59.86 | X-H torsion
[ 10167 10162 10161 10158 ] final  -94.35 input  -65.29 | X-H torsion
[ 10718 10713 10712 10709 ] final  -50.07 input   66.30 | X-H torsion
[ 10763 10752 10751 10750 ] final  133.29 input  -60.55 | X-H torsion
[ 11005 11000 10999 10996 ] final -116.78 input  -57.11 | X-H torsion

> <Gold.Protein.ActiveResidues>
 VAL166  LYS551  ARG553  GLY616  TRP617  ASP618  TYR619  PRO620  LYS621  CYS622 
 ASP623  PHE694  ASN695  SER759  ASP760  ASP761  ALA762  ILE779  LEU786  VAL792 
 PHE793  MET794  SER795  GLU796  ALA797  LYS798  CYS799  TRP800  GLU811  SER814 

> <Gold.Protein.RotatedAtoms>
  152.4904  134.4473  159.9562 H   0  0  0  0  0  0  0  0  0  0  0  0  # atno 6907 bound_to 6896
  151.4461  133.3624  159.2796 H   0  0  0  0  0  0  0  0  0  0  0  0  # atno 6908 bound_to 6896
  150.9054  134.8492  159.7449 H   0  0  0  0  0  0  0  0  0  0  0  0  # atno 6909 bound_to 6896
  144.7141  140.1692  143.6369 H   0  0  0  0  0  0  0  0  0  0  0  0  # atno 7974 bound_to 7965
  155.8646  140.3452  155.5779 H   0  0  0  0  0  0  0  0  0  0  0  0  # atno 8008 bound_to 7997
  155.7895  140.0869  157.2036 H   0  0  0  0  0  0  0  0  0  0  0  0  # atno 8009 bound_to 7997
  154.4013  140.1486  156.3133 H   0  0  0  0  0  0  0  0  0  0  0  0  # atno 8010 bound_to 7997
  140.3153  143.3081  152.0104 H   0  0  0  0  0  0  0  0  0  0  0  0  # atno 10167 bound_to 10162
  156.1835  130.4151  149.9473 H   0  0  0  0  0  0  0  0  0  0  0  0  # atno 10718 bound_to 10713
  153.8047  135.3137  155.3394 H   0  0  0  0  0  0  0  0  0  0  0  0  # atno 10763 bound_to 10752
  154.8075  135.4688  154.0433 H   0  0  0  0  0  0  0  0  0  0  0  0  # atno 10764 bound_to 10752
  153.1792  135.6891  153.8589 H   0  0  0  0  0  0  0  0  0  0  0  0  # atno 10765 bound_to 10752
  141.0399  133.9852  157.3011 H   0  0  0  0  0  0  0  0  0  0  0  0  # atno 11005 bound_to 11000
  145.8959  139.2402  143.1522 LP  0  0  0  0  0  0  0  0  0  0  0  0  # atno 17320 bound_to 7965
  145.9858  140.8644  143.0091 LP  0  0  0  0  0  0  0  0  0  0  0  0  # atno 17321 bound_to 7965
  139.4885  144.6353  151.6988 LP  0  0  0  0  0  0  0  0  0  0  0  0  # atno 17342 bound_to 10162
  140.5532  144.0392  150.6136 LP  0  0  0  0  0  0  0  0  0  0  0  0  # atno 17343 bound_to 10162
  156.7236  130.9016  151.3620 LP  0  0  0  0  0  0  0  0  0  0  0  0  # atno 17370 bound_to 10713
  157.6883  130.9208  150.0446 LP  0  0  0  0  0  0  0  0  0  0  0  0  # atno 17371 bound_to 10713
  139.9268  135.0201  156.8262 LP  0  0  0  0  0  0  0  0  0  0  0  0  # atno 17394 bound_to 11000
  140.6254  133.9955  155.7637 LP  0  0  0  0  0  0  0  0  0  0  0  0  # atno 17395 bound_to 11000

$$$$
