AV-unprocessed.smi:670|AV-procd|sdf|3271|dock5
  -GOLD-   22720 0223D 1   1.00000     0.00000
 Structure written by MMmdl.
 45 46  0  0  0  0  0  0  0  0  1 V2000
  153.1991  141.1946  160.5351 C   0  0  0  0  0  0  0  0  0  0  0  0
  152.9548  142.6491  160.1040 C   0  0  2  0  0  0  0  0  0  0  0  0
  152.3214  143.4868  161.2331 C   0  0  0  0  0  0  0  0  0  0  0  0
  152.1127  144.9466  160.7976 C   0  0  0  0  0  0  0  0  0  0  0  0
  151.2779  145.0351  159.5101 C   0  0  0  0  0  0  0  0  0  0  0  0
  151.8963  144.1933  158.3803 C   0  0  0  0  0  0  0  0  0  0  0  0
  152.1090  142.7303  158.8146 C   0  0  2  0  0  0  0  0  0  0  0  0
  150.8461  142.1359  159.0788 O   0  0  0  0  0  0  0  0  0  0  0  0
  150.3024  141.3797  158.0103 C   0  0  0  0  0  0  0  0  0  0  0  0
  150.7415  139.9171  158.1695 C   0  0  0  0  0  0  0  0  0  0  0  0
  149.6180  139.0037  157.9818 N   0  0  0  0  0  0  0  0  0  0  0  0
  149.6620  137.6766  158.1803 C   0  0  0  0  0  0  0  0  0  0  0  0
  150.6653  137.0896  158.5893 O   0  0  0  0  0  0  0  0  0  0  0  0
  148.3693  136.9095  157.8628 C   0  0  0  0  0  0  0  0  0  0  0  0
  147.7991  136.2056  159.0213 N   0  0  0  0  0  0  0  0  0  0  0  0
  147.6153  137.0111  160.1349 N   0  0  0  0  0  0  0  0  0  0  0  0
  147.1372  136.5089  161.2228 C   0  0  0  0  0  0  0  0  0  0  0  0
  146.9732  137.3419  162.3023 O   0  0  0  0  0  0  0  0  0  0  0  0
  146.7812  135.1094  161.3082 C   0  0  0  0  0  0  0  0  0  0  0  0
  146.9592  134.3334  160.2168 C   0  0  0  0  0  0  0  0  0  0  0  0
  147.4979  134.8713  158.9663 C   0  0  0  0  0  0  0  0  0  0  0  0
  147.6657  134.1872  157.9575 O   0  0  0  0  0  0  0  0  0  0  0  0
  147.8351  137.6773  162.4949 H   0  0  0  0  0  0  0  0  0  0  0  0
  152.2633  140.6831  160.7602 H   0  0  0  0  0  0  0  0  0  0  0  0
  153.8253  141.1479  161.4263 H   0  0  0  0  0  0  0  0  0  0  0  0
  153.7018  140.6315  159.7486 H   0  0  0  0  0  0  0  0  0  0  0  0
  153.9316  143.0824  159.8840 H   0  0  0  0  0  0  0  0  0  0  0  0
  151.3651  143.0517  161.5279 H   0  0  0  0  0  0  0  0  0  0  0  0
  152.9560  143.4582  162.1194 H   0  0  0  0  0  0  0  0  0  0  0  0
  151.6246  145.5057  161.5964 H   0  0  0  0  0  0  0  0  0  0  0  0
  153.0815  145.4209  160.6364 H   0  0  0  0  0  0  0  0  0  0  0  0
  150.2628  144.6894  159.7101 H   0  0  0  0  0  0  0  0  0  0  0  0
  151.1916  146.0749  159.1939 H   0  0  0  0  0  0  0  0  0  0  0  0
  151.2632  144.2387  157.4940 H   0  0  0  0  0  0  0  0  0  0  0  0
  152.8551  144.6263  158.0920 H   0  0  0  0  0  0  0  0  0  0  0  0
  152.6298  142.1866  158.0238 H   0  0  0  0  0  0  0  0  0  0  0  0
  149.2139  141.4448  158.0180 H   0  0  0  0  0  0  0  0  0  0  0  0
  150.6504  141.7756  157.0549 H   0  0  0  0  0  0  0  0  0  0  0  0
  151.5531  139.6866  157.4773 H   0  0  0  0  0  0  0  0  0  0  0  0
  151.1397  139.7620  159.1723 H   0  0  0  0  0  0  0  0  0  0  0  0
  148.7539  139.4055  157.6483 H   0  0  0  0  0  0  0  0  0  0  0  0
  147.6419  137.6184  157.4629 H   0  0  0  0  0  0  0  0  0  0  0  0
  148.5652  136.2042  157.0529 H   0  0  0  0  0  0  0  0  0  0  0  0
  146.3827  134.7027  162.2257 H   0  0  0  0  0  0  0  0  0  0  0  0
  146.6978  133.2864  160.2657 H   0  0  0  0  0  0  0  0  0  0  0  0
  1  2  1  0  0  0  0
  1 24  1  0  0  0  0
  1 25  1  0  0  0  0
  1 26  1  0  0  0  0
  2  7  1  0  0  0  0
  2  3  1  0  0  0  0
  2 27  1  0  0  0  0
  3  4  1  0  0  0  0
  3 28  1  0  0  0  0
  3 29  1  0  0  0  0
  4  5  1  0  0  0  0
  4 30  1  0  0  0  0
  4 31  1  0  0  0  0
  5  6  1  0  0  0  0
  5 32  1  0  0  0  0
  5 33  1  0  0  0  0
  6  7  1  0  0  0  0
  6 34  1  0  0  0  0
  6 35  1  0  0  0  0
  7  8  1  0  0  0  0
  7 36  1  0  0  0  0
  8  9  1  0  0  0  0
  9 10  1  0  0  0  0
  9 37  1  0  0  0  0
  9 38  1  0  0  0  0
 10 11  1  0  0  0  0
 10 39  1  0  0  0  0
 10 40  1  0  0  0  0
 11 12  1  0  0  0  0
 11 41  1  0  0  0  0
 12 13  2  0  0  0  0
 12 14  1  0  0  0  0
 14 42  1  0  0  0  0
 14 43  1  0  0  0  0
 14 15  1  0  0  0  0
 15 16  1  0  0  0  0
 15 21  1  0  0  0  0
 16 17  2  0  0  0  0
 17 18  1  0  0  0  0
 17 19  1  0  0  0  0
 18 23  1  0  0  0  0
 19 44  1  0  0  0  0
 19 20  2  0  0  0  0
 20 45  1  0  0  0  0
 20 21  1  0  0  0  0
 21 22  2  0  0  0  0
M  END
> <s_m_source_file>
AV-unprocessed.smi

> <i_m_source_file_index>
670

> <i_lp_mmshare_version>
43012

> <i_f3d_flags>
0

> <s_epik_input>
W0NIM11bQ0BASF0xW0NIMl1bQ0gyXVtDSDJdW0NIMl1bQ0BIXTFPW0NIMl1bQ0gyXVtOSF1DKD1PKVtDSDJdbjJbbkhdYyg9TylbY0hdW2NIXWMyPU8=

> <s_epik_cmdline>
J2VwaWtfcHl0aG9uJywgJy1waCcsICc3LjAnLCAnLXRuJywgJzgnLCAnLW1hJywgJzIwMCcsICctbWV0YWxfYmluZGluZycsICctaW1hZScsICc8aW5maWxlLm1hZT4nLCAnLW9tYWUnLCAnPG91dGZpbGUubWFlPic=

> <r_lp_tautomer_probability>
0.9996

> <r_epik_Ionization_Penalty>
2.12726

> <r_epik_Ionization_Penalty_Charging>
3.83395e-08

> <r_epik_Ionization_Penalty_Neutral>
2.12726

> <r_epik_State_Penalty>
1.70432

> <r_epik_Charging_Adjusted_Penalty>
1.70432

> <i_epik_Tot_Q>
0

> <i_epik_Tot_abs_Q>
0

> <r_epik_Metal_State_Penalty>
1.70432

> <b_epik_Metal_Only>
0

> <s_lp_Force_Field>
OPLS_2005

> <r_lp_Energy>
20.0493

> <b_lp_Chiralities_Consistent>
1

> <s_lp_Variant>
AV-unprocessed.smi:670-7

> <Gold.Version>
5.8.1

> <Gold.Id.Protein>
6NUR|6NUR_protein|mol2

> <Gold.PLP.Fitness>
57.3643

> <Gold.PLP.PLP>
-52.9751

> <Gold.PLP.part.hbond>
-5.6009

> <Gold.PLP.part.metal>
0.0000

> <Gold.PLP.part.buried>
-4.4438

> <Gold.PLP.part.nonpolar>
-43.2603

> <Gold.PLP.part.repulsive>
0.2139

> <Gold.PLP.ligand.clash>
0.0000

> <Gold.PLP.ligand.torsion>
1.1247

> <Gold.PLP.Chemscore.Hbond>
2.1872

> <Gold.PLP.Chemscore.CHOScore>
0.0000

> <Gold.PLP.Chemscore.Metal>
0.0000

> <Gold.Chemscore.Hbonds>
donor molecule, donor type, donor heavy atom, donor atom, acceptor molecule, acceptor atom, score
      P1  H  6896  6907       L1    13  0.05
      P1  H  6934  6947       L1    16  0.24

> <Gold.PLP.Chemscore.Internal.Correction>
0.0769

> <Gold.Rescore>
     Score         DG    S(hbond)    S(metal)    S(lipo)     H(rot)  DE(clash)    DE(int)     intcor
     14.21     -15.57       1.56        0.00     109.16       3.09       0.09       1.26       ----

> <Gold.Chemscore.Fitness>
14.2124

> <Gold.Chemscore.DG>
-15.5658

> <Gold.Chemscore.ZeroCoef>
-5.4800

> <Gold.Chemscore.Hbond>
1.5643

> <Gold.Chemscore.Metal>
0.0000

> <Gold.Chemscore.Lipo>
109.1607

> <Gold.Chemscore.Internal_Hbond>
0.0000

> <Gold.Chemscore.DEClash>
0.0891

> <Gold.Chemscore.DEInternal>
1.2644

> <Gold.Chemscore.Rot>
3.0901

> <Gold.Chemscore.Internal.Correction>
   9.000000E+99

> <Gold.Chemscore.Hbonds>
donor molecule, donor type, donor heavy atom, donor atom, acceptor molecule, acceptor atom, score
      P1  H  6896  6907       L1    13  0.10
      P1  H  6934  6947       L1    16  0.01

> <Gold.Chemscore.Hbond.Weighted>
-5.2246

> <Gold.Chemscore.Metal.Weighted>
-0.0000

> <Gold.Chemscore.Lipo.Weighted>
-12.7718

> <Gold.Chemscore.Internal_Hbond.Weighted>
0.0000

> <Gold.Chemscore.DEClash.Weighted>
0.0891

> <Gold.Chemscore.DEInternal.Weighted>
1.2644

> <Gold.Chemscore.Rot.Weighted>
7.9106

> <Gold.Chemscore.Internal.Correction.Weighted>
   9.000000E+99

> <Gold.Protein.RotatedTorsions>
[ 6907 6896 6895 6894 ] final  -26.72 input  -60.11 | X-H torsion
[ 7974 7965 7964 7962 ] final -122.10 input  175.53 | X-H torsion
[ 8008 7997 7996 7995 ] final  -23.39 input   59.86 | X-H torsion
[ 10167 10162 10161 10158 ] final  -71.17 input  -65.29 | X-H torsion
[ 10718 10713 10712 10709 ] final   41.71 input   66.30 | X-H torsion
[ 10763 10752 10751 10750 ] final  -31.08 input  -60.55 | X-H torsion
[ 11005 11000 10999 10996 ] final  146.85 input  -57.11 | X-H torsion

> <Gold.Protein.ActiveResidues>
 VAL166  LYS551  ARG553  GLY616  TRP617  ASP618  TYR619  PRO620  LYS621  CYS622 
 ASP623  PHE694  ASN695  SER759  ASP760  ASP761  ALA762  ILE779  LEU786  VAL792 
 PHE793  MET794  SER795  GLU796  ALA797  LYS798  CYS799  TRP800  GLU811  SER814 

> <Gold.Protein.RotatedAtoms>
  151.1570  135.0255  159.8693 H   0  0  0  0  0  0  0  0  0  0  0  0  # atno 6907 bound_to 6896
  152.5452  134.1323  159.8454 H   0  0  0  0  0  0  0  0  0  0  0  0  # atno 6908 bound_to 6896
  151.1414  133.4923  159.2629 H   0  0  0  0  0  0  0  0  0  0  0  0  # atno 6909 bound_to 6896
  145.0331  140.8083  143.4312 H   0  0  0  0  0  0  0  0  0  0  0  0  # atno 7974 bound_to 7965
  154.4588  140.1982  156.0303 H   0  0  0  0  0  0  0  0  0  0  0  0  # atno 8008 bound_to 7997
  156.0799  140.3273  155.7653 H   0  0  0  0  0  0  0  0  0  0  0  0  # atno 8009 bound_to 7997
  155.5127  140.0563  157.2911 H   0  0  0  0  0  0  0  0  0  0  0  0  # atno 8010 bound_to 7997
  140.5294  143.2323  151.7289 H   0  0  0  0  0  0  0  0  0  0  0  0  # atno 10167 bound_to 10162
  157.3967  130.7837  149.7314 H   0  0  0  0  0  0  0  0  0  0  0  0  # atno 10718 bound_to 10713
  153.7915  135.6897  153.4870 H   0  0  0  0  0  0  0  0  0  0  0  0  # atno 10763 bound_to 10752
  153.1746  135.4529  154.9947 H   0  0  0  0  0  0  0  0  0  0  0  0  # atno 10764 bound_to 10752
  154.8042  135.3350  154.7411 H   0  0  0  0  0  0  0  0  0  0  0  0  # atno 10765 bound_to 10752
  140.0827  134.9087  157.1526 H   0  0  0  0  0  0  0  0  0  0  0  0  # atno 11005 bound_to 11000
  145.1745  139.2386  143.5324 LP  0  0  0  0  0  0  0  0  0  0  0  0  # atno 17320 bound_to 7965
  146.3501  140.1504  142.8592 LP  0  0  0  0  0  0  0  0  0  0  0  0  # atno 17321 bound_to 7965
  139.4949  144.4136  152.0053 LP  0  0  0  0  0  0  0  0  0  0  0  0  # atno 17342 bound_to 10162
  140.3238  144.3397  150.6003 LP  0  0  0  0  0  0  0  0  0  0  0  0  # atno 17343 bound_to 10162
  155.9812  130.4022  150.3484 LP  0  0  0  0  0  0  0  0  0  0  0  0  # atno 17370 bound_to 10713
  157.1607  131.0344  151.2842 LP  0  0  0  0  0  0  0  0  0  0  0  0  # atno 17371 bound_to 10713
  140.3464  134.2646  155.7204 LP  0  0  0  0  0  0  0  0  0  0  0  0  # atno 17394 bound_to 11000
  141.2052  133.7866  157.0245 LP  0  0  0  0  0  0  0  0  0  0  0  0  # atno 17395 bound_to 11000

$$$$
