AV-unprocessed.smi:107|AV-procd|sdf|1015|dock8
  -GOLD-   2262018 13D 1   1.00000     0.00000
 Structure written by MMmdl.
 31 32  0  0  0  0  0  0  0  0  1 V2000
  152.0038  144.5201  158.1929 C   0  0  0  0  0  0  0  0  0  0  0  0
  151.6505  143.0510  158.3566 C   0  0  0  0  0  0  0  0  0  0  0  0
  150.7975  142.4096  157.5176 C   0  0  0  0  0  0  0  0  0  0  0  0
  150.4599  141.0688  157.6378 N   0  0  0  0  0  0  0  0  0  0  0  0
  149.5084  140.4122  156.6636 C   0  0  2  0  0  0  0  0  0  0  0  0
  150.1100  140.3784  155.2575 C   0  0  0  0  0  0  0  0  0  0  0  0
  148.8935  140.6569  154.3996 C   0  0  2  0  0  0  0  0  0  0  0  0
  149.2745  141.2292  153.1653 O   0  0  0  0  0  0  0  0  0  0  0  0
  148.1012  141.6288  155.2796 C   0  0  1  0  0  0  0  0  0  0  0  0
  146.5901  141.6629  155.0027 C   0  0  0  0  0  0  0  0  0  0  0  0
  146.1514  140.4226  154.4909 O   0  0  0  0  0  0  0  0  0  0  0  0
  148.3277  141.1589  156.6072 O   0  0  0  0  0  0  0  0  0  0  0  0
  151.0398  140.3002  158.6686 C   0  0  0  0  0  0  0  0  0  0  0  0
  150.8148  139.1003  158.8206 O   0  0  0  0  0  0  0  0  0  0  0  0
  151.9117  140.9591  159.5336 N   0  0  0  0  0  0  0  0  0  0  0  0
  152.2668  142.3082  159.4593 C   0  0  0  0  0  0  0  0  0  0  0  0
  153.0463  142.7773  160.2867 O   0  0  0  0  0  0  0  0  0  0  0  0
  152.3268  140.4134  160.2748 H   0  0  0  0  0  0  0  0  0  0  0  0
  151.4759  144.9719  157.3527 H   0  0  0  0  0  0  0  0  0  0  0  0
  153.0738  144.6364  158.0171 H   0  0  0  0  0  0  0  0  0  0  0  0
  151.7413  145.0789  159.0918 H   0  0  0  0  0  0  0  0  0  0  0  0
  150.3649  142.9766  156.7074 H   0  0  0  0  0  0  0  0  0  0  0  0
  149.2526  139.4244  157.0498 H   0  0  0  0  0  0  0  0  0  0  0  0
  150.8489  141.1753  155.1539 H   0  0  0  0  0  0  0  0  0  0  0  0
  150.5883  139.4201  155.0528 H   0  0  0  0  0  0  0  0  0  0  0  0
  148.3322  139.7363  154.2344 H   0  0  0  0  0  0  0  0  0  0  0  0
  149.2592  140.5527  152.5050 H   0  0  0  0  0  0  0  0  0  0  0  0
  148.5232  142.6328  155.2083 H   0  0  0  0  0  0  0  0  0  0  0  0
  146.0306  141.9061  155.9065 H   0  0  0  0  0  0  0  0  0  0  0  0
  146.3628  142.4338  154.2663 H   0  0  0  0  0  0  0  0  0  0  0  0
  145.4581  140.5827  153.8688 H   0  0  0  0  0  0  0  0  0  0  0  0
  1  2  1  0  0  0  0
  1 19  1  0  0  0  0
  1 20  1  0  0  0  0
  1 21  1  0  0  0  0
  2 16  1  0  0  0  0
  2  3  2  0  0  0  0
  3  4  1  0  0  0  0
  3 22  1  0  0  0  0
  4  5  1  0  0  0  0
  4 13  1  0  0  0  0
  5 12  1  0  0  0  0
  5  6  1  0  0  0  0
  5 23  1  0  0  0  0
  6  7  1  0  0  0  0
  6 24  1  0  0  0  0
  6 25  1  0  0  0  0
  7  8  1  0  0  0  0
  7  9  1  0  0  0  0
  7 26  1  0  0  0  0
  8 27  1  0  0  0  0
  9 10  1  0  0  0  0
  9 12  1  0  0  0  0
  9 28  1  0  0  0  0
 10 11  1  0  0  0  0
 10 29  1  0  0  0  0
 10 30  1  0  0  0  0
 11 31  1  0  0  0  0
 13 14  2  0  0  0  0
 13 15  1  0  0  0  0
 15 18  1  0  0  0  0
 15 16  1  0  0  0  0
 16 17  2  0  0  0  0
M  END
> <s_m_source_file>
AV-unprocessed.smi

> <i_m_source_file_index>
107

> <i_lp_mmshare_version>
43012

> <i_f3d_flags>
0

> <s_epik_input>
Tz1jMVtuSF1jKD1PKW4oW2NIXWMxW0NIM10pW0NAQEhdMltDSDJdW0NAQEhdKFtPSF0pW0NASF0oTzIpW0NIMl1bT0hd

> <s_epik_cmdline>
J2VwaWtfcHl0aG9uJywgJy1waCcsICc3LjAnLCAnLXRuJywgJzgnLCAnLW1hJywgJzIwMCcsICctbWV0YWxfYmluZGluZycsICctaW1hZScsICc8aW5maWxlLm1hZT4nLCAnLW9tYWUnLCAnPG91dGZpbGUubWFlPic=

> <r_lp_tautomer_probability>
0.999537

> <r_epik_Ionization_Penalty>
0.00121888

> <r_epik_Ionization_Penalty_Charging>
0.00121876

> <r_epik_Ionization_Penalty_Neutral>
1.19946e-07

> <r_epik_State_Penalty>
0.000805124

> <r_epik_Charging_Adjusted_Penalty>
0.00202389

> <i_epik_Tot_Q>
0

> <i_epik_Tot_abs_Q>
0

> <r_epik_Metal_State_Penalty>
0.662472

> <b_epik_Metal_Only>
0

> <s_epik_Chemistry_Notes>
This compound contains an acetal/aminal-like group ( X-CH(R)-Y where X, Y are N, S, or O) that may be acid/base labile, releasing an aldehyde.

> <s_lp_Force_Field>
OPLS_2005

> <r_lp_Energy>
24.0727

> <b_lp_Chiralities_Consistent>
1

> <s_lp_Variant>
AV-unprocessed.smi:107-3

> <Gold.Version>
5.8.1

> <Gold.Id.Protein>
6NUR|6NUR_protein|mol2

> <Gold.PLP.Fitness>
39.5336

> <Gold.PLP.PLP>
-30.1987

> <Gold.PLP.part.hbond>
-3.0002

> <Gold.PLP.part.metal>
0.0000

> <Gold.PLP.part.buried>
-4.7731

> <Gold.PLP.part.nonpolar>
-24.0332

> <Gold.PLP.part.repulsive>
0.2501

> <Gold.PLP.ligand.clash>
0.0000

> <Gold.PLP.ligand.torsion>
0.4736

> <Gold.PLP.Chemscore.Hbond>
2.4248

> <Gold.PLP.Chemscore.CHOScore>
1.0000

> <Gold.PLP.Chemscore.Metal>
0.0000

> <Gold.Chemscore.Hbonds>
donor molecule, donor type, donor heavy atom, donor atom, acceptor molecule, acceptor atom, score
      L1  H     8    27       P1  7957  0.86
      L1  H    11    31       P1 10175  0.44
      P1  H  7989  7998       L1     8  0.01
      P1  H  8011  8017       L1     8  1.00
      L1  C     3    22       P1  8028  1.00

> <Gold.PLP.Chemscore.Internal.Correction>
0.0077

> <Gold.Rescore>
     Score         DG    S(hbond)    S(metal)    S(lipo)     H(rot)  DE(clash)    DE(int)     intcor
     12.19     -12.55       2.26        0.00      55.54       2.73       0.00       0.36       ----

> <Gold.Chemscore.Fitness>
12.1911

> <Gold.Chemscore.DG>
-12.5510

> <Gold.Chemscore.ZeroCoef>
-5.4800

> <Gold.Chemscore.Hbond>
2.2605

> <Gold.Chemscore.Metal>
0.0000

> <Gold.Chemscore.Lipo>
55.5383

> <Gold.Chemscore.Internal_Hbond>
0.0000

> <Gold.Chemscore.DEClash>
0.0000

> <Gold.Chemscore.DEInternal>
0.3599

> <Gold.Chemscore.Rot>
2.7253

> <Gold.Chemscore.Internal.Correction>
   9.000000E+99

> <Gold.Chemscore.Hbonds>
donor molecule, donor type, donor heavy atom, donor atom, acceptor molecule, acceptor atom, score
      L1  H     8    27       P1  7957  0.80
      L1  H    11    31       P1 10175  0.43
      P1  H  8011  8017       L1     8  0.24

> <Gold.Chemscore.Hbond.Weighted>
-7.5499

> <Gold.Chemscore.Metal.Weighted>
-0.0000

> <Gold.Chemscore.Lipo.Weighted>
-6.4980

> <Gold.Chemscore.Internal_Hbond.Weighted>
0.0000

> <Gold.Chemscore.DEClash.Weighted>
0.0000

> <Gold.Chemscore.DEInternal.Weighted>
0.3599

> <Gold.Chemscore.Rot.Weighted>
6.9769

> <Gold.Chemscore.Internal.Correction.Weighted>
   9.000000E+99

> <Gold.Protein.RotatedTorsions>
[ 6907 6896 6895 6894 ] final   86.76 input  -60.11 | X-H torsion
[ 7974 7965 7964 7962 ] final -122.06 input  175.53 | X-H torsion
[ 8008 7997 7996 7995 ] final   37.32 input   59.86 | X-H torsion
[ 10167 10162 10161 10158 ] final   43.47 input  -65.29 | X-H torsion
[ 10718 10713 10712 10709 ] final   63.86 input   66.30 | X-H torsion
[ 10763 10752 10751 10750 ] final   97.97 input  -60.55 | X-H torsion
[ 11005 11000 10999 10996 ] final   67.86 input  -57.11 | X-H torsion

> <Gold.Protein.ActiveResidues>
 VAL166  LYS551  ARG553  GLY616  TRP617  ASP618  TYR619  PRO620  LYS621  CYS622 
 ASP623  PHE694  ASN695  SER759  ASP760  ASP761  ALA762  ILE779  LEU786  VAL792 
 PHE793  MET794  SER795  GLU796  ALA797  LYS798  CYS799  TRP800  GLU811  SER814 

> <Gold.Protein.RotatedAtoms>
  152.5400  134.2381  159.8850 H   0  0  0  0  0  0  0  0  0  0  0  0  # atno 6907 bound_to 6896
  151.2349  133.4423  159.2612 H   0  0  0  0  0  0  0  0  0  0  0  0  # atno 6908 bound_to 6896
  151.0680  134.9794  159.8350 H   0  0  0  0  0  0  0  0  0  0  0  0  # atno 6909 bound_to 6896
  145.0336  140.8087  143.4309 H   0  0  0  0  0  0  0  0  0  0  0  0  # atno 7974 bound_to 7965
  155.2018  140.3316  155.4342 H   0  0  0  0  0  0  0  0  0  0  0  0  # atno 8008 bound_to 7997
  156.2404  140.1892  156.7054 H   0  0  0  0  0  0  0  0  0  0  0  0  # atno 8009 bound_to 7997
  154.6136  140.0605  156.9512 H   0  0  0  0  0  0  0  0  0  0  0  0  # atno 8010 bound_to 7997
  140.3440  144.2434  150.6152 H   0  0  0  0  0  0  0  0  0  0  0  0  # atno 10167 bound_to 10162
  157.6000  130.9128  149.9770 H   0  0  0  0  0  0  0  0  0  0  0  0  # atno 10718 bound_to 10713
  153.2834  135.4164  155.1100 H   0  0  0  0  0  0  0  0  0  0  0  0  # atno 10763 bound_to 10752
  154.8497  135.3501  154.6080 H   0  0  0  0  0  0  0  0  0  0  0  0  # atno 10764 bound_to 10752
  153.6501  135.7053  153.5269 H   0  0  0  0  0  0  0  0  0  0  0  0  # atno 10765 bound_to 10752
  139.9745  134.6845  156.0381 H   0  0  0  0  0  0  0  0  0  0  0  0  # atno 11005 bound_to 11000
  145.1739  139.2389  143.5328 LP  0  0  0  0  0  0  0  0  0  0  0  0  # atno 17320 bound_to 7965
  146.3501  140.1496  142.8592 LP  0  0  0  0  0  0  0  0  0  0  0  0  # atno 17321 bound_to 7965
  140.5282  143.2249  151.8281 LP  0  0  0  0  0  0  0  0  0  0  0  0  # atno 17342 bound_to 10162
  139.4836  144.4754  151.9374 LP  0  0  0  0  0  0  0  0  0  0  0  0  # atno 17343 bound_to 10162
  156.1071  130.3652  150.0114 LP  0  0  0  0  0  0  0  0  0  0  0  0  # atno 17370 bound_to 10713
  156.8219  130.9362  151.3641 LP  0  0  0  0  0  0  0  0  0  0  0  0  # atno 17371 bound_to 10713
  141.1423  133.6562  156.3766 LP  0  0  0  0  0  0  0  0  0  0  0  0  # atno 17394 bound_to 11000
  140.5223  134.6292  157.5322 LP  0  0  0  0  0  0  0  0  0  0  0  0  # atno 17395 bound_to 11000

$$$$
