AV-unprocessed.smi:648|AV-procd|sdf|3173|dock3
  -GOLD-   22720 0 93D 1   1.00000     0.00000
 Structure written by MMmdl.
 46 47  0  0  0  0  0  0  0  0  2 V2000
  150.4806  141.7759  157.2674 C   0  0  0  0  0  0  0  0  0  0  0  0
  150.9348  140.3186  157.1054 C   0  0  1  0  0  0  0  0  0  0  0  0
  151.8866  140.1589  155.9053 C   0  0  0  0  0  0  0  0  0  0  0  0
  152.3670  138.7046  155.6857 C   0  0  0  0  0  0  0  0  0  0  0  0
  151.2355  137.8400  155.0829 C   0  0  0  0  0  0  0  0  0  0  0  0
  153.5137  138.7196  154.6536 C   0  0  0  0  0  0  0  0  0  0  0  0
  152.9209  138.1187  157.0188 C   0  0  0  0  0  0  0  0  0  0  0  0
  152.0371  138.3080  158.2873 C   0  0  2  0  0  0  0  0  0  0  0  0
  152.8322  137.8767  159.5520 C   0  0  0  0  0  0  0  0  0  0  0  0
  153.0385  136.4802  159.6262 O   0  0  0  0  0  0  0  0  0  0  0  0
  150.8452  137.4285  158.1481 N   0  3  0  0  0  0  0  0  0  0  0  0
  149.6844  137.6568  159.0407 C   0  0  0  0  0  0  0  0  0  0  0  0
  148.5656  136.6434  158.7502 C   0  0  0  0  0  0  0  0  0  0  0  0
  147.8100  136.3073  159.9444 N   0  0  0  0  0  0  0  0  0  0  0  0
  147.5185  135.1223  160.4840 C   0  0  0  0  0  0  0  0  0  0  0  0
  146.7872  135.2020  161.5864 N   0  0  0  0  0  0  0  0  0  0  0  0
  146.6712  136.5596  161.6875 C   0  0  0  0  0  0  0  0  0  0  0  0
  147.2680  137.2684  160.7290 N   0  0  0  0  0  0  0  0  0  0  0  0
  151.6122  139.7980  158.3869 C   0  0  0  0  0  0  0  0  0  0  0  0
  151.3254  142.4380  157.4597 H   0  0  0  0  0  0  0  0  0  0  0  0
  149.7805  141.8789  158.0972 H   0  0  0  0  0  0  0  0  0  0  0  0
  149.9768  142.1318  156.3682 H   0  0  0  0  0  0  0  0  0  0  0  0
  150.0356  139.7329  156.9204 H   0  0  0  0  0  0  0  0  0  0  0  0
  151.4046  140.5293  154.9992 H   0  0  0  0  0  0  0  0  0  0  0  0
  152.7521  140.8040  156.0650 H   0  0  0  0  0  0  0  0  0  0  0  0
  151.5442  136.7992  154.9818 H   0  0  0  0  0  0  0  0  0  0  0  0
  150.9620  138.1931  154.0879 H   0  0  0  0  0  0  0  0  0  0  0  0
  150.3215  137.8558  155.6713 H   0  0  0  0  0  0  0  0  0  0  0  0
  153.8898  137.7138  154.4623 H   0  0  0  0  0  0  0  0  0  0  0  0
  154.3562  139.3230  154.9943 H   0  0  0  0  0  0  0  0  0  0  0  0
  153.1863  139.1338  153.6992 H   0  0  0  0  0  0  0  0  0  0  0  0
  153.1597  137.0620  156.8873 H   0  0  0  0  0  0  0  0  0  0  0  0
  153.8810  138.6029  157.2002 H   0  0  0  0  0  0  0  0  0  0  0  0
  153.8167  138.3442  159.5760 H   0  0  0  0  0  0  0  0  0  0  0  0
  152.3099  138.1914  160.4563 H   0  0  0  0  0  0  0  0  0  0  0  0
  153.8713  136.3182  160.0434 H   0  0  0  0  0  0  0  0  0  0  0  0
  150.5215  137.5362  157.1976 H   0  0  0  0  0  0  0  0  0  0  0  0
  150.0092  137.5580  160.0766 H   0  0  0  0  0  0  0  0  0  0  0  0
  149.2873  138.6647  158.9345 H   0  0  0  0  0  0  0  0  0  0  0  0
  147.8801  137.0345  157.9972 H   0  0  0  0  0  0  0  0  0  0  0  0
  148.9885  135.7236  158.3445 H   0  0  0  0  0  0  0  0  0  0  0  0
  147.8362  134.1822  160.0567 H   0  0  0  0  0  0  0  0  0  0  0  0
  146.1279  137.0395  162.4883 H   0  0  0  0  0  0  0  0  0  0  0  0
  152.4934  140.4129  158.5746 H   0  0  0  0  0  0  0  0  0  0  0  0
  150.9643  139.9686  159.2453 H   0  0  0  0  0  0  0  0  0  0  0  0
  151.1430  136.4711  158.2690 H   0  0  0  0  0  0  0  0  0  0  0  0
  1  2  1  0  0  0  0
  1 20  1  0  0  0  0
  1 21  1  0  0  0  0
  1 22  1  0  0  0  0
  2 19  1  0  0  0  0
  2  3  1  0  0  0  0
  2 23  1  0  0  0  0
  3  4  1  0  0  0  0
  3 24  1  0  0  0  0
  3 25  1  0  0  0  0
  4  5  1  0  0  0  0
  4  6  1  0  0  0  0
  4  7  1  0  0  0  0
  5 26  1  0  0  0  0
  5 27  1  0  0  0  0
  5 28  1  0  0  0  0
  6 29  1  0  0  0  0
  6 30  1  0  0  0  0
  6 31  1  0  0  0  0
  7  8  1  0  0  0  0
  7 32  1  0  0  0  0
  7 33  1  0  0  0  0
  8  9  1  0  0  0  0
  8 11  1  0  0  0  0
  8 19  1  0  0  0  0
  9 10  1  0  0  0  0
  9 34  1  0  0  0  0
  9 35  1  0  0  0  0
 10 36  1  0  0  0  0
 11 12  1  0  0  0  0
 11 37  1  0  0  0  0
 11 46  1  0  0  0  0
 12 13  1  0  0  0  0
 12 38  1  0  0  0  0
 12 39  1  0  0  0  0
 13 14  1  0  0  0  0
 13 40  1  0  0  0  0
 13 41  1  0  0  0  0
 14 18  1  0  0  0  0
 14 15  1  0  0  0  0
 15 16  2  0  0  0  0
 15 42  1  0  0  0  0
 16 17  1  0  0  0  0
 17 18  2  0  0  0  0
 17 43  1  0  0  0  0
 19 44  1  0  0  0  0
 19 45  1  0  0  0  0
M  CHG  1  11   1
M  END
> <s_m_source_file>
AV-unprocessed.smi

> <i_m_source_file_index>
648

> <i_lp_mmshare_version>
43012

> <i_f3d_flags>
0

> <s_epik_input>
W0NIM11DMShbQ0gzXSlbQ0gyXVtDQEBIXShbQ0gzXSlbQ0gyXVtDQF0oW0NIMl0xKShbQ0gyXVtPSF0pW05IXVtDSDJdW0NIMl1uMltjSF1uW2NIXW4y

> <s_epik_cmdline>
J2VwaWtfcHl0aG9uJywgJy1waCcsICc3LjAnLCAnLXRuJywgJzgnLCAnLW1hJywgJzIwMCcsICctbWV0YWxfYmluZGluZycsICctaW1hZScsICc8aW5maWxlLm1hZT4nLCAnLW9tYWUnLCAnPG91dGZpbGUubWFlPic=

> <r_lp_tautomer_probability>
1

> <r_epik_Ionization_Penalty>
0.00942316

> <r_epik_Ionization_Penalty_Charging>
0.00942185

> <r_epik_Ionization_Penalty_Neutral>
1.31257e-06

> <r_epik_State_Penalty>
0.00715409

> <r_epik_Charging_Adjusted_Penalty>
0.0165759

> <i_epik_Tot_Q>
1

> <i_epik_Tot_abs_Q>
1

> <r_epik_Metal_State_Penalty>
0.00715563

> <b_epik_Metal_Only>
0

> <s_lp_Force_Field>
OPLS_2005

> <r_lp_Energy>
29.0097

> <b_lp_Chiralities_Consistent>
1

> <s_lp_Variant>
AV-unprocessed.smi:648-4

> <Gold.Version>
5.8.1

> <Gold.Id.Protein>
6NUR|6NUR_protein|mol2

> <Gold.PLP.Fitness>
40.7163

> <Gold.PLP.PLP>
-33.2335

> <Gold.PLP.part.hbond>
-3.0000

> <Gold.PLP.part.metal>
0.0000

> <Gold.PLP.part.buried>
-4.8789

> <Gold.PLP.part.nonpolar>
-25.1996

> <Gold.PLP.part.repulsive>
0.0930

> <Gold.PLP.ligand.clash>
0.0000

> <Gold.PLP.ligand.torsion>
0.5167

> <Gold.PLP.Chemscore.Hbond>
2.8240

> <Gold.PLP.Chemscore.CHOScore>
0.0000

> <Gold.PLP.Chemscore.Metal>
0.0000

> <Gold.Chemscore.Hbonds>
donor molecule, donor type, donor heavy atom, donor atom, acceptor molecule, acceptor atom, score
      P1  H  6896  6908       L1    10  1.00
      P1  H  6931  6943       L1    18  0.18
      P1  H  6934  6947       L1    18  1.00

> <Gold.PLP.Chemscore.Internal.Correction>
0.0442

> <Gold.Rescore>
     Score         DG    S(hbond)    S(metal)    S(lipo)     H(rot)  DE(clash)    DE(int)     intcor
     13.41     -14.04       2.63        0.00      67.63       3.17       0.02       0.61       ----

> <Gold.Chemscore.Fitness>
13.4070

> <Gold.Chemscore.DG>
-14.0418

> <Gold.Chemscore.ZeroCoef>
-5.4800

> <Gold.Chemscore.Hbond>
2.6278

> <Gold.Chemscore.Metal>
0.0000

> <Gold.Chemscore.Lipo>
67.6315

> <Gold.Chemscore.Internal_Hbond>
0.0000

> <Gold.Chemscore.DEClash>
0.0204

> <Gold.Chemscore.DEInternal>
0.6144

> <Gold.Chemscore.Rot>
3.1750

> <Gold.Chemscore.Internal.Correction>
   9.000000E+99

> <Gold.Chemscore.Hbonds>
donor molecule, donor type, donor heavy atom, donor atom, acceptor molecule, acceptor atom, score
      P1  H  6896  6908       L1    10  0.40
      P1  H  6931  6943       L1    18  0.04
      P1  H  6934  6947       L1    18  0.90

> <Gold.Chemscore.Hbond.Weighted>
-8.7768

> <Gold.Chemscore.Metal.Weighted>
-0.0000

> <Gold.Chemscore.Lipo.Weighted>
-7.9129

> <Gold.Chemscore.Internal_Hbond.Weighted>
0.0000

> <Gold.Chemscore.DEClash.Weighted>
0.0204

> <Gold.Chemscore.DEInternal.Weighted>
0.6144

> <Gold.Chemscore.Rot.Weighted>
8.1279

> <Gold.Chemscore.Internal.Correction.Weighted>
   9.000000E+99

> <Gold.Protein.RotatedTorsions>
[ 6907 6896 6895 6894 ] final  -89.64 input  -60.11 | X-H torsion
[ 7974 7965 7964 7962 ] final -121.28 input  175.53 | X-H torsion
[ 8008 7997 7996 7995 ] final  -75.67 input   59.86 | X-H torsion
[ 10167 10162 10161 10158 ] final  -70.77 input  -65.29 | X-H torsion
[ 10718 10713 10712 10709 ] final    4.10 input   66.30 | X-H torsion
[ 10763 10752 10751 10750 ] final -144.34 input  -60.55 | X-H torsion
[ 11005 11000 10999 10996 ] final -116.56 input  -57.11 | X-H torsion

> <Gold.Protein.ActiveResidues>
 VAL166  LYS551  ARG553  GLY616  TRP617  ASP618  TYR619  PRO620  LYS621  CYS622 
 ASP623  PHE694  ASN695  SER759  ASP760  ASP761  ALA762  ILE779  LEU786  VAL792 
 PHE793  MET794  SER795  GLU796  ALA797  LYS798  CYS799  TRP800  GLU811  SER814 

> <Gold.Protein.RotatedAtoms>
  150.6875  134.2556  159.4527 H   0  0  0  0  0  0  0  0  0  0  0  0  # atno 6907 bound_to 6896
  152.0490  134.9663  160.0584 H   0  0  0  0  0  0  0  0  0  0  0  0  # atno 6908 bound_to 6896
  152.1135  133.4279  159.4679 H   0  0  0  0  0  0  0  0  0  0  0  0  # atno 6909 bound_to 6896
  145.0421  140.8152  143.4260 H   0  0  0  0  0  0  0  0  0  0  0  0  # atno 7974 bound_to 7965
  154.5437  140.0740  156.8552 H   0  0  0  0  0  0  0  0  0  0  0  0  # atno 8008 bound_to 7997
  155.3130  140.3391  155.4225 H   0  0  0  0  0  0  0  0  0  0  0  0  # atno 8009 bound_to 7997
  156.1898  140.1682  156.8101 H   0  0  0  0  0  0  0  0  0  0  0  0  # atno 8010 bound_to 7997
  140.5326  143.2320  151.7234 H   0  0  0  0  0  0  0  0  0  0  0  0  # atno 10167 bound_to 10162
  156.8876  130.5676  149.5651 H   0  0  0  0  0  0  0  0  0  0  0  0  # atno 10718 bound_to 10713
  154.8432  135.3443  154.6330 H   0  0  0  0  0  0  0  0  0  0  0  0  # atno 10763 bound_to 10752
  153.6940  135.6973  153.5086 H   0  0  0  0  0  0  0  0  0  0  0  0  # atno 10764 bound_to 10752
  153.2573  135.4334  155.0814 H   0  0  0  0  0  0  0  0  0  0  0  0  # atno 10765 bound_to 10752
  141.0414  133.9830  157.2988 H   0  0  0  0  0  0  0  0  0  0  0  0  # atno 11005 bound_to 11000
  145.1635  139.2445  143.5379 LP  0  0  0  0  0  0  0  0  0  0  0  0  # atno 17320 bound_to 7965
  146.3510  140.1367  142.8595 LP  0  0  0  0  0  0  0  0  0  0  0  0  # atno 17321 bound_to 7965
  139.4959  144.4091  152.0100 LP  0  0  0  0  0  0  0  0  0  0  0  0  # atno 17342 bound_to 10162
  140.3194  144.3446  150.6013 LP  0  0  0  0  0  0  0  0  0  0  0  0  # atno 17343 bound_to 10162
  156.0645  130.5691  150.9261 LP  0  0  0  0  0  0  0  0  0  0  0  0  # atno 17370 bound_to 10713
  157.6103  131.0936  150.8806 LP  0  0  0  0  0  0  0  0  0  0  0  0  # atno 17371 bound_to 10713
  139.9278  135.0201  156.8297 LP  0  0  0  0  0  0  0  0  0  0  0  0  # atno 17394 bound_to 11000
  140.6227  133.9978  155.7626 LP  0  0  0  0  0  0  0  0  0  0  0  0  # atno 17395 bound_to 11000

$$$$
