#       Name:                AV-unprocessed.smi:1092
#       Creating user name   scv26
#       Creation time:       Fri Mar 27 03:27:23 2020


#       File generated by GOLD software.
#

@<TRIPOS>MOLECULE
AV-unprocessed.smi:1092
    49    51     1
SMALL
NO_CHARGES


@<TRIPOS>ATOM
      1 ****        -2.1370  -3.1667  -1.2058 C.3            1 S1                 0.0000
      2 ****        -1.8446  -2.4359  -2.5310 C.3            1 S1                 0.0000
      3 ****        -2.2548  -3.3155  -3.7244 C.3            1 S1                 0.0000
      4 ****        -2.6813  -1.2964  -2.5950 O.3            1 S1                 0.0000
      5 ****        -0.3720  -1.9686  -2.7012 C.3            1 S1                 0.0000
      6 ****         0.2371  -1.4416  -1.4711 N.am           1 S1                 0.0000
      7 ****        -0.0810  -0.1306  -1.2040 N.2            1 S1                 0.0000
      8 ****         0.3457   0.4727  -0.1404 C.2            1 S1                 0.0000
      9 ****        -0.0338   1.8969   0.0108 C.ar           1 S1                 0.0000
     10 ****        -1.3485   2.2990  -0.3177 C.ar           1 S1                 0.0000
     11 ****        -1.7131   3.6525  -0.1790 C.ar           1 S1                 0.0000
     12 ****        -0.7704   4.5964   0.2757 C.ar           1 S1                 0.0000
     13 ****         0.5427   4.1925   0.5891 C.ar           1 S1                 0.0000
     14 ****         0.9184   2.8417   0.4546 C.ar           1 S1                 0.0000
     15 ****         1.2079  -0.3420   0.7818 C.2            1 S1                 0.0000
     16 ****         1.7102   0.1867   2.0826 C.ar           1 S1                 0.0000
     17 ****         3.0343  -0.0982   2.4919 C.ar           1 S1                 0.0000
     18 ****         3.5199   0.3842   3.7228 C.ar           1 S1                 0.0000
     19 ****         2.6857   1.1480   4.5603 C.ar           1 S1                 0.0000
     20 ****         1.3627   1.4252   4.1688 C.ar           1 S1                 0.0000
     21 ****         0.8750   0.9433   2.9388 C.ar           1 S1                 0.0000
     22 ****         1.5188  -1.5584   0.4912 N.2            1 S1                 0.0000
     23 ****         1.0536  -2.1855  -0.6687 C.2            1 S1                 0.0000
     24 ****         1.3488  -3.3478  -0.9457 O.2            1 S1                 0.0000
     25 ****        -1.5018  -4.0455  -1.0923 H              1 S1                 0.0000
     26 ****        -3.1732  -3.5032  -1.1604 H              1 S1                 0.0000
     27 ****        -1.9726  -2.5226  -0.3413 H              1 S1                 0.0000
     28 ****        -1.6711  -4.2363  -3.7518 H              1 S1                 0.0000
     29 ****        -2.0995  -2.7998  -4.6728 H              1 S1                 0.0000
     30 ****        -3.3072  -3.5972  -3.6710 H              1 S1                 0.0000
     31 ****        -2.5152  -0.8465  -3.4091 H              1 S1                 0.0000
     32 ****         0.2247  -2.8009  -3.0780 H              1 S1                 0.0000
     33 ****        -0.3054  -1.2158  -3.4890 H              1 S1                 0.0000
     34 ****        -2.0826   1.5849  -0.6634 H              1 S1                 0.0000
     35 ****        -2.7174   3.9670  -0.4212 H              1 S1                 0.0000
     36 ****        -1.0538   5.6334   0.3801 H              1 S1                 0.0000
     37 ****         1.2638   4.9208   0.9301 H              1 S1                 0.0000
     38 ****         1.9327   2.5495   0.6842 H              1 S1                 0.0000
     39 ****         3.6913  -0.6812   1.8624 H              1 S1                 0.0000
     40 ****         4.5339   0.1666   4.0246 H              1 S1                 0.0000
     41 ****         3.0584   1.5161   5.5047 H              1 S1                 0.0000
     42 ****         0.7189   2.0042   4.8143 H              1 S1                 0.0000
     43 ****        -0.1491   1.1530   2.6667 H              1 S1                 0.0000
     44 ****        -2.4816  -0.6880  -1.8269 LP             1 S1                 0.0000
     45 ****        -3.6396  -1.5793  -2.5557 LP             1 S1                 0.0000
     46 ****        -0.6578   0.3708  -1.8490 LP             1 S1                 0.0000
     47 ****         2.1109  -2.0694   1.1143 LP             1 S1                 0.0000
     48 ****         0.9883  -3.7707  -1.7771 LP             1 S1                 0.0000
     49 ****         1.9492  -3.8692  -0.3394 LP             1 S1                 0.0000
@<TRIPOS>BOND
    1    1    2 1     
    2    1   25 1     
    3    1   26 1     
    4    1   27 1     
    5    2    3 1     
    6    2    4 1     
    7    2    5 1     
    8    3   28 1     
    9    3   29 1     
   10    3   30 1     
   11    4   31 1     
   12    5    6 1     
   13    5   32 1     
   14    5   33 1     
   15    6   23 am    
   16    6    7 1     
   17    7    8 2     
   18    8    9 1     
   19    8   15 1     
   20    9   14 ar    
   21    9   10 ar    
   22   10   11 ar    
   23   10   34 1     
   24   11   12 ar    
   25   11   35 1     
   26   12   13 ar    
   27   12   36 1     
   28   13   14 ar    
   29   13   37 1     
   30   14   38 1     
   31   15   16 1     
   32   15   22 2     
   33   16   21 ar    
   34   16   17 ar    
   35   17   18 ar    
   36   17   39 1     
   37   18   19 ar    
   38   18   40 1     
   39   19   20 ar    
   40   19   41 1     
   41   20   21 ar    
   42   20   42 1     
   43   21   43 1     
   44   22   23 1     
   45   23   24 2     
   46    4   44 1     
   47    4   45 1     
   48    7   46 1     
   49   22   47 1     
   50   24   48 1     
   51   24   49 1     
@<TRIPOS>SUBSTRUCTURE
      1 S1             1
@<TRIPOS>SET
LONE_PAIRS      STATIC     ATOMS    <user>   **** ""
6 44 45 46 47 48 49
DONOR_HYDROGENS      STATIC     ATOMS    <user>   **** ""
1 31
ATOM$BLUE        STATIC     ATOMS    COLORGROUP SYSTEM
6 44 45 46 47 48 49
ATOM$RED        STATIC     ATOMS    COLORGROUP SYSTEM
1 31
