AV-unprocessed.smi:1280|AV-procd|sdf|5358|dock10
  -GOLD-   22720 4493D 1   1.00000     0.00000
 Structure written by MMmdl.
 44 45  0  0  0  0  0  0  0  0  2 V2000
  157.1352  137.7942  157.8529 C   0  0  0  0  0  0  0  0  0  0  0  0
  155.8036  137.9618  159.1070 S   0  0  0  0  0  0  0  0  0  0  0  0
  154.6771  137.1577  158.6061 O   0  0  0  0  0  0  0  0  0  0  0  0
  156.4055  137.5525  160.3864 O   0  0  0  0  0  0  0  0  0  0  0  0
  155.5194  139.5553  159.0293 N   0  5  0  0  0  0  0  0  0  0  0  0
  156.3040  140.4567  159.8565 C   0  0  0  0  0  0  0  0  0  0  0  0
  155.9963  140.2232  161.3495 C   0  0  0  0  0  0  0  0  0  0  0  0
  154.5159  140.4091  161.7530 C   0  0  0  0  0  0  0  0  0  0  0  0
  153.8489  141.3642  160.8746 N   0  0  0  0  0  0  0  0  0  0  0  0
  153.0442  141.0433  159.8482 C   0  0  0  0  0  0  0  0  0  0  0  0
  152.7981  139.8859  159.5092 O   0  0  0  0  0  0  0  0  0  0  0  0
  152.4966  142.2033  159.0599 C   0  0  0  0  0  0  0  0  0  0  0  0
  152.8891  143.5106  159.4239 C   0  0  0  0  0  0  0  0  0  0  0  0
  152.3807  144.6123  158.7134 C   0  0  0  0  0  0  0  0  0  0  0  0
  151.4965  144.3658  157.6495 C   0  0  0  0  0  0  0  0  0  0  0  0
  151.1272  143.1256  157.2712 N   0  0  0  0  0  0  0  0  0  0  0  0
  151.6164  142.0548  157.9459 C   0  0  0  0  0  0  0  0  0  0  0  0
  151.2581  140.7839  157.4524 N   0  0  0  0  0  0  0  0  0  0  0  0
  149.8767  140.3583  157.6543 C   0  0  0  0  0  0  0  0  0  0  0  0
  149.7185  138.8860  157.2397 C   0  0  0  0  0  0  0  0  0  0  0  0
  150.1357  138.7279  155.8867 O   0  0  0  0  0  0  0  0  0  0  0  0
  151.5063  139.0719  155.7050 C   0  0  0  0  0  0  0  0  0  0  0  0
  151.7332  140.5430  156.0949 C   0  0  0  0  0  0  0  0  0  0  0  0
  157.4397  136.7502  157.7886 H   0  0  0  0  0  0  0  0  0  0  0  0
  157.9893  138.4042  158.1461 H   0  0  0  0  0  0  0  0  0  0  0  0
  156.7656  138.1252  156.8828 H   0  0  0  0  0  0  0  0  0  0  0  0
  157.3721  140.3066  159.6973 H   0  0  0  0  0  0  0  0  0  0  0  0
  156.1141  141.5032  159.6152 H   0  0  0  0  0  0  0  0  0  0  0  0
  156.3409  139.2303  161.6426 H   0  0  0  0  0  0  0  0  0  0  0  0
  156.5952  140.9282  161.9260 H   0  0  0  0  0  0  0  0  0  0  0  0
  153.9721  139.4660  161.6756 H   0  0  0  0  0  0  0  0  0  0  0  0
  154.4193  140.7370  162.7906 H   0  0  0  0  0  0  0  0  0  0  0  0
  154.0072  142.3434  161.0628 H   0  0  0  0  0  0  0  0  0  0  0  0
  153.5650  143.6742  160.2508 H   0  0  0  0  0  0  0  0  0  0  0  0
  152.6595  145.6209  158.9803 H   0  0  0  0  0  0  0  0  0  0  0  0
  151.0819  145.1849  157.0809 H   0  0  0  0  0  0  0  0  0  0  0  0
  149.5994  140.4862  158.7015 H   0  0  0  0  0  0  0  0  0  0  0  0
  149.2051  140.9797  157.0600 H   0  0  0  0  0  0  0  0  0  0  0  0
  150.3008  138.2323  157.8913 H   0  0  0  0  0  0  0  0  0  0  0  0
  148.6762  138.5804  157.3284 H   0  0  0  0  0  0  0  0  0  0  0  0
  152.1370  138.4105  156.2996 H   0  0  0  0  0  0  0  0  0  0  0  0
  151.7776  138.9140  154.6611 H   0  0  0  0  0  0  0  0  0  0  0  0
  151.1969  141.1986  155.4075 H   0  0  0  0  0  0  0  0  0  0  0  0
  152.7923  140.7884  156.0097 H   0  0  0  0  0  0  0  0  0  0  0  0
  1  2  1  0  0  0  0
  1 24  1  0  0  0  0
  1 25  1  0  0  0  0
  1 26  1  0  0  0  0
  2  3  2  0  0  0  0
  2  4  2  0  0  0  0
  2  5  1  0  0  0  0
  5  6  1  0  0  0  0
  6  7  1  0  0  0  0
  6 27  1  0  0  0  0
  6 28  1  0  0  0  0
  7  8  1  0  0  0  0
  7 29  1  0  0  0  0
  7 30  1  0  0  0  0
  8  9  1  0  0  0  0
  8 31  1  0  0  0  0
  8 32  1  0  0  0  0
  9 10  1  0  0  0  0
  9 33  1  0  0  0  0
 10 11  2  0  0  0  0
 10 12  1  0  0  0  0
 12 17  1  0  0  0  0
 12 13  2  0  0  0  0
 13 14  1  0  0  0  0
 13 34  1  0  0  0  0
 14 15  2  0  0  0  0
 14 35  1  0  0  0  0
 15 16  1  0  0  0  0
 15 36  1  0  0  0  0
 16 17  2  0  0  0  0
 17 18  1  0  0  0  0
 18 23  1  0  0  0  0
 18 19  1  0  0  0  0
 19 20  1  0  0  0  0
 19 37  1  0  0  0  0
 19 38  1  0  0  0  0
 20 21  1  0  0  0  0
 20 39  1  0  0  0  0
 20 40  1  0  0  0  0
 21 22  1  0  0  0  0
 22 23  1  0  0  0  0
 22 41  1  0  0  0  0
 22 42  1  0  0  0  0
 23 43  1  0  0  0  0
 23 44  1  0  0  0  0
M  CHG  1   5  -1
M  END
> <s_m_source_file>
AV-unprocessed.smi

> <i_m_source_file_index>
1280

> <i_lp_mmshare_version>
43012

> <i_f3d_flags>
0

> <s_epik_input>
W0NIM11TKD1PKSg9TylbTkhdW0NIMl1bQ0gyXVtDSDJdW05IXUMoPU8pYzFbY0hdW2NIXVtjSF1uYzFOMltDSDJdW0NIMl1PW0NIMl1bQ0gyXTI=

> <s_epik_cmdline>
J2VwaWtfcHl0aG9uJywgJy1waCcsICc3LjAnLCAnLXRuJywgJzgnLCAnLW1hJywgJzIwMCcsICctbWV0YWxfYmluZGluZycsICctaW1hZScsICc8aW5maWxlLm1hZT4nLCAnLW9tYWUnLCAnPG91dGZpbGUubWFlPic=

> <r_lp_tautomer_probability>
1

> <r_epik_Ionization_Penalty>
6.65739

> <r_epik_Ionization_Penalty_Charging>
6.65737

> <r_epik_Ionization_Penalty_Neutral>
1.70916e-05

> <r_epik_State_Penalty>
6.65736

> <r_epik_Charging_Adjusted_Penalty>
13.3147

> <i_epik_Tot_Q>
-1

> <i_epik_Tot_abs_Q>
1

> <r_epik_Metal_State_Penalty>
2.58004

> <b_epik_Metal_Only>
1

> <s_lp_Force_Field>
OPLS_2005

> <r_lp_Energy>
24.7135

> <b_lp_Chiralities_Consistent>
1

> <s_lp_Variant>
AV-unprocessed.smi:1280-2

> <Gold.Version>
5.8.1

> <Gold.Id.Protein>
6NUR|6NUR_protein|mol2

> <Gold.PLP.Fitness>
43.0870

> <Gold.PLP.PLP>
-35.8055

> <Gold.PLP.part.hbond>
-1.0000

> <Gold.PLP.part.metal>
0.0000

> <Gold.PLP.part.buried>
-4.2345

> <Gold.PLP.part.nonpolar>
-31.8303

> <Gold.PLP.part.repulsive>
0.1611

> <Gold.PLP.ligand.clash>
0.0000

> <Gold.PLP.ligand.torsion>
0.9673

> <Gold.PLP.Chemscore.Hbond>
2.0000

> <Gold.PLP.Chemscore.CHOScore>
0.6649

> <Gold.PLP.Chemscore.Metal>
0.0000

> <Gold.Chemscore.Hbonds>
donor molecule, donor type, donor heavy atom, donor atom, acceptor molecule, acceptor atom, score
      P1  H  7997  8010       L1     5  2.00
      L1  C    15    36       P1  8028  0.64

> <Gold.PLP.Chemscore.Internal.Correction>
1.2215

> <Gold.Rescore>
     Score         DG    S(hbond)    S(metal)    S(lipo)     H(rot)  DE(clash)    DE(int)     intcor
      9.01     -14.05       0.90        0.00      94.69       2.16       0.05       5.00       ----

> <Gold.Chemscore.Fitness>
9.0055

> <Gold.Chemscore.DG>
-14.0512

> <Gold.Chemscore.ZeroCoef>
-5.4800

> <Gold.Chemscore.Hbond>
0.9014

> <Gold.Chemscore.Metal>
0.0000

> <Gold.Chemscore.Lipo>
94.6869

> <Gold.Chemscore.Internal_Hbond>
0.0000

> <Gold.Chemscore.DEClash>
0.0475

> <Gold.Chemscore.DEInternal>
4.9982

> <Gold.Chemscore.Rot>
2.1554

> <Gold.Chemscore.Internal.Correction>
   9.000000E+99

> <Gold.Chemscore.Hbonds>
donor molecule, donor type, donor heavy atom, donor atom, acceptor molecule, acceptor atom, score
      P1  H  7997  8010       L1     5  0.70

> <Gold.Chemscore.Hbond.Weighted>
-3.0105

> <Gold.Chemscore.Metal.Weighted>
-0.0000

> <Gold.Chemscore.Lipo.Weighted>
-11.0784

> <Gold.Chemscore.Internal_Hbond.Weighted>
0.0000

> <Gold.Chemscore.DEClash.Weighted>
0.0475

> <Gold.Chemscore.DEInternal.Weighted>
4.9982

> <Gold.Chemscore.Rot.Weighted>
5.5178

> <Gold.Chemscore.Internal.Correction.Weighted>
   9.000000E+99

> <Gold.Protein.RotatedTorsions>
[ 6907 6896 6895 6894 ] final   62.65 input  -60.11 | X-H torsion
[ 7974 7965 7964 7962 ] final -147.31 input  175.53 | X-H torsion
[ 8008 7997 7996 7995 ] final   -7.70 input   59.86 | X-H torsion
[ 10167 10162 10161 10158 ] final   18.65 input  -65.29 | X-H torsion
[ 10718 10713 10712 10709 ] final -134.28 input   66.30 | X-H torsion
[ 10763 10752 10751 10750 ] final  149.29 input  -60.55 | X-H torsion
[ 11005 11000 10999 10996 ] final   34.54 input  -57.11 | X-H torsion

> <Gold.Protein.ActiveResidues>
 VAL166  LYS551  ARG553  GLY616  TRP617  ASP618  TYR619  PRO620  LYS621  CYS622 
 ASP623  PHE694  ASN695  SER759  ASP760  ASP761  ALA762  ILE779  LEU786  VAL792 
 PHE793  MET794  SER795  GLU796  ALA797  LYS798  CYS799  TRP800  GLU811  SER814 

> <Gold.Protein.RotatedAtoms>
  152.4189  134.5991  159.9994 H   0  0  0  0  0  0  0  0  0  0  0  0  # atno 6907 bound_to 6896
  151.6147  133.3338  159.3083 H   0  0  0  0  0  0  0  0  0  0  0  0  # atno 6908 bound_to 6896
  150.8077  134.7251  159.6725 H   0  0  0  0  0  0  0  0  0  0  0  0  # atno 6909 bound_to 6896
  144.8102  140.5343  143.5648 H   0  0  0  0  0  0  0  0  0  0  0  0  # atno 7974 bound_to 7965
  154.5812  140.2400  155.8051 H   0  0  0  0  0  0  0  0  0  0  0  0  # atno 8008 bound_to 7997
  156.2180  140.3006  155.9842 H   0  0  0  0  0  0  0  0  0  0  0  0  # atno 8009 bound_to 7997
  155.2537  140.0411  157.2980 H   0  0  0  0  0  0  0  0  0  0  0  0  # atno 8010 bound_to 7997
  140.5638  143.9289  150.6661 H   0  0  0  0  0  0  0  0  0  0  0  0  # atno 10167 bound_to 10162
  156.2538  130.7169  151.1078 H   0  0  0  0  0  0  0  0  0  0  0  0  # atno 10718 bound_to 10713
  154.0688  135.2868  155.3312 H   0  0  0  0  0  0  0  0  0  0  0  0  # atno 10763 bound_to 10752
  154.6760  135.5281  153.8204 H   0  0  0  0  0  0  0  0  0  0  0  0  # atno 10764 bound_to 10752
  153.0493  135.6569  154.0871 H   0  0  0  0  0  0  0  0  0  0  0  0  # atno 10765 bound_to 10752
  140.2518  134.3294  155.7888 H   0  0  0  0  0  0  0  0  0  0  0  0  # atno 11005 bound_to 11000
  145.5343  139.1475  143.3482 LP  0  0  0  0  0  0  0  0  0  0  0  0  # atno 17320 bound_to 7965
  146.2399  140.5483  142.8938 LP  0  0  0  0  0  0  0  0  0  0  0  0  # atno 17321 bound_to 7965
  140.2747  143.3431  152.1206 LP  0  0  0  0  0  0  0  0  0  0  0  0  # atno 17342 bound_to 10162
  139.5083  144.6847  151.5919 LP  0  0  0  0  0  0  0  0  0  0  0  0  # atno 17343 bound_to 10162
  157.7225  131.0672  150.6077 LP  0  0  0  0  0  0  0  0  0  0  0  0  # atno 17370 bound_to 10713
  156.6159  130.4392  149.5841 LP  0  0  0  0  0  0  0  0  0  0  0  0  # atno 17371 bound_to 10713
  141.2200  133.7358  156.9049 LP  0  0  0  0  0  0  0  0  0  0  0  0  # atno 17394 bound_to 11000
  140.1550  134.9204  157.2642 LP  0  0  0  0  0  0  0  0  0  0  0  0  # atno 17395 bound_to 11000

$$$$
