AV-unprocessed.smi:148|AV-procd|sdf|1226|dock9
  -GOLD-   2262018423D 1   1.00000     0.00000
 Structure written by MMmdl.
 63 67  0  0  0  0  0  0  0  0  1 V2000
  151.2583  139.5615  156.0416 O   0  0  0  0  0  0  0  0  0  0  0  0
  151.6771  140.8360  156.4852 C   0  0  0  0  0  0  0  0  0  0  0  0
  151.9356  140.8466  158.0119 C   0  0  2  0  0  0  0  0  0  0  0  0
  150.6883  140.4338  158.8324 C   0  0  0  0  0  0  0  0  0  0  0  0
  150.4129  139.0082  158.7811 N   0  0  0  0  0  0  0  0  0  0  0  0
  151.2776  137.9921  159.1209 C   0  0  0  0  0  0  0  0  0  0  0  0
  150.7971  136.7849  158.9933 N   0  0  0  0  0  0  0  0  0  0  0  0
  149.5007  136.9880  158.5387 C   0  0  0  0  0  0  0  0  0  0  0  0
  148.4245  136.1235  158.2094 C   0  0  0  0  0  0  0  0  0  0  0  0
  148.5340  134.7802  158.3007 N   0  0  0  0  0  0  0  0  0  0  0  0
  148.5365  134.1888  156.9604 C   0  0  0  0  0  0  0  0  0  0  0  0
  148.9459  132.7136  156.9994 C   0  0  0  0  0  0  0  0  0  0  0  0
  148.0258  131.9470  157.9503 C   0  0  0  0  0  0  0  0  0  0  0  0
  148.0522  132.5985  159.3388 C   0  0  0  0  0  0  0  0  0  0  0  0
  147.6828  134.1068  159.3041 C   0  0  1  0  0  0  0  0  0  0  0  0
  147.7869  134.7275  160.7422 C   0  0  2  0  0  0  0  0  0  0  0  0
  147.0676  133.9354  161.8507 C   0  0  0  0  0  0  0  0  0  0  0  0
  146.9175  134.8903  163.0396 C   0  0  0  0  0  0  0  0  0  0  0  0
  147.1025  136.3039  162.4771 C   0  0  0  0  0  0  0  0  0  0  0  0
  147.2147  136.1486  160.9561 C   0  0  2  0  0  0  0  0  0  0  0  0
  145.9247  136.2753  160.3876 O   0  0  0  0  0  0  0  0  0  0  0  0
  147.2598  136.6838  157.7877 N   0  0  0  0  0  0  0  0  0  0  0  0
  147.1544  138.0136  157.7026 C   0  0  0  0  0  0  0  0  0  0  0  0
  148.0704  138.9435  157.9837 N   0  0  0  0  0  0  0  0  0  0  0  0
  149.2401  138.3795  158.4019 C   0  0  0  0  0  0  0  0  0  0  0  0
  152.5165  142.1989  158.4967 C   0  0  1  0  0  0  0  0  0  0  0  0
  151.6101  143.3985  158.2839 C   0  0  0  0  0  0  0  0  0  0  0  0
  152.2136  144.4248  159.2352 C   0  0  0  0  0  0  0  0  0  0  0  0
  152.6964  143.6751  160.3437 O   0  0  0  0  0  0  0  0  0  0  0  0
  152.7527  142.2915  160.0085 C   0  0  0  0  0  0  0  0  0  0  0  0
  151.6131  138.9075  156.6243 H   0  0  0  0  0  0  0  0  0  0  0  0
  152.5727  141.1214  155.9334 H   0  0  0  0  0  0  0  0  0  0  0  0
  150.9149  141.5668  156.2154 H   0  0  0  0  0  0  0  0  0  0  0  0
  152.6971  140.0876  158.1969 H   0  0  0  0  0  0  0  0  0  0  0  0
  150.8114  140.7047  159.8811 H   0  0  0  0  0  0  0  0  0  0  0  0
  149.8091  140.9733  158.4780 H   0  0  0  0  0  0  0  0  0  0  0  0
  152.2846  138.1768  159.4664 H   0  0  0  0  0  0  0  0  0  0  0  0
  147.5421  134.2778  156.5199 H   0  0  0  0  0  0  0  0  0  0  0  0
  149.2217  134.7370  156.3115 H   0  0  0  0  0  0  0  0  0  0  0  0
  148.8970  132.2841  155.9986 H   0  0  0  0  0  0  0  0  0  0  0  0
  149.9815  132.6247  157.3303 H   0  0  0  0  0  0  0  0  0  0  0  0
  147.0067  131.9463  157.5613 H   0  0  0  0  0  0  0  0  0  0  0  0
  148.3372  130.9044  158.0171 H   0  0  0  0  0  0  0  0  0  0  0  0
  147.3639  132.0444  159.9761 H   0  0  0  0  0  0  0  0  0  0  0  0
  149.0452  132.4754  159.7740 H   0  0  0  0  0  0  0  0  0  0  0  0
  146.6497  134.1755  158.9616 H   0  0  0  0  0  0  0  0  0  0  0  0
  148.8433  134.7524  161.0167 H   0  0  0  0  0  0  0  0  0  0  0  0
  146.0754  133.6372  161.5080 H   0  0  0  0  0  0  0  0  0  0  0  0
  147.6043  133.0292  162.1338 H   0  0  0  0  0  0  0  0  0  0  0  0
  145.9427  134.7701  163.5134 H   0  0  0  0  0  0  0  0  0  0  0  0
  147.6764  134.6863  163.7961 H   0  0  0  0  0  0  0  0  0  0  0  0
  146.3009  136.9812  162.7752 H   0  0  0  0  0  0  0  0  0  0  0  0
  148.0325  136.7213  162.8653 H   0  0  0  0  0  0  0  0  0  0  0  0
  147.8506  136.9347  160.5547 H   0  0  0  0  0  0  0  0  0  0  0  0
  146.0058  136.2163  159.4475 H   0  0  0  0  0  0  0  0  0  0  0  0
  146.1989  138.3859  157.3639 H   0  0  0  0  0  0  0  0  0  0  0  0
  153.4613  142.3940  157.9864 H   0  0  0  0  0  0  0  0  0  0  0  0
  151.5930  143.7492  157.2517 H   0  0  0  0  0  0  0  0  0  0  0  0
  150.5874  143.1651  158.5845 H   0  0  0  0  0  0  0  0  0  0  0  0
  153.0575  144.9298  158.7632 H   0  0  0  0  0  0  0  0  0  0  0  0
  151.4944  145.1831  159.5457 H   0  0  0  0  0  0  0  0  0  0  0  0
  151.9625  141.7775  160.5574 H   0  0  0  0  0  0  0  0  0  0  0  0
  153.7069  141.8562  160.3066 H   0  0  0  0  0  0  0  0  0  0  0  0
  1  2  1  0  0  0  0
  1 31  1  0  0  0  0
  2  3  1  0  0  0  0
  2 32  1  0  0  0  0
  2 33  1  0  0  0  0
  3  4  1  0  0  0  0
  3 26  1  0  0  0  0
  3 34  1  0  0  0  0
  4  5  1  0  0  0  0
  4 35  1  0  0  0  0
  4 36  1  0  0  0  0
  5 25  1  0  0  0  0
  5  6  1  0  0  0  0
  6  7  2  0  0  0  0
  6 37  1  0  0  0  0
  7  8  1  0  0  0  0
  8 25  2  0  0  0  0
  8  9  1  0  0  0  0
  9 10  1  0  0  0  0
  9 22  2  0  0  0  0
 10 15  1  0  0  0  0
 10 11  1  0  0  0  0
 11 12  1  0  0  0  0
 11 38  1  0  0  0  0
 11 39  1  0  0  0  0
 12 13  1  0  0  0  0
 12 40  1  0  0  0  0
 12 41  1  0  0  0  0
 13 14  1  0  0  0  0
 13 42  1  0  0  0  0
 13 43  1  0  0  0  0
 14 15  1  0  0  0  0
 14 44  1  0  0  0  0
 14 45  1  0  0  0  0
 15 16  1  0  0  0  0
 15 46  1  0  0  0  0
 16 20  1  0  0  0  0
 16 17  1  0  0  0  0
 16 47  1  0  0  0  0
 17 18  1  0  0  0  0
 17 48  1  0  0  0  0
 17 49  1  0  0  0  0
 18 19  1  0  0  0  0
 18 50  1  0  0  0  0
 18 51  1  0  0  0  0
 19 20  1  0  0  0  0
 19 52  1  0  0  0  0
 19 53  1  0  0  0  0
 20 21  1  0  0  0  0
 20 54  1  0  0  0  0
 21 55  1  0  0  0  0
 22 23  1  0  0  0  0
 23 24  2  0  0  0  0
 23 56  1  0  0  0  0
 24 25  1  0  0  0  0
 26 30  1  0  0  0  0
 26 27  1  0  0  0  0
 26 57  1  0  0  0  0
 27 28  1  0  0  0  0
 27 58  1  0  0  0  0
 27 59  1  0  0  0  0
 28 29  1  0  0  0  0
 28 60  1  0  0  0  0
 28 61  1  0  0  0  0
 29 30  1  0  0  0  0
 30 62  1  0  0  0  0
 30 63  1  0  0  0  0
M  END
> <s_m_source_file>
AV-unprocessed.smi

> <i_m_source_file_index>
148

> <i_lp_mmshare_version>
43012

> <i_f3d_flags>
0

> <s_epik_input>
W0NIMl0xT1tDSDJdW0NIMl1bQ0BIXTFbQ0BIXShbQ0gyXVtPSF0pW0NIMl1uKFtjSF1uMiljKGMyMyluW2NIXW5jM040W0NIMl1bQ0gyXVtDSDJdW0NIMl1bQ0BIXTRbQ0BASF01W0NIMl1bQ0gyXVtDSDJdW0NASF01W09IXQ==

> <s_epik_cmdline>
J2VwaWtfcHl0aG9uJywgJy1waCcsICc3LjAnLCAnLXRuJywgJzgnLCAnLW1hJywgJzIwMCcsICctbWV0YWxfYmluZGluZycsICctaW1hZScsICc8aW5maWxlLm1hZT4nLCAnLW9tYWUnLCAnPG91dGZpbGUubWFlPic=

> <r_lp_tautomer_probability>
1

> <r_epik_Ionization_Penalty>
0.00556303

> <r_epik_Ionization_Penalty_Charging>
0

> <r_epik_Ionization_Penalty_Neutral>
0.00556303

> <r_epik_State_Penalty>
0.00401767

> <r_epik_Charging_Adjusted_Penalty>
0.00401767

> <i_epik_Tot_Q>
0

> <i_epik_Tot_abs_Q>
0

> <r_epik_Metal_State_Penalty>
-0

> <b_epik_Metal_Only>
0

> <s_lp_Force_Field>
OPLS_2005

> <r_lp_Energy>
70.5735

> <b_lp_Chiralities_Consistent>
1

> <s_lp_Variant>
AV-unprocessed.smi:148-25

> <Gold.Version>
5.8.1

> <Gold.Id.Protein>
6NUR|6NUR_protein|mol2

> <Gold.PLP.Fitness>
46.8301

> <Gold.PLP.PLP>
-43.9862

> <Gold.PLP.part.hbond>
-1.7051

> <Gold.PLP.part.metal>
0.0000

> <Gold.PLP.part.buried>
-7.8580

> <Gold.PLP.part.nonpolar>
-34.7142

> <Gold.PLP.part.repulsive>
0.0161

> <Gold.PLP.ligand.clash>
0.0000

> <Gold.PLP.ligand.torsion>
0.4268

> <Gold.PLP.Chemscore.Hbond>
1.0154

> <Gold.PLP.Chemscore.CHOScore>
0.0000

> <Gold.PLP.Chemscore.Metal>
0.0000

> <Gold.Chemscore.Hbonds>
donor molecule, donor type, donor heavy atom, donor atom, acceptor molecule, acceptor atom, score
      P1  H  6896  6908       L1     7  0.91

> <Gold.PLP.Chemscore.Internal.Correction>
0.6512

> <Gold.Rescore>
     Score         DG    S(hbond)    S(metal)    S(lipo)     H(rot)  DE(clash)    DE(int)     intcor
     13.14     -14.56       0.87        0.00     125.52       3.32       0.52       0.89       ----

> <Gold.Chemscore.Fitness>
13.1398

> <Gold.Chemscore.DG>
-14.5556

> <Gold.Chemscore.ZeroCoef>
-5.4800

> <Gold.Chemscore.Hbond>
0.8651

> <Gold.Chemscore.Metal>
0.0000

> <Gold.Chemscore.Lipo>
125.5218

> <Gold.Chemscore.Internal_Hbond>
0.0000

> <Gold.Chemscore.DEClash>
0.5222

> <Gold.Chemscore.DEInternal>
0.8936

> <Gold.Chemscore.Rot>
3.3203

> <Gold.Chemscore.Internal.Correction>
   9.000000E+99

> <Gold.Chemscore.Hbonds>
donor molecule, donor type, donor heavy atom, donor atom, acceptor molecule, acceptor atom, score
      P1  H  6896  6908       L1     7  0.86

> <Gold.Chemscore.Hbond.Weighted>
-2.8896

> <Gold.Chemscore.Metal.Weighted>
-0.0000

> <Gold.Chemscore.Lipo.Weighted>
-14.6860

> <Gold.Chemscore.Internal_Hbond.Weighted>
0.0000

> <Gold.Chemscore.DEClash.Weighted>
0.5222

> <Gold.Chemscore.DEInternal.Weighted>
0.8936

> <Gold.Chemscore.Rot.Weighted>
8.5000

> <Gold.Chemscore.Internal.Correction.Weighted>
   9.000000E+99

> <Gold.Protein.RotatedTorsions>
[ 6907 6896 6895 6894 ] final -125.71 input  -60.11 | X-H torsion
[ 7974 7965 7964 7962 ] final  -89.94 input  175.53 | X-H torsion
[ 8008 7997 7996 7995 ] final   -0.27 input   59.86 | X-H torsion
[ 10167 10162 10161 10158 ] final  135.98 input  -65.29 | X-H torsion
[ 10718 10713 10712 10709 ] final -147.42 input   66.30 | X-H torsion
[ 10763 10752 10751 10750 ] final  -80.15 input  -60.55 | X-H torsion
[ 11005 11000 10999 10996 ] final   -0.42 input  -57.11 | X-H torsion

> <Gold.Protein.ActiveResidues>
 VAL166  LYS551  ARG553  GLY616  TRP617  ASP618  TYR619  PRO620  LYS621  CYS622 
 ASP623  PHE694  ASN695  SER759  ASP760  ASP761  ALA762  ILE779  LEU786  VAL792 
 PHE793  MET794  SER795  GLU796  ALA797  LYS798  CYS799  TRP800  GLU811  SER814 

> <Gold.Protein.RotatedAtoms>
  150.8895  133.7262  159.2908 H   0  0  0  0  0  0  0  0  0  0  0  0  # atno 6907 bound_to 6896
  151.4817  135.1051  159.9789 H   0  0  0  0  0  0  0  0  0  0  0  0  # atno 6908 bound_to 6896
  152.4811  133.8210  159.7109 H   0  0  0  0  0  0  0  0  0  0  0  0  # atno 6909 bound_to 6896
  145.4331  140.9556  143.2117 H   0  0  0  0  0  0  0  0  0  0  0  0  # atno 7974 bound_to 7965
  154.6599  140.2588  155.7120 H   0  0  0  0  0  0  0  0  0  0  0  0  # atno 8008 bound_to 7997
  156.2614  140.2850  156.0989 H   0  0  0  0  0  0  0  0  0  0  0  0  # atno 8009 bound_to 7997
  155.1324  140.0379  157.2768 H   0  0  0  0  0  0  0  0  0  0  0  0  # atno 8010 bound_to 7997
  139.5197  144.6489  151.5361 H   0  0  0  0  0  0  0  0  0  0  0  0  # atno 10167 bound_to 10162
  156.4073  130.7964  151.2179 H   0  0  0  0  0  0  0  0  0  0  0  0  # atno 10718 bound_to 10713
  154.5476  135.5671  153.6894 H   0  0  0  0  0  0  0  0  0  0  0  0  # atno 10763 bound_to 10752
  152.9980  135.6243  154.2417 H   0  0  0  0  0  0  0  0  0  0  0  0  # atno 10764 bound_to 10752
  154.2351  135.2864  155.2855 H   0  0  0  0  0  0  0  0  0  0  0  0  # atno 10765 bound_to 10752
  140.6360  133.9532  155.8300 H   0  0  0  0  0  0  0  0  0  0  0  0  # atno 11005 bound_to 11000
  144.8170  139.5859  143.7004 LP  0  0  0  0  0  0  0  0  0  0  0  0  # atno 17320 bound_to 7965
  146.2596  139.6381  142.9371 LP  0  0  0  0  0  0  0  0  0  0  0  0  # atno 17321 bound_to 7965
  140.6285  143.9122  150.6585 LP  0  0  0  0  0  0  0  0  0  0  0  0  # atno 17342 bound_to 10162
  140.2418  143.3658  152.1480 LP  0  0  0  0  0  0  0  0  0  0  0  0  # atno 17343 bound_to 10162
  157.7506  131.0268  150.3979 LP  0  0  0  0  0  0  0  0  0  0  0  0  # atno 17370 bound_to 10713
  156.4271  130.3964  149.6786 LP  0  0  0  0  0  0  0  0  0  0  0  0  # atno 17371 bound_to 10713
  141.0641  134.0303  157.3618 LP  0  0  0  0  0  0  0  0  0  0  0  0  # atno 17394 bound_to 11000
  139.9098  135.0188  156.7642 LP  0  0  0  0  0  0  0  0  0  0  0  0  # atno 17395 bound_to 11000

$$$$
