AV-unprocessed.smi:331|AV-procd|sdf|2350|dock5
  -GOLD-   2262022263D 1   1.00000     0.00000
 Structure written by MMmdl.
 36 37  0  0  0  0  0  0  0  0  1 V2000
  142.0792  136.3019  153.5561 O   0  0  0  0  0  0  0  0  0  0  0  0
  142.4717  137.4282  153.2578 C   0  0  0  0  0  0  0  0  0  0  0  0
  143.5933  137.6600  152.5563 N   0  0  0  0  0  0  0  0  0  0  0  0
  144.5503  136.6402  152.1417 C   0  0  0  0  0  0  0  0  0  0  0  0
  144.0003  135.7569  151.0055 C   0  0  0  0  0  0  0  0  0  0  0  0
  144.7538  134.4469  150.8481 C   0  0  0  0  0  0  0  0  0  0  0  0
  144.0668  133.2379  150.6111 C   0  0  0  0  0  0  0  0  0  0  0  0
  144.8095  132.0479  150.4916 C   0  0  0  0  0  0  0  0  0  0  0  0
  146.2119  132.1181  150.6108 C   0  0  0  0  0  0  0  0  0  0  0  0
  146.8804  133.2698  150.8357 N   0  0  0  0  0  0  0  0  0  0  0  0
  146.1604  134.4066  150.9502 C   0  0  0  0  0  0  0  0  0  0  0  0
  141.7948  138.5350  153.6120 N   0  0  0  0  0  0  0  0  0  0  0  0
  140.5462  138.6195  154.3739 C   0  0  0  0  0  0  0  0  0  0  0  0
  139.5957  137.4693  153.9905 C   0  0  0  0  0  0  0  0  0  0  0  0
  138.2242  138.1094  153.7713 C   0  0  0  0  0  0  0  0  0  0  0  0
  138.5424  139.5157  153.2745 C   0  0  0  0  0  0  0  0  0  0  0  0
  139.7805  139.9244  154.0735 C   0  0  0  0  0  0  0  0  0  0  0  0
  143.8287  138.6183  152.3430 H   0  0  0  0  0  0  0  0  0  0  0  0
  145.4964  137.0972  151.8479 H   0  0  0  0  0  0  0  0  0  0  0  0
  144.7653  136.0206  153.0127 H   0  0  0  0  0  0  0  0  0  0  0  0
  142.9467  135.5389  151.1855 H   0  0  0  0  0  0  0  0  0  0  0  0
  144.0378  136.3039  150.0628 H   0  0  0  0  0  0  0  0  0  0  0  0
  142.9896  133.2199  150.5314 H   0  0  0  0  0  0  0  0  0  0  0  0
  144.3165  131.1037  150.3135 H   0  0  0  0  0  0  0  0  0  0  0  0
  146.8127  131.2247  150.5245 H   0  0  0  0  0  0  0  0  0  0  0  0
  146.7233  135.3098  151.1350 H   0  0  0  0  0  0  0  0  0  0  0  0
  142.1502  139.4109  153.2567 H   0  0  0  0  0  0  0  0  0  0  0  0
  140.7579  138.5577  155.4432 H   0  0  0  0  0  0  0  0  0  0  0  0
  139.9173  136.9978  153.0600 H   0  0  0  0  0  0  0  0  0  0  0  0
  139.5650  136.6892  154.7521 H   0  0  0  0  0  0  0  0  0  0  0  0
  137.6049  137.5460  153.0728 H   0  0  0  0  0  0  0  0  0  0  0  0
  137.6891  138.1676  154.7201 H   0  0  0  0  0  0  0  0  0  0  0  0
  138.7847  139.4833  152.2113 H   0  0  0  0  0  0  0  0  0  0  0  0
  137.7097  140.2075  153.4062 H   0  0  0  0  0  0  0  0  0  0  0  0
  139.4673  140.3793  155.0141 H   0  0  0  0  0  0  0  0  0  0  0  0
  140.3777  140.6674  153.5429 H   0  0  0  0  0  0  0  0  0  0  0  0
  1  2  2  0  0  0  0
  2  3  1  0  0  0  0
  2 12  1  0  0  0  0
  3  4  1  0  0  0  0
  3 18  1  0  0  0  0
  4  5  1  0  0  0  0
  4 19  1  0  0  0  0
  4 20  1  0  0  0  0
  5  6  1  0  0  0  0
  5 21  1  0  0  0  0
  5 22  1  0  0  0  0
  6 11  1  0  0  0  0
  6  7  2  0  0  0  0
  7  8  1  0  0  0  0
  7 23  1  0  0  0  0
  8  9  2  0  0  0  0
  8 24  1  0  0  0  0
  9 10  1  0  0  0  0
  9 25  1  0  0  0  0
 10 11  2  0  0  0  0
 11 26  1  0  0  0  0
 12 13  1  0  0  0  0
 12 27  1  0  0  0  0
 13 17  1  0  0  0  0
 13 14  1  0  0  0  0
 13 28  1  0  0  0  0
 14 15  1  0  0  0  0
 14 29  1  0  0  0  0
 14 30  1  0  0  0  0
 15 16  1  0  0  0  0
 15 31  1  0  0  0  0
 15 32  1  0  0  0  0
 16 17  1  0  0  0  0
 16 33  1  0  0  0  0
 16 34  1  0  0  0  0
 17 35  1  0  0  0  0
 17 36  1  0  0  0  0
M  END
> <s_m_source_file>
AV-unprocessed.smi

> <i_m_source_file_index>
331

> <i_lp_mmshare_version>
43012

> <i_f3d_flags>
0

> <s_epik_input>
W0NIMl0xW0NIMl1bQ0gyXVtDSDJdW0NIXTFbTkhdQyg9TylbTkhdW0NIMl1bQ0gyXWMyW2NIXVtjSF1bY0hdbltjSF0y

> <s_epik_cmdline>
J2VwaWtfcHl0aG9uJywgJy1waCcsICc3LjAnLCAnLXRuJywgJzgnLCAnLW1hJywgJzIwMCcsICctbWV0YWxfYmluZGluZycsICctaW1hZScsICc8aW5maWxlLm1hZT4nLCAnLW9tYWUnLCAnPG91dGZpbGUubWFlPic=

> <r_epik_Ionization_Penalty>
0.0144384

> <r_epik_Ionization_Penalty_Charging>
0

> <r_epik_Ionization_Penalty_Neutral>
0.0144384

> <r_epik_State_Penalty>
0.0112394

> <r_epik_Charging_Adjusted_Penalty>
0.0112394

> <i_epik_Tot_Q>
0

> <i_epik_Tot_abs_Q>
0

> <r_epik_Metal_State_Penalty>
0.0109726

> <b_epik_Metal_Only>
0

> <s_lp_Force_Field>
OPLS_2005

> <r_lp_Energy>
25.692

> <b_lp_Chiralities_Consistent>
1

> <s_lp_Variant>
AV-unprocessed.smi:331-1

> <Gold.Version>
5.8.1

> <Gold.Id.Protein>
6NUR|6NUR_protein|mol2

> <Gold.PLP.Fitness>
42.7786

> <Gold.PLP.PLP>
-32.2522

> <Gold.PLP.part.hbond>
-3.0000

> <Gold.PLP.part.metal>
0.0000

> <Gold.PLP.part.buried>
-3.1403

> <Gold.PLP.part.nonpolar>
-26.0379

> <Gold.PLP.part.repulsive>
0.3670

> <Gold.PLP.ligand.clash>
0.0000

> <Gold.PLP.ligand.torsion>
0.7315

> <Gold.PLP.Chemscore.Hbond>
2.0000

> <Gold.PLP.Chemscore.CHOScore>
1.9941

> <Gold.PLP.Chemscore.Metal>
0.0000

> <Gold.Chemscore.Hbonds>
donor molecule, donor type, donor heavy atom, donor atom, acceptor molecule, acceptor atom, score
      L1  H     3    18       P1 10175  1.00
      L1  H    12    27       P1 10175  1.00
      L1  C     9    25       P1 10747  1.00
      L1  C    11    26       P1  7948  1.00

> <Gold.PLP.Chemscore.Internal.Correction>
0.0072

> <Gold.Rescore>
     Score         DG    S(hbond)    S(metal)    S(lipo)     H(rot)  DE(clash)    DE(int)     intcor
     14.90     -17.11       1.87        0.00      79.10       1.51       0.00       2.21       ----

> <Gold.Chemscore.Fitness>
14.9022

> <Gold.Chemscore.DG>
-17.1114

> <Gold.Chemscore.ZeroCoef>
-5.4800

> <Gold.Chemscore.Hbond>
1.8659

> <Gold.Chemscore.Metal>
0.0000

> <Gold.Chemscore.Lipo>
79.0992

> <Gold.Chemscore.Internal_Hbond>
0.0000

> <Gold.Chemscore.DEClash>
0.0004

> <Gold.Chemscore.DEInternal>
2.2087

> <Gold.Chemscore.Rot>
1.5060

> <Gold.Chemscore.Internal.Correction>
   9.000000E+99

> <Gold.Chemscore.Hbonds>
donor molecule, donor type, donor heavy atom, donor atom, acceptor molecule, acceptor atom, score
      L1  H     3    18       P1 10175  0.98
      L1  H    12    27       P1 10175  0.92

> <Gold.Chemscore.Hbond.Weighted>
-6.2320

> <Gold.Chemscore.Metal.Weighted>
-0.0000

> <Gold.Chemscore.Lipo.Weighted>
-9.2546

> <Gold.Chemscore.Internal_Hbond.Weighted>
0.0000

> <Gold.Chemscore.DEClash.Weighted>
0.0004

> <Gold.Chemscore.DEInternal.Weighted>
2.2087

> <Gold.Chemscore.Rot.Weighted>
3.8553

> <Gold.Chemscore.Internal.Correction.Weighted>
   9.000000E+99

> <Gold.Protein.RotatedTorsions>
[ 6907 6896 6895 6894 ] final  135.44 input  -60.11 | X-H torsion
[ 7974 7965 7964 7962 ] final  -90.29 input  175.53 | X-H torsion
[ 8008 7997 7996 7995 ] final  -15.31 input   59.86 | X-H torsion
[ 10167 10162 10161 10158 ] final  133.63 input  -65.29 | X-H torsion
[ 10718 10713 10712 10709 ] final -160.10 input   66.30 | X-H torsion
[ 10763 10752 10751 10750 ] final  171.46 input  -60.55 | X-H torsion
[ 11005 11000 10999 10996 ] final -172.16 input  -57.11 | X-H torsion

> <Gold.Protein.ActiveResidues>
 VAL166  LYS551  ARG553  GLY616  TRP617  ASP618  TYR619  PRO620  LYS621  CYS622 
 ASP623  PHE694  ASN695  SER759  ASP760  ASP761  ALA762  ILE779  LEU786  VAL792 
 PHE793  MET794  SER795  GLU796  ALA797  LYS798  CYS799  TRP800  GLU811  SER814 

> <Gold.Protein.RotatedAtoms>
  152.3004  133.5649  159.5614 H   0  0  0  0  0  0  0  0  0  0  0  0  # atno 6907 bound_to 6896
  150.7275  134.0300  159.3739 H   0  0  0  0  0  0  0  0  0  0  0  0  # atno 6908 bound_to 6896
  151.8200  135.0655  160.0474 H   0  0  0  0  0  0  0  0  0  0  0  0  # atno 6909 bound_to 6896
  145.4285  140.9554  143.2141 H   0  0  0  0  0  0  0  0  0  0  0  0  # atno 7974 bound_to 7965
  154.5141  140.2200  155.9100 H   0  0  0  0  0  0  0  0  0  0  0  0  # atno 8008 bound_to 7997
  156.1586  140.3147  155.8735 H   0  0  0  0  0  0  0  0  0  0  0  0  # atno 8009 bound_to 7997
  155.3796  140.0471  157.3034 H   0  0  0  0  0  0  0  0  0  0  0  0  # atno 8010 bound_to 7997
  139.5289  144.6606  151.5023 H   0  0  0  0  0  0  0  0  0  0  0  0  # atno 10167 bound_to 10162
  156.5774  130.8715  151.2855 H   0  0  0  0  0  0  0  0  0  0  0  0  # atno 10718 bound_to 10713
  154.4123  135.2756  155.2029 H   0  0  0  0  0  0  0  0  0  0  0  0  # atno 10763 bound_to 10752
  154.4010  135.6044  153.5900 H   0  0  0  0  0  0  0  0  0  0  0  0  # atno 10764 bound_to 10752
  152.9831  135.5926  154.4406 H   0  0  0  0  0  0  0  0  0  0  0  0  # atno 10765 bound_to 10752
  140.5001  134.5901  157.4985 H   0  0  0  0  0  0  0  0  0  0  0  0  # atno 11005 bound_to 11000
  144.8198  139.5811  143.6992 LP  0  0  0  0  0  0  0  0  0  0  0  0  # atno 17320 bound_to 7965
  146.2620  139.6431  142.9356 LP  0  0  0  0  0  0  0  0  0  0  0  0  # atno 17321 bound_to 7965
  140.6453  143.8807  150.6731 LP  0  0  0  0  0  0  0  0  0  0  0  0  # atno 17342 bound_to 10162
  140.2154  143.3850  152.1685 LP  0  0  0  0  0  0  0  0  0  0  0  0  # atno 17343 bound_to 10162
  157.7334  130.9730  150.1978 LP  0  0  0  0  0  0  0  0  0  0  0  0  # atno 17370 bound_to 10713
  156.2661  130.3716  149.8079 LP  0  0  0  0  0  0  0  0  0  0  0  0  # atno 17371 bound_to 10713
  139.9718  134.7280  156.0026 LP  0  0  0  0  0  0  0  0  0  0  0  0  # atno 17394 bound_to 11000
  141.1440  133.6559  156.3812 LP  0  0  0  0  0  0  0  0  0  0  0  0  # atno 17395 bound_to 11000

$$$$
