AV-unprocessed.smi:1734|AV-procd|sdf|6986|dock8
  -GOLD-   22720 8203D 1   1.00000     0.00000
 Structure written by MMmdl.
 51 53  0  0  0  0  0  0  0  0  2 V2000
  147.0216  133.1884  152.4391 C   0  0  0  0  0  0  0  0  0  0  0  0
  145.8039  133.5093  151.5879 C   0  0  0  0  0  0  0  0  0  0  0  0
  145.1087  132.4567  150.9554 C   0  0  0  0  0  0  0  0  0  0  0  0
  143.9822  132.7531  150.1696 C   0  0  0  0  0  0  0  0  0  0  0  0
  143.5962  134.0987  150.0478 C   0  0  0  0  0  0  0  0  0  0  0  0
  144.2554  135.1109  150.6475 N   0  0  0  0  0  0  0  0  0  0  0  0
  145.3457  134.8423  151.4093 C   0  0  0  0  0  0  0  0  0  0  0  0
  146.0877  135.8601  152.0736 N   0  0  0  0  0  0  0  0  0  0  0  0
  145.6512  136.7604  152.9723 C   0  0  0  0  0  0  0  0  0  0  0  0
  144.4882  136.8756  153.3592 O   0  0  0  0  0  0  0  0  0  0  0  0
  146.6559  137.5341  153.4093 N   0  0  0  0  0  0  0  0  0  0  0  0
  146.5301  138.6059  154.3923 C   0  0  0  0  0  0  0  0  0  0  0  0
  147.1156  139.9539  153.8917 C   0  0  2  0  0  0  0  0  0  0  0  0
  148.5847  140.2113  154.3365 C   0  0  1  0  0  0  0  0  0  0  0  0
  148.7883  140.6069  155.7911 C   0  0  0  0  0  0  0  0  0  0  0  0
  150.2589  140.2786  156.0338 C   0  0  0  0  0  0  0  0  0  0  0  0
  150.5872  139.2370  155.1219 O   0  0  0  0  0  0  0  0  0  0  0  0
  149.4741  138.9638  154.2819 C   0  0  0  0  0  0  0  0  0  0  0  0
  146.2599  141.1119  154.2934 N   0  3  0  0  0  0  0  0  0  0  0  0
  145.7382  141.0307  155.6795 C   0  0  0  0  0  0  0  0  0  0  0  0
  144.7166  142.1544  155.9249 C   0  0  0  0  0  0  0  0  0  0  0  0
  145.3189  143.4166  155.6635 O   0  0  0  0  0  0  0  0  0  0  0  0
  145.7523  143.5347  154.3134 C   0  0  0  0  0  0  0  0  0  0  0  0
  146.8143  142.4626  154.0194 C   0  0  0  0  0  0  0  0  0  0  0  0
  147.2198  132.1162  152.4599 H   0  0  0  0  0  0  0  0  0  0  0  0
  146.8680  133.5209  153.4661 H   0  0  0  0  0  0  0  0  0  0  0  0
  147.9069  133.6848  152.0409 H   0  0  0  0  0  0  0  0  0  0  0  0
  145.4324  131.4326  151.0696 H   0  0  0  0  0  0  0  0  0  0  0  0
  143.4290  131.9694  149.6736 H   0  0  0  0  0  0  0  0  0  0  0  0
  142.7359  134.3703  149.4542 H   0  0  0  0  0  0  0  0  0  0  0  0
  147.0683  135.8996  151.8392 H   0  0  0  0  0  0  0  0  0  0  0  0
  147.5777  137.3696  153.0313 H   0  0  0  0  0  0  0  0  0  0  0  0
  145.4679  138.7062  154.6136 H   0  0  0  0  0  0  0  0  0  0  0  0
  147.0147  138.3213  155.3271 H   0  0  0  0  0  0  0  0  0  0  0  0
  147.1173  139.9313  152.8005 H   0  0  0  0  0  0  0  0  0  0  0  0
  149.0328  140.9848  153.7112 H   0  0  0  0  0  0  0  0  0  0  0  0
  148.5774  141.6571  155.9901 H   0  0  0  0  0  0  0  0  0  0  0  0
  148.1584  140.0004  156.4436 H   0  0  0  0  0  0  0  0  0  0  0  0
  150.8861  141.1428  155.8118 H   0  0  0  0  0  0  0  0  0  0  0  0
  150.4491  139.9792  157.0648 H   0  0  0  0  0  0  0  0  0  0  0  0
  148.9467  138.0958  154.6804 H   0  0  0  0  0  0  0  0  0  0  0  0
  149.8016  138.7238  153.2700 H   0  0  0  0  0  0  0  0  0  0  0  0
  145.2620  140.0639  155.8452 H   0  0  0  0  0  0  0  0  0  0  0  0
  146.5555  141.1138  156.3964 H   0  0  0  0  0  0  0  0  0  0  0  0
  143.8343  142.0226  155.2960 H   0  0  0  0  0  0  0  0  0  0  0  0
  144.3752  142.1331  156.9602 H   0  0  0  0  0  0  0  0  0  0  0  0
  144.9031  143.4393  153.6347 H   0  0  0  0  0  0  0  0  0  0  0  0
  146.1708  144.5299  154.1624 H   0  0  0  0  0  0  0  0  0  0  0  0
  147.6905  142.6474  154.6421 H   0  0  0  0  0  0  0  0  0  0  0  0
  147.1326  142.5424  152.9806 H   0  0  0  0  0  0  0  0  0  0  0  0
  145.4403  141.0351  153.7082 H   0  0  0  0  0  0  0  0  0  0  0  0
  1  2  1  0  0  0  0
  1 25  1  0  0  0  0
  1 26  1  0  0  0  0
  1 27  1  0  0  0  0
  2  7  1  0  0  0  0
  2  3  2  0  0  0  0
  3  4  1  0  0  0  0
  3 28  1  0  0  0  0
  4  5  2  0  0  0  0
  4 29  1  0  0  0  0
  5  6  1  0  0  0  0
  5 30  1  0  0  0  0
  6  7  2  0  0  0  0
  7  8  1  0  0  0  0
  8  9  1  0  0  0  0
  8 31  1  0  0  0  0
  9 10  2  0  0  0  0
  9 11  1  0  0  0  0
 11 12  1  0  0  0  0
 11 32  1  0  0  0  0
 12 13  1  0  0  0  0
 12 33  1  0  0  0  0
 12 34  1  0  0  0  0
 13 14  1  0  0  0  0
 13 19  1  0  0  0  0
 13 35  1  0  0  0  0
 14 18  1  0  0  0  0
 14 15  1  0  0  0  0
 14 36  1  0  0  0  0
 15 16  1  0  0  0  0
 15 37  1  0  0  0  0
 15 38  1  0  0  0  0
 16 17  1  0  0  0  0
 16 39  1  0  0  0  0
 16 40  1  0  0  0  0
 17 18  1  0  0  0  0
 18 41  1  0  0  0  0
 18 42  1  0  0  0  0
 19 24  1  0  0  0  0
 19 20  1  0  0  0  0
 19 51  1  0  0  0  0
 20 21  1  0  0  0  0
 20 43  1  0  0  0  0
 20 44  1  0  0  0  0
 21 22  1  0  0  0  0
 21 45  1  0  0  0  0
 21 46  1  0  0  0  0
 22 23  1  0  0  0  0
 23 24  1  0  0  0  0
 23 47  1  0  0  0  0
 23 48  1  0  0  0  0
 24 49  1  0  0  0  0
 24 50  1  0  0  0  0
M  CHG  1  19   1
M  END
> <s_m_source_file>
AV-unprocessed.smi

> <i_m_source_file_index>
1734

> <i_lp_mmshare_version>
43012

> <i_f3d_flags>
0

> <s_epik_input>
W0NIM11jMVtjSF1bY0hdW2NIXW5jMVtOSF1DKD1PKVtOSF1bQ0gyXVtDQEhdKFtDQEBIXTJbQ0gyXVtDSDJdT1tDSDJdMilOM1tDSDJdW0NIMl1PW0NIMl1bQ0gyXTM=

> <s_epik_cmdline>
J2VwaWtfcHl0aG9uJywgJy1waCcsICc3LjAnLCAnLXRuJywgJzgnLCAnLW1hJywgJzIwMCcsICctbWV0YWxfYmluZGluZycsICctaW1hZScsICc8aW5maWxlLm1hZT4nLCAnLW9tYWUnLCAnPG91dGZpbGUubWFlPic=

> <r_epik_Ionization_Penalty>
0.983302

> <r_epik_Ionization_Penalty_Charging>
0.98326

> <r_epik_Ionization_Penalty_Neutral>
4.21967e-05

> <r_epik_State_Penalty>
1.0303

> <r_epik_Charging_Adjusted_Penalty>
2.01356

> <i_epik_Tot_Q>
1

> <i_epik_Tot_abs_Q>
1

> <r_epik_Metal_State_Penalty>
1.03031

> <b_epik_Metal_Only>
0

> <s_lp_Force_Field>
OPLS_2005

> <r_lp_Energy>
41.1253

> <b_lp_Chiralities_Consistent>
1

> <s_lp_Variant>
AV-unprocessed.smi:1734-7

> <Gold.Version>
5.8.1

> <Gold.Id.Protein>
6NUR|6NUR_protein|mol2

> <Gold.PLP.Fitness>
53.6635

> <Gold.PLP.PLP>
-38.9793

> <Gold.PLP.part.hbond>
-3.9197

> <Gold.PLP.part.metal>
0.0000

> <Gold.PLP.part.buried>
-4.2126

> <Gold.PLP.part.nonpolar>
-31.6058

> <Gold.PLP.part.repulsive>
0.5675

> <Gold.PLP.ligand.clash>
0.0000

> <Gold.PLP.ligand.torsion>
1.5956

> <Gold.PLP.Chemscore.Hbond>
4.8233

> <Gold.PLP.Chemscore.CHOScore>
1.0000

> <Gold.PLP.Chemscore.Metal>
0.0000

> <Gold.Chemscore.Hbonds>
donor molecule, donor type, donor heavy atom, donor atom, acceptor molecule, acceptor atom, score
      L1  H     8    31       P1  7948  1.00
      L1  H    11    32       P1  7948  0.75
      L1  H    19    51       P1 10175  1.11
      L1  C     5    30       P1 10186  0.23

> <Gold.PLP.Chemscore.Internal.Correction>
0.4056

> <Gold.Rescore>
     Score         DG    S(hbond)    S(metal)    S(lipo)     H(rot)  DE(clash)    DE(int)     intcor
     19.62     -22.53       3.40        0.00      85.65       1.70       1.43       1.47       ----

> <Gold.Chemscore.Fitness>
19.6249

> <Gold.Chemscore.DG>
-22.5252

> <Gold.Chemscore.ZeroCoef>
-5.4800

> <Gold.Chemscore.Hbond>
3.4048

> <Gold.Chemscore.Metal>
0.0000

> <Gold.Chemscore.Lipo>
85.6540

> <Gold.Chemscore.Internal_Hbond>
0.0000

> <Gold.Chemscore.DEClash>
1.4286

> <Gold.Chemscore.DEInternal>
1.4717

> <Gold.Chemscore.Rot>
1.6986

> <Gold.Chemscore.Internal.Correction>
   9.000000E+99

> <Gold.Chemscore.Hbonds>
donor molecule, donor type, donor heavy atom, donor atom, acceptor molecule, acceptor atom, score
      L1  H     8    31       P1  7948  1.00
      L1  H    11    32       P1  7948  0.72
      L1  H    19    51       P1 10175  0.39

> <Gold.Chemscore.Hbond.Weighted>
-11.3722

> <Gold.Chemscore.Metal.Weighted>
-0.0000

> <Gold.Chemscore.Lipo.Weighted>
-10.0215

> <Gold.Chemscore.Internal_Hbond.Weighted>
0.0000

> <Gold.Chemscore.DEClash.Weighted>
1.4286

> <Gold.Chemscore.DEInternal.Weighted>
1.4717

> <Gold.Chemscore.Rot.Weighted>
4.3485

> <Gold.Chemscore.Internal.Correction.Weighted>
   9.000000E+99

> <Gold.Protein.RotatedTorsions>
[ 6907 6896 6895 6894 ] final -166.18 input  -60.11 | X-H torsion
[ 7974 7965 7964 7962 ] final -113.52 input  175.53 | X-H torsion
[ 8008 7997 7996 7995 ] final   35.77 input   59.86 | X-H torsion
[ 10167 10162 10161 10158 ] final  -34.33 input  -65.29 | X-H torsion
[ 10718 10713 10712 10709 ] final  134.86 input   66.30 | X-H torsion
[ 10763 10752 10751 10750 ] final   43.28 input  -60.55 | X-H torsion
[ 11005 11000 10999 10996 ] final -105.81 input  -57.11 | X-H torsion

> <Gold.Protein.ActiveResidues>
 VAL166  LYS551  ARG553  GLY616  TRP617  ASP618  TYR619  PRO620  LYS621  CYS622 
 ASP623  PHE694  ASN695  SER759  ASP760  ASP761  ALA762  ILE779  LEU786  VAL792 
 PHE793  MET794  SER795  GLU796  ALA797  LYS798  CYS799  TRP800  GLU811  SER814 

> <Gold.Protein.RotatedAtoms>
  151.4395  133.3647  159.2779 H   0  0  0  0  0  0  0  0  0  0  0  0  # atno 6907 bound_to 6896
  150.9168  134.8587  159.7473 H   0  0  0  0  0  0  0  0  0  0  0  0  # atno 6908 bound_to 6896
  152.4961  134.4329  159.9570 H   0  0  0  0  0  0  0  0  0  0  0  0  # atno 6909 bound_to 6896
  145.1311  140.8725  143.3757 H   0  0  0  0  0  0  0  0  0  0  0  0  # atno 7974 bound_to 7965
  155.1765  140.3296  155.4383 H   0  0  0  0  0  0  0  0  0  0  0  0  # atno 8008 bound_to 7997
  156.2492  140.1934  156.6816 H   0  0  0  0  0  0  0  0  0  0  0  0  # atno 8009 bound_to 7997
  154.6301  140.0584  156.9707 H   0  0  0  0  0  0  0  0  0  0  0  0  # atno 8010 bound_to 7997
  140.7188  143.3556  151.2066 H   0  0  0  0  0  0  0  0  0  0  0  0  # atno 10167 bound_to 10162
  157.4630  131.1075  150.9897 H   0  0  0  0  0  0  0  0  0  0  0  0  # atno 10718 bound_to 10713
  152.9864  135.6106  154.3085 H   0  0  0  0  0  0  0  0  0  0  0  0  # atno 10763 bound_to 10752
  154.2802  135.2777  155.2702 H   0  0  0  0  0  0  0  0  0  0  0  0  # atno 10764 bound_to 10752
  154.5044  135.5858  153.6613 H   0  0  0  0  0  0  0  0  0  0  0  0  # atno 10765 bound_to 10752
  141.1035  133.8839  157.1779 H   0  0  0  0  0  0  0  0  0  0  0  0  # atno 11005 bound_to 11000
  145.0635  139.3087  143.5868 LP  0  0  0  0  0  0  0  0  0  0  0  0  # atno 17320 bound_to 7965
  146.3514  140.0085  142.8669 LP  0  0  0  0  0  0  0  0  0  0  0  0  # atno 17321 bound_to 7965
  139.7097  143.9398  152.2942 LP  0  0  0  0  0  0  0  0  0  0  0  0  # atno 17342 bound_to 10162
  139.9118  144.6852  150.8554 LP  0  0  0  0  0  0  0  0  0  0  0  0  # atno 17343 bound_to 10162
  157.0688  130.5855  149.5399 LP  0  0  0  0  0  0  0  0  0  0  0  0  # atno 17370 bound_to 10713
  156.0037  130.5120  150.7755 LP  0  0  0  0  0  0  0  0  0  0  0  0  # atno 17371 bound_to 10713
  139.9896  135.0069  156.9944 LP  0  0  0  0  0  0  0  0  0  0  0  0  # atno 17394 bound_to 11000
  140.4961  134.1144  155.7241 LP  0  0  0  0  0  0  0  0  0  0  0  0  # atno 17395 bound_to 11000

$$$$
