AV-unprocessed.smi:581|AV-procd|sdf|2991|dock9
  -GOLD-   2262023493D 1   1.00000     0.00000
 Structure written by MMmdl.
 35 36  0  0  0  0  0  0  0  0  2 V2000
  150.3907  134.9015  156.5390 C   0  0  0  0  0  0  0  0  0  0  0  0
  149.5912  135.7921  157.4736 C   0  0  0  0  0  0  0  0  0  0  0  0
  149.1183  135.1765  158.6395 N   0  0  0  0  0  0  0  0  0  0  0  0
  148.4295  135.8542  159.5033 C   0  0  0  0  0  0  0  0  0  0  0  0
  147.8965  135.3575  160.6954 N   0  0  0  0  0  0  0  0  0  0  0  0
  147.9042  136.1459  161.9305 C   0  0  0  0  0  0  0  0  0  0  0  0
  146.8199  135.6640  162.9089 C   0  0  0  0  0  0  0  0  0  0  0  0
  146.9873  134.2765  163.1650 O   0  0  0  0  0  0  0  0  0  0  0  0
  146.8492  133.5105  161.9762 C   0  0  0  0  0  0  0  0  0  0  0  0
  147.9342  133.9204  160.9663 C   0  0  0  0  0  0  0  0  0  0  0  0
  148.1458  137.2043  159.2706 N   0  0  0  0  0  0  0  0  0  0  0  0
  148.5569  137.8891  158.1804 C   0  0  0  0  0  0  0  0  0  0  0  0
  148.2718  139.0784  158.0498 O   0  0  0  0  0  0  0  0  0  0  0  0
  149.3440  137.1065  157.2135 C   0  0  0  0  0  0  0  0  0  0  0  0
  149.8243  137.8123  155.9479 C   0  0  0  0  0  0  0  0  0  0  0  0
  151.3264  138.1605  156.0112 C   0  0  0  0  0  0  0  0  0  0  0  0
  151.7437  139.2341  154.9972 C   0  0  0  0  0  0  0  0  0  0  0  0
  152.9627  139.4263  154.7892 O   0  0  0  0  0  0  0  0  0  0  0  0
  150.8145  139.8563  154.4386 O   0  5  0  0  0  0  0  0  0  0  0  0
  147.6011  137.7070  159.9554 H   0  0  0  0  0  0  0  0  0  0  0  0
  151.3461  135.3637  156.2894 H   0  0  0  0  0  0  0  0  0  0  0  0
  149.8377  134.7263  155.6160 H   0  0  0  0  0  0  0  0  0  0  0  0
  150.5986  133.9332  156.9957 H   0  0  0  0  0  0  0  0  0  0  0  0
  148.8871  136.0537  162.3944 H   0  0  0  0  0  0  0  0  0  0  0  0
  147.7502  137.2071  161.7355 H   0  0  0  0  0  0  0  0  0  0  0  0
  146.8955  136.2090  163.8497 H   0  0  0  0  0  0  0  0  0  0  0  0
  145.8228  135.8559  162.5093 H   0  0  0  0  0  0  0  0  0  0  0  0
  146.9467  132.4532  162.2225 H   0  0  0  0  0  0  0  0  0  0  0  0
  145.8528  133.6481  161.5532 H   0  0  0  0  0  0  0  0  0  0  0  0
  147.7928  133.3529  160.0454 H   0  0  0  0  0  0  0  0  0  0  0  0
  148.9206  133.6599  161.3521 H   0  0  0  0  0  0  0  0  0  0  0  0
  149.6243  137.1864  155.0782 H   0  0  0  0  0  0  0  0  0  0  0  0
  149.2316  138.7153  155.7922 H   0  0  0  0  0  0  0  0  0  0  0  0
  151.5860  138.5134  157.0098 H   0  0  0  0  0  0  0  0  0  0  0  0
  151.9231  137.2662  155.8287 H   0  0  0  0  0  0  0  0  0  0  0  0
  1  2  1  0  0  0  0
  1 21  1  0  0  0  0
  1 22  1  0  0  0  0
  1 23  1  0  0  0  0
  2 14  2  0  0  0  0
  2  3  1  0  0  0  0
  3  4  2  0  0  0  0
  4  5  1  0  0  0  0
  4 11  1  0  0  0  0
  5 10  1  0  0  0  0
  5  6  1  0  0  0  0
  6  7  1  0  0  0  0
  6 24  1  0  0  0  0
  6 25  1  0  0  0  0
  7  8  1  0  0  0  0
  7 26  1  0  0  0  0
  7 27  1  0  0  0  0
  8  9  1  0  0  0  0
  9 10  1  0  0  0  0
  9 28  1  0  0  0  0
  9 29  1  0  0  0  0
 10 30  1  0  0  0  0
 10 31  1  0  0  0  0
 11 20  1  0  0  0  0
 11 12  1  0  0  0  0
 12 13  2  0  0  0  0
 12 14  1  0  0  0  0
 14 15  1  0  0  0  0
 15 16  1  0  0  0  0
 15 32  1  0  0  0  0
 15 33  1  0  0  0  0
 16 17  1  0  0  0  0
 16 34  1  0  0  0  0
 16 35  1  0  0  0  0
 17 18  2  0  0  0  0
 17 19  1  0  0  0  0
M  CHG  1  19  -1
M  END
> <s_m_source_file>
AV-unprocessed.smi

> <i_m_source_file_index>
581

> <i_lp_mmshare_version>
43012

> <i_f3d_flags>
0

> <s_epik_input>
W0NIMl0xW0NIMl1PW0NIMl1bQ0gyXU4xYyhuYzJbQ0gzXSlbbkhdYyg9TyljMltDSDJdW0NIMl1DKD1PKVtPSF0=

> <s_epik_cmdline>
J2VwaWtfcHl0aG9uJywgJy1waCcsICc3LjAnLCAnLXRuJywgJzgnLCAnLW1hJywgJzIwMCcsICctbWV0YWxfYmluZGluZycsICctaW1hZScsICc8aW5maWxlLm1hZT4nLCAnLW9tYWUnLCAnPG91dGZpbGUubWFlPic=

> <r_lp_tautomer_probability>
0.878553

> <r_epik_Ionization_Penalty>
0.00211884

> <r_epik_Ionization_Penalty_Charging>
0.00208365

> <r_epik_Ionization_Penalty_Neutral>
3.51846e-05

> <r_epik_State_Penalty>
0.0663044

> <r_epik_Charging_Adjusted_Penalty>
0.0683881

> <i_epik_Tot_Q>
-1

> <i_epik_Tot_abs_Q>
1

> <r_epik_Metal_State_Penalty>
0.312881

> <b_epik_Metal_Only>
0

> <s_lp_Force_Field>
OPLS_2005

> <r_lp_Energy>
24.7506

> <b_lp_Chiralities_Consistent>
1

> <s_lp_Variant>
AV-unprocessed.smi:581-1

> <Gold.Version>
5.8.1

> <Gold.Id.Protein>
6NUR|6NUR_protein|mol2

> <Gold.PLP.Fitness>
40.3209

> <Gold.PLP.PLP>
-29.6357

> <Gold.PLP.part.hbond>
-5.4266

> <Gold.PLP.part.metal>
0.0000

> <Gold.PLP.part.buried>
-5.0174

> <Gold.PLP.part.nonpolar>
-19.4660

> <Gold.PLP.part.repulsive>
0.3297

> <Gold.PLP.ligand.clash>
0.0000

> <Gold.PLP.ligand.torsion>
0.7650

> <Gold.PLP.Chemscore.Hbond>
4.0000

> <Gold.PLP.Chemscore.CHOScore>
0.0000

> <Gold.PLP.Chemscore.Metal>
0.0000

> <Gold.Chemscore.Hbonds>
donor molecule, donor type, donor heavy atom, donor atom, acceptor molecule, acceptor atom, score
      P1  H  6896  6909       L1     3  1.00
      P1  H  7989  7998       L1    19  1.00
      P1  H  7997  8009       L1    18  2.00

> <Gold.PLP.Chemscore.Internal.Correction>
0.2152

> <Gold.Rescore>
     Score         DG    S(hbond)    S(metal)    S(lipo)     H(rot)  DE(clash)    DE(int)     intcor
     12.43     -13.09       2.07        0.00      47.23       1.89       0.06       0.59       ----

> <Gold.Chemscore.Fitness>
12.4346

> <Gold.Chemscore.DG>
-13.0910

> <Gold.Chemscore.ZeroCoef>
-5.4800

> <Gold.Chemscore.Hbond>
2.0720

> <Gold.Chemscore.Metal>
0.0000

> <Gold.Chemscore.Lipo>
47.2339

> <Gold.Chemscore.Internal_Hbond>
0.0000

> <Gold.Chemscore.DEClash>
0.0628

> <Gold.Chemscore.DEInternal>
0.5936

> <Gold.Chemscore.Rot>
1.8890

> <Gold.Chemscore.Internal.Correction>
   9.000000E+99

> <Gold.Chemscore.Hbonds>
donor molecule, donor type, donor heavy atom, donor atom, acceptor molecule, acceptor atom, score
      P1  H  6896  6909       L1     3  0.48
      P1  H  7989  7998       L1    19  0.30
      P1  H  7997  8009       L1    18  0.96

> <Gold.Chemscore.Hbond.Weighted>
-6.9203

> <Gold.Chemscore.Metal.Weighted>
-0.0000

> <Gold.Chemscore.Lipo.Weighted>
-5.5264

> <Gold.Chemscore.Internal_Hbond.Weighted>
0.0000

> <Gold.Chemscore.DEClash.Weighted>
0.0628

> <Gold.Chemscore.DEInternal.Weighted>
0.5936

> <Gold.Chemscore.Rot.Weighted>
4.8357

> <Gold.Chemscore.Internal.Correction.Weighted>
   9.000000E+99

> <Gold.Protein.RotatedTorsions>
[ 6907 6896 6895 6894 ] final   26.79 input  -60.11 | X-H torsion
[ 7974 7965 7964 7962 ] final   14.65 input  175.53 | X-H torsion
[ 8008 7997 7996 7995 ] final -130.70 input   59.86 | X-H torsion
[ 10167 10162 10161 10158 ] final  -38.97 input  -65.29 | X-H torsion
[ 10718 10713 10712 10709 ] final -107.76 input   66.30 | X-H torsion
[ 10763 10752 10751 10750 ] final   62.88 input  -60.55 | X-H torsion
[ 11005 11000 10999 10996 ] final   23.37 input  -57.11 | X-H torsion

> <Gold.Protein.ActiveResidues>
 VAL166  LYS551  ARG553  GLY616  TRP617  ASP618  TYR619  PRO620  LYS621  CYS622 
 ASP623  PHE694  ASN695  SER759  ASP760  ASP761  ALA762  ILE779  LEU786  VAL792 
 PHE793  MET794  SER795  GLU796  ALA797  LYS798  CYS799  TRP800  GLU811  SER814 

> <Gold.Protein.RotatedAtoms>
  151.9927  134.9970  160.0561 H   0  0  0  0  0  0  0  0  0  0  0  0  # atno 6907 bound_to 6896
  152.1593  133.4567  159.4861 H   0  0  0  0  0  0  0  0  0  0  0  0  # atno 6908 bound_to 6896
  150.6885  134.2009  159.4365 H   0  0  0  0  0  0  0  0  0  0  0  0  # atno 6909 bound_to 6896
  146.2299  139.9009  142.8539 H   0  0  0  0  0  0  0  0  0  0  0  0  # atno 7974 bound_to 7965
  155.3001  140.0452  157.3029 H   0  0  0  0  0  0  0  0  0  0  0  0  # atno 8008 bound_to 7997
  154.5491  140.2312  155.8481 H   0  0  0  0  0  0  0  0  0  0  0  0  # atno 8009 bound_to 7997
  156.1951  140.3040  155.9417 H   0  0  0  0  0  0  0  0  0  0  0  0  # atno 8010 bound_to 7997
  140.7077  143.3243  151.2716 H   0  0  0  0  0  0  0  0  0  0  0  0  # atno 10167 bound_to 10162
  156.0452  130.5678  150.7866 H   0  0  0  0  0  0  0  0  0  0  0  0  # atno 10718 bound_to 10713
  152.9998  135.5449  154.6264 H   0  0  0  0  0  0  0  0  0  0  0  0  # atno 10763 bound_to 10752
  154.5551  135.2829  155.0974 H   0  0  0  0  0  0  0  0  0  0  0  0  # atno 10764 bound_to 10752
  154.2198  135.6452  153.5194 H   0  0  0  0  0  0  0  0  0  0  0  0  # atno 10765 bound_to 10752
  140.3704  134.2029  155.7667 H   0  0  0  0  0  0  0  0  0  0  0  0  # atno 11005 bound_to 11000
  145.2324  140.9978  143.3983 LP  0  0  0  0  0  0  0  0  0  0  0  0  # atno 17320 bound_to 7965
  144.9519  139.4073  143.6398 LP  0  0  0  0  0  0  0  0  0  0  0  0  # atno 17321 bound_to 7965
  139.6707  144.0025  152.2751 LP  0  0  0  0  0  0  0  0  0  0  0  0  # atno 17342 bound_to 10162
  139.9623  144.6549  150.8068 LP  0  0  0  0  0  0  0  0  0  0  0  0  # atno 17343 bound_to 10162
  157.5318  131.0937  150.9944 LP  0  0  0  0  0  0  0  0  0  0  0  0  # atno 17370 bound_to 10713
  157.0249  130.5688  149.5336 LP  0  0  0  0  0  0  0  0  0  0  0  0  # atno 17371 bound_to 10713
  141.1956  133.8101  157.0707 LP  0  0  0  0  0  0  0  0  0  0  0  0  # atno 17394 bound_to 11000
  140.0556  134.9782  157.1215 LP  0  0  0  0  0  0  0  0  0  0  0  0  # atno 17395 bound_to 11000

$$$$
