AV-unprocessed.smi:2124|AV-procd|sdf|8668|dock1
  -GOLD-   2272011413D 1   1.00000     0.00000
 Structure written by MMmdl.
 46 48  0  0  0  0  0  0  0  0  2 V2000
  155.1310  133.2221  157.4495 C   0  0  0  0  0  0  0  0  0  0  0  0
  154.7656  134.5257  158.1271 C   0  0  0  0  0  0  0  0  0  0  0  0
  154.5090  134.5278  159.3796 N   0  0  0  0  0  0  0  0  0  0  0  0
  154.1701  135.7348  160.0140 C   0  0  0  0  0  0  0  0  0  0  0  0
  153.8809  135.6438  161.5021 C   0  0  0  0  0  0  0  0  0  0  0  0
  154.1101  136.9058  159.3174 C   0  0  0  0  0  0  0  0  0  0  0  0
  153.7447  138.2444  159.9600 C   0  0  0  0  0  0  0  0  0  0  0  0
  152.5638  138.9963  159.3403 C   0  0  0  0  0  0  0  0  0  0  0  0
  151.7227  138.4029  158.6643 O   0  0  0  0  0  0  0  0  0  0  0  0
  152.5200  140.3161  159.5779 N   0  0  0  0  0  0  0  0  0  0  0  0
  151.4923  141.2321  159.0873 C   0  0  2  0  0  0  0  0  0  0  0  0
  151.5151  141.2363  157.5477 C   0  0  0  0  0  0  0  0  0  0  0  0
  151.7147  142.6454  159.6799 C   0  0  1  0  0  0  0  0  0  0  0  0
  153.0853  143.2624  159.3070 C   0  0  0  0  0  0  0  0  0  0  0  0
  152.7086  144.6221  158.6926 C   0  0  2  0  0  0  0  0  0  0  0  0
  152.1719  145.5536  159.7939 C   0  0  0  0  0  0  0  0  0  0  0  0
  150.7897  144.9488  160.1022 C   0  0  0  0  0  0  0  0  0  0  0  0
  150.7335  143.7294  159.1615 C   0  0  1  0  0  0  0  0  0  0  0  0
  151.4418  144.2711  157.9244 C   0  0  0  0  0  0  0  0  0  0  0  0
  154.4193  136.8617  157.8771 C   0  0  0  0  0  0  0  0  0  0  0  0
  154.3963  137.8925  157.2056 O   0  0  0  0  0  0  0  0  0  0  0  0
  154.7302  135.6503  157.3334 N   0  5  0  0  0  0  0  0  0  0  0  0
  155.3291  132.4404  158.1841 H   0  0  0  0  0  0  0  0  0  0  0  0
  156.0252  133.3476  156.8382 H   0  0  0  0  0  0  0  0  0  0  0  0
  154.3151  132.8906  156.8068 H   0  0  0  0  0  0  0  0  0  0  0  0
  152.8360  135.8815  161.7023 H   0  0  0  0  0  0  0  0  0  0  0  0
  154.5093  136.3384  162.0598 H   0  0  0  0  0  0  0  0  0  0  0  0
  154.0761  134.6399  161.8810 H   0  0  0  0  0  0  0  0  0  0  0  0
  153.5543  138.1165  161.0261 H   0  0  0  0  0  0  0  0  0  0  0  0
  154.6164  138.8973  159.9117 H   0  0  0  0  0  0  0  0  0  0  0  0
  153.2515  140.7166  160.1472 H   0  0  0  0  0  0  0  0  0  0  0  0
  150.5155  140.8724  159.4154 H   0  0  0  0  0  0  0  0  0  0  0  0
  150.7382  141.8792  157.1350 H   0  0  0  0  0  0  0  0  0  0  0  0
  151.3487  140.2353  157.1482 H   0  0  0  0  0  0  0  0  0  0  0  0
  152.4739  141.5894  157.1669 H   0  0  0  0  0  0  0  0  0  0  0  0
  151.6274  142.5718  160.7653 H   0  0  0  0  0  0  0  0  0  0  0  0
  153.7426  143.3644  160.1713 H   0  0  0  0  0  0  0  0  0  0  0  0
  153.6089  142.6587  158.5647 H   0  0  0  0  0  0  0  0  0  0  0  0
  153.5034  145.0656  158.0921 H   0  0  0  0  0  0  0  0  0  0  0  0
  152.8226  145.5754  160.6688 H   0  0  0  0  0  0  0  0  0  0  0  0
  152.0701  146.5751  159.4255 H   0  0  0  0  0  0  0  0  0  0  0  0
  150.6781  144.6744  161.1517 H   0  0  0  0  0  0  0  0  0  0  0  0
  149.9997  145.6605  159.8592 H   0  0  0  0  0  0  0  0  0  0  0  0
  149.7160  143.3796  158.9862 H   0  0  0  0  0  0  0  0  0  0  0  0
  150.9458  145.1396  157.4874 H   0  0  0  0  0  0  0  0  0  0  0  0
  151.5976  143.5218  157.1468 H   0  0  0  0  0  0  0  0  0  0  0  0
  1  2  1  0  0  0  0
  1 23  1  0  0  0  0
  1 24  1  0  0  0  0
  1 25  1  0  0  0  0
  2 22  1  0  0  0  0
  2  3  2  0  0  0  0
  3  4  1  0  0  0  0
  4  5  1  0  0  0  0
  4  6  2  0  0  0  0
  5 26  1  0  0  0  0
  5 27  1  0  0  0  0
  5 28  1  0  0  0  0
  6  7  1  0  0  0  0
  6 20  1  0  0  0  0
  7  8  1  0  0  0  0
  7 29  1  0  0  0  0
  7 30  1  0  0  0  0
  8  9  2  0  0  0  0
  8 10  1  0  0  0  0
 10 11  1  0  0  0  0
 10 31  1  0  0  0  0
 11 12  1  0  0  0  0
 11 13  1  0  0  0  0
 11 32  1  0  0  0  0
 12 33  1  0  0  0  0
 12 34  1  0  0  0  0
 12 35  1  0  0  0  0
 13 18  1  0  0  0  0
 13 14  1  0  0  0  0
 13 36  1  0  0  0  0
 14 15  1  0  0  0  0
 14 37  1  0  0  0  0
 14 38  1  0  0  0  0
 15 19  1  0  0  0  0
 15 16  1  0  0  0  0
 15 39  1  0  0  0  0
 16 17  1  0  0  0  0
 16 40  1  0  0  0  0
 16 41  1  0  0  0  0
 17 18  1  0  0  0  0
 17 42  1  0  0  0  0
 17 43  1  0  0  0  0
 18 19  1  0  0  0  0
 18 44  1  0  0  0  0
 19 45  1  0  0  0  0
 19 46  1  0  0  0  0
 20 21  2  0  0  0  0
 20 22  1  0  0  0  0
M  CHG  1  22  -1
M  END
> <s_m_source_file>
AV-unprocessed.smi

> <i_m_source_file_index>
2124

> <i_lp_mmshare_version>
43012

> <i_f3d_flags>
0

> <s_epik_input>
W0NIM11jMW5jKFtDSDNdKWMoYyg9TylbbkhdMSlbQ0gyXUMoPU8pW05IXVtDQEhdKFtDSDNdKVtDQEhdKFtDSDJdW0NASF0yMylbQ0BIXShbQ0gyXTMpW0NIMl1bQ0gyXTI=

> <s_epik_cmdline>
J2VwaWtfcHl0aG9uJywgJy1waCcsICc3LjAnLCAnLXRuJywgJzgnLCAnLW1hJywgJzIwMCcsICctbWV0YWxfYmluZGluZycsICctaW1hZScsICc8aW5maWxlLm1hZT4nLCAnLW9tYWUnLCAnPG91dGZpbGUubWFlPic=

> <r_lp_tautomer_probability>
0.839158

> <r_epik_Ionization_Penalty>
6.63797

> <r_epik_Ionization_Penalty_Charging>
7.48558e-08

> <r_epik_Ionization_Penalty_Neutral>
6.63797

> <r_epik_State_Penalty>
4.49496

> <r_epik_Charging_Adjusted_Penalty>
4.49496

> <i_epik_Tot_Q>
-1

> <i_epik_Tot_abs_Q>
1

> <r_epik_Metal_State_Penalty>
0.841241

> <b_epik_Metal_Only>
1

> <s_lp_Force_Field>
OPLS_2005

> <r_lp_Energy>
55.6811

> <b_lp_Chiralities_Consistent>
1

> <s_lp_Variant>
AV-unprocessed.smi:2124-19

> <Gold.Version>
5.8.1

> <Gold.Id.Protein>
6NUR|6NUR_protein|mol2

> <Gold.PLP.Fitness>
44.4157

> <Gold.PLP.PLP>
-37.8776

> <Gold.PLP.part.hbond>
-2.0000

> <Gold.PLP.part.metal>
0.0000

> <Gold.PLP.part.buried>
-5.0625

> <Gold.PLP.part.nonpolar>
-30.3728

> <Gold.PLP.part.repulsive>
0.1201

> <Gold.PLP.ligand.clash>
0.0000

> <Gold.PLP.ligand.torsion>
0.3465

> <Gold.PLP.Chemscore.Hbond>
2.4000

> <Gold.PLP.Chemscore.CHOScore>
0.0000

> <Gold.PLP.Chemscore.Metal>
0.0000

> <Gold.Chemscore.Hbonds>
donor molecule, donor type, donor heavy atom, donor atom, acceptor molecule, acceptor atom, score
      P1  H  7997  8008       L1    21  0.41
      P1  H 10752 10764       L1    22  1.82

> <Gold.PLP.Chemscore.Internal.Correction>
0.0312

> <Gold.Rescore>
     Score         DG    S(hbond)    S(metal)    S(lipo)     H(rot)  DE(clash)    DE(int)     intcor
     17.47     -18.62       1.19        0.00     113.44       1.61       0.02       1.13       ----

> <Gold.Chemscore.Fitness>
17.4653

> <Gold.Chemscore.DG>
-18.6237

> <Gold.Chemscore.ZeroCoef>
-5.4800

> <Gold.Chemscore.Hbond>
1.1917

> <Gold.Chemscore.Metal>
0.0000

> <Gold.Chemscore.Lipo>
113.4387

> <Gold.Chemscore.Internal_Hbond>
0.0000

> <Gold.Chemscore.DEClash>
0.0240

> <Gold.Chemscore.DEInternal>
1.1343

> <Gold.Chemscore.Rot>
1.6051

> <Gold.Chemscore.Internal.Correction>
   9.000000E+99

> <Gold.Chemscore.Hbonds>
donor molecule, donor type, donor heavy atom, donor atom, acceptor molecule, acceptor atom, score
      P1  H  7997  8008       L1    21  0.40
      P1  H 10752 10764       L1    22  0.76

> <Gold.Chemscore.Hbond.Weighted>
-3.9803

> <Gold.Chemscore.Metal.Weighted>
-0.0000

> <Gold.Chemscore.Lipo.Weighted>
-13.2723

> <Gold.Chemscore.Internal_Hbond.Weighted>
0.0000

> <Gold.Chemscore.DEClash.Weighted>
0.0240

> <Gold.Chemscore.DEInternal.Weighted>
1.1343

> <Gold.Chemscore.Rot.Weighted>
4.1090

> <Gold.Chemscore.Internal.Correction.Weighted>
   9.000000E+99

> <Gold.Protein.RotatedTorsions>
[ 6907 6896 6895 6894 ] final  158.71 input  -60.11 | X-H torsion
[ 7974 7965 7964 7962 ] final  118.63 input  175.53 | X-H torsion
[ 8008 7997 7996 7995 ] final  -95.66 input   59.86 | X-H torsion
[ 10167 10162 10161 10158 ] final  121.01 input  -65.29 | X-H torsion
[ 10718 10713 10712 10709 ] final -121.86 input   66.30 | X-H torsion
[ 10763 10752 10751 10750 ] final   38.70 input  -60.55 | X-H torsion
[ 11005 11000 10999 10996 ] final  179.65 input  -57.11 | X-H torsion

> <Gold.Protein.ActiveResidues>
 VAL166  LYS551  ARG553  GLY616  TRP617  ASP618  TYR619  PRO620  LYS621  CYS622 
 ASP623  PHE694  ASN695  SER759  ASP760  ASP761  ALA762  ILE779  LEU786  VAL792 
 PHE793  MET794  SER795  GLU796  ALA797  LYS798  CYS799  TRP800  GLU811  SER814 

> <Gold.Protein.RotatedAtoms>
  151.9964  133.3809  159.4164 H   0  0  0  0  0  0  0  0  0  0  0  0  # atno 6907 bound_to 6896
  150.6915  134.3882  159.5073 H   0  0  0  0  0  0  0  0  0  0  0  0  # atno 6908 bound_to 6896
  152.1622  134.8902  160.0591 H   0  0  0  0  0  0  0  0  0  0  0  0  # atno 6909 bound_to 6896
  145.1528  139.3200  143.4557 H   0  0  0  0  0  0  0  0  0  0  0  0  # atno 7974 bound_to 7965
  154.7642  140.0478  157.0999 H   0  0  0  0  0  0  0  0  0  0  0  0  # atno 8008 bound_to 7997
  154.9899  140.3112  155.4891 H   0  0  0  0  0  0  0  0  0  0  0  0  # atno 8009 bound_to 7997
  156.2910  140.2220  156.5004 H   0  0  0  0  0  0  0  0  0  0  0  0  # atno 8010 bound_to 7997
  139.5946  144.7037  151.3207 H   0  0  0  0  0  0  0  0  0  0  0  0  # atno 10167 bound_to 10162
  156.1371  130.6438  150.9713 H   0  0  0  0  0  0  0  0  0  0  0  0  # atno 10718 bound_to 10713
  152.9992  135.6242  154.2346 H   0  0  0  0  0  0  0  0  0  0  0  0  # atno 10763 bound_to 10752
  154.2088  135.2801  155.2967 H   0  0  0  0  0  0  0  0  0  0  0  0  # atno 10764 bound_to 10752
  154.5624  135.5701  153.7078 H   0  0  0  0  0  0  0  0  0  0  0  0  # atno 10765 bound_to 10752
  140.4085  134.6713  157.4601 H   0  0  0  0  0  0  0  0  0  0  0  0  # atno 11005 bound_to 11000
  146.3492  140.1609  142.8591 LP  0  0  0  0  0  0  0  0  0  0  0  0  # atno 17320 bound_to 7965
  145.0412  140.8947  143.5051 LP  0  0  0  0  0  0  0  0  0  0  0  0  # atno 17321 bound_to 7965
  140.7201  143.7158  150.7734 LP  0  0  0  0  0  0  0  0  0  0  0  0  # atno 17342 bound_to 10162
  140.0722  143.5050  152.2574 LP  0  0  0  0  0  0  0  0  0  0  0  0  # atno 17343 bound_to 10162
  157.6542  131.0892  150.7984 LP  0  0  0  0  0  0  0  0  0  0  0  0  # atno 17370 bound_to 10713
  156.8062  130.4937  149.5362 LP  0  0  0  0  0  0  0  0  0  0  0  0  # atno 17371 bound_to 10713
  140.0284  134.6442  155.9140 LP  0  0  0  0  0  0  0  0  0  0  0  0  # atno 17394 bound_to 11000
  141.1830  133.6550  156.5099 LP  0  0  0  0  0  0  0  0  0  0  0  0  # atno 17395 bound_to 11000

$$$$
