AV-unprocessed.smi:3261|AV-procd|sdf|12482|dock1
  -GOLD-   2272018383D 1   1.00000     0.00000
 Structure written by MMmdl.
 30 31  0  0  0  0  0  0  0  0  3 V2000
  146.8603  133.2525  153.7441 O   0  0  0  0  0  0  0  0  0  0  0  0
  147.5168  132.4992  153.0269 C   0  0  0  0  0  0  0  0  0  0  0  0
  147.0747  132.2394  151.7712 N   0  0  0  0  0  0  0  0  0  0  0  0
  145.8812  132.6703  151.1329 C   0  0  0  0  0  0  0  0  0  0  0  0
  145.4403  133.9875  151.3873 C   0  0  0  0  0  0  0  0  0  0  0  0
  144.2727  134.4629  150.7565 C   0  0  0  0  0  0  0  0  0  0  0  0
  143.5938  133.6626  149.9064 N   0  3  0  0  0  0  0  0  0  0  0  0
  143.9877  132.4035  149.6176 C   0  0  0  0  0  0  0  0  0  0  0  0
  145.1480  131.8737  150.2178 C   0  0  0  0  0  0  0  0  0  0  0  0
  148.6882  131.9446  153.4645 N   0  5  0  0  0  0  0  0  0  0  0  0
  149.7660  132.5575  154.2570 C   0  0  2  0  0  0  0  0  0  0  0  0
  150.3850  131.5431  155.2411 C   0  0  0  0  0  0  0  0  0  0  0  0
  151.2286  132.3091  156.2701 C   0  0  0  0  0  0  0  0  0  0  0  0
  150.4039  133.9345  156.4819 S   0  0  0  0  0  0  0  0  0  0  0  0
  149.6498  133.9427  157.7450 O   0  0  0  0  0  0  0  0  0  0  0  0
  151.3686  135.0023  156.1743 O   0  0  0  0  0  0  0  0  0  0  0  0
  149.2320  133.7361  155.0827 C   0  0  0  0  0  0  0  0  0  0  0  0
  147.7132  131.7148  151.1913 H   0  0  0  0  0  0  0  0  0  0  0  0
  145.9869  134.6269  152.0655 H   0  0  0  0  0  0  0  0  0  0  0  0
  143.8665  135.4529  150.9038 H   0  0  0  0  0  0  0  0  0  0  0  0
  143.3715  131.8626  148.9145 H   0  0  0  0  0  0  0  0  0  0  0  0
  145.4626  130.8738  149.9595 H   0  0  0  0  0  0  0  0  0  0  0  0
  150.5694  132.9378  153.6240 H   0  0  0  0  0  0  0  0  0  0  0  0
  149.5878  131.0163  155.7681 H   0  0  0  0  0  0  0  0  0  0  0  0
  150.9782  130.7874  154.7256 H   0  0  0  0  0  0  0  0  0  0  0  0
  151.2934  131.7939  157.2282 H   0  0  0  0  0  0  0  0  0  0  0  0
  152.2407  132.4857  155.9026 H   0  0  0  0  0  0  0  0  0  0  0  0
  149.1654  134.6616  154.5109 H   0  0  0  0  0  0  0  0  0  0  0  0
  148.2497  133.5143  155.5017 H   0  0  0  0  0  0  0  0  0  0  0  0
  142.7518  134.0263  149.4594 H   0  0  0  0  0  0  0  0  0  0  0  0
  1  2  2  0  0  0  0
  2  3  1  0  0  0  0
  2 10  1  0  0  0  0
  3  4  1  0  0  0  0
  3 18  1  0  0  0  0
  4  9  1  0  0  0  0
  4  5  2  0  0  0  0
  5  6  1  0  0  0  0
  5 19  1  0  0  0  0
  6  7  2  0  0  0  0
  6 20  1  0  0  0  0
  7  8  1  0  0  0  0
  7 30  1  0  0  0  0
  8  9  2  0  0  0  0
  8 21  1  0  0  0  0
  9 22  1  0  0  0  0
 10 11  1  0  0  0  0
 11 17  1  0  0  0  0
 11 12  1  0  0  0  0
 11 23  1  0  0  0  0
 12 13  1  0  0  0  0
 12 24  1  0  0  0  0
 12 25  1  0  0  0  0
 13 14  1  0  0  0  0
 13 26  1  0  0  0  0
 13 27  1  0  0  0  0
 14 15  2  0  0  0  0
 14 16  2  0  0  0  0
 14 17  1  0  0  0  0
 17 28  1  0  0  0  0
 17 29  1  0  0  0  0
M  CHG  1   7   1
M  CHG  1  10  -1
M  END
> <s_m_source_file>
AV-unprocessed.smi

> <i_m_source_file_index>
3261

> <i_lp_mmshare_version>
43012

> <i_f3d_flags>
0

> <s_epik_input>
Tz1TMSg9TylbQ0gyXVtDSDJdW0NASF0oW0NIMl0xKVtOSF1DKD1PKVtOSF1jMltjSF1bY0hdbltjSF1bY0hdMg==

> <s_epik_cmdline>
J2VwaWtfcHl0aG9uJywgJy1waCcsICc3LjAnLCAnLXRuJywgJzgnLCAnLW1hJywgJzIwMCcsICctbWV0YWxfYmluZGluZycsICctaW1hZScsICc8aW5maWxlLm1hZT4nLCAnLW9tYWUnLCAnPG91dGZpbGUubWFlPic=

> <r_epik_Ionization_Penalty>
8.1176

> <r_epik_Ionization_Penalty_Charging>
8.1176

> <r_epik_Ionization_Penalty_Neutral>
3.03687e-06

> <r_epik_State_Penalty>
7.79629

> <r_epik_Charging_Adjusted_Penalty>
15.9139

> <i_epik_Tot_Q>
0

> <i_epik_Tot_abs_Q>
2

> <r_epik_Metal_State_Penalty>
3.7997

> <b_epik_Metal_Only>
1

> <s_lp_Force_Field>
OPLS_2005

> <r_lp_Energy>
18.9878

> <b_lp_Chiralities_Consistent>
1

> <s_lp_Variant>
AV-unprocessed.smi:3261-5

> <Gold.Version>
5.8.1

> <Gold.Id.Protein>
6NUR|6NUR_protein|mol2

> <Gold.PLP.Fitness>
43.9901

> <Gold.PLP.PLP>
-31.4251

> <Gold.PLP.part.hbond>
-4.0000

> <Gold.PLP.part.metal>
0.0000

> <Gold.PLP.part.buried>
-6.2447

> <Gold.PLP.part.nonpolar>
-21.7054

> <Gold.PLP.part.repulsive>
0.2786

> <Gold.PLP.ligand.clash>
0.0000

> <Gold.PLP.ligand.torsion>
0.9371

> <Gold.PLP.Chemscore.Hbond>
4.8080

> <Gold.PLP.Chemscore.CHOScore>
0.0000

> <Gold.PLP.Chemscore.Metal>
0.0000

> <Gold.Chemscore.Hbonds>
donor molecule, donor type, donor heavy atom, donor atom, acceptor molecule, acceptor atom, score
      L1  H     3    18       P1 10747  1.00
      L1  H     7    30       P1 10186  2.00
      P1  H  6896  6909       L1    15  0.91
      P1  H 10752 10763       L1    16  0.63

> <Gold.PLP.Chemscore.Internal.Correction>
0.0153

> <Gold.Rescore>
     Score         DG    S(hbond)    S(metal)    S(lipo)     H(rot)  DE(clash)    DE(int)     intcor
     18.90     -22.63       3.77        0.00      60.71       1.00       0.02       3.71       ----

> <Gold.Chemscore.Fitness>
18.9012

> <Gold.Chemscore.DG>
-22.6312

> <Gold.Chemscore.ZeroCoef>
-5.4800

> <Gold.Chemscore.Hbond>
3.7750

> <Gold.Chemscore.Metal>
0.0000

> <Gold.Chemscore.Lipo>
60.7066

> <Gold.Chemscore.Internal_Hbond>
0.0000

> <Gold.Chemscore.DEClash>
0.0237

> <Gold.Chemscore.DEInternal>
3.7062

> <Gold.Chemscore.Rot>
1.0000

> <Gold.Chemscore.Internal.Correction>
   9.000000E+99

> <Gold.Chemscore.Hbonds>
donor molecule, donor type, donor heavy atom, donor atom, acceptor molecule, acceptor atom, score
      L1  H     3    18       P1 10747  1.00
      L1  H     7    30       P1 10186  0.94
      P1  H  6896  6909       L1    15  0.62
      P1  H 10752 10763       L1    16  0.61

> <Gold.Chemscore.Hbond.Weighted>
-12.6085

> <Gold.Chemscore.Metal.Weighted>
-0.0000

> <Gold.Chemscore.Lipo.Weighted>
-7.1027

> <Gold.Chemscore.Internal_Hbond.Weighted>
0.0000

> <Gold.Chemscore.DEClash.Weighted>
0.0237

> <Gold.Chemscore.DEInternal.Weighted>
3.7062

> <Gold.Chemscore.Rot.Weighted>
2.5600

> <Gold.Chemscore.Internal.Correction.Weighted>
   9.000000E+99

> <Gold.Protein.RotatedTorsions>
[ 6907 6896 6895 6894 ] final  -11.70 input  -60.11 | X-H torsion
[ 7974 7965 7964 7962 ] final  -17.38 input  175.53 | X-H torsion
[ 8008 7997 7996 7995 ] final  -53.23 input   59.86 | X-H torsion
[ 10167 10162 10161 10158 ] final -152.41 input  -65.29 | X-H torsion
[ 10718 10713 10712 10709 ] final   -2.48 input   66.30 | X-H torsion
[ 10763 10752 10751 10750 ] final   75.31 input  -60.55 | X-H torsion
[ 11005 11000 10999 10996 ] final  159.90 input  -57.11 | X-H torsion

> <Gold.Protein.ActiveResidues>
 VAL166  LYS551  ARG553  GLY616  TRP617  ASP618  TYR619  PRO620  LYS621  CYS622 
 ASP623  PHE694  ASN695  SER759  ASP760  ASP761  ALA762  ILE779  LEU786  VAL792 
 PHE793  MET794  SER795  GLU796  ALA797  LYS798  CYS799  TRP800  GLU811  SER814 

> <Gold.Protein.RotatedAtoms>
  151.3821  135.0941  159.9499 H   0  0  0  0  0  0  0  0  0  0  0  0  # atno 6907 bound_to 6896
  152.5105  133.9062  159.7475 H   0  0  0  0  0  0  0  0  0  0  0  0  # atno 6908 bound_to 6896
  150.9497  133.6507  159.2803 H   0  0  0  0  0  0  0  0  0  0  0  0  # atno 6909 bound_to 6896
  146.1943  140.3771  142.8446 H   0  0  0  0  0  0  0  0  0  0  0  0  # atno 7974 bound_to 7965
  154.4127  140.1205  156.5120 H   0  0  0  0  0  0  0  0  0  0  0  0  # atno 8008 bound_to 7997
  155.6790  140.3496  155.4828 H   0  0  0  0  0  0  0  0  0  0  0  0  # atno 8009 bound_to 7997
  155.9568  140.1115  157.0920 H   0  0  0  0  0  0  0  0  0  0  0  0  # atno 8010 bound_to 7997
  139.7184  143.8996  152.2494 H   0  0  0  0  0  0  0  0  0  0  0  0  # atno 10167 bound_to 10162
  156.7902  130.5359  149.5737 H   0  0  0  0  0  0  0  0  0  0  0  0  # atno 10718 bound_to 10713
  153.0646  135.4993  154.8171 H   0  0  0  0  0  0  0  0  0  0  0  0  # atno 10763 bound_to 10752
  154.6934  135.2988  154.9448 H   0  0  0  0  0  0  0  0  0  0  0  0  # atno 10764 bound_to 10752
  154.0196  135.6744  153.4824 H   0  0  0  0  0  0  0  0  0  0  0  0  # atno 10765 bound_to 10752
  140.2007  134.8340  157.3014 H   0  0  0  0  0  0  0  0  0  0  0  0  # atno 11005 bound_to 11000
  144.8549  140.7056  143.6144 LP  0  0  0  0  0  0  0  0  0  0  0  0  # atno 17320 bound_to 7965
  145.3693  139.1662  143.4341 LP  0  0  0  0  0  0  0  0  0  0  0  0  # atno 17321 bound_to 7965
  139.8885  144.6978  150.8797 LP  0  0  0  0  0  0  0  0  0  0  0  0  # atno 17342 bound_to 10162
  140.7748  143.3605  151.1838 LP  0  0  0  0  0  0  0  0  0  0  0  0  # atno 17343 bound_to 10162
  156.1164  130.6078  151.0126 LP  0  0  0  0  0  0  0  0  0  0  0  0  # atno 17370 bound_to 10713
  157.6604  131.0882  150.7851 LP  0  0  0  0  0  0  0  0  0  0  0  0  # atno 17371 bound_to 10713
  140.2058  134.4199  155.7638 LP  0  0  0  0  0  0  0  0  0  0  0  0  # atno 17394 bound_to 11000
  141.2227  133.7094  156.8257 LP  0  0  0  0  0  0  0  0  0  0  0  0  # atno 17395 bound_to 11000

$$$$
