#       Name:                AV-unprocessed.smi:2402
#       Creating user name   scv26
#       Creation time:       Fri Mar 27 13:13:40 2020


#       File generated by GOLD software.
#

@<TRIPOS>MOLECULE
AV-unprocessed.smi:2402
    43    44     1
SMALL
NO_CHARGES


@<TRIPOS>ATOM
      1 ****        -4.7488   3.4876   1.1060 C.3            1 S1                 0.0000
      2 ****        -4.1053   2.1577   0.7742 C.ar           1 S1                 0.0000
      3 ****        -4.8870   1.0579   0.3724 C.ar           1 S1                 0.0000
      4 ****        -4.2291  -0.1518   0.0754 C.ar           1 S1                 0.0000
      5 ****        -5.0077  -1.3750  -0.3606 C.3            1 S1                 0.0000
      6 ****        -2.8899  -0.3022   0.1596 N.ar           1 S1                 0.0000
      7 ****        -2.1268   0.7507   0.5444 C.ar           1 S1                 0.0000
      8 ****        -0.7126   0.6984   0.6617 N.am           1 S1                 0.0000
      9 ****         0.1023  -0.3480   0.4403 C.2            1 S1                 0.0000
     10 ****        -0.2596  -1.4753   0.1011 O.2            1 S1                 0.0000
     11 ****         1.3856  -0.0127   0.6362 N.am           1 S1                 0.0000
     12 ****         2.5181  -0.9173   0.4736 C.3            1 S1                 0.0000
     13 ****         3.7726  -0.2987   1.0296 C.2            1 S1                 0.0000
     14 ****         4.7425  -0.1960   0.1236 C.2            1 S1                 0.0000
     15 ****         4.3261  -0.7066  -1.2312 C.3            1 S1                 0.0000
     16 ****         5.2753  -1.7807  -1.7953 C.3            1 S1                 0.0000
     17 ****         5.3950  -2.8863  -0.9225 O.3            1 S1                 0.0000
     18 ****         2.8675  -1.1856  -1.0146 C.3            1 S1                 0.0000
     19 ****        -2.7073   1.9999   0.8589 C.ar           1 S1                 0.0000
     20 ****         2.3317  -1.8530   1.0033 H              1 S1                 0.0000
     21 ****         4.3226   0.1465  -1.9105 H              1 S1                 0.0000
     22 ****        -5.8246   3.3810   1.2475 H              1 S1                 0.0000
     23 ****        -4.5776   4.1998   0.2988 H              1 S1                 0.0000
     24 ****        -4.3256   3.8981   2.0232 H              1 S1                 0.0000
     25 ****        -5.9614   1.1391   0.2943 H              1 S1                 0.0000
     26 ****        -6.0514  -1.1293  -0.5584 H              1 S1                 0.0000
     27 ****        -4.9776  -2.1381   0.4174 H              1 S1                 0.0000
     28 ****        -4.5798  -1.7954  -1.2712 H              1 S1                 0.0000
     29 ****        -0.2690   1.5601   0.9427 H              1 S1                 0.0000
     30 ****         1.5958   0.9348   0.9137 H              1 S1                 0.0000
     31 ****         3.8539   0.0065   2.0623 H              1 S1                 0.0000
     32 ****         5.7249   0.2127   0.3077 H              1 S1                 0.0000
     33 ****         4.9152  -2.1318  -2.7627 H              1 S1                 0.0000
     34 ****         6.2671  -1.3586  -1.9595 H              1 S1                 0.0000
     35 ****         5.9804  -3.5166  -1.3137 H              1 S1                 0.0000
     36 ****         2.7558  -2.2470  -1.2386 H              1 S1                 0.0000
     37 ****         2.1953  -0.6559  -1.6912 H              1 S1                 0.0000
     38 ****        -2.0880   2.8315   1.1630 H              1 S1                 0.0000
     39 ****        -2.4653  -1.1807  -0.0595 LP             1 S1                 0.0000
     40 ****        -1.2315  -1.6697  -0.0313 LP             1 S1                 0.0000
     41 ****         0.4185  -2.1962  -0.0420 LP             1 S1                 0.0000
     42 ****         4.4970  -3.3029  -0.7811 LP             1 S1                 0.0000
     43 ****         5.7641  -2.5836  -0.0438 LP             1 S1                 0.0000
@<TRIPOS>BOND
    1    1    2 1     
    2    1   22 1     
    3    1   23 1     
    4    1   24 1     
    5    2   19 ar    
    6    2    3 ar    
    7    3    4 ar    
    8    3   25 1     
    9    4    5 1     
   10    4    6 ar    
   11    5   26 1     
   12    5   27 1     
   13    5   28 1     
   14    6    7 ar    
   15    7    8 1     
   16    7   19 ar    
   17    8    9 am    
   18    8   29 1     
   19    9   10 2     
   20    9   11 am    
   21   11   12 1     
   22   11   30 1     
   23   12   20 1     
   24   12   18 1     
   25   12   13 1     
   26   13   14 2     
   27   13   31 1     
   28   14   15 1     
   29   14   32 1     
   30   15   21 1     
   31   15   16 1     
   32   15   18 1     
   33   16   17 1     
   34   16   33 1     
   35   16   34 1     
   36   17   35 1     
   37   18   36 1     
   38   18   37 1     
   39   19   38 1     
   40    6   39 1     
   41   10   40 1     
   42   10   41 1     
   43   17   42 1     
   44   17   43 1     
@<TRIPOS>SUBSTRUCTURE
      1 S1             1
@<TRIPOS>SET
LONE_PAIRS      STATIC     ATOMS    <user>   **** ""
5 39 40 41 42 43
DONOR_HYDROGENS      STATIC     ATOMS    <user>   **** ""
3 29 30 35
ATOM$BLUE        STATIC     ATOMS    COLORGROUP SYSTEM
5 39 40 41 42 43
ATOM$RED        STATIC     ATOMS    COLORGROUP SYSTEM
3 29 30 35
