#       Name:                AV-unprocessed.smi:1075
#       Creating user name   scv26
#       Creation time:       Fri Mar 27 03:21:28 2020


#       File generated by GOLD software.
#

@<TRIPOS>MOLECULE
AV-unprocessed.smi:1075
    53    54     1
SMALL
NO_CHARGES


@<TRIPOS>ATOM
      1 ****        -0.8034   2.6278   1.9857 C.3            1 S1                 0.0000
      2 ****        -1.8606   1.7265   1.4143 C.2            1 S1                 0.0000
      3 ****        -2.9307   2.2612   0.8523 N.2            1 S1                 0.0000
      4 ****        -3.6633   1.2094   0.4380 N.pl3          1 S1                 0.0000
      5 ****        -4.9252   1.4476  -0.2357 C.3            1 S1                 0.0000
      6 ****        -3.0522   0.0058   0.7335 C.2            1 S1                 0.0000
      7 ****        -3.6669  -1.3058   0.3580 C.3            1 S1                 0.0000
      8 ****        -1.8773   0.3006   1.3787 C.2            1 S1                 0.0000
      9 ****        -0.8091  -0.6274   1.9237 C.3            1 S1                 0.0000
     10 ****        -1.3709  -1.5809   2.9957 C.3            1 S1                 0.0000
     11 ****        -0.1089  -1.3577   0.7648 C.2            1 S1                 0.0000
     12 ****        -0.0190  -2.5856   0.7583 O.2            1 S1                 0.0000
     13 ****         0.3877  -0.5695  -0.2062 N.am           1 S1                 0.0000
     14 ****         1.0902  -0.9500  -1.4385 C.3            1 S1                 0.0000
     15 ****         0.1741  -1.8313  -2.3150 C.3            1 S1                 0.0000
     16 ****         1.4153   0.3527  -2.2080 C.3            1 S1                 0.0000
     17 ****         2.4244   1.2510  -1.4676 C.3            1 S1                 0.0000
     18 ****         3.7303   0.4986  -1.1536 C.3            1 S1                 0.0000
     19 ****         4.7238   1.3900  -0.3954 C.3            1 S1                 0.0000
     20 ****         3.4314  -0.7984  -0.3795 C.3            1 S1                 0.0000
     21 ****         2.4207  -1.6849  -1.1303 C.3            1 S1                 0.0000
     22 ****         0.1546   2.4642   1.4916 H              1 S1                 0.0000
     23 ****        -0.6649   2.4387   3.0503 H              1 S1                 0.0000
     24 ****        -1.0606   3.6811   1.8674 H              1 S1                 0.0000
     25 ****        -4.8287   1.1946  -1.2917 H              1 S1                 0.0000
     26 ****        -5.2177   2.4949  -0.1478 H              1 S1                 0.0000
     27 ****        -5.7037   0.8285   0.2103 H              1 S1                 0.0000
     28 ****        -2.9170  -2.0939   0.3001 H              1 S1                 0.0000
     29 ****        -4.1527  -1.2500  -0.6161 H              1 S1                 0.0000
     30 ****        -4.4137  -1.6049   1.0934 H              1 S1                 0.0000
     31 ****        -0.0288  -0.0422   2.4114 H              1 S1                 0.0000
     32 ****        -2.1443  -2.2372   2.5974 H              1 S1                 0.0000
     33 ****        -1.8094  -1.0185   3.8204 H              1 S1                 0.0000
     34 ****        -0.5862  -2.2114   3.4157 H              1 S1                 0.0000
     35 ****         0.2498   0.4231  -0.0822 H              1 S1                 0.0000
     36 ****         0.6357  -2.0411  -3.2805 H              1 S1                 0.0000
     37 ****        -0.7807  -1.3408  -2.5085 H              1 S1                 0.0000
     38 ****        -0.0378  -2.7936  -1.8493 H              1 S1                 0.0000
     39 ****         1.8241   0.1051  -3.1887 H              1 S1                 0.0000
     40 ****         0.5000   0.9152  -2.3986 H              1 S1                 0.0000
     41 ****         2.6411   2.1291  -2.0767 H              1 S1                 0.0000
     42 ****         1.9805   1.6255  -0.5442 H              1 S1                 0.0000
     43 ****         4.1938   0.2232  -2.1021 H              1 S1                 0.0000
     44 ****         4.3218   1.7009   0.5694 H              1 S1                 0.0000
     45 ****         4.9562   2.2901  -0.9648 H              1 S1                 0.0000
     46 ****         5.6615   0.8649  -0.2119 H              1 S1                 0.0000
     47 ****         4.3551  -1.3561  -0.2229 H              1 S1                 0.0000
     48 ****         3.0481  -0.5599   0.6135 H              1 S1                 0.0000
     49 ****         2.2412  -2.5969  -0.5610 H              1 S1                 0.0000
     50 ****         2.8745  -2.0120  -2.0669 H              1 S1                 0.0000
     51 ****        -3.1485   3.2324   0.7559 LP             1 S1                 0.0000
     52 ****        -0.4034  -3.1191   1.5117 LP             1 S1                 0.0000
     53 ****         0.4384  -3.0494  -0.0004 LP             1 S1                 0.0000
@<TRIPOS>BOND
    1    1    2 1     
    2    1   22 1     
    3    1   23 1     
    4    1   24 1     
    5    2    8 1     
    6    2    3 2     
    7    3    4 1     
    8    4    5 1     
    9    4    6 1     
   10    5   25 1     
   11    5   26 1     
   12    5   27 1     
   13    6    7 1     
   14    6    8 2     
   15    7   28 1     
   16    7   29 1     
   17    7   30 1     
   18    8    9 1     
   19    9   10 1     
   20    9   11 1     
   21    9   31 1     
   22   10   32 1     
   23   10   33 1     
   24   10   34 1     
   25   11   12 2     
   26   11   13 am    
   27   13   14 1     
   28   13   35 1     
   29   14   21 1     
   30   14   15 1     
   31   14   16 1     
   32   15   36 1     
   33   15   37 1     
   34   15   38 1     
   35   16   17 1     
   36   16   39 1     
   37   16   40 1     
   38   17   18 1     
   39   17   41 1     
   40   17   42 1     
   41   18   19 1     
   42   18   20 1     
   43   18   43 1     
   44   19   44 1     
   45   19   45 1     
   46   19   46 1     
   47   20   21 1     
   48   20   47 1     
   49   20   48 1     
   50   21   49 1     
   51   21   50 1     
   52    3   51 1     
   53   12   52 1     
   54   12   53 1     
@<TRIPOS>SUBSTRUCTURE
      1 S1             1
@<TRIPOS>SET
LONE_PAIRS      STATIC     ATOMS    <user>   **** ""
3 51 52 53
DONOR_HYDROGENS      STATIC     ATOMS    <user>   **** ""
1 35
ATOM$BLUE        STATIC     ATOMS    COLORGROUP SYSTEM
3 51 52 53
ATOM$RED        STATIC     ATOMS    COLORGROUP SYSTEM
1 35
