AV-unprocessed.smi:511|AV-procd|sdf|2764|dock10
  -GOLD-   2262023233D 1   1.00000     0.00000
 Structure written by MMmdl.
 46 48  0  0  0  0  0  0  0  0  2 V2000
  144.6685  142.4130  155.9611 C   0  0  0  0  0  0  0  0  0  0  0  0
  145.4958  142.9096  154.9238 O   0  0  0  0  0  0  0  0  0  0  0  0
  146.3338  141.9088  154.3725 C   0  0  0  0  0  0  0  0  0  0  0  0
  147.3478  141.4726  155.4368 C   0  0  0  0  0  0  0  0  0  0  0  0
  148.2939  140.4960  154.9044 N   0  0  0  0  0  0  0  0  0  0  0  0
  148.1079  139.5754  153.9197 C   0  0  0  0  0  0  0  0  0  0  0  0
  146.9120  139.4844  153.2080 N   0  0  0  0  0  0  0  0  0  0  0  0
  146.7911  139.6023  151.7561 C   0  0  0  0  0  0  0  0  0  0  0  0
  146.6078  138.2240  151.0930 C   0  0  0  0  0  0  0  0  0  0  0  0
  145.4413  137.5082  151.6624 N   0  3  0  0  0  0  0  0  0  0  0  0
  145.2292  136.1818  151.0451 C   0  0  0  0  0  0  0  0  0  0  0  0
  145.5020  137.4461  153.1420 C   0  0  0  0  0  0  0  0  0  0  0  0
  145.7067  138.8510  153.7344 C   0  0  0  0  0  0  0  0  0  0  0  0
  149.1463  138.7604  153.7128 N   0  0  0  0  0  0  0  0  0  0  0  0
  150.0855  139.2179  154.6243 C   0  0  0  0  0  0  0  0  0  0  0  0
  149.5943  140.2544  155.3484 C   0  0  0  0  0  0  0  0  0  0  0  0
  150.3716  140.9136  156.4052 C   0  0  0  0  0  0  0  0  0  0  0  0
  149.9403  141.8430  157.0836 O   0  0  0  0  0  0  0  0  0  0  0  0
  151.6125  140.3893  156.5561 N   0  0  0  0  0  0  0  0  0  0  0  0
  152.1703  139.3539  155.8565 C   0  0  0  0  0  0  0  0  0  0  0  0
  153.3198  138.9961  156.1107 O   0  0  0  0  0  0  0  0  0  0  0  0
  151.4042  138.7547  154.8870 N   0  0  0  0  0  0  0  0  0  0  0  0
  151.9054  137.6370  154.0848 C   0  0  0  0  0  0  0  0  0  0  0  0
  152.1920  140.8103  157.2677 H   0  0  0  0  0  0  0  0  0  0  0  0
  144.0435  143.2177  156.3484 H   0  0  0  0  0  0  0  0  0  0  0  0
  145.2633  142.0216  156.7873 H   0  0  0  0  0  0  0  0  0  0  0  0
  144.0111  141.6224  155.5968 H   0  0  0  0  0  0  0  0  0  0  0  0
  145.7351  141.0568  154.0467 H   0  0  0  0  0  0  0  0  0  0  0  0
  146.8552  142.2996  153.4972 H   0  0  0  0  0  0  0  0  0  0  0  0
  147.8740  142.3474  155.8092 H   0  0  0  0  0  0  0  0  0  0  0  0
  146.8408  141.0452  156.3014 H   0  0  0  0  0  0  0  0  0  0  0  0
  145.9544  140.2589  151.5146 H   0  0  0  0  0  0  0  0  0  0  0  0
  147.6865  140.0665  151.3435 H   0  0  0  0  0  0  0  0  0  0  0  0
  146.4744  138.3457  150.0175 H   0  0  0  0  0  0  0  0  0  0  0  0
  147.5077  137.6235  151.2376 H   0  0  0  0  0  0  0  0  0  0  0  0
  146.0701  135.5166  151.2453 H   0  0  0  0  0  0  0  0  0  0  0  0
  145.1151  136.2740  149.9645 H   0  0  0  0  0  0  0  0  0  0  0  0
  144.3240  135.7165  151.4368 H   0  0  0  0  0  0  0  0  0  0  0  0
  144.5798  137.0117  153.5296 H   0  0  0  0  0  0  0  0  0  0  0  0
  146.3184  136.7898  153.4487 H   0  0  0  0  0  0  0  0  0  0  0  0
  145.7733  138.7896  154.8215 H   0  0  0  0  0  0  0  0  0  0  0  0
  144.8456  139.4838  153.5147 H   0  0  0  0  0  0  0  0  0  0  0  0
  152.8809  137.2661  154.4009 H   0  0  0  0  0  0  0  0  0  0  0  0
  151.9902  137.9391  153.0407 H   0  0  0  0  0  0  0  0  0  0  0  0
  151.2103  136.7982  154.1362 H   0  0  0  0  0  0  0  0  0  0  0  0
  144.6298  138.0654  151.4362 H   0  0  0  0  0  0  0  0  0  0  0  0
  1  2  1  0  0  0  0
  1 25  1  0  0  0  0
  1 26  1  0  0  0  0
  1 27  1  0  0  0  0
  2  3  1  0  0  0  0
  3  4  1  0  0  0  0
  3 28  1  0  0  0  0
  3 29  1  0  0  0  0
  4  5  1  0  0  0  0
  4 30  1  0  0  0  0
  4 31  1  0  0  0  0
  5 16  1  0  0  0  0
  5  6  1  0  0  0  0
  6  7  1  0  0  0  0
  6 14  2  0  0  0  0
  7 13  1  0  0  0  0
  7  8  1  0  0  0  0
  8  9  1  0  0  0  0
  8 32  1  0  0  0  0
  8 33  1  0  0  0  0
  9 10  1  0  0  0  0
  9 34  1  0  0  0  0
  9 35  1  0  0  0  0
 10 11  1  0  0  0  0
 10 12  1  0  0  0  0
 10 46  1  0  0  0  0
 11 36  1  0  0  0  0
 11 37  1  0  0  0  0
 11 38  1  0  0  0  0
 12 13  1  0  0  0  0
 12 39  1  0  0  0  0
 12 40  1  0  0  0  0
 13 41  1  0  0  0  0
 13 42  1  0  0  0  0
 14 15  1  0  0  0  0
 15 22  1  0  0  0  0
 15 16  2  0  0  0  0
 16 17  1  0  0  0  0
 17 18  2  0  0  0  0
 17 19  1  0  0  0  0
 19 24  1  0  0  0  0
 19 20  1  0  0  0  0
 20 21  2  0  0  0  0
 20 22  1  0  0  0  0
 22 23  1  0  0  0  0
 23 43  1  0  0  0  0
 23 44  1  0  0  0  0
 23 45  1  0  0  0  0
M  CHG  1  10   1
M  END
> <s_m_source_file>
AV-unprocessed.smi

> <i_m_source_file_index>
511

> <i_lp_mmshare_version>
43012

> <i_f3d_flags>
0

> <s_epik_input>
W0NIM11uMWMoPU8pW25IXWMoPU8pYyhjMTIpbihbQ0gyXVtDSDJdT1tDSDNdKWMobjIpTjNbQ0gyXVtDSDJdTihbQ0gzXSlbQ0gyXVtDSDJdMw==

> <s_epik_cmdline>
J2VwaWtfcHl0aG9uJywgJy1waCcsICc3LjAnLCAnLXRuJywgJzgnLCAnLW1hJywgJzIwMCcsICctbWV0YWxfYmluZGluZycsICctaW1hZScsICc8aW5maWxlLm1hZT4nLCAnLW9tYWUnLCAnPG91dGZpbGUubWFlPic=

> <r_epik_Ionization_Penalty>
0.064781

> <r_epik_Ionization_Penalty_Charging>
0.0647789

> <r_epik_Ionization_Penalty_Neutral>
2.1607e-06

> <r_epik_State_Penalty>
0.0564218

> <r_epik_Charging_Adjusted_Penalty>
0.121201

> <i_epik_Tot_Q>
1

> <i_epik_Tot_abs_Q>
1

> <r_epik_Metal_State_Penalty>
0.0833038

> <b_epik_Metal_Only>
0

> <s_lp_Force_Field>
OPLS_2005

> <r_lp_Energy>
49.4722

> <b_lp_Chiralities_Consistent>
1

> <s_lp_Variant>
AV-unprocessed.smi:511-1

> <Gold.Version>
5.8.1

> <Gold.Id.Protein>
6NUR|6NUR_protein|mol2

> <Gold.PLP.Fitness>
37.9110

> <Gold.PLP.PLP>
-35.6330

> <Gold.PLP.part.hbond>
-1.8772

> <Gold.PLP.part.metal>
0.0000

> <Gold.PLP.part.buried>
5.5093

> <Gold.PLP.part.nonpolar>
-42.2351

> <Gold.PLP.part.repulsive>
3.3241

> <Gold.PLP.ligand.clash>
0.0000

> <Gold.PLP.ligand.torsion>
1.6455

> <Gold.PLP.Chemscore.Hbond>
1.6708

> <Gold.PLP.Chemscore.CHOScore>
0.0000

> <Gold.PLP.Chemscore.Metal>
0.0000

> <Gold.Chemscore.Hbonds>
donor molecule, donor type, donor heavy atom, donor atom, acceptor molecule, acceptor atom, score
      L1  H    10    46       P1 10171  0.66
      P1  H  7997  8009       L1    21  0.99

> <Gold.PLP.Chemscore.Internal.Correction>
0.5566

> <Gold.Rescore>
     Score         DG    S(hbond)    S(metal)    S(lipo)     H(rot)  DE(clash)    DE(int)     intcor
      8.76     -12.76       1.33        0.00      57.32       1.51       0.78       3.23       ----

> <Gold.Chemscore.Fitness>
8.7600

> <Gold.Chemscore.DG>
-12.7626

> <Gold.Chemscore.ZeroCoef>
-5.4800

> <Gold.Chemscore.Hbond>
1.3286

> <Gold.Chemscore.Metal>
0.0000

> <Gold.Chemscore.Lipo>
57.3242

> <Gold.Chemscore.Internal_Hbond>
0.0000

> <Gold.Chemscore.DEClash>
0.7772

> <Gold.Chemscore.DEInternal>
3.2254

> <Gold.Chemscore.Rot>
1.5086

> <Gold.Chemscore.Internal.Correction>
   9.000000E+99

> <Gold.Chemscore.Hbonds>
donor molecule, donor type, donor heavy atom, donor atom, acceptor molecule, acceptor atom, score
      L1  H    10    46       P1 10171  0.66
      P1  H  7997  8009       L1    21  0.86

> <Gold.Chemscore.Hbond.Weighted>
-4.4377

> <Gold.Chemscore.Metal.Weighted>
-0.0000

> <Gold.Chemscore.Lipo.Weighted>
-6.7069

> <Gold.Chemscore.Internal_Hbond.Weighted>
0.0000

> <Gold.Chemscore.DEClash.Weighted>
0.7772

> <Gold.Chemscore.DEInternal.Weighted>
3.2254

> <Gold.Chemscore.Rot.Weighted>
3.8620

> <Gold.Chemscore.Internal.Correction.Weighted>
   9.000000E+99

> <Gold.Protein.RotatedTorsions>
[ 6907 6896 6895 6894 ] final  -44.96 input  -60.11 | X-H torsion
[ 7974 7965 7964 7962 ] final   85.96 input  175.53 | X-H torsion
[ 8008 7997 7996 7995 ] final -167.10 input   59.86 | X-H torsion
[ 10167 10162 10161 10158 ] final  -43.33 input  -65.29 | X-H torsion
[ 10718 10713 10712 10709 ] final -141.32 input   66.30 | X-H torsion
[ 10763 10752 10751 10750 ] final  -63.58 input  -60.55 | X-H torsion
[ 11005 11000 10999 10996 ] final  117.84 input  -57.11 | X-H torsion

> <Gold.Protein.ActiveResidues>
 VAL166  LYS551  ARG553  GLY616  TRP617  ASP618  TYR619  PRO620  LYS621  CYS622 
 ASP623  PHE694  ASN695  SER759  ASP760  ASP761  ALA762  ILE779  LEU786  VAL792 
 PHE793  MET794  SER795  GLU796  ALA797  LYS798  CYS799  TRP800  GLU811  SER814 

> <Gold.Protein.RotatedAtoms>
  150.9272  134.8688  159.7527 H   0  0  0  0  0  0  0  0  0  0  0  0  # atno 6907 bound_to 6896
  152.5021  134.4132  159.9466 H   0  0  0  0  0  0  0  0  0  0  0  0  # atno 6908 bound_to 6896
  151.4162  133.3672  159.2785 H   0  0  0  0  0  0  0  0  0  0  0  0  # atno 6909 bound_to 6896
  145.5785  139.2322  143.2366 H   0  0  0  0  0  0  0  0  0  0  0  0  # atno 7974 bound_to 7965
  155.8730  140.0996  157.1537 H   0  0  0  0  0  0  0  0  0  0  0  0  # atno 8008 bound_to 7997
  154.3998  140.1343  156.4165 H   0  0  0  0  0  0  0  0  0  0  0  0  # atno 8009 bound_to 7997
  155.7729  140.3460  155.5258 H   0  0  0  0  0  0  0  0  0  0  0  0  # atno 8010 bound_to 7997
  140.6938  143.2989  151.3336 H   0  0  0  0  0  0  0  0  0  0  0  0  # atno 10167 bound_to 10162
  156.3326  130.7594  151.1715 H   0  0  0  0  0  0  0  0  0  0  0  0  # atno 10718 bound_to 10713
  154.3172  135.6203  153.5492 H   0  0  0  0  0  0  0  0  0  0  0  0  # atno 10763 bound_to 10752
  152.9823  135.5715  154.5110 H   0  0  0  0  0  0  0  0  0  0  0  0  # atno 10764 bound_to 10752
  154.4771  135.2861  155.1575 H   0  0  0  0  0  0  0  0  0  0  0  0  # atno 10765 bound_to 10752
  139.9088  134.9614  156.7412 H   0  0  0  0  0  0  0  0  0  0  0  0  # atno 11005 bound_to 11000
  146.1733  140.6612  142.9223 LP  0  0  0  0  0  0  0  0  0  0  0  0  # atno 17320 bound_to 7965
  144.7405  140.4928  143.6873 LP  0  0  0  0  0  0  0  0  0  0  0  0  # atno 17321 bound_to 7965
  139.6369  144.0613  152.2523 LP  0  0  0  0  0  0  0  0  0  0  0  0  # atno 17342 bound_to 10162
  140.0106  144.6226  150.7650 LP  0  0  0  0  0  0  0  0  0  0  0  0  # atno 17343 bound_to 10162
  157.7433  131.0477  150.4957 LP  0  0  0  0  0  0  0  0  0  0  0  0  # atno 17370 bound_to 10713
  156.5125  130.4143  149.6293 LP  0  0  0  0  0  0  0  0  0  0  0  0  # atno 17371 bound_to 10713
  140.6848  133.9442  155.7931 LP  0  0  0  0  0  0  0  0  0  0  0  0  # atno 17394 bound_to 11000
  141.0484  134.0520  157.3815 LP  0  0  0  0  0  0  0  0  0  0  0  0  # atno 17395 bound_to 11000

$$$$
