AV-unprocessed.smi:256|AV-procd|sdf|1961|dock5
  -GOLD-   2262021103D 1   1.00000     0.00000
 Structure written by MMmdl.
 61 64  0  0  0  0  0  0  0  0  1 V2000
  152.7438  143.1594  160.3500 C   0  0  0  0  0  0  0  0  0  0  0  0
  153.3977  141.9325  161.0083 C   0  0  0  0  0  0  0  0  0  0  0  0
  153.6722  140.7446  160.0559 C   0  0  2  0  0  0  0  0  0  0  0  0
  152.5849  140.7240  158.9525 C   0  0  0  0  0  0  0  0  0  0  0  0
  152.8560  139.6838  157.9630 N   0  0  0  0  0  0  0  0  0  0  0  0
  152.1455  139.6998  156.8058 C   0  0  0  0  0  0  0  0  0  0  0  0
  152.5050  138.8869  155.7756 N   0  0  0  0  0  0  0  0  0  0  0  0
  151.8150  138.8991  154.6316 C   0  0  0  0  0  0  0  0  0  0  0  0
  150.7488  139.6325  154.3083 N   0  0  0  0  0  0  0  0  0  0  0  0
  150.3784  140.4466  155.3375 C   0  0  0  0  0  0  0  0  0  0  0  0
  151.0124  140.5398  156.6093 C   0  0  0  0  0  0  0  0  0  0  0  0
  150.3393  141.4602  157.4047 N   0  0  0  0  0  0  0  0  0  0  0  0
  149.3716  141.8929  156.6441 C   0  0  0  0  0  0  0  0  0  0  0  0
  149.3264  141.3448  155.3822 N   0  0  0  0  0  0  0  0  0  0  0  0
  148.3601  141.6453  154.3364 C   0  0  0  0  0  0  0  0  0  0  0  0
  147.1715  140.6538  154.2707 C   0  0  0  0  0  0  0  0  0  0  0  0
  146.2345  141.1621  153.3373 O   0  0  0  0  0  0  0  0  0  0  0  0
  147.6512  139.2747  153.7747 C   0  0  0  0  0  0  0  0  0  0  0  0
  146.5431  138.2100  153.8561 C   0  0  0  0  0  0  0  0  0  0  0  0
  146.0380  138.1350  155.1836 O   0  0  0  0  0  0  0  0  0  0  0  0
  145.4251  139.3462  155.6078 C   0  0  0  0  0  0  0  0  0  0  0  0
  146.4603  140.4846  155.6315 C   0  0  0  0  0  0  0  0  0  0  0  0
  153.0150  138.3687  158.5712 C   0  0  0  0  0  0  0  0  0  0  0  0
  154.1066  138.4297  159.6476 C   0  0  0  0  0  0  0  0  0  0  0  0
  153.8319  139.4173  160.6979 N   0  0  0  0  0  0  0  0  0  0  0  0
  154.9169  139.3679  161.6899 C   0  0  0  0  0  0  0  0  0  0  0  0
  154.9676  138.1010  162.5600 C   0  0  0  0  0  0  0  0  0  0  0  0
  155.7271  138.3889  163.7222 O   0  0  0  0  0  0  0  0  0  0  0  0
  155.2409  137.7179  164.8717 C   0  0  0  0  0  0  0  0  0  0  0  0
  152.4881  143.9067  161.1010 H   0  0  0  0  0  0  0  0  0  0  0  0
  151.8283  142.8962  159.8208 H   0  0  0  0  0  0  0  0  0  0  0  0
  153.4139  143.6370  159.6357 H   0  0  0  0  0  0  0  0  0  0  0  0
  154.3433  142.2510  161.4486 H   0  0  0  0  0  0  0  0  0  0  0  0
  152.8053  141.6018  161.8595 H   0  0  0  0  0  0  0  0  0  0  0  0
  154.6127  140.9785  159.5536 H   0  0  0  0  0  0  0  0  0  0  0  0
  151.6017  140.5421  159.3879 H   0  0  0  0  0  0  0  0  0  0  0  0
  152.5467  141.6959  158.4582 H   0  0  0  0  0  0  0  0  0  0  0  0
  152.1676  138.2241  153.8659 H   0  0  0  0  0  0  0  0  0  0  0  0
  148.6617  142.6338  156.9828 H   0  0  0  0  0  0  0  0  0  0  0  0
  147.9976  142.6636  154.4856 H   0  0  0  0  0  0  0  0  0  0  0  0
  148.8922  141.6515  153.3843 H   0  0  0  0  0  0  0  0  0  0  0  0
  145.4539  140.6310  153.3744 H   0  0  0  0  0  0  0  0  0  0  0  0
  148.0294  139.3441  152.7538 H   0  0  0  0  0  0  0  0  0  0  0  0
  148.4907  138.9433  154.3875 H   0  0  0  0  0  0  0  0  0  0  0  0
  145.7340  138.4278  153.1574 H   0  0  0  0  0  0  0  0  0  0  0  0
  146.9436  137.2349  153.5790 H   0  0  0  0  0  0  0  0  0  0  0  0
  144.5862  139.5907  154.9544 H   0  0  0  0  0  0  0  0  0  0  0  0
  145.0127  139.1991  156.6061 H   0  0  0  0  0  0  0  0  0  0  0  0
  147.2027  140.2620  156.3991 H   0  0  0  0  0  0  0  0  0  0  0  0
  145.9734  141.4121  155.9354 H   0  0  0  0  0  0  0  0  0  0  0  0
  152.0667  138.0592  159.0127 H   0  0  0  0  0  0  0  0  0  0  0  0
  153.2804  137.6142  157.8319 H   0  0  0  0  0  0  0  0  0  0  0  0
  154.1993  137.4382  160.0925 H   0  0  0  0  0  0  0  0  0  0  0  0
  155.0666  138.6462  159.1758 H   0  0  0  0  0  0  0  0  0  0  0  0
  155.8784  139.4054  161.1754 H   0  0  0  0  0  0  0  0  0  0  0  0
  154.8974  140.2600  162.3172 H   0  0  0  0  0  0  0  0  0  0  0  0
  153.9783  137.7607  162.8561 H   0  0  0  0  0  0  0  0  0  0  0  0
  155.4394  137.2900  162.0030 H   0  0  0  0  0  0  0  0  0  0  0  0
  155.8634  137.9652  165.7318 H   0  0  0  0  0  0  0  0  0  0  0  0
  155.2673  136.6356  164.7383 H   0  0  0  0  0  0  0  0  0  0  0  0
  154.2173  138.0179  165.0998 H   0  0  0  0  0  0  0  0  0  0  0  0
  1  2  1  0  0  0  0
  1 30  1  0  0  0  0
  1 31  1  0  0  0  0
  1 32  1  0  0  0  0
  2  3  1  0  0  0  0
  2 33  1  0  0  0  0
  2 34  1  0  0  0  0
  3 25  1  0  0  0  0
  3  4  1  0  0  0  0
  3 35  1  0  0  0  0
  4  5  1  0  0  0  0
  4 36  1  0  0  0  0
  4 37  1  0  0  0  0
  5  6  1  0  0  0  0
  5 23  1  0  0  0  0
  6 11  1  0  0  0  0
  6  7  2  0  0  0  0
  7  8  1  0  0  0  0
  8  9  2  0  0  0  0
  8 38  1  0  0  0  0
  9 10  1  0  0  0  0
 10 14  1  0  0  0  0
 10 11  2  0  0  0  0
 11 12  1  0  0  0  0
 12 13  2  0  0  0  0
 13 14  1  0  0  0  0
 13 39  1  0  0  0  0
 14 15  1  0  0  0  0
 15 16  1  0  0  0  0
 15 40  1  0  0  0  0
 15 41  1  0  0  0  0
 16 22  1  0  0  0  0
 16 17  1  0  0  0  0
 16 18  1  0  0  0  0
 17 42  1  0  0  0  0
 18 19  1  0  0  0  0
 18 43  1  0  0  0  0
 18 44  1  0  0  0  0
 19 20  1  0  0  0  0
 19 45  1  0  0  0  0
 19 46  1  0  0  0  0
 20 21  1  0  0  0  0
 21 22  1  0  0  0  0
 21 47  1  0  0  0  0
 21 48  1  0  0  0  0
 22 49  1  0  0  0  0
 22 50  1  0  0  0  0
 23 24  1  0  0  0  0
 23 51  1  0  0  0  0
 23 52  1  0  0  0  0
 24 25  1  0  0  0  0
 24 53  1  0  0  0  0
 24 54  1  0  0  0  0
 25 26  1  0  0  0  0
 26 27  1  0  0  0  0
 26 55  1  0  0  0  0
 26 56  1  0  0  0  0
 27 28  1  0  0  0  0
 27 57  1  0  0  0  0
 27 58  1  0  0  0  0
 28 29  1  0  0  0  0
 29 59  1  0  0  0  0
 29 60  1  0  0  0  0
 29 61  1  0  0  0  0
M  END
> <s_m_source_file>
AV-unprocessed.smi

> <i_m_source_file_index>
256

> <i_lp_mmshare_version>
43012

> <i_f3d_flags>
0

> <s_epik_input>
W0NIM11PW0NIMl1bQ0gyXU4xW0NIMl1bQ0gyXU4oW0NIMl1bQ0BIXTFbQ0gyXVtDSDNdKWMobltjSF1uMiljKGMyMyluW2NIXW4zW0NIMl1DNChbT0hdKVtDSDJdW0NIMl1PW0NIMl1bQ0gyXTQ=

> <s_epik_cmdline>
J2VwaWtfcHl0aG9uJywgJy1waCcsICc3LjAnLCAnLXRuJywgJzgnLCAnLW1hJywgJzIwMCcsICctbWV0YWxfYmluZGluZycsICctaW1hZScsICc8aW5maWxlLm1hZT4nLCAnLW9tYWUnLCAnPG91dGZpbGUubWFlPic=

> <r_lp_tautomer_probability>
1

> <r_epik_Ionization_Penalty>
0.676279

> <r_epik_Ionization_Penalty_Charging>
0

> <r_epik_Ionization_Penalty_Neutral>
0.676279

> <r_epik_State_Penalty>
0.6855

> <r_epik_Charging_Adjusted_Penalty>
0.6855

> <i_epik_Tot_Q>
0

> <i_epik_Tot_abs_Q>
0

> <r_epik_Metal_State_Penalty>
0.678557

> <b_epik_Metal_Only>
0

> <s_lp_Force_Field>
OPLS_2005

> <r_lp_Energy>
62.0394

> <b_lp_Chiralities_Consistent>
1

> <s_lp_Variant>
AV-unprocessed.smi:256-5

> <Gold.Version>
5.8.1

> <Gold.Id.Protein>
6NUR|6NUR_protein|mol2

> <Gold.PLP.Fitness>
51.0797

> <Gold.PLP.PLP>
-44.2950

> <Gold.PLP.part.hbond>
-3.3333

> <Gold.PLP.part.metal>
0.0000

> <Gold.PLP.part.buried>
-2.2960

> <Gold.PLP.part.nonpolar>
-38.3833

> <Gold.PLP.part.repulsive>
0.2481

> <Gold.PLP.ligand.clash>
0.0000

> <Gold.PLP.ligand.torsion>
1.1798

> <Gold.PLP.Chemscore.Hbond>
2.2130

> <Gold.PLP.Chemscore.CHOScore>
0.7030

> <Gold.PLP.Chemscore.Metal>
0.0000

> <Gold.Chemscore.Hbonds>
donor molecule, donor type, donor heavy atom, donor atom, acceptor molecule, acceptor atom, score
      L1  H    17    42       P1 10175  0.77
      P1  H  7989  7998       L1     9  0.56
      P1  H  7997  8010       L1     5  0.80
      L1  C    13    39       P1  8028  0.63

> <Gold.PLP.Chemscore.Internal.Correction>
0.3962

> <Gold.Rescore>
     Score         DG    S(hbond)    S(metal)    S(lipo)     H(rot)  DE(clash)    DE(int)     intcor
      9.57     -12.20       0.75        0.00      98.71       2.87       0.15       2.48       ----

> <Gold.Chemscore.Fitness>
9.5698

> <Gold.Chemscore.DG>
-12.1994

> <Gold.Chemscore.ZeroCoef>
-5.4800

> <Gold.Chemscore.Hbond>
0.7539

> <Gold.Chemscore.Metal>
0.0000

> <Gold.Chemscore.Lipo>
98.7057

> <Gold.Chemscore.Internal_Hbond>
0.0000

> <Gold.Chemscore.DEClash>
0.1484

> <Gold.Chemscore.DEInternal>
2.4812

> <Gold.Chemscore.Rot>
2.8700

> <Gold.Chemscore.Internal.Correction>
   9.000000E+99

> <Gold.Chemscore.Hbonds>
donor molecule, donor type, donor heavy atom, donor atom, acceptor molecule, acceptor atom, score
      L1  H    17    42       P1 10175  0.69
      P1  H  7989  7998       L1     9  0.01
      P1  H  7997  8010       L1     5  0.03

> <Gold.Chemscore.Hbond.Weighted>
-2.5181

> <Gold.Chemscore.Metal.Weighted>
-0.0000

> <Gold.Chemscore.Lipo.Weighted>
-11.5486

> <Gold.Chemscore.Internal_Hbond.Weighted>
0.0000

> <Gold.Chemscore.DEClash.Weighted>
0.1484

> <Gold.Chemscore.DEInternal.Weighted>
2.4812

> <Gold.Chemscore.Rot.Weighted>
7.3472

> <Gold.Chemscore.Internal.Correction.Weighted>
   9.000000E+99

> <Gold.Protein.RotatedTorsions>
[ 6907 6896 6895 6894 ] final  161.27 input  -60.11 | X-H torsion
[ 7974 7965 7964 7962 ] final  174.12 input  175.53 | X-H torsion
[ 8008 7997 7996 7995 ] final   25.28 input   59.86 | X-H torsion
[ 10167 10162 10161 10158 ] final -128.67 input  -65.29 | X-H torsion
[ 10718 10713 10712 10709 ] final  156.41 input   66.30 | X-H torsion
[ 10763 10752 10751 10750 ] final -131.15 input  -60.55 | X-H torsion
[ 11005 11000 10999 10996 ] final -153.80 input  -57.11 | X-H torsion

> <Gold.Protein.ActiveResidues>
 VAL166  LYS551  ARG553  GLY616  TRP617  ASP618  TYR619  PRO620  LYS621  CYS622 
 ASP623  PHE694  ASN695  SER759  ASP760  ASP761  ALA762  ILE779  LEU786  VAL792 
 PHE793  MET794  SER795  GLU796  ALA797  LYS798  CYS799  TRP800  GLU811  SER814 

> <Gold.Protein.RotatedAtoms>
  151.9580  133.3686  159.4024 H   0  0  0  0  0  0  0  0  0  0  0  0  # atno 6907 bound_to 6896
  150.6969  134.4270  159.5240 H   0  0  0  0  0  0  0  0  0  0  0  0  # atno 6908 bound_to 6896
  152.1954  134.8635  160.0564 H   0  0  0  0  0  0  0  0  0  0  0  0  # atno 6909 bound_to 6896
  144.7228  139.9749  143.6438 H   0  0  0  0  0  0  0  0  0  0  0  0  # atno 7974 bound_to 7965
  155.0092  140.3134  155.4836 H   0  0  0  0  0  0  0  0  0  0  0  0  # atno 8008 bound_to 7997
  156.2912  140.2217  156.5147 H   0  0  0  0  0  0  0  0  0  0  0  0  # atno 8009 bound_to 7997
  154.7549  140.0463  157.0913 H   0  0  0  0  0  0  0  0  0  0  0  0  # atno 8010 bound_to 7997
  139.9479  143.6089  152.2484 H   0  0  0  0  0  0  0  0  0  0  0  0  # atno 10167 bound_to 10162
  157.2053  131.0685  151.2001 H   0  0  0  0  0  0  0  0  0  0  0  0  # atno 10718 bound_to 10713
  154.8752  135.3839  154.4199 H   0  0  0  0  0  0  0  0  0  0  0  0  # atno 10763 bound_to 10752
  153.4904  135.7030  153.5892 H   0  0  0  0  0  0  0  0  0  0  0  0  # atno 10764 bound_to 10752
  153.4268  135.3888  155.2113 H   0  0  0  0  0  0  0  0  0  0  0  0  # atno 10765 bound_to 10752
  140.7042  134.3904  157.5206 H   0  0  0  0  0  0  0  0  0  0  0  0  # atno 11005 bound_to 11000
  146.0533  139.3532  143.0626 LP  0  0  0  0  0  0  0  0  0  0  0  0  # atno 17320 bound_to 7965
  145.8187  140.9690  143.0910 LP  0  0  0  0  0  0  0  0  0  0  0  0  # atno 17321 bound_to 7965
  139.6652  144.7662  151.1887 LP  0  0  0  0  0  0  0  0  0  0  0  0  # atno 17342 bound_to 10162
  140.7592  143.5949  150.8759 LP  0  0  0  0  0  0  0  0  0  0  0  0  # atno 17343 bound_to 10162
  157.3727  130.7189  149.6576 LP  0  0  0  0  0  0  0  0  0  0  0  0  # atno 17370 bound_to 10713
  155.9696  130.4194  150.4375 LP  0  0  0  0  0  0  0  0  0  0  0  0  # atno 17371 bound_to 10713
  139.8888  134.8845  156.2452 LP  0  0  0  0  0  0  0  0  0  0  0  0  # atno 17394 bound_to 11000
  141.0138  133.7080  156.1155 LP  0  0  0  0  0  0  0  0  0  0  0  0  # atno 17395 bound_to 11000

$$$$
