AV-unprocessed.smi:1612|AV-procd|sdf|6477|dock9
  -GOLD-   22720 7143D 1   1.00000     0.00000
 Structure written by MMmdl.
 37 38  0  0  0  0  0  0  0  0  1 V2000
  147.6227  140.8351  153.5883 C   0  0  0  0  0  0  0  0  0  0  0  0
  147.3243  141.1724  155.0659 C   0  0  1  0  0  0  0  0  0  0  0  0
  148.3379  142.0545  155.6553 N   0  0  0  0  0  0  0  0  0  0  0  0
  149.2571  141.7502  156.5873 C   0  0  0  0  0  0  0  0  0  0  0  0
  149.4191  140.6208  157.0489 O   0  0  0  0  0  0  0  0  0  0  0  0
  149.9713  142.8365  156.9310 N   0  0  0  0  0  0  0  0  0  0  0  0
  151.0308  142.9299  157.8731 C   0  0  0  0  0  0  0  0  0  0  0  0
  151.6311  144.2055  157.9737 C   0  0  0  0  0  0  0  0  0  0  0  0
  152.6914  144.4027  158.8793 C   0  0  0  0  0  0  0  0  0  0  0  0
  153.1255  143.3178  159.6618 C   0  0  0  0  0  0  0  0  0  0  0  0
  152.4740  142.0814  159.5001 C   0  0  0  0  0  0  0  0  0  0  0  0
  151.4574  141.8904  158.6331 N   0  0  0  0  0  0  0  0  0  0  0  0
  145.8931  141.6891  155.3220 C   0  0  0  0  0  0  0  0  0  0  0  0
  145.1722  141.0824  156.1153 O   0  0  0  0  0  0  0  0  0  0  0  0
  145.4571  142.7852  154.6625 N   0  0  0  0  0  0  0  0  0  0  0  0
  144.1333  143.3987  154.7762 C   0  0  0  0  0  0  0  0  0  0  0  0
  144.2210  144.7220  154.0154 C   0  0  0  0  0  0  0  0  0  0  0  0
  145.3345  144.4965  153.0030 C   0  0  0  0  0  0  0  0  0  0  0  0
  146.2796  143.5192  153.7018 C   0  0  0  0  0  0  0  0  0  0  0  0
  146.9351  140.0733  153.2196 H   0  0  0  0  0  0  0  0  0  0  0  0
  148.6334  140.4423  153.4729 H   0  0  0  0  0  0  0  0  0  0  0  0
  147.5256  141.6994  152.9312 H   0  0  0  0  0  0  0  0  0  0  0  0
  147.4210  140.2264  155.5985 H   0  0  0  0  0  0  0  0  0  0  0  0
  148.3128  143.0129  155.3395 H   0  0  0  0  0  0  0  0  0  0  0  0
  149.7273  143.6990  156.4673 H   0  0  0  0  0  0  0  0  0  0  0  0
  151.2850  145.0283  157.3650 H   0  0  0  0  0  0  0  0  0  0  0  0
  153.1629  145.3700  158.9713 H   0  0  0  0  0  0  0  0  0  0  0  0
  153.9357  143.4298  160.3671 H   0  0  0  0  0  0  0  0  0  0  0  0
  152.7766  141.2234  160.0819 H   0  0  0  0  0  0  0  0  0  0  0  0
  143.3959  142.7433  154.3109 H   0  0  0  0  0  0  0  0  0  0  0  0
  143.8368  143.5670  155.8117 H   0  0  0  0  0  0  0  0  0  0  0  0
  143.2768  145.0060  153.5501 H   0  0  0  0  0  0  0  0  0  0  0  0
  144.5090  145.5196  154.7015 H   0  0  0  0  0  0  0  0  0  0  0  0
  144.9231  144.0307  152.1065 H   0  0  0  0  0  0  0  0  0  0  0  0
  145.8286  145.4208  152.7024 H   0  0  0  0  0  0  0  0  0  0  0  0
  147.0579  144.0593  154.2430 H   0  0  0  0  0  0  0  0  0  0  0  0
  146.7644  142.8565  152.9831 H   0  0  0  0  0  0  0  0  0  0  0  0
  1  2  1  0  0  0  0
  1 20  1  0  0  0  0
  1 21  1  0  0  0  0
  1 22  1  0  0  0  0
  2  3  1  0  0  0  0
  2 13  1  0  0  0  0
  2 23  1  0  0  0  0
  3  4  1  0  0  0  0
  3 24  1  0  0  0  0
  4  5  2  0  0  0  0
  4  6  1  0  0  0  0
  6  7  1  0  0  0  0
  6 25  1  0  0  0  0
  7 12  1  0  0  0  0
  7  8  2  0  0  0  0
  8  9  1  0  0  0  0
  8 26  1  0  0  0  0
  9 10  2  0  0  0  0
  9 27  1  0  0  0  0
 10 11  1  0  0  0  0
 10 28  1  0  0  0  0
 11 12  2  0  0  0  0
 11 29  1  0  0  0  0
 13 14  2  0  0  0  0
 13 15  1  0  0  0  0
 15 19  1  0  0  0  0
 15 16  1  0  0  0  0
 16 17  1  0  0  0  0
 16 30  1  0  0  0  0
 16 31  1  0  0  0  0
 17 18  1  0  0  0  0
 17 32  1  0  0  0  0
 17 33  1  0  0  0  0
 18 19  1  0  0  0  0
 18 34  1  0  0  0  0
 18 35  1  0  0  0  0
 19 36  1  0  0  0  0
 19 37  1  0  0  0  0
M  END
> <s_m_source_file>
AV-unprocessed.smi

> <i_m_source_file_index>
1612

> <i_lp_mmshare_version>
43012

> <i_f3d_flags>
0

> <s_epik_input>
W0NIMl0xW0NIMl1bQ0gyXVtDSDJdTjFDKD1PKVtDQEhdKFtDSDNdKVtOSF1DKD1PKVtOSF1jMltjSF1bY0hdW2NIXVtjSF1uMg==

> <s_epik_cmdline>
J2VwaWtfcHl0aG9uJywgJy1waCcsICc3LjAnLCAnLXRuJywgJzgnLCAnLW1hJywgJzIwMCcsICctbWV0YWxfYmluZGluZycsICctaW1hZScsICc8aW5maWxlLm1hZT4nLCAnLW9tYWUnLCAnPG91dGZpbGUubWFlPic=

> <r_lp_tautomer_probability>
1

> <r_epik_Ionization_Penalty>
3.95281e-05

> <r_epik_Ionization_Penalty_Charging>
0

> <r_epik_Ionization_Penalty_Neutral>
3.95281e-05

> <r_epik_State_Penalty>
-0

> <r_epik_Charging_Adjusted_Penalty>
0

> <i_epik_Tot_Q>
0

> <i_epik_Tot_abs_Q>
0

> <r_epik_Metal_State_Penalty>
-0

> <b_epik_Metal_Only>
0

> <s_lp_Force_Field>
OPLS_2005

> <r_lp_Energy>
35.1648

> <b_lp_Chiralities_Consistent>
1

> <s_lp_Variant>
AV-unprocessed.smi:1612-2

> <Gold.Version>
5.8.1

> <Gold.Id.Protein>
6NUR|6NUR_protein|mol2

> <Gold.PLP.Fitness>
44.5901

> <Gold.PLP.PLP>
-38.8748

> <Gold.PLP.part.hbond>
-2.0000

> <Gold.PLP.part.metal>
0.0000

> <Gold.PLP.part.buried>
-5.0979

> <Gold.PLP.part.nonpolar>
-33.1202

> <Gold.PLP.part.repulsive>
0.1891

> <Gold.PLP.ligand.clash>
0.0000

> <Gold.PLP.ligand.torsion>
0.1769

> <Gold.PLP.Chemscore.Hbond>
1.9760

> <Gold.PLP.Chemscore.CHOScore>
0.0000

> <Gold.PLP.Chemscore.Metal>
0.0000

> <Gold.Chemscore.Hbonds>
donor molecule, donor type, donor heavy atom, donor atom, acceptor molecule, acceptor atom, score
      L1  H     3    24       P1  8028  0.94
      L1  H     6    25       P1  8028  1.00

> <Gold.PLP.Chemscore.Internal.Correction>
0.1412

> <Gold.Rescore>
     Score         DG    S(hbond)    S(metal)    S(lipo)     H(rot)  DE(clash)    DE(int)     intcor
     16.33     -18.32       1.89        0.00      84.19       1.30       0.07       1.91       ----

> <Gold.Chemscore.Fitness>
16.3327

> <Gold.Chemscore.DG>
-18.3203

> <Gold.Chemscore.ZeroCoef>
-5.4800

> <Gold.Chemscore.Hbond>
1.8929

> <Gold.Chemscore.Metal>
0.0000

> <Gold.Chemscore.Lipo>
84.1906

> <Gold.Chemscore.Internal_Hbond>
0.0000

> <Gold.Chemscore.DEClash>
0.0740

> <Gold.Chemscore.DEInternal>
1.9136

> <Gold.Chemscore.Rot>
1.3016

> <Gold.Chemscore.Internal.Correction>
   9.000000E+99

> <Gold.Chemscore.Hbonds>
donor molecule, donor type, donor heavy atom, donor atom, acceptor molecule, acceptor atom, score
      L1  H     3    24       P1  8028  0.89
      L1  H     6    25       P1  8028  0.94

> <Gold.Chemscore.Hbond.Weighted>
-6.3221

> <Gold.Chemscore.Metal.Weighted>
-0.0000

> <Gold.Chemscore.Lipo.Weighted>
-9.8503

> <Gold.Chemscore.Internal_Hbond.Weighted>
0.0000

> <Gold.Chemscore.DEClash.Weighted>
0.0740

> <Gold.Chemscore.DEInternal.Weighted>
1.9136

> <Gold.Chemscore.Rot.Weighted>
3.3322

> <Gold.Chemscore.Internal.Correction.Weighted>
   9.000000E+99

> <Gold.Protein.RotatedTorsions>
[ 6907 6896 6895 6894 ] final  166.41 input  -60.11 | X-H torsion
[ 7974 7965 7964 7962 ] final   96.03 input  175.53 | X-H torsion
[ 8008 7997 7996 7995 ] final  -33.32 input   59.86 | X-H torsion
[ 10167 10162 10161 10158 ] final   38.25 input  -65.29 | X-H torsion
[ 10718 10713 10712 10709 ] final  110.84 input   66.30 | X-H torsion
[ 10763 10752 10751 10750 ] final -138.00 input  -60.55 | X-H torsion
[ 11005 11000 10999 10996 ] final  101.34 input  -57.11 | X-H torsion

> <Gold.Protein.ActiveResidues>
 VAL166  LYS551  ARG553  GLY616  TRP617  ASP618  TYR619  PRO620  LYS621  CYS622 
 ASP623  PHE694  ASN695  SER759  ASP760  ASP761  ALA762  ILE779  LEU786  VAL792 
 PHE793  MET794  SER795  GLU796  ALA797  LYS798  CYS799  TRP800  GLU811  SER814 

> <Gold.Protein.RotatedAtoms>
  151.8793  133.3492  159.3760 H   0  0  0  0  0  0  0  0  0  0  0  0  # atno 6907 bound_to 6896
  150.7132  134.5034  159.5582 H   0  0  0  0  0  0  0  0  0  0  0  0  # atno 6908 bound_to 6896
  152.2583  134.8061  160.0486 H   0  0  0  0  0  0  0  0  0  0  0  0  # atno 6909 bound_to 6896
  145.4443  139.2298  143.3075 H   0  0  0  0  0  0  0  0  0  0  0  0  # atno 7974 bound_to 7965
  154.4152  140.1714  156.1869 H   0  0  0  0  0  0  0  0  0  0  0  0  # atno 8008 bound_to 7997
  155.9636  140.3391  155.6489 H   0  0  0  0  0  0  0  0  0  0  0  0  # atno 8009 bound_to 7997
  155.6717  140.0712  157.2508 H   0  0  0  0  0  0  0  0  0  0  0  0  # atno 8010 bound_to 7997
  140.3954  144.1795  150.6132 H   0  0  0  0  0  0  0  0  0  0  0  0  # atno 10167 bound_to 10162
  157.6474  131.0940  150.6660 H   0  0  0  0  0  0  0  0  0  0  0  0  # atno 10718 bound_to 10713
  154.8648  135.3625  154.5314 H   0  0  0  0  0  0  0  0  0  0  0  0  # atno 10763 bound_to 10752
  153.5939  135.7015  153.5416 H   0  0  0  0  0  0  0  0  0  0  0  0  # atno 10764 bound_to 10752
  153.3349  135.4114  155.1487 H   0  0  0  0  0  0  0  0  0  0  0  0  # atno 10765 bound_to 10752
  139.8773  134.9179  156.4893 H   0  0  0  0  0  0  0  0  0  0  0  0  # atno 11005 bound_to 11000
  146.2539  140.5194  142.8881 LP  0  0  0  0  0  0  0  0  0  0  0  0  # atno 17320 bound_to 7965
  144.8102  140.6371  143.6420 LP  0  0  0  0  0  0  0  0  0  0  0  0  # atno 17321 bound_to 7965
  140.4795  143.2384  151.8975 LP  0  0  0  0  0  0  0  0  0  0  0  0  # atno 17342 bound_to 10162
  139.4787  144.5284  151.8702 LP  0  0  0  0  0  0  0  0  0  0  0  0  # atno 17343 bound_to 10162
  156.6976  130.4613  149.5582 LP  0  0  0  0  0  0  0  0  0  0  0  0  # atno 17370 bound_to 10713
  156.1818  130.6504  151.0960 LP  0  0  0  0  0  0  0  0  0  0  0  0  # atno 17371 bound_to 10713
  140.8670  133.8016  155.9325 LP  0  0  0  0  0  0  0  0  0  0  0  0  # atno 17394 bound_to 11000
  140.8991  134.2401  157.5052 LP  0  0  0  0  0  0  0  0  0  0  0  0  # atno 17395 bound_to 11000

$$$$
