#       Name:                AV-unprocessed.smi:651
#       Creating user name   scv26
#       Creation time:       Fri Mar 27 00:11:42 2020


#       File generated by GOLD software.
#

@<TRIPOS>MOLECULE
AV-unprocessed.smi:651
    43    44     1
SMALL
NO_CHARGES


@<TRIPOS>ATOM
      1 ****        -3.9036   4.2879   1.1728 C.3            1 S1                 0.0000
      2 ****        -3.3731   2.8819   0.9885 C.ar           1 S1                 0.0000
      3 ****        -3.5349   2.1667  -0.2174 C.ar           1 S1                 0.0000
      4 ****        -3.0092   0.8619  -0.3205 C.ar           1 S1                 0.0000
      5 ****        -2.3322   0.2975   0.7833 C.ar           1 S1                 0.0000
      6 ****        -1.7474  -1.1020   0.7016 C.3            1 S1                 0.0000
      7 ****        -0.2270  -1.0320   0.5588 C.2            1 S1                 0.0000
      8 ****         0.4836  -1.1443   1.5568 O.2            1 S1                 0.0000
      9 ****         0.2485  -0.8313  -0.6827 N.am           1 S1                 0.0000
     10 ****         1.6488  -0.6770  -1.0898 C.3            1 S1                 0.0000
     11 ****         2.3783   0.4840  -0.3816 C.3            1 S1                 0.0000
     12 ****         3.5079  -0.1589   0.4238 C.3            1 S1                 0.0000
     13 ****         3.8540  -1.4317  -0.3460 C.3            1 S1                 0.0000
     14 ****         2.5048  -1.9524  -0.8655 C.3            1 S1                 0.0000
     15 ****         2.6409  -2.8172  -2.1276 C.2            1 S1                 0.0000
     16 ****         2.1921  -4.0727  -2.0551 N.am           1 S1                 0.0000
     17 ****         3.1421  -2.3619  -3.1542 O.2            1 S1                 0.0000
     18 ****        -2.2052   1.0595   1.9658 C.ar           1 S1                 0.0000
     19 ****        -2.7207   2.3068   2.0235 N.pl3          1 S1                 1.0000
     20 ****        -4.5667   4.5672   0.3536 H              1 S1                 0.0000
     21 ****        -3.0799   5.0018   1.2044 H              1 S1                 0.0000
     22 ****        -4.4643   4.3671   2.1046 H              1 S1                 0.0000
     23 ****        -4.0531   2.6104  -1.0552 H              1 S1                 0.0000
     24 ****        -3.1240   0.3040  -1.2386 H              1 S1                 0.0000
     25 ****        -2.0078  -1.6583   1.6032 H              1 S1                 0.0000
     26 ****        -2.1763  -1.6472  -0.1406 H              1 S1                 0.0000
     27 ****        -0.4307  -0.7621  -1.4267 H              1 S1                 0.0000
     28 ****         1.6120  -0.4300  -2.1521 H              1 S1                 0.0000
     29 ****         2.8080   1.1481  -1.1326 H              1 S1                 0.0000
     30 ****         1.7275   1.0952   0.2446 H              1 S1                 0.0000
     31 ****         4.3652   0.5037   0.5453 H              1 S1                 0.0000
     32 ****         3.1486  -0.4202   1.4197 H              1 S1                 0.0000
     33 ****         4.5262  -1.1848  -1.1694 H              1 S1                 0.0000
     34 ****         4.3615  -2.1615   0.2858 H              1 S1                 0.0000
     35 ****         2.0677  -2.5586  -0.0706 H              1 S1                 0.0000
     36 ****         2.2554  -4.6791  -2.8600 H              1 S1                 0.0000
     37 ****         1.7861  -4.4097  -1.1941 H              1 S1                 0.0000
     38 ****        -1.7036   0.7140   2.8582 H              1 S1                 0.0000
     39 ****        -2.6109   2.8389   2.8872 H              1 S1                 0.0000
     40 ****         0.0661  -1.2805   2.4552 LP             1 S1                 0.0000
     41 ****         1.4788  -1.0993   1.4697 LP             1 S1                 0.0000
     42 ****         3.4677  -1.4166  -3.1749 LP             1 S1                 0.0000
     43 ****         3.2241  -2.9370  -3.9682 LP             1 S1                 0.0000
@<TRIPOS>BOND
    1    1    2 1     
    2    1   20 1     
    3    1   21 1     
    4    1   22 1     
    5    2   19 ar    
    6    2    3 ar    
    7    3    4 ar    
    8    3   23 1     
    9    4    5 ar    
   10    4   24 1     
   11    5    6 1     
   12    5   18 ar    
   13    6    7 1     
   14    6   25 1     
   15    6   26 1     
   16    7    8 2     
   17    7    9 am    
   18    9   10 1     
   19    9   27 1     
   20   10   14 1     
   21   10   11 1     
   22   10   28 1     
   23   11   12 1     
   24   11   29 1     
   25   11   30 1     
   26   12   13 1     
   27   12   31 1     
   28   12   32 1     
   29   13   14 1     
   30   13   33 1     
   31   13   34 1     
   32   14   15 1     
   33   14   35 1     
   34   15   16 am    
   35   15   17 2     
   36   16   36 1     
   37   16   37 1     
   38   18   19 ar    
   39   18   38 1     
   40   19   39 1     
   41    8   40 1     
   42    8   41 1     
   43   17   42 1     
   44   17   43 1     
@<TRIPOS>SUBSTRUCTURE
      1 S1             1
@<TRIPOS>SET
LONE_PAIRS      STATIC     ATOMS    <user>   **** ""
4 40 41 42 43
DONOR_HYDROGENS      STATIC     ATOMS    <user>   **** ""
4 27 36 37 39
ATOM$BLUE        STATIC     ATOMS    COLORGROUP SYSTEM
4 40 41 42 43
ATOM$RED        STATIC     ATOMS    COLORGROUP SYSTEM
4 27 36 37 39
