AV-unprocessed.smi:882|AV-procd|sdf|4037|dock10
  -GOLD-   22720 1533D 1   1.00000     0.00000
 Structure written by MMmdl.
 33 34  0  0  0  0  0  0  0  0  1 V2000
  154.2559  135.4458  164.2601 C   0  0  0  0  0  0  0  0  0  0  0  0
  154.5280  135.7427  163.1074 C   0  0  0  0  0  0  0  0  0  0  0  0
  154.8683  136.0895  161.7171 C   0  0  0  0  0  0  0  0  0  0  0  0
  154.4403  137.4350  161.3518 N   0  0  0  0  0  0  0  0  0  0  0  0
  153.3597  137.7336  160.6107 C   0  0  0  0  0  0  0  0  0  0  0  0
  152.6112  136.8850  160.1256 O   0  0  0  0  0  0  0  0  0  0  0  0
  153.1399  139.1948  160.3444 C   0  0  0  0  0  0  0  0  0  0  0  0
  153.9852  140.1857  160.8898 C   0  0  0  0  0  0  0  0  0  0  0  0
  153.7135  141.5415  160.6238 C   0  0  0  0  0  0  0  0  0  0  0  0
  152.5947  141.8792  159.8259 C   0  0  0  0  0  0  0  0  0  0  0  0
  152.3014  143.2322  159.5482 N   0  0  0  0  0  0  0  0  0  0  0  0
  151.9418  144.0521  160.7026 C   0  0  0  0  0  0  0  0  0  0  0  0
  151.9474  145.5433  160.3243 C   0  0  0  0  0  0  0  0  0  0  0  0
  151.0954  145.7605  159.2047 O   0  0  0  0  0  0  0  0  0  0  0  0
  151.5335  145.0388  158.0588 C   0  0  0  0  0  0  0  0  0  0  0  0
  151.5084  143.5303  158.3568 C   0  0  0  0  0  0  0  0  0  0  0  0
  151.7820  140.9257  159.3074 N   0  0  0  0  0  0  0  0  0  0  0  0
  152.0450  139.6274  159.5663 C   0  0  0  0  0  0  0  0  0  0  0  0
  154.0180  135.1834  165.2664 H   0  0  0  0  0  0  0  0  0  0  0  0
  155.9509  136.0234  161.6103 H   0  0  0  0  0  0  0  0  0  0  0  0
  154.4340  135.3407  161.0530 H   0  0  0  0  0  0  0  0  0  0  0  0
  155.0095  138.1986  161.6870 H   0  0  0  0  0  0  0  0  0  0  0  0
  154.8333  139.9230  161.5054 H   0  0  0  0  0  0  0  0  0  0  0  0
  154.3695  142.3002  161.0233 H   0  0  0  0  0  0  0  0  0  0  0  0
  150.9487  143.7586  161.0453 H   0  0  0  0  0  0  0  0  0  0  0  0
  152.6229  143.8974  161.5379 H   0  0  0  0  0  0  0  0  0  0  0  0
  151.5919  146.1439  161.1616 H   0  0  0  0  0  0  0  0  0  0  0  0
  152.9593  145.8826  160.0965 H   0  0  0  0  0  0  0  0  0  0  0  0
  150.8734  145.2667  157.2218 H   0  0  0  0  0  0  0  0  0  0  0  0
  152.5353  145.3624  157.7719 H   0  0  0  0  0  0  0  0  0  0  0  0
  151.8997  142.9863  157.4961 H   0  0  0  0  0  0  0  0  0  0  0  0
  150.4811  143.1984  158.5139 H   0  0  0  0  0  0  0  0  0  0  0  0
  151.3582  138.9164  159.1302 H   0  0  0  0  0  0  0  0  0  0  0  0
  1  2  3  0  0  0  0
  1 19  1  0  0  0  0
  2  3  1  0  0  0  0
  3  4  1  0  0  0  0
  3 20  1  0  0  0  0
  3 21  1  0  0  0  0
  4  5  1  0  0  0  0
  4 22  1  0  0  0  0
  5  6  2  0  0  0  0
  5  7  1  0  0  0  0
  7 18  1  0  0  0  0
  7  8  2  0  0  0  0
  8  9  1  0  0  0  0
  8 23  1  0  0  0  0
  9 10  2  0  0  0  0
  9 24  1  0  0  0  0
 10 11  1  0  0  0  0
 10 17  1  0  0  0  0
 11 16  1  0  0  0  0
 11 12  1  0  0  0  0
 12 13  1  0  0  0  0
 12 25  1  0  0  0  0
 12 26  1  0  0  0  0
 13 14  1  0  0  0  0
 13 27  1  0  0  0  0
 13 28  1  0  0  0  0
 14 15  1  0  0  0  0
 15 16  1  0  0  0  0
 15 29  1  0  0  0  0
 15 30  1  0  0  0  0
 16 31  1  0  0  0  0
 16 32  1  0  0  0  0
 17 18  2  0  0  0  0
 18 33  1  0  0  0  0
M  END
> <s_m_source_file>
AV-unprocessed.smi

> <i_m_source_file_index>
882

> <i_lp_mmshare_version>
43012

> <i_f3d_flags>
0

> <s_epik_input>
W0NIXSNDW0NIMl1bTkhdQyg9TyljMVtjSF1bY0hdYyhuW2NIXTEpTjJbQ0gyXVtDSDJdT1tDSDJdW0NIMl0y

> <s_epik_cmdline>
J2VwaWtfcHl0aG9uJywgJy1waCcsICc3LjAnLCAnLXRuJywgJzgnLCAnLW1hJywgJzIwMCcsICctbWV0YWxfYmluZGluZycsICctaW1hZScsICc8aW5maWxlLm1hZT4nLCAnLW9tYWUnLCAnPG91dGZpbGUubWFlPic=

> <r_lp_tautomer_probability>
1

> <r_epik_Ionization_Penalty>
1.53095e-05

> <r_epik_Ionization_Penalty_Charging>
0

> <r_epik_Ionization_Penalty_Neutral>
1.53095e-05

> <r_epik_State_Penalty>
-0

> <r_epik_Charging_Adjusted_Penalty>
0

> <i_epik_Tot_Q>
0

> <i_epik_Tot_abs_Q>
0

> <r_epik_Metal_State_Penalty>
-0

> <b_epik_Metal_Only>
0

> <s_lp_Force_Field>
OPLS_2005

> <r_lp_Energy>
17.8132

> <b_lp_Chiralities_Consistent>
1

> <s_lp_Variant>
AV-unprocessed.smi:882-1

> <Gold.Version>
5.8.1

> <Gold.Id.Protein>
6NUR|6NUR_protein|mol2

> <Gold.PLP.Fitness>
41.1861

> <Gold.PLP.PLP>
-38.8124

> <Gold.PLP.part.hbond>
-1.9681

> <Gold.PLP.part.metal>
0.0000

> <Gold.PLP.part.buried>
-5.9347

> <Gold.PLP.part.nonpolar>
-31.1156

> <Gold.PLP.part.repulsive>
0.1662

> <Gold.PLP.ligand.clash>
0.0000

> <Gold.PLP.ligand.torsion>
0.4687

> <Gold.PLP.Chemscore.Hbond>
0.9913

> <Gold.PLP.Chemscore.CHOScore>
0.0000

> <Gold.PLP.Chemscore.Metal>
0.0000

> <Gold.Chemscore.Hbonds>
donor molecule, donor type, donor heavy atom, donor atom, acceptor molecule, acceptor atom, score
      P1  H  6896  6909       L1     6  1.00

> <Gold.PLP.Chemscore.Internal.Correction>
0.3374

> <Gold.Rescore>
     Score         DG    S(hbond)    S(metal)    S(lipo)     H(rot)  DE(clash)    DE(int)     intcor
     17.32     -17.68       0.99        0.00     101.99       1.19       0.06       0.31       ----

> <Gold.Chemscore.Fitness>
17.3183

> <Gold.Chemscore.DG>
-17.6816

> <Gold.Chemscore.ZeroCoef>
-5.4800

> <Gold.Chemscore.Hbond>
0.9918

> <Gold.Chemscore.Metal>
0.0000

> <Gold.Chemscore.Lipo>
101.9852

> <Gold.Chemscore.Internal_Hbond>
0.0000

> <Gold.Chemscore.DEClash>
0.0575

> <Gold.Chemscore.DEInternal>
0.3058

> <Gold.Chemscore.Rot>
1.1887

> <Gold.Chemscore.Internal.Correction>
   9.000000E+99

> <Gold.Chemscore.Hbonds>
donor molecule, donor type, donor heavy atom, donor atom, acceptor molecule, acceptor atom, score
      P1  H  6896  6909       L1     6  1.00

> <Gold.Chemscore.Hbond.Weighted>
-3.3125

> <Gold.Chemscore.Metal.Weighted>
-0.0000

> <Gold.Chemscore.Lipo.Weighted>
-11.9323

> <Gold.Chemscore.Internal_Hbond.Weighted>
0.0000

> <Gold.Chemscore.DEClash.Weighted>
0.0575

> <Gold.Chemscore.DEInternal.Weighted>
0.3058

> <Gold.Chemscore.Rot.Weighted>
3.0432

> <Gold.Chemscore.Internal.Correction.Weighted>
   9.000000E+99

> <Gold.Protein.RotatedTorsions>
[ 6907 6896 6895 6894 ] final  148.72 input  -60.11 | X-H torsion
[ 7974 7965 7964 7962 ] final   38.46 input  175.53 | X-H torsion
[ 8008 7997 7996 7995 ] final -172.12 input   59.86 | X-H torsion
[ 10167 10162 10161 10158 ] final -168.18 input  -65.29 | X-H torsion
[ 10718 10713 10712 10709 ] final  144.63 input   66.30 | X-H torsion
[ 10763 10752 10751 10750 ] final   91.26 input  -60.55 | X-H torsion
[ 11005 11000 10999 10996 ] final -145.69 input  -57.11 | X-H torsion

> <Gold.Protein.ActiveResidues>
 VAL166  LYS551  ARG553  GLY616  TRP617  ASP618  TYR619  PRO620  LYS621  CYS622 
 ASP623  PHE694  ASN695  SER759  ASP760  ASP761  ALA762  ILE779  LEU786  VAL792 
 PHE793  MET794  SER795  GLU796  ALA797  LYS798  CYS799  TRP800  GLU811  SER814 

> <Gold.Protein.RotatedAtoms>
  152.1377  133.4445  159.4751 H   0  0  0  0  0  0  0  0  0  0  0  0  # atno 6907 bound_to 6896
  150.6883  134.2344  159.4456 H   0  0  0  0  0  0  0  0  0  0  0  0  # atno 6908 bound_to 6896
  152.0232  134.9810  160.0621 H   0  0  0  0  0  0  0  0  0  0  0  0  # atno 6909 bound_to 6896
  146.1060  139.5769  142.9383 H   0  0  0  0  0  0  0  0  0  0  0  0  # atno 7974 bound_to 7965
  155.9405  140.1107  157.1060 H   0  0  0  0  0  0  0  0  0  0  0  0  # atno 8008 bound_to 7997
  154.4088  140.1220  156.4986 H   0  0  0  0  0  0  0  0  0  0  0  0  # atno 8009 bound_to 7997
  155.6968  140.3472  155.4919 H   0  0  0  0  0  0  0  0  0  0  0  0  # atno 8010 bound_to 7997
  139.6001  144.1028  152.1734 H   0  0  0  0  0  0  0  0  0  0  0  0  # atno 10167 bound_to 10162
  157.3548  131.0956  151.0968 H   0  0  0  0  0  0  0  0  0  0  0  0  # atno 10718 bound_to 10713
  153.2063  135.4404  155.0327 H   0  0  0  0  0  0  0  0  0  0  0  0  # atno 10763 bound_to 10752
  154.8175  135.3322  154.7135 H   0  0  0  0  0  0  0  0  0  0  0  0  # atno 10764 bound_to 10752
  153.7576  135.6994  153.4988 H   0  0  0  0  0  0  0  0  0  0  0  0  # atno 10765 bound_to 10752
  140.7897  134.2983  157.5017 H   0  0  0  0  0  0  0  0  0  0  0  0  # atno 11005 bound_to 11000
  145.5760  141.0388  143.2148 LP  0  0  0  0  0  0  0  0  0  0  0  0  # atno 17320 bound_to 7965
  144.7471  139.7291  143.7288 LP  0  0  0  0  0  0  0  0  0  0  0  0  # atno 17321 bound_to 7965
  140.0622  144.5847  150.7254 LP  0  0  0  0  0  0  0  0  0  0  0  0  # atno 17342 bound_to 10162
  140.7243  143.2620  151.4173 LP  0  0  0  0  0  0  0  0  0  0  0  0  # atno 17343 bound_to 10162
  157.2130  130.6446  149.5781 LP  0  0  0  0  0  0  0  0  0  0  0  0  # atno 17370 bound_to 10713
  155.9727  130.4654  150.6252 LP  0  0  0  0  0  0  0  0  0  0  0  0  # atno 17371 bound_to 10713
  139.8732  134.9367  156.3668 LP  0  0  0  0  0  0  0  0  0  0  0  0  # atno 17394 bound_to 11000
  140.9402  133.7520  156.0136 LP  0  0  0  0  0  0  0  0  0  0  0  0  # atno 17395 bound_to 11000

$$$$
