AV-unprocessed.smi:101|AV-procd|sdf|931|dock2
  -GOLD-   2262017443D 1   1.00000     0.00000
 Structure written by MMmdl.
 43 45  0  0  0  0  0  0  0  0  2 V2000
  148.3275  135.5214  157.4365 C   0  0  0  0  0  0  0  0  0  0  0  0
  149.4135  136.1755  156.6002 C   0  0  0  0  0  0  0  0  0  0  0  0
  149.1753  137.2576  155.8260 C   0  0  0  0  0  0  0  0  0  0  0  0
  150.1735  137.8594  155.0775 N   0  0  0  0  0  0  0  0  0  0  0  0
  149.8978  139.0811  154.2251 C   0  0  2  0  0  0  0  0  0  0  0  0
  150.5604  140.1874  154.7709 O   0  0  0  0  0  0  0  0  0  0  0  0
  149.6396  141.2432  155.0203 C   0  0  2  0  0  0  0  0  0  0  0  0
  150.1036  142.0952  156.2120 C   0  0  0  0  0  0  0  0  0  0  0  0
  150.8599  141.3054  157.1165 O   0  0  0  0  0  0  0  0  0  0  0  0
  151.0537  141.7130  158.3835 C   0  0  0  0  0  0  0  0  0  0  0  0
  150.3337  142.5333  158.9561 O   0  0  0  0  0  0  0  0  0  0  0  0
  152.2351  141.0641  159.0219 C   0  0  0  0  0  0  0  0  0  0  0  0
  152.6932  139.8196  158.5304 C   0  0  0  0  0  0  0  0  0  0  0  0
  153.8054  139.1832  159.1149 C   0  0  0  0  0  0  0  0  0  0  0  0
  154.4745  139.7844  160.1969 C   0  0  0  0  0  0  0  0  0  0  0  0
  154.0312  141.0244  160.6923 C   0  0  0  0  0  0  0  0  0  0  0  0
  152.9187  141.6622  160.1097 C   0  0  0  0  0  0  0  0  0  0  0  0
  148.2846  140.5535  155.1820 C   0  0  1  0  0  0  0  0  0  0  0  0
  147.1891  141.4119  154.9260 O   0  0  0  0  0  0  0  0  0  0  0  0
  148.3891  139.3967  154.1977 C   0  0  1  0  0  0  0  0  0  0  0  0
  147.9722  139.7399  152.8890 O   0  0  0  0  0  0  0  0  0  0  0  0
  151.4914  137.3335  155.1174 C   0  0  0  0  0  0  0  0  0  0  0  0
  152.3570  137.8944  154.4446 O   0  0  0  0  0  0  0  0  0  0  0  0
  151.7386  136.2365  155.8880 N   0  5  0  0  0  0  0  0  0  0  0  0
  150.7731  135.6239  156.6312 C   0  0  0  0  0  0  0  0  0  0  0  0
  151.0090  134.6307  157.3185 O   0  0  0  0  0  0  0  0  0  0  0  0
  147.3822  136.0576  157.3496 H   0  0  0  0  0  0  0  0  0  0  0  0
  148.6113  135.5115  158.4893 H   0  0  0  0  0  0  0  0  0  0  0  0
  148.1658  134.4927  157.1134 H   0  0  0  0  0  0  0  0  0  0  0  0
  148.1734  137.6571  155.8062 H   0  0  0  0  0  0  0  0  0  0  0  0
  150.3231  138.8469  153.2473 H   0  0  0  0  0  0  0  0  0  0  0  0
  149.6244  141.8622  154.1215 H   0  0  0  0  0  0  0  0  0  0  0  0
  150.6968  142.9384  155.8556 H   0  0  0  0  0  0  0  0  0  0  0  0
  149.2384  142.5026  156.7362 H   0  0  0  0  0  0  0  0  0  0  0  0
  152.1949  139.3382  157.7011 H   0  0  0  0  0  0  0  0  0  0  0  0
  154.1445  138.2315  158.7328 H   0  0  0  0  0  0  0  0  0  0  0  0
  155.3260  139.2950  160.6465 H   0  0  0  0  0  0  0  0  0  0  0  0
  154.5424  141.4868  161.5239 H   0  0  0  0  0  0  0  0  0  0  0  0
  152.6036  142.6116  160.5179 H   0  0  0  0  0  0  0  0  0  0  0  0
  148.1814  140.1391  156.1851 H   0  0  0  0  0  0  0  0  0  0  0  0
  146.9991  141.3830  154.0009 H   0  0  0  0  0  0  0  0  0  0  0  0
  147.7950  138.5430  154.5260 H   0  0  0  0  0  0  0  0  0  0  0  0
  148.6949  139.5853  152.2995 H   0  0  0  0  0  0  0  0  0  0  0  0
  1  2  1  0  0  0  0
  1 27  1  0  0  0  0
  1 28  1  0  0  0  0
  1 29  1  0  0  0  0
  2 25  1  0  0  0  0
  2  3  2  0  0  0  0
  3  4  1  0  0  0  0
  3 30  1  0  0  0  0
  4  5  1  0  0  0  0
  4 22  1  0  0  0  0
  5 20  1  0  0  0  0
  5  6  1  0  0  0  0
  5 31  1  0  0  0  0
  6  7  1  0  0  0  0
  7  8  1  0  0  0  0
  7 18  1  0  0  0  0
  7 32  1  0  0  0  0
  8  9  1  0  0  0  0
  8 33  1  0  0  0  0
  8 34  1  0  0  0  0
  9 10  1  0  0  0  0
 10 11  2  0  0  0  0
 10 12  1  0  0  0  0
 12 17  1  0  0  0  0
 12 13  2  0  0  0  0
 13 14  1  0  0  0  0
 13 35  1  0  0  0  0
 14 15  2  0  0  0  0
 14 36  1  0  0  0  0
 15 16  1  0  0  0  0
 15 37  1  0  0  0  0
 16 17  2  0  0  0  0
 16 38  1  0  0  0  0
 17 39  1  0  0  0  0
 18 19  1  0  0  0  0
 18 20  1  0  0  0  0
 18 40  1  0  0  0  0
 19 41  1  0  0  0  0
 20 21  1  0  0  0  0
 20 42  1  0  0  0  0
 21 43  1  0  0  0  0
 22 23  2  0  0  0  0
 22 24  1  0  0  0  0
 24 25  1  0  0  0  0
 25 26  2  0  0  0  0
M  CHG  1  24  -1
M  END
> <s_m_source_file>
AV-unprocessed.smi

> <i_m_source_file_index>
101

> <i_lp_mmshare_version>
43012

> <i_f3d_flags>
0

> <s_epik_input>
Tz1jMVtuSF1jKD1PKW4oW2NIXWMxW0NIM10pW0NAQEhdMk9bQ0BIXShbQ0BASF0oW09IXSlbQ0BIXTJbT0hdKVtDSDJdT0MoPU8pYzNbY0hdW2NIXVtjSF1bY0hdW2NIXTM=

> <s_epik_cmdline>
J2VwaWtfcHl0aG9uJywgJy1waCcsICc3LjAnLCAnLXRuJywgJzgnLCAnLW1hJywgJzIwMCcsICctbWV0YWxfYmluZGluZycsICctaW1hZScsICc8aW5maWxlLm1hZT4nLCAnLW9tYWUnLCAnPG91dGZpbGUubWFlPic=

> <r_lp_tautomer_probability>
0.999537

> <r_epik_Ionization_Penalty>
3.21006

> <r_epik_Ionization_Penalty_Charging>
5.75142e-08

> <r_epik_Ionization_Penalty_Neutral>
3.21006

> <r_epik_State_Penalty>
3.20925

> <r_epik_Charging_Adjusted_Penalty>
3.20925

> <i_epik_Tot_Q>
-1

> <i_epik_Tot_abs_Q>
1

> <r_epik_Metal_State_Penalty>
0.119957

> <b_epik_Metal_Only>
1

> <s_epik_Chemistry_Notes>
This compound has an ester and may undergo hydrolysis at high or low pH. This compound contains an acetal/aminal-like group ( X-CH(R)-Y where X, Y are N, S, or O) that may be acid/base labile, releasing an aldehyde.

> <s_lp_Force_Field>
OPLS_2005

> <r_lp_Energy>
43.2015

> <b_lp_Chiralities_Consistent>
1

> <s_lp_Variant>
AV-unprocessed.smi:101-19

> <Gold.Version>
5.8.1

> <Gold.Id.Protein>
6NUR|6NUR_protein|mol2

> <Gold.PLP.Fitness>
48.1053

> <Gold.PLP.PLP>
-37.3426

> <Gold.PLP.part.hbond>
-4.9067

> <Gold.PLP.part.metal>
0.0000

> <Gold.PLP.part.buried>
-5.4032

> <Gold.PLP.part.nonpolar>
-28.1096

> <Gold.PLP.part.repulsive>
0.3060

> <Gold.PLP.ligand.clash>
0.0000

> <Gold.PLP.ligand.torsion>
1.1087

> <Gold.PLP.Chemscore.Hbond>
4.2964

> <Gold.PLP.Chemscore.CHOScore>
0.0000

> <Gold.PLP.Chemscore.Metal>
0.0000

> <Gold.Chemscore.Hbonds>
donor molecule, donor type, donor heavy atom, donor atom, acceptor molecule, acceptor atom, score
      L1  H    21    43       P1  7957  0.98
      P1  H  6896  6909       L1    26  0.27
      P1  H  7989  7998       L1     6  1.00
      P1  H 10752 10764       L1    24  2.00

> <Gold.PLP.Chemscore.Internal.Correction>
0.0910

> <Gold.Rescore>
     Score         DG    S(hbond)    S(metal)    S(lipo)     H(rot)  DE(clash)    DE(int)     intcor
     11.23     -13.88       2.47        0.00      72.62       3.27       0.42       2.24       ----

> <Gold.Chemscore.Fitness>
11.2272

> <Gold.Chemscore.DG>
-13.8834

> <Gold.Chemscore.ZeroCoef>
-5.4800

> <Gold.Chemscore.Hbond>
2.4750

> <Gold.Chemscore.Metal>
0.0000

> <Gold.Chemscore.Lipo>
72.6218

> <Gold.Chemscore.Internal_Hbond>
0.0000

> <Gold.Chemscore.DEClash>
0.4210

> <Gold.Chemscore.DEInternal>
2.2352

> <Gold.Chemscore.Rot>
3.2656

> <Gold.Chemscore.Internal.Correction>
   9.000000E+99

> <Gold.Chemscore.Hbonds>
donor molecule, donor type, donor heavy atom, donor atom, acceptor molecule, acceptor atom, score
      L1  H    21    43       P1  7957  0.87
      P1  H  6896  6909       L1    26  0.26
      P1  H  7989  7998       L1     6  0.26
      P1  H 10752 10764       L1    24  0.26

> <Gold.Chemscore.Hbond.Weighted>
-8.2665

> <Gold.Chemscore.Metal.Weighted>
-0.0000

> <Gold.Chemscore.Lipo.Weighted>
-8.4968

> <Gold.Chemscore.Internal_Hbond.Weighted>
0.0000

> <Gold.Chemscore.DEClash.Weighted>
0.4210

> <Gold.Chemscore.DEInternal.Weighted>
2.2352

> <Gold.Chemscore.Rot.Weighted>
8.3598

> <Gold.Chemscore.Internal.Correction.Weighted>
   9.000000E+99

> <Gold.Protein.RotatedTorsions>
[ 6907 6896 6895 6894 ] final    6.20 input  -60.11 | X-H torsion
[ 7974 7965 7964 7962 ] final  -30.15 input  175.53 | X-H torsion
[ 8008 7997 7996 7995 ] final   21.44 input   59.86 | X-H torsion
[ 10167 10162 10161 10158 ] final  -79.88 input  -65.29 | X-H torsion
[ 10718 10713 10712 10709 ] final   94.87 input   66.30 | X-H torsion
[ 10763 10752 10751 10750 ] final  -35.12 input  -60.55 | X-H torsion
[ 11005 11000 10999 10996 ] final  123.71 input  -57.11 | X-H torsion

> <Gold.Protein.ActiveResidues>
 VAL166  LYS551  ARG553  GLY616  TRP617  ASP618  TYR619  PRO620  LYS621  CYS622 
 ASP623  PHE694  ASN695  SER759  ASP760  ASP761  ALA762  ILE779  LEU786  VAL792 
 PHE793  MET794  SER795  GLU796  ALA797  LYS798  CYS799  TRP800  GLU811  SER814 

> <Gold.Protein.RotatedAtoms>
  151.6699  135.0977  160.0195 H   0  0  0  0  0  0  0  0  0  0  0  0  # atno 6907 bound_to 6896
  152.3897  133.6658  159.6236 H   0  0  0  0  0  0  0  0  0  0  0  0  # atno 6908 bound_to 6896
  150.7815  133.8891  159.3349 H   0  0  0  0  0  0  0  0  0  0  0  0  # atno 6909 bound_to 6896
  146.1164  140.5504  142.8755 H   0  0  0  0  0  0  0  0  0  0  0  0  # atno 7974 bound_to 7965
  154.9507  140.3065  155.5076 H   0  0  0  0  0  0  0  0  0  0  0  0  # atno 8008 bound_to 7997
  156.2987  140.2319  156.4522 H   0  0  0  0  0  0  0  0  0  0  0  0  # atno 8009 bound_to 7997
  154.8057  140.0431  157.1294 H   0  0  0  0  0  0  0  0  0  0  0  0  # atno 8010 bound_to 7997
  140.4553  143.2470  151.8428 H   0  0  0  0  0  0  0  0  0  0  0  0  # atno 10167 bound_to 10162
  157.6944  131.0527  150.4253 H   0  0  0  0  0  0  0  0  0  0  0  0  # atno 10718 bound_to 10713
  153.8580  135.6842  153.4785 H   0  0  0  0  0  0  0  0  0  0  0  0  # atno 10763 bound_to 10752
  153.1358  135.4678  154.9418 H   0  0  0  0  0  0  0  0  0  0  0  0  # atno 10764 bound_to 10752
  154.7772  135.3257  154.8017 H   0  0  0  0  0  0  0  0  0  0  0  0  # atno 10765 bound_to 10752
  139.9325  134.9641  156.8300 H   0  0  0  0  0  0  0  0  0  0  0  0  # atno 11005 bound_to 11000
  144.7557  140.5300  143.6771 LP  0  0  0  0  0  0  0  0  0  0  0  0  # atno 17320 bound_to 7965
  145.5558  139.1478  143.3369 LP  0  0  0  0  0  0  0  0  0  0  0  0  # atno 17321 bound_to 7965
  139.4800  144.5071  151.8982 LP  0  0  0  0  0  0  0  0  0  0  0  0  # atno 17342 bound_to 10162
  140.4158  144.2309  150.5888 LP  0  0  0  0  0  0  0  0  0  0  0  0  # atno 17343 bound_to 10162
  156.4624  130.4035  149.6568 LP  0  0  0  0  0  0  0  0  0  0  0  0  # atno 17370 bound_to 10713
  156.3678  130.7515  151.2494 LP  0  0  0  0  0  0  0  0  0  0  0  0  # atno 17371 bound_to 10713
  140.6164  134.0035  155.7599 LP  0  0  0  0  0  0  0  0  0  0  0  0  # atno 17394 bound_to 11000
  141.0921  133.9900  157.3220 LP  0  0  0  0  0  0  0  0  0  0  0  0  # atno 17395 bound_to 11000

$$$$
