AV-unprocessed.smi:651|AV-procd|sdf|3187|dock2
  -GOLD-   22720 0113D 1   1.00000     0.00000
 Structure written by MMmdl.
 38 39  0  0  0  0  0  0  0  0  1 V2000
  153.1152  142.6689  162.6796 C   0  0  0  0  0  0  0  0  0  0  0  0
  152.6964  142.9002  161.2427 C   0  0  0  0  0  0  0  0  0  0  0  0
  152.0487  144.0943  160.8622 C   0  0  0  0  0  0  0  0  0  0  0  0
  151.6831  144.2581  159.5126 C   0  0  0  0  0  0  0  0  0  0  0  0
  151.9794  143.2272  158.5969 C   0  0  0  0  0  0  0  0  0  0  0  0
  151.6082  143.3541  157.1297 C   0  0  0  0  0  0  0  0  0  0  0  0
  150.8045  142.1378  156.6667 C   0  0  0  0  0  0  0  0  0  0  0  0
  151.3007  141.0140  156.7367 O   0  0  0  0  0  0  0  0  0  0  0  0
  149.5654  142.3819  156.2044 N   0  0  0  0  0  0  0  0  0  0  0  0
  148.5899  141.4130  155.6962 C   0  0  1  0  0  0  0  0  0  0  0  0
  147.1822  142.0032  155.4663 C   0  0  0  0  0  0  0  0  0  0  0  0
  146.8961  141.8378  153.9729 C   0  0  0  0  0  0  0  0  0  0  0  0
  147.7248  140.6269  153.5495 C   0  0  0  0  0  0  0  0  0  0  0  0
  149.0214  140.7429  154.3650 C   0  0  2  0  0  0  0  0  0  0  0  0
  149.7284  139.3946  154.5690 C   0  0  0  0  0  0  0  0  0  0  0  0
  150.0533  138.7075  153.4710 N   0  0  0  0  0  0  0  0  0  0  0  0
  149.9791  138.9770  155.6983 O   0  0  0  0  0  0  0  0  0  0  0  0
  152.6307  142.0723  159.0807 C   0  0  0  0  0  0  0  0  0  0  0  0
  152.9849  141.9066  160.3734 N   0  0  0  0  0  0  0  0  0  0  0  0
  152.6418  143.3884  163.3481 H   0  0  0  0  0  0  0  0  0  0  0  0
  154.1963  142.7702  162.7778 H   0  0  0  0  0  0  0  0  0  0  0  0
  152.8323  141.6676  163.0061 H   0  0  0  0  0  0  0  0  0  0  0  0
  151.8364  144.8687  161.5848 H   0  0  0  0  0  0  0  0  0  0  0  0
  151.1873  145.1611  159.1879 H   0  0  0  0  0  0  0  0  0  0  0  0
  151.0256  144.2640  156.9781 H   0  0  0  0  0  0  0  0  0  0  0  0
  152.5078  143.4504  156.5208 H   0  0  0  0  0  0  0  0  0  0  0  0
  149.2682  143.3469  156.1935 H   0  0  0  0  0  0  0  0  0  0  0  0
  148.4962  140.6614  156.4818 H   0  0  0  0  0  0  0  0  0  0  0  0
  146.4537  141.4274  156.0385 H   0  0  0  0  0  0  0  0  0  0  0  0
  147.0838  143.0415  155.7850 H   0  0  0  0  0  0  0  0  0  0  0  0
  145.8337  141.7141  153.7618 H   0  0  0  0  0  0  0  0  0  0  0  0
  147.2399  142.7210  153.4331 H   0  0  0  0  0  0  0  0  0  0  0  0
  147.1832  139.7121  153.7957 H   0  0  0  0  0  0  0  0  0  0  0  0
  147.9123  140.6204  152.4755 H   0  0  0  0  0  0  0  0  0  0  0  0
  149.6869  141.4083  153.8130 H   0  0  0  0  0  0  0  0  0  0  0  0
  150.5223  137.8171  153.5529 H   0  0  0  0  0  0  0  0  0  0  0  0
  149.8307  139.0839  152.5607 H   0  0  0  0  0  0  0  0  0  0  0  0
  152.8757  141.2599  158.4125 H   0  0  0  0  0  0  0  0  0  0  0  0
  1  2  1  0  0  0  0
  1 20  1  0  0  0  0
  1 21  1  0  0  0  0
  1 22  1  0  0  0  0
  2 19  1  0  0  0  0
  2  3  2  0  0  0  0
  3  4  1  0  0  0  0
  3 23  1  0  0  0  0
  4  5  2  0  0  0  0
  4 24  1  0  0  0  0
  5  6  1  0  0  0  0
  5 18  1  0  0  0  0
  6  7  1  0  0  0  0
  6 25  1  0  0  0  0
  6 26  1  0  0  0  0
  7  8  2  0  0  0  0
  7  9  1  0  0  0  0
  9 10  1  0  0  0  0
  9 27  1  0  0  0  0
 10 14  1  0  0  0  0
 10 11  1  0  0  0  0
 10 28  1  0  0  0  0
 11 12  1  0  0  0  0
 11 29  1  0  0  0  0
 11 30  1  0  0  0  0
 12 13  1  0  0  0  0
 12 31  1  0  0  0  0
 12 32  1  0  0  0  0
 13 14  1  0  0  0  0
 13 33  1  0  0  0  0
 13 34  1  0  0  0  0
 14 15  1  0  0  0  0
 14 35  1  0  0  0  0
 15 16  1  0  0  0  0
 15 17  2  0  0  0  0
 16 36  1  0  0  0  0
 16 37  1  0  0  0  0
 18 19  2  0  0  0  0
 18 38  1  0  0  0  0
M  END
> <s_m_source_file>
AV-unprocessed.smi

> <i_m_source_file_index>
651

> <i_lp_mmshare_version>
43012

> <i_f3d_flags>
0

> <s_epik_input>
W0NIM11jMVtjSF1bY0hdYyhbY0hdbjEpW0NIMl1DKD1PKVtOSF1bQ0BASF0yW0NIMl1bQ0gyXVtDSDJdW0NASF0yQyg9TylbTkgyXQ==

> <s_epik_cmdline>
J2VwaWtfcHl0aG9uJywgJy1waCcsICc3LjAnLCAnLXRuJywgJzgnLCAnLW1hJywgJzIwMCcsICctbWV0YWxfYmluZGluZycsICctaW1hZScsICc8aW5maWxlLm1hZT4nLCAnLW9tYWUnLCAnPG91dGZpbGUubWFlPic=

> <r_epik_Ionization_Penalty>
0.0159502

> <r_epik_Ionization_Penalty_Charging>
0

> <r_epik_Ionization_Penalty_Neutral>
0.0159502

> <r_epik_State_Penalty>
0.012563

> <r_epik_Charging_Adjusted_Penalty>
0.012563

> <i_epik_Tot_Q>
0

> <i_epik_Tot_abs_Q>
0

> <r_epik_Metal_State_Penalty>
0.0122326

> <b_epik_Metal_Only>
0

> <s_lp_Force_Field>
OPLS_2005

> <r_lp_Energy>
14.6818

> <b_lp_Chiralities_Consistent>
1

> <s_lp_Variant>
AV-unprocessed.smi:651-4

> <Gold.Version>
5.8.1

> <Gold.Id.Protein>
6NUR|6NUR_protein|mol2

> <Gold.PLP.Fitness>
50.6489

> <Gold.PLP.PLP>
-44.9636

> <Gold.PLP.part.hbond>
-2.7463

> <Gold.PLP.part.metal>
0.0000

> <Gold.PLP.part.buried>
-5.9523

> <Gold.PLP.part.nonpolar>
-37.6529

> <Gold.PLP.part.repulsive>
0.2290

> <Gold.PLP.ligand.clash>
0.0000

> <Gold.PLP.ligand.torsion>
0.1502

> <Gold.PLP.Chemscore.Hbond>
1.9913

> <Gold.PLP.Chemscore.CHOScore>
0.0000

> <Gold.PLP.Chemscore.Metal>
0.0000

> <Gold.Chemscore.Hbonds>
donor molecule, donor type, donor heavy atom, donor atom, acceptor molecule, acceptor atom, score
      L1  H     9    27       P1  8028  0.98
      L1  H    16    37       P1  7957  1.00

> <Gold.PLP.Chemscore.Internal.Correction>
0.0119

> <Gold.Rescore>
     Score         DG    S(hbond)    S(metal)    S(lipo)     H(rot)  DE(clash)    DE(int)     intcor
     16.88     -19.54       1.89        0.00     109.28       1.97       0.17       2.48       ----

> <Gold.Chemscore.Fitness>
16.8820

> <Gold.Chemscore.DG>
-19.5373

> <Gold.Chemscore.ZeroCoef>
-5.4800

> <Gold.Chemscore.Hbond>
1.8909

> <Gold.Chemscore.Metal>
0.0000

> <Gold.Chemscore.Lipo>
109.2821

> <Gold.Chemscore.Internal_Hbond>
0.0000

> <Gold.Chemscore.DEClash>
0.1745

> <Gold.Chemscore.DEInternal>
2.4808

> <Gold.Chemscore.Rot>
1.9704

> <Gold.Chemscore.Internal.Correction>
   9.000000E+99

> <Gold.Chemscore.Hbonds>
donor molecule, donor type, donor heavy atom, donor atom, acceptor molecule, acceptor atom, score
      L1  H     9    27       P1  8028  0.92
      L1  H    16    37       P1  7957  0.82

> <Gold.Chemscore.Hbond.Weighted>
-6.3156

> <Gold.Chemscore.Metal.Weighted>
-0.0000

> <Gold.Chemscore.Lipo.Weighted>
-12.7860

> <Gold.Chemscore.Internal_Hbond.Weighted>
0.0000

> <Gold.Chemscore.DEClash.Weighted>
0.1745

> <Gold.Chemscore.DEInternal.Weighted>
2.4808

> <Gold.Chemscore.Rot.Weighted>
5.0443

> <Gold.Chemscore.Internal.Correction.Weighted>
   9.000000E+99

> <Gold.Protein.RotatedTorsions>
[ 6907 6896 6895 6894 ] final  152.50 input  -60.11 | X-H torsion
[ 7974 7965 7964 7962 ] final   -4.72 input  175.53 | X-H torsion
[ 8008 7997 7996 7995 ] final -148.70 input   59.86 | X-H torsion
[ 10167 10162 10161 10158 ] final  100.90 input  -65.29 | X-H torsion
[ 10718 10713 10712 10709 ] final  153.47 input   66.30 | X-H torsion
[ 10763 10752 10751 10750 ] final   -8.55 input  -60.55 | X-H torsion
[ 11005 11000 10999 10996 ] final -143.04 input  -57.11 | X-H torsion

> <Gold.Protein.ActiveResidues>
 VAL166  LYS551  ARG553  GLY616  TRP617  ASP618  TYR619  PRO620  LYS621  CYS622 
 ASP623  PHE694  ASN695  SER759  ASP760  ASP761  ALA762  ILE779  LEU786  VAL792 
 PHE793  MET794  SER795  GLU796  ALA797  LYS798  CYS799  TRP800  GLU811  SER814 

> <Gold.Protein.RotatedAtoms>
  152.0858  133.4175  159.4521 H   0  0  0  0  0  0  0  0  0  0  0  0  # atno 6907 bound_to 6896
  150.6862  134.2929  159.4683 H   0  0  0  0  0  0  0  0  0  0  0  0  # atno 6908 bound_to 6896
  152.0775  134.9492  160.0624 H   0  0  0  0  0  0  0  0  0  0  0  0  # atno 6909 bound_to 6896
  146.2367  140.1914  142.8332 H   0  0  0  0  0  0  0  0  0  0  0  0  # atno 7974 bound_to 7965
  155.5958  140.0657  157.2746 H   0  0  0  0  0  0  0  0  0  0  0  0  # atno 8008 bound_to 7997
  154.4292  140.1827  156.1169 H   0  0  0  0  0  0  0  0  0  0  0  0  # atno 8009 bound_to 7997
  156.0198  140.3318  155.7030 H   0  0  0  0  0  0  0  0  0  0  0  0  # atno 8010 bound_to 7997
  139.7486  144.6990  151.0466 H   0  0  0  0  0  0  0  0  0  0  0  0  # atno 10167 bound_to 10162
  157.2443  131.0766  151.1772 H   0  0  0  0  0  0  0  0  0  0  0  0  # atno 10718 bound_to 10713
  153.4421  135.7014  153.6162 H   0  0  0  0  0  0  0  0  0  0  0  0  # atno 10763 bound_to 10752
  153.4533  135.3753  155.2296 H   0  0  0  0  0  0  0  0  0  0  0  0  # atno 10764 bound_to 10752
  154.8727  135.4002  154.3821 H   0  0  0  0  0  0  0  0  0  0  0  0  # atno 10765 bound_to 10752
  140.8165  134.2682  157.4919 H   0  0  0  0  0  0  0  0  0  0  0  0  # atno 11005 bound_to 11000
  144.9855  140.8499  143.5371 LP  0  0  0  0  0  0  0  0  0  0  0  0  # atno 17320 bound_to 7965
  145.1913  139.2299  143.5241 LP  0  0  0  0  0  0  0  0  0  0  0  0  # atno 17321 bound_to 7965
  140.7795  143.4836  150.9985 LP  0  0  0  0  0  0  0  0  0  0  0  0  # atno 17342 bound_to 10162
  139.8524  143.7421  152.3177 LP  0  0  0  0  0  0  0  0  0  0  0  0  # atno 17343 bound_to 10162
  157.3345  130.7002  149.6344 LP  0  0  0  0  0  0  0  0  0  0  0  0  # atno 17370 bound_to 10713
  155.9668  130.4298  150.4847 LP  0  0  0  0  0  0  0  0  0  0  0  0  # atno 17371 bound_to 10713
  139.8711  134.9512  156.4077 LP  0  0  0  0  0  0  0  0  0  0  0  0  # atno 17394 bound_to 11000
  140.9144  133.7689  155.9830 LP  0  0  0  0  0  0  0  0  0  0  0  0  # atno 17395 bound_to 11000

$$$$
