AV-unprocessed.smi:2170|AV-procd|sdf|8825|dock6
  -GOLD-   2272012 23D 1   1.00000     0.00000
 Structure written by MMmdl.
 45 46  0  0  0  0  0  0  0  0  2 V2000
  154.3103  134.3974  164.2646 C   0  0  0  0  0  0  0  0  0  0  0  0
  154.6272  134.2005  162.7714 C   0  0  0  0  0  0  0  0  0  0  0  0
  155.3449  132.8625  162.5169 C   0  0  0  0  0  0  0  0  0  0  0  0
  155.3790  135.3561  162.2210 N   0  0  0  0  0  0  0  0  0  0  0  0
  156.6848  135.6353  162.8522 C   0  0  0  0  0  0  0  0  0  0  0  0
  154.4619  136.7240  161.6497 S   0  0  0  0  0  0  0  0  0  0  0  0
  153.7163  136.2720  160.4632 O   0  0  0  0  0  0  0  0  0  0  0  0
  153.6866  137.2005  162.8070 O   0  0  0  0  0  0  0  0  0  0  0  0
  155.7198  137.6740  161.2701 N   0  5  0  0  0  0  0  0  0  0  0  0
  155.9587  138.8696  162.0568 C   0  0  0  0  0  0  0  0  0  0  0  0
  155.1605  140.0556  161.5346 C   0  0  0  0  0  0  0  0  0  0  0  0
  154.3019  140.7865  162.3841 C   0  0  0  0  0  0  0  0  0  0  0  0
  153.5815  141.8759  161.8560 C   0  0  0  0  0  0  0  0  0  0  0  0
  153.7376  142.2116  160.4903 C   0  0  0  0  0  0  0  0  0  0  0  0
  153.0295  143.3040  159.9429 N   0  0  0  0  0  0  0  0  0  0  0  0
  152.1410  144.0560  160.8274 C   0  0  0  0  0  0  0  0  0  0  0  0
  151.6819  145.3560  160.1461 C   0  0  0  0  0  0  0  0  0  0  0  0
  151.0781  145.0518  158.8933 O   0  0  0  0  0  0  0  0  0  0  0  0
  151.9923  144.4171  158.0054 C   0  0  0  0  0  0  0  0  0  0  0  0
  152.4705  143.0861  158.6109 C   0  0  0  0  0  0  0  0  0  0  0  0
  154.5560  141.5021  159.6746 N   0  0  0  0  0  0  0  0  0  0  0  0
  155.2480  140.4599  160.1841 C   0  0  0  0  0  0  0  0  0  0  0  0
  153.6954  133.5790  164.6396 H   0  0  0  0  0  0  0  0  0  0  0  0
  153.7582  135.3214  164.4369 H   0  0  0  0  0  0  0  0  0  0  0  0
  155.2149  134.4304  164.8717 H   0  0  0  0  0  0  0  0  0  0  0  0
  153.6798  134.1390  162.2365 H   0  0  0  0  0  0  0  0  0  0  0  0
  154.6931  132.0248  162.7665 H   0  0  0  0  0  0  0  0  0  0  0  0
  156.2457  132.7574  163.1220 H   0  0  0  0  0  0  0  0  0  0  0  0
  155.6240  132.7575  161.4679 H   0  0  0  0  0  0  0  0  0  0  0  0
  156.5578  135.8815  163.9058 H   0  0  0  0  0  0  0  0  0  0  0  0
  157.1782  136.4807  162.3745 H   0  0  0  0  0  0  0  0  0  0  0  0
  157.3584  134.7846  162.7626 H   0  0  0  0  0  0  0  0  0  0  0  0
  155.7049  138.7177  163.1066 H   0  0  0  0  0  0  0  0  0  0  0  0
  157.0122  139.1514  162.0495 H   0  0  0  0  0  0  0  0  0  0  0  0
  154.1840  140.5292  163.4279 H   0  0  0  0  0  0  0  0  0  0  0  0
  152.9134  142.4285  162.4989 H   0  0  0  0  0  0  0  0  0  0  0  0
  151.2754  143.4412  161.0786 H   0  0  0  0  0  0  0  0  0  0  0  0
  152.6522  144.2980  161.7600 H   0  0  0  0  0  0  0  0  0  0  0  0
  150.9563  145.8730  160.7743 H   0  0  0  0  0  0  0  0  0  0  0  0
  152.5218  146.0379  160.0022 H   0  0  0  0  0  0  0  0  0  0  0  0
  151.4940  144.2370  157.0528 H   0  0  0  0  0  0  0  0  0  0  0  0
  152.8372  145.0773  157.8029 H   0  0  0  0  0  0  0  0  0  0  0  0
  153.1958  142.6322  157.9372 H   0  0  0  0  0  0  0  0  0  0  0  0
  151.6337  142.3911  158.6907 H   0  0  0  0  0  0  0  0  0  0  0  0
  155.8844  139.9443  159.4778 H   0  0  0  0  0  0  0  0  0  0  0  0
  1  2  1  0  0  0  0
  1 23  1  0  0  0  0
  1 24  1  0  0  0  0
  1 25  1  0  0  0  0
  2  3  1  0  0  0  0
  2  4  1  0  0  0  0
  2 26  1  0  0  0  0
  3 27  1  0  0  0  0
  3 28  1  0  0  0  0
  3 29  1  0  0  0  0
  4  5  1  0  0  0  0
  4  6  1  0  0  0  0
  5 30  1  0  0  0  0
  5 31  1  0  0  0  0
  5 32  1  0  0  0  0
  6  7  2  0  0  0  0
  6  8  2  0  0  0  0
  6  9  1  0  0  0  0
  9 10  1  0  0  0  0
 10 11  1  0  0  0  0
 10 33  1  0  0  0  0
 10 34  1  0  0  0  0
 11 22  1  0  0  0  0
 11 12  2  0  0  0  0
 12 13  1  0  0  0  0
 12 35  1  0  0  0  0
 13 14  2  0  0  0  0
 13 36  1  0  0  0  0
 14 15  1  0  0  0  0
 14 21  1  0  0  0  0
 15 20  1  0  0  0  0
 15 16  1  0  0  0  0
 16 17  1  0  0  0  0
 16 37  1  0  0  0  0
 16 38  1  0  0  0  0
 17 18  1  0  0  0  0
 17 39  1  0  0  0  0
 17 40  1  0  0  0  0
 18 19  1  0  0  0  0
 19 20  1  0  0  0  0
 19 41  1  0  0  0  0
 19 42  1  0  0  0  0
 20 43  1  0  0  0  0
 20 44  1  0  0  0  0
 21 22  2  0  0  0  0
 22 45  1  0  0  0  0
M  CHG  1   9  -1
M  END
> <s_m_source_file>
AV-unprocessed.smi

> <i_m_source_file_index>
2170

> <i_lp_mmshare_version>
43012

> <i_f3d_flags>
0

> <s_epik_input>
W0NIM11bQ0hdKFtDSDNdKU4oW0NIM10pUyg9TykoPU8pW05IXVtDSDJdYzFbY0hdW2NIXWMobltjSF0xKU4yW0NIMl1bQ0gyXU9bQ0gyXVtDSDJdMg==

> <s_epik_cmdline>
J2VwaWtfcHl0aG9uJywgJy1waCcsICc3LjAnLCAnLXRuJywgJzgnLCAnLW1hJywgJzIwMCcsICctbWV0YWxfYmluZGluZycsICctaW1hZScsICc8aW5maWxlLm1hZT4nLCAnLW9tYWUnLCAnPG91dGZpbGUubWFlPic=

> <r_lp_tautomer_probability>
1

> <r_epik_Ionization_Penalty>
3.3971

> <r_epik_Ionization_Penalty_Charging>
3.31706

> <r_epik_Ionization_Penalty_Neutral>
0.0800436

> <r_epik_State_Penalty>
3.32044

> <r_epik_Charging_Adjusted_Penalty>
6.63751

> <i_epik_Tot_Q>
-1

> <i_epik_Tot_abs_Q>
1

> <r_epik_Metal_State_Penalty>
0.488406

> <b_epik_Metal_Only>
1

> <s_lp_Force_Field>
OPLS_2005

> <r_lp_Energy>
16.8192

> <b_lp_Chiralities_Consistent>
1

> <s_lp_Variant>
AV-unprocessed.smi:2170-2

> <Gold.Version>
5.8.1

> <Gold.Id.Protein>
6NUR|6NUR_protein|mol2

> <Gold.PLP.Fitness>
44.1564

> <Gold.PLP.PLP>
-42.1768

> <Gold.PLP.part.hbond>
-1.0000

> <Gold.PLP.part.metal>
0.0000

> <Gold.PLP.part.buried>
-5.4450

> <Gold.PLP.part.nonpolar>
-35.8887

> <Gold.PLP.part.repulsive>
0.1436

> <Gold.PLP.ligand.clash>
0.0000

> <Gold.PLP.ligand.torsion>
2.5344

> <Gold.PLP.Chemscore.Hbond>
1.0000

> <Gold.PLP.Chemscore.CHOScore>
0.0000

> <Gold.PLP.Chemscore.Metal>
0.0000

> <Gold.Chemscore.Hbonds>
donor molecule, donor type, donor heavy atom, donor atom, acceptor molecule, acceptor atom, score
      P1  H  6896  6907       L1     7  0.98

> <Gold.PLP.Chemscore.Internal.Correction>
4.0484

> <Gold.Rescore>
     Score         DG    S(hbond)    S(metal)    S(lipo)     H(rot)  DE(clash)    DE(int)     intcor
     15.63     -18.07       1.00        0.00     112.80       1.54       0.05       2.39       ----

> <Gold.Chemscore.Fitness>
15.6287

> <Gold.Chemscore.DG>
-18.0672

> <Gold.Chemscore.ZeroCoef>
-5.4800

> <Gold.Chemscore.Hbond>
0.9988

> <Gold.Chemscore.Metal>
0.0000

> <Gold.Chemscore.Lipo>
112.7981

> <Gold.Chemscore.Internal_Hbond>
0.0000

> <Gold.Chemscore.DEClash>
0.0462

> <Gold.Chemscore.DEInternal>
2.3923

> <Gold.Chemscore.Rot>
1.5415

> <Gold.Chemscore.Internal.Correction>
   9.000000E+99

> <Gold.Chemscore.Hbonds>
donor molecule, donor type, donor heavy atom, donor atom, acceptor molecule, acceptor atom, score
      P1  H  6896  6907       L1     7  0.91

> <Gold.Chemscore.Hbond.Weighted>
-3.3361

> <Gold.Chemscore.Metal.Weighted>
-0.0000

> <Gold.Chemscore.Lipo.Weighted>
-13.1974

> <Gold.Chemscore.Internal_Hbond.Weighted>
0.0000

> <Gold.Chemscore.DEClash.Weighted>
0.0462

> <Gold.Chemscore.DEInternal.Weighted>
2.3923

> <Gold.Chemscore.Rot.Weighted>
3.9462

> <Gold.Chemscore.Internal.Correction.Weighted>
   9.000000E+99

> <Gold.Protein.RotatedTorsions>
[ 6907 6896 6895 6894 ] final   49.59 input  -60.11 | X-H torsion
[ 7974 7965 7964 7962 ] final   96.03 input  175.53 | X-H torsion
[ 8008 7997 7996 7995 ] final   97.44 input   59.86 | X-H torsion
[ 10167 10162 10161 10158 ] final -133.87 input  -65.29 | X-H torsion
[ 10718 10713 10712 10709 ] final  -40.08 input   66.30 | X-H torsion
[ 10763 10752 10751 10750 ] final -124.42 input  -60.55 | X-H torsion
[ 11005 11000 10999 10996 ] final  145.09 input  -57.11 | X-H torsion

> <Gold.Protein.ActiveResidues>
 VAL166  LYS551  ARG553  GLY616  TRP617  ASP618  TYR619  PRO620  LYS621  CYS622 
 ASP623  PHE694  ASN695  SER759  ASP760  ASP761  ALA762  ILE779  LEU786  VAL792 
 PHE793  MET794  SER795  GLU796  ALA797  LYS798  CYS799  TRP800  GLU811  SER814 

> <Gold.Protein.RotatedAtoms>
  152.2924  134.7705  160.0374 H   0  0  0  0  0  0  0  0  0  0  0  0  # atno 6907 bound_to 6896
  151.8247  133.3394  159.3603 H   0  0  0  0  0  0  0  0  0  0  0  0  # atno 6908 bound_to 6896
  150.7236  134.5469  159.5819 H   0  0  0  0  0  0  0  0  0  0  0  0  # atno 6909 bound_to 6896
  145.4443  139.2298  143.3075 H   0  0  0  0  0  0  0  0  0  0  0  0  # atno 7974 bound_to 7965
  156.0901  140.3258  155.7805 H   0  0  0  0  0  0  0  0  0  0  0  0  # atno 8008 bound_to 7997
  155.5010  140.0569  157.2956 H   0  0  0  0  0  0  0  0  0  0  0  0  # atno 8009 bound_to 7997
  154.4633  140.1977  156.0203 H   0  0  0  0  0  0  0  0  0  0  0  0  # atno 8010 bound_to 7997
  139.8939  143.6689  152.2607 H   0  0  0  0  0  0  0  0  0  0  0  0  # atno 10167 bound_to 10162
  156.2853  130.4222  149.8295 H   0  0  0  0  0  0  0  0  0  0  0  0  # atno 10718 bound_to 10713
  154.8723  135.4064  154.3103 H   0  0  0  0  0  0  0  0  0  0  0  0  # atno 10763 bound_to 10752
  153.3948  135.7016  153.6474 H   0  0  0  0  0  0  0  0  0  0  0  0  # atno 10764 bound_to 10752
  153.5242  135.3681  155.2617 H   0  0  0  0  0  0  0  0  0  0  0  0  # atno 10765 bound_to 10752
  140.0684  134.9165  157.1304 H   0  0  0  0  0  0  0  0  0  0  0  0  # atno 11005 bound_to 11000
  146.2539  140.5195  142.8882 LP  0  0  0  0  0  0  0  0  0  0  0  0  # atno 17320 bound_to 7965
  144.8101  140.6371  143.6420 LP  0  0  0  0  0  0  0  0  0  0  0  0  # atno 17321 bound_to 7965
  139.7085  144.7624  151.1152 LP  0  0  0  0  0  0  0  0  0  0  0  0  # atno 17342 bound_to 10162
  140.7721  143.5362  150.9366 LP  0  0  0  0  0  0  0  0  0  0  0  0  # atno 17343 bound_to 10162
  156.5727  130.8432  151.3361 LP  0  0  0  0  0  0  0  0  0  0  0  0  # atno 17370 bound_to 10713
  157.7326  130.9718  150.1939 LP  0  0  0  0  0  0  0  0  0  0  0  0  # atno 17371 bound_to 10713
  140.3664  134.2438  155.7182 LP  0  0  0  0  0  0  0  0  0  0  0  0  # atno 17394 bound_to 11000
  141.2002  133.7993  157.0500 LP  0  0  0  0  0  0  0  0  0  0  0  0  # atno 17395 bound_to 11000

$$$$
