AV-unprocessed.smi:3215|AV-procd|sdf|12286|dock10
  -GOLD-   2272018123D 1   1.00000     0.00000
 Structure written by MMmdl.
 37 38  0  0  0  0  0  0  0  0  1 V2000
  153.7509  140.6568  161.9107 C   0  0  0  0  0  0  0  0  0  0  0  0
  153.1461  141.9446  161.4310 C   0  0  0  0  0  0  0  0  0  0  0  0
  152.6092  143.0036  162.2173 C   0  0  0  0  0  0  0  0  0  0  0  0
  152.1500  144.0059  161.4859 N   0  0  0  0  0  0  0  0  0  0  0  0
  152.3754  143.6235  160.2111 N   0  0  0  0  0  0  0  0  0  0  0  0
  151.9922  144.4961  159.1180 C   0  0  0  0  0  0  0  0  0  0  0  0
  150.7478  143.9740  158.3856 C   0  0  0  0  0  0  0  0  0  0  0  0
  151.1252  142.8761  157.5089 N   0  0  0  0  0  0  0  0  0  0  0  0
  150.4987  141.6229  157.9488 C   0  0  0  0  0  0  0  0  0  0  0  0
  151.3249  140.3755  157.5940 C   0  0  0  0  0  0  0  0  0  0  0  0
  152.2605  140.0298  158.3181 O   0  0  0  0  0  0  0  0  0  0  0  0
  150.9947  139.6918  156.4785 N   0  0  0  0  0  0  0  0  0  0  0  0
  149.8843  140.0616  155.6030 C   0  0  0  0  0  0  0  0  0  0  0  0
  149.6984  138.8809  154.6498 C   0  0  0  0  0  0  0  0  0  0  0  0
  151.0709  138.2244  154.5992 C   0  0  0  0  0  0  0  0  0  0  0  0
  151.6667  138.4909  155.9821 C   0  0  0  0  0  0  0  0  0  0  0  0
  152.9749  142.3836  160.1484 C   0  0  0  0  0  0  0  0  0  0  0  0
  154.3260  140.7977  162.8260 H   0  0  0  0  0  0  0  0  0  0  0  0
  154.4266  140.2257  161.1716 H   0  0  0  0  0  0  0  0  0  0  0  0
  152.9864  139.9092  162.1229 H   0  0  0  0  0  0  0  0  0  0  0  0
  152.5405  143.0731  163.2931 H   0  0  0  0  0  0  0  0  0  0  0  0
  151.8074  145.4926  159.5218 H   0  0  0  0  0  0  0  0  0  0  0  0
  152.8354  144.5840  158.4307 H   0  0  0  0  0  0  0  0  0  0  0  0
  150.0018  143.6342  159.1058 H   0  0  0  0  0  0  0  0  0  0  0  0
  150.2975  144.7760  157.7986 H   0  0  0  0  0  0  0  0  0  0  0  0
  150.8658  143.1021  156.5592 H   0  0  0  0  0  0  0  0  0  0  0  0
  150.3599  141.6530  159.0305 H   0  0  0  0  0  0  0  0  0  0  0  0
  149.5123  141.5338  157.4912 H   0  0  0  0  0  0  0  0  0  0  0  0
  148.9694  140.2676  156.1610 H   0  0  0  0  0  0  0  0  0  0  0  0
  150.1542  140.9624  155.0500 H   0  0  0  0  0  0  0  0  0  0  0  0
  148.9756  138.1805  155.0710 H   0  0  0  0  0  0  0  0  0  0  0  0
  149.3363  139.1838  153.6669 H   0  0  0  0  0  0  0  0  0  0  0  0
  151.0235  137.1623  154.3570 H   0  0  0  0  0  0  0  0  0  0  0  0
  151.6801  138.7132  153.8378 H   0  0  0  0  0  0  0  0  0  0  0  0
  152.7486  138.6145  155.9219 H   0  0  0  0  0  0  0  0  0  0  0  0
  151.4542  137.6588  156.6548 H   0  0  0  0  0  0  0  0  0  0  0  0
  153.2286  141.9211  159.2059 H   0  0  0  0  0  0  0  0  0  0  0  0
  1  2  1  0  0  0  0
  1 18  1  0  0  0  0
  1 19  1  0  0  0  0
  1 20  1  0  0  0  0
  2 17  2  0  0  0  0
  2  3  1  0  0  0  0
  3  4  2  0  0  0  0
  3 21  1  0  0  0  0
  4  5  1  0  0  0  0
  5  6  1  0  0  0  0
  5 17  1  0  0  0  0
  6  7  1  0  0  0  0
  6 22  1  0  0  0  0
  6 23  1  0  0  0  0
  7  8  1  0  0  0  0
  7 24  1  0  0  0  0
  7 25  1  0  0  0  0
  8  9  1  0  0  0  0
  8 26  1  0  0  0  0
  9 10  1  0  0  0  0
  9 27  1  0  0  0  0
  9 28  1  0  0  0  0
 10 11  2  0  0  0  0
 10 12  1  0  0  0  0
 12 16  1  0  0  0  0
 12 13  1  0  0  0  0
 13 14  1  0  0  0  0
 13 29  1  0  0  0  0
 13 30  1  0  0  0  0
 14 15  1  0  0  0  0
 14 31  1  0  0  0  0
 14 32  1  0  0  0  0
 15 16  1  0  0  0  0
 15 33  1  0  0  0  0
 15 34  1  0  0  0  0
 16 35  1  0  0  0  0
 16 36  1  0  0  0  0
 17 37  1  0  0  0  0
M  END
> <s_m_source_file>
AV-unprocessed.smi

> <i_m_source_file_index>
3215

> <i_lp_mmshare_version>
43012

> <i_f3d_flags>
0

> <s_epik_input>
W0NIM11jMVtjSF1ubihbY0hdMSlbQ0gyXVtDSDJdW05IXVtDSDJdQyg9TylOMltDSDJdW0NIMl1bQ0gyXVtDSDJdMg==

> <s_epik_cmdline>
J2VwaWtfcHl0aG9uJywgJy1waCcsICc3LjAnLCAnLXRuJywgJzgnLCAnLW1hJywgJzIwMCcsICctbWV0YWxfYmluZGluZycsICctaW1hZScsICc8aW5maWxlLm1hZT4nLCAnLW9tYWUnLCAnPG91dGZpbGUubWFlPic=

> <r_lp_tautomer_probability>
1

> <r_epik_Ionization_Penalty>
0.736363

> <r_epik_Ionization_Penalty_Charging>
0

> <r_epik_Ionization_Penalty_Neutral>
0.736363

> <r_epik_State_Penalty>
0.758951

> <r_epik_Charging_Adjusted_Penalty>
0.758951

> <i_epik_Tot_Q>
0

> <i_epik_Tot_abs_Q>
0

> <r_epik_Metal_State_Penalty>
0.755698

> <b_epik_Metal_Only>
0

> <s_lp_Force_Field>
OPLS_2005

> <r_lp_Energy>
29.5089

> <b_lp_Chiralities_Consistent>
1

> <s_lp_Variant>
AV-unprocessed.smi:3215-2

> <Gold.Version>
5.8.1

> <Gold.Id.Protein>
6NUR|6NUR_protein|mol2

> <Gold.PLP.Fitness>
46.0427

> <Gold.PLP.PLP>
-45.2270

> <Gold.PLP.part.hbond>
-1.0000

> <Gold.PLP.part.metal>
0.0000

> <Gold.PLP.part.buried>
-5.5372

> <Gold.PLP.part.nonpolar>
-38.8950

> <Gold.PLP.part.repulsive>
0.1454

> <Gold.PLP.ligand.clash>
0.0000

> <Gold.PLP.ligand.torsion>
1.1021

> <Gold.PLP.Chemscore.Hbond>
1.0000

> <Gold.PLP.Chemscore.CHOScore>
0.0000

> <Gold.PLP.Chemscore.Metal>
0.0000

> <Gold.PLP.Chemscore.Internal.Correction>
0.0200

> <Gold.Rescore>
     Score         DG    S(hbond)    S(metal)    S(lipo)     H(rot)  DE(clash)    DE(int)     intcor
     15.16     -16.21       0.98        0.00     101.89       1.74       0.04       1.01       ----

> <Gold.Chemscore.Fitness>
15.1584

> <Gold.Chemscore.DG>
-16.2083

> <Gold.Chemscore.ZeroCoef>
-5.4800

> <Gold.Chemscore.Hbond>
0.9799

> <Gold.Chemscore.Metal>
0.0000

> <Gold.Chemscore.Lipo>
101.8891

> <Gold.Chemscore.Internal_Hbond>
0.0000

> <Gold.Chemscore.DEClash>
0.0360

> <Gold.Chemscore.DEInternal>
1.0139

> <Gold.Chemscore.Rot>
1.7444

> <Gold.Chemscore.Internal.Correction>
   9.000000E+99

> <Gold.Chemscore.Hbond.Weighted>
-3.2730

> <Gold.Chemscore.Metal.Weighted>
-0.0000

> <Gold.Chemscore.Lipo.Weighted>
-11.9210

> <Gold.Chemscore.Internal_Hbond.Weighted>
0.0000

> <Gold.Chemscore.DEClash.Weighted>
0.0360

> <Gold.Chemscore.DEInternal.Weighted>
1.0139

> <Gold.Chemscore.Rot.Weighted>
4.4657

> <Gold.Chemscore.Internal.Correction.Weighted>
   9.000000E+99

> <Gold.Protein.RotatedTorsions>
[ 6907 6896 6895 6894 ] final -146.76 input  -60.11 | X-H torsion
[ 7974 7965 7964 7962 ] final  156.44 input  175.53 | X-H torsion
[ 8008 7997 7996 7995 ] final  -77.35 input   59.86 | X-H torsion
[ 10167 10162 10161 10158 ] final  -88.27 input  -65.29 | X-H torsion
[ 10718 10713 10712 10709 ] final -157.95 input   66.30 | X-H torsion
[ 10763 10752 10751 10750 ] final   18.56 input  -60.55 | X-H torsion
[ 11005 11000 10999 10996 ] final   76.71 input  -57.11 | X-H torsion

> <Gold.Protein.ActiveResidues>
 VAL166  LYS551  ARG553  GLY616  TRP617  ASP618  TYR619  PRO620  LYS621  CYS622 
 ASP623  PHE694  ASN695  SER759  ASP760  ASP761  ALA762  ILE779  LEU786  VAL792 
 PHE793  MET794  SER795  GLU796  ALA797  LYS798  CYS799  TRP800  GLU811  SER814 

> <Gold.Protein.RotatedAtoms>
  151.1462  133.4938  159.2595 H   0  0  0  0  0  0  0  0  0  0  0  0  # atno 6907 bound_to 6896
  151.1603  135.0269  159.8717 H   0  0  0  0  0  0  0  0  0  0  0  0  # atno 6908 bound_to 6896
  152.5463  134.1336  159.8503 H   0  0  0  0  0  0  0  0  0  0  0  0  # atno 6909 bound_to 6896
  144.7963  139.7204  143.6200 H   0  0  0  0  0  0  0  0  0  0  0  0  # atno 7974 bound_to 7965
  154.5588  140.0712  156.8787 H   0  0  0  0  0  0  0  0  0  0  0  0  # atno 8008 bound_to 7997
  155.2850  140.3374  155.4238 H   0  0  0  0  0  0  0  0  0  0  0  0  # atno 8009 bound_to 7997
  156.2025  140.1727  156.7855 H   0  0  0  0  0  0  0  0  0  0  0  0  # atno 8010 bound_to 7997
  140.3763  143.2770  151.9439 H   0  0  0  0  0  0  0  0  0  0  0  0  # atno 10167 bound_to 10162
  156.5473  130.8590  151.2768 H   0  0  0  0  0  0  0  0  0  0  0  0  # atno 10718 bound_to 10713
  153.1238  135.6725  153.9290 H   0  0  0  0  0  0  0  0  0  0  0  0  # atno 10763 bound_to 10752
  153.8798  135.3059  155.3446 H   0  0  0  0  0  0  0  0  0  0  0  0  # atno 10764 bound_to 10752
  154.7646  135.4970  153.9610 H   0  0  0  0  0  0  0  0  0  0  0  0  # atno 10765 bound_to 10752
  139.9286  134.7623  156.1430 H   0  0  0  0  0  0  0  0  0  0  0  0  # atno 11005 bound_to 11000
  146.2232  139.5674  142.9604 LP  0  0  0  0  0  0  0  0  0  0  0  0  # atno 17320 bound_to 7965
  145.5665  141.0399  143.2197 LP  0  0  0  0  0  0  0  0  0  0  0  0  # atno 17321 bound_to 7965
  139.4799  144.5860  151.7852 LP  0  0  0  0  0  0  0  0  0  0  0  0  # atno 17342 bound_to 10162
  140.4983  144.1208  150.5965 LP  0  0  0  0  0  0  0  0  0  0  0  0  # atno 17343 bound_to 10162
  157.7394  130.9831  150.2312 LP  0  0  0  0  0  0  0  0  0  0  0  0  # atno 17370 bound_to 10713
  156.2916  130.3746  149.7836 LP  0  0  0  0  0  0  0  0  0  0  0  0  # atno 17371 bound_to 10713
  141.0860  133.6734  156.2438 LP  0  0  0  0  0  0  0  0  0  0  0  0  # atno 17394 bound_to 11000
  140.6265  134.5308  157.5554 LP  0  0  0  0  0  0  0  0  0  0  0  0  # atno 17395 bound_to 11000

$$$$
