AV-unprocessed.smi:1051|AV-procd|sdf|4615|dock7
  -GOLD-   22720 3113D 1   1.00000     0.00000
 Structure written by MMmdl.
 45 47  0  0  0  0  0  0  0  0  1 V2000
  143.9374  143.0994  158.5991 C   0  0  0  0  0  0  0  0  0  0  0  0
  145.2732  142.3870  158.3909 C   0  0  0  0  0  0  0  0  0  0  0  0
  145.8271  141.8776  159.3648 O   0  0  0  0  0  0  0  0  0  0  0  0
  145.8361  142.3469  157.0106 C   0  0  0  0  0  0  0  0  0  0  0  0
  145.1004  142.9190  155.9486 C   0  0  0  0  0  0  0  0  0  0  0  0
  145.6074  142.8975  154.6369 C   0  0  0  0  0  0  0  0  0  0  0  0
  146.8538  142.3021  154.3737 C   0  0  0  0  0  0  0  0  0  0  0  0
  147.6067  141.7220  155.4131 C   0  0  0  0  0  0  0  0  0  0  0  0
  148.8153  141.1590  155.0645 O   0  0  0  0  0  0  0  0  0  0  0  0
  149.3012  140.0654  155.8322 C   0  0  0  0  0  0  0  0  0  0  0  0
  150.7958  140.2844  156.1092 C   0  0  1  0  0  0  0  0  0  0  0  0
  151.4995  139.8937  154.9472 O   0  0  0  0  0  0  0  0  0  0  0  0
  151.1224  141.7615  156.4108 C   0  0  0  0  0  0  0  0  0  0  0  0
  151.7663  141.9156  157.7134 N   0  0  0  0  0  0  0  0  0  0  0  0
  152.5470  141.0020  158.3382 C   0  0  0  0  0  0  0  0  0  0  0  0
  152.8395  139.8873  157.9054 O   0  0  0  0  0  0  0  0  0  0  0  0
  152.9513  141.5324  159.5162 N   0  0  0  0  0  0  0  0  0  0  0  0
  153.7985  140.8999  160.5202 C   0  0  0  0  0  0  0  0  0  0  0  0
  152.4210  142.8224  159.6456 C   0  0  0  0  0  0  0  0  0  0  0  0
  152.5520  143.7750  160.6703 C   0  0  0  0  0  0  0  0  0  0  0  0
  151.8828  145.0091  160.4939 C   0  0  0  0  0  0  0  0  0  0  0  0
  151.1160  145.2601  159.3263 C   0  0  0  0  0  0  0  0  0  0  0  0
  151.0016  144.2827  158.3100 C   0  0  0  0  0  0  0  0  0  0  0  0
  151.6753  143.0652  158.5110 C   0  0  0  0  0  0  0  0  0  0  0  0
  147.0900  141.7499  156.7337 C   0  0  0  0  0  0  0  0  0  0  0  0
  144.0125  144.1469  158.3065 H   0  0  0  0  0  0  0  0  0  0  0  0
  143.6438  143.0595  159.6482 H   0  0  0  0  0  0  0  0  0  0  0  0
  143.1545  142.6239  158.0079 H   0  0  0  0  0  0  0  0  0  0  0  0
  144.1405  143.3811  156.1279 H   0  0  0  0  0  0  0  0  0  0  0  0
  145.0388  143.3381  153.8315 H   0  0  0  0  0  0  0  0  0  0  0  0
  147.2356  142.2885  153.3633 H   0  0  0  0  0  0  0  0  0  0  0  0
  148.7548  140.0178  156.7759 H   0  0  0  0  0  0  0  0  0  0  0  0
  149.1519  139.1218  155.3040 H   0  0  0  0  0  0  0  0  0  0  0  0
  151.0991  139.6392  156.9349 H   0  0  0  0  0  0  0  0  0  0  0  0
  151.5646  138.9508  154.9388 H   0  0  0  0  0  0  0  0  0  0  0  0
  151.7260  142.2046  155.6178 H   0  0  0  0  0  0  0  0  0  0  0  0
  150.2012  142.3459  156.4308 H   0  0  0  0  0  0  0  0  0  0  0  0
  153.2404  140.7586  161.4462 H   0  0  0  0  0  0  0  0  0  0  0  0
  154.6639  141.5274  160.7349 H   0  0  0  0  0  0  0  0  0  0  0  0
  154.1629  139.9250  160.1941 H   0  0  0  0  0  0  0  0  0  0  0  0
  153.1390  143.5770  161.5550 H   0  0  0  0  0  0  0  0  0  0  0  0
  151.9572  145.7702  161.2568 H   0  0  0  0  0  0  0  0  0  0  0  0
  150.6137  146.2092  159.2113 H   0  0  0  0  0  0  0  0  0  0  0  0
  150.4214  144.4698  157.4186 H   0  0  0  0  0  0  0  0  0  0  0  0
  147.6576  141.3132  157.5398 H   0  0  0  0  0  0  0  0  0  0  0  0
  1  2  1  0  0  0  0
  1 26  1  0  0  0  0
  1 27  1  0  0  0  0
  1 28  1  0  0  0  0
  2  3  2  0  0  0  0
  2  4  1  0  0  0  0
  4 25  1  0  0  0  0
  4  5  2  0  0  0  0
  5  6  1  0  0  0  0
  5 29  1  0  0  0  0
  6  7  2  0  0  0  0
  6 30  1  0  0  0  0
  7  8  1  0  0  0  0
  7 31  1  0  0  0  0
  8  9  1  0  0  0  0
  8 25  2  0  0  0  0
  9 10  1  0  0  0  0
 10 11  1  0  0  0  0
 10 32  1  0  0  0  0
 10 33  1  0  0  0  0
 11 12  1  0  0  0  0
 11 13  1  0  0  0  0
 11 34  1  0  0  0  0
 12 35  1  0  0  0  0
 13 14  1  0  0  0  0
 13 36  1  0  0  0  0
 13 37  1  0  0  0  0
 14 24  1  0  0  0  0
 14 15  1  0  0  0  0
 15 16  2  0  0  0  0
 15 17  1  0  0  0  0
 17 18  1  0  0  0  0
 17 19  1  0  0  0  0
 18 38  1  0  0  0  0
 18 39  1  0  0  0  0
 18 40  1  0  0  0  0
 19 24  2  0  0  0  0
 19 20  1  0  0  0  0
 20 21  2  0  0  0  0
 20 41  1  0  0  0  0
 21 22  1  0  0  0  0
 21 42  1  0  0  0  0
 22 23  2  0  0  0  0
 22 43  1  0  0  0  0
 23 24  1  0  0  0  0
 23 44  1  0  0  0  0
 25 45  1  0  0  0  0
M  END
> <s_m_source_file>
AV-unprocessed.smi

> <i_m_source_file_index>
1051

> <i_lp_mmshare_version>
43012

> <i_f3d_flags>
0

> <s_epik_input>
W0NIM11DKD1PKWMxW2NIXVtjSF1bY0hdYyhbY0hdMSlPW0NIMl1bQ0BIXShbT0hdKVtDSDJdbihjKD1PKW4yW0NIM10pYyhjMjMpW2NIXVtjSF1bY0hdW2NIXTM=

> <s_epik_cmdline>
J2VwaWtfcHl0aG9uJywgJy1waCcsICc3LjAnLCAnLXRuJywgJzgnLCAnLW1hJywgJzIwMCcsICctbWV0YWxfYmluZGluZycsICctaW1hZScsICc8aW5maWxlLm1hZT4nLCAnLW9tYWUnLCAnPG91dGZpbGUubWFlPic=

> <r_lp_tautomer_probability>
1

> <r_epik_Ionization_Penalty>
2.40143e-06

> <r_epik_Ionization_Penalty_Charging>
2.1343e-09

> <r_epik_Ionization_Penalty_Neutral>
2.3993e-06

> <r_epik_State_Penalty>
-0

> <r_epik_Charging_Adjusted_Penalty>
2.1343e-09

> <i_epik_Tot_Q>
0

> <i_epik_Tot_abs_Q>
0

> <r_epik_Metal_State_Penalty>
-0

> <b_epik_Metal_Only>
0

> <s_lp_Force_Field>
OPLS_2005

> <r_lp_Energy>
51.4738

> <b_lp_Chiralities_Consistent>
1

> <s_lp_Variant>
AV-unprocessed.smi:1051-2

> <Gold.Version>
5.8.1

> <Gold.Id.Protein>
6NUR|6NUR_protein|mol2

> <Gold.PLP.Fitness>
55.5443

> <Gold.PLP.PLP>
-50.4402

> <Gold.PLP.part.hbond>
-3.0000

> <Gold.PLP.part.metal>
0.0000

> <Gold.PLP.part.buried>
-8.8820

> <Gold.PLP.part.nonpolar>
-39.9612

> <Gold.PLP.part.repulsive>
0.1182

> <Gold.PLP.ligand.clash>
0.0118

> <Gold.PLP.ligand.torsion>
2.0065

> <Gold.PLP.Chemscore.Hbond>
2.9913

> <Gold.PLP.Chemscore.CHOScore>
0.0000

> <Gold.PLP.Chemscore.Metal>
0.0000

> <Gold.Chemscore.Hbonds>
donor molecule, donor type, donor heavy atom, donor atom, acceptor molecule, acceptor atom, score
      P1  H  6934  6946       L1     3  1.00
      P1  H  7989  7998       L1    12  1.00
      P1  H  7997  8008       L1    16  1.00

> <Gold.PLP.Chemscore.Internal.Correction>
0.1551

> <Gold.Rescore>
     Score         DG    S(hbond)    S(metal)    S(lipo)     H(rot)  DE(clash)    DE(int)     intcor
     19.26     -22.74       2.85        0.00     116.52       2.30       0.02       3.46       ----

> <Gold.Chemscore.Fitness>
19.2603

> <Gold.Chemscore.DG>
-22.7356

> <Gold.Chemscore.ZeroCoef>
-5.4800

> <Gold.Chemscore.Hbond>
2.8464

> <Gold.Chemscore.Metal>
0.0000

> <Gold.Chemscore.Lipo>
116.5179

> <Gold.Chemscore.Internal_Hbond>
0.0000

> <Gold.Chemscore.DEClash>
0.0186

> <Gold.Chemscore.DEInternal>
3.4566

> <Gold.Chemscore.Rot>
2.2984

> <Gold.Chemscore.Internal.Correction>
   9.000000E+99

> <Gold.Chemscore.Hbonds>
donor molecule, donor type, donor heavy atom, donor atom, acceptor molecule, acceptor atom, score
      P1  H  6934  6946       L1     3  0.95
      P1  H  7989  7998       L1    12  0.98
      P1  H  7997  8008       L1    16  0.63

> <Gold.Chemscore.Hbond.Weighted>
-9.5069

> <Gold.Chemscore.Metal.Weighted>
-0.0000

> <Gold.Chemscore.Lipo.Weighted>
-13.6326

> <Gold.Chemscore.Internal_Hbond.Weighted>
0.0000

> <Gold.Chemscore.DEClash.Weighted>
0.0186

> <Gold.Chemscore.DEInternal.Weighted>
3.4566

> <Gold.Chemscore.Rot.Weighted>
5.8839

> <Gold.Chemscore.Internal.Correction.Weighted>
   9.000000E+99

> <Gold.Protein.RotatedTorsions>
[ 6907 6896 6895 6894 ] final  -10.66 input  -60.11 | X-H torsion
[ 7974 7965 7964 7962 ] final   68.31 input  175.53 | X-H torsion
[ 8008 7997 7996 7995 ] final  -66.20 input   59.86 | X-H torsion
[ 10167 10162 10161 10158 ] final  155.84 input  -65.29 | X-H torsion
[ 10718 10713 10712 10709 ] final  124.52 input   66.30 | X-H torsion
[ 10763 10752 10751 10750 ] final  -55.28 input  -60.55 | X-H torsion
[ 11005 11000 10999 10996 ] final   33.47 input  -57.11 | X-H torsion

> <Gold.Protein.ActiveResidues>
 VAL166  LYS551  ARG553  GLY616  TRP617  ASP618  TYR619  PRO620  LYS621  CYS622 
 ASP623  PHE694  ASN695  SER759  ASP760  ASP761  ALA762  ILE779  LEU786  VAL792 
 PHE793  MET794  SER795  GLU796  ALA797  LYS798  CYS799  TRP800  GLU811  SER814 

> <Gold.Protein.RotatedAtoms>
  151.3985  135.0967  159.9548 H   0  0  0  0  0  0  0  0  0  0  0  0  # atno 6907 bound_to 6896
  152.5058  133.8911  159.7404 H   0  0  0  0  0  0  0  0  0  0  0  0  # atno 6908 bound_to 6896
  150.9380  133.6633  159.2825 H   0  0  0  0  0  0  0  0  0  0  0  0  # atno 6909 bound_to 6896
  145.8041  139.2997  143.1138 H   0  0  0  0  0  0  0  0  0  0  0  0  # atno 7974 bound_to 7965
  154.4720  140.0917  156.7167 H   0  0  0  0  0  0  0  0  0  0  0  0  # atno 8008 bound_to 7997
  155.4699  140.3464  155.4306 H   0  0  0  0  0  0  0  0  0  0  0  0  # atno 8009 bound_to 7997
  156.1054  140.1433  156.9400 H   0  0  0  0  0  0  0  0  0  0  0  0  # atno 8010 bound_to 7997
  139.4821  144.5062  151.8093 H   0  0  0  0  0  0  0  0  0  0  0  0  # atno 10167 bound_to 10162
  157.5578  131.1091  150.8590 H   0  0  0  0  0  0  0  0  0  0  0  0  # atno 10718 bound_to 10713
  154.1884  135.6431  153.5053 H   0  0  0  0  0  0  0  0  0  0  0  0  # atno 10763 bound_to 10752
  153.0041  135.5422  154.6441 H   0  0  0  0  0  0  0  0  0  0  0  0  # atno 10764 bound_to 10752
  154.5824  135.2926  155.0692 H   0  0  0  0  0  0  0  0  0  0  0  0  # atno 10765 bound_to 10752
  140.2628  134.3173  155.7852 H   0  0  0  0  0  0  0  0  0  0  0  0  # atno 11005 bound_to 11000
  145.9847  140.8653  143.0096 LP  0  0  0  0  0  0  0  0  0  0  0  0  # atno 17320 bound_to 7965
  144.6765  140.2130  143.7375 LP  0  0  0  0  0  0  0  0  0  0  0  0  # atno 17321 bound_to 7965
  140.4561  144.1788  150.5901 LP  0  0  0  0  0  0  0  0  0  0  0  0  # atno 17342 bound_to 10162
  140.4534  143.2477  151.9317 LP  0  0  0  0  0  0  0  0  0  0  0  0  # atno 17343 bound_to 10162
  156.9097  130.5276  149.5280 LP  0  0  0  0  0  0  0  0  0  0  0  0  # atno 17370 bound_to 10713
  156.0635  130.5683  150.9241 LP  0  0  0  0  0  0  0  0  0  0  0  0  # atno 17371 bound_to 10713
  141.2188  133.7419  156.9213 LP  0  0  0  0  0  0  0  0  0  0  0  0  # atno 17394 bound_to 11000
  140.1448  134.9269  157.2515 LP  0  0  0  0  0  0  0  0  0  0  0  0  # atno 17395 bound_to 11000

$$$$
