AV-unprocessed.smi:500|AV-procd|sdf|2741|dock7
  -GOLD-   2262023203D 1   1.00000     0.00000
 Structure written by MMmdl.
 45 47  0  0  0  0  0  0  0  0  3 V2000
  147.4981  140.0758  153.9856 C   0  0  0  0  0  0  0  0  0  0  0  0
  148.4515  141.2497  154.2475 C   0  0  0  0  0  0  0  0  0  0  0  0
  149.6890  140.8189  154.7963 O   0  0  0  0  0  0  0  0  0  0  0  0
  150.0663  141.4910  155.9899 C   0  0  0  0  0  0  0  0  0  0  0  0
  151.5713  141.3074  156.2334 C   0  0  0  0  0  0  0  0  0  0  0  0
  151.9102  141.3166  157.6723 N   0  0  0  0  0  0  0  0  0  0  0  0
  152.2887  140.3071  158.5215 C   0  0  0  0  0  0  0  0  0  0  0  0
  152.4689  138.8406  158.2199 C   0  0  1  0  0  0  0  0  0  0  0  0
  151.1246  138.2066  157.8372 C   0  0  0  0  0  0  0  0  0  0  0  0
  153.4281  138.6245  157.1353 N   0  5  0  0  0  0  0  0  0  0  0  0
  153.8851  137.3978  156.7522 C   0  0  0  0  0  0  0  0  0  0  0  0
  153.5349  136.2735  157.1269 O   0  0  0  0  0  0  0  0  0  0  0  0
  154.9890  137.4967  155.7699 C   0  0  0  0  0  0  0  0  0  0  0  0
  156.2779  137.0265  155.7858 C   0  0  0  0  0  0  0  0  0  0  0  0
  156.8838  137.4454  154.5691 C   0  0  0  0  0  0  0  0  0  0  0  0
  155.9265  138.1488  153.8973 C   0  0  0  0  0  0  0  0  0  0  0  0
  154.7717  138.1931  154.6151 O   0  0  0  0  0  0  0  0  0  0  0  0
  152.4720  140.8702  159.7503 N   0  3  0  0  0  0  0  0  0  0  0  0
  152.1955  142.2343  159.7008 C   0  0  0  0  0  0  0  0  0  0  0  0
  152.2322  143.2051  160.6966 C   0  0  0  0  0  0  0  0  0  0  0  0
  151.8778  144.5154  160.3158 C   0  0  0  0  0  0  0  0  0  0  0  0
  151.5043  144.8177  158.9905 C   0  0  0  0  0  0  0  0  0  0  0  0
  151.4725  143.8240  157.9901 C   0  0  0  0  0  0  0  0  0  0  0  0
  151.8286  142.5296  158.3724 C   0  0  0  0  0  0  0  0  0  0  0  0
  146.5973  140.4183  153.4758 H   0  0  0  0  0  0  0  0  0  0  0  0
  147.1843  139.5946  154.9116 H   0  0  0  0  0  0  0  0  0  0  0  0
  147.9705  139.3216  153.3556 H   0  0  0  0  0  0  0  0  0  0  0  0
  148.6697  141.7443  153.3010 H   0  0  0  0  0  0  0  0  0  0  0  0
  147.9834  142.0006  154.8858 H   0  0  0  0  0  0  0  0  0  0  0  0
  149.8374  142.5542  155.9119 H   0  0  0  0  0  0  0  0  0  0  0  0
  149.5079  141.1017  156.8409 H   0  0  0  0  0  0  0  0  0  0  0  0
  151.9085  140.3614  155.8093 H   0  0  0  0  0  0  0  0  0  0  0  0
  152.1434  142.0793  155.7199 H   0  0  0  0  0  0  0  0  0  0  0  0
  152.8060  138.3528  159.1351 H   0  0  0  0  0  0  0  0  0  0  0  0
  150.3956  138.3268  158.6393 H   0  0  0  0  0  0  0  0  0  0  0  0
  151.2323  137.1374  157.6506 H   0  0  0  0  0  0  0  0  0  0  0  0
  150.7067  138.6608  156.9378 H   0  0  0  0  0  0  0  0  0  0  0  0
  156.7307  136.4491  156.5784 H   0  0  0  0  0  0  0  0  0  0  0  0
  157.8919  137.2578  154.2307 H   0  0  0  0  0  0  0  0  0  0  0  0
  155.8993  138.6615  152.9472 H   0  0  0  0  0  0  0  0  0  0  0  0
  152.5125  142.9717  161.7132 H   0  0  0  0  0  0  0  0  0  0  0  0
  151.8891  145.3028  161.0555 H   0  0  0  0  0  0  0  0  0  0  0  0
  151.2336  145.8319  158.7355 H   0  0  0  0  0  0  0  0  0  0  0  0
  151.1750  144.0689  156.9815 H   0  0  0  0  0  0  0  0  0  0  0  0
  152.7445  140.3368  160.5657 H   0  0  0  0  0  0  0  0  0  0  0  0
  1  2  1  0  0  0  0
  1 25  1  0  0  0  0
  1 26  1  0  0  0  0
  1 27  1  0  0  0  0
  2  3  1  0  0  0  0
  2 28  1  0  0  0  0
  2 29  1  0  0  0  0
  3  4  1  0  0  0  0
  4  5  1  0  0  0  0
  4 30  1  0  0  0  0
  4 31  1  0  0  0  0
  5  6  1  0  0  0  0
  5 32  1  0  0  0  0
  5 33  1  0  0  0  0
  6 24  1  0  0  0  0
  6  7  1  0  0  0  0
  7  8  1  0  0  0  0
  7 18  2  0  0  0  0
  8  9  1  0  0  0  0
  8 10  1  0  0  0  0
  8 34  1  0  0  0  0
  9 35  1  0  0  0  0
  9 36  1  0  0  0  0
  9 37  1  0  0  0  0
 10 11  1  0  0  0  0
 11 12  2  0  0  0  0
 11 13  1  0  0  0  0
 13 17  1  0  0  0  0
 13 14  2  0  0  0  0
 14 15  1  0  0  0  0
 14 38  1  0  0  0  0
 15 16  2  0  0  0  0
 15 39  1  0  0  0  0
 16 17  1  0  0  0  0
 16 40  1  0  0  0  0
 18 19  1  0  0  0  0
 18 45  1  0  0  0  0
 19 24  2  0  0  0  0
 19 20  1  0  0  0  0
 20 21  2  0  0  0  0
 20 41  1  0  0  0  0
 21 22  1  0  0  0  0
 21 42  1  0  0  0  0
 22 23  2  0  0  0  0
 22 43  1  0  0  0  0
 23 24  1  0  0  0  0
 23 44  1  0  0  0  0
M  CHG  1  10  -1
M  CHG  1  18   1
M  END
> <s_m_source_file>
AV-unprocessed.smi

> <i_m_source_file_index>
500

> <i_lp_mmshare_version>
43012

> <i_f3d_flags>
0

> <s_epik_input>
W0NIM11bQ0gyXU9bQ0gyXVtDSDJdbihjKGMxMilbY0hdW2NIXVtjSF1bY0hdMiljKG4xKVtDQEhdKFtDSDNdKVtOSF1DKD1PKWMzW2NIXVtjSF1bY0hdbzM=

> <s_epik_cmdline>
J2VwaWtfcHl0aG9uJywgJy1waCcsICc3LjAnLCAnLXRuJywgJzgnLCAnLW1hJywgJzIwMCcsICctbWV0YWxfYmluZGluZycsICctaW1hZScsICc8aW5maWxlLm1hZT4nLCAnLW9tYWUnLCAnPG91dGZpbGUubWFlPic=

> <r_epik_Ionization_Penalty>
6.22753

> <r_epik_Ionization_Penalty_Charging>
6.22753

> <r_epik_Ionization_Penalty_Neutral>
2.56065e-12

> <r_epik_State_Penalty>
7.17947

> <r_epik_Charging_Adjusted_Penalty>
13.407

> <i_epik_Tot_Q>
0

> <i_epik_Tot_abs_Q>
2

> <r_epik_Metal_State_Penalty>
3.2092

> <b_epik_Metal_Only>
1

> <s_lp_Force_Field>
OPLS_2005

> <r_lp_Energy>
10.9404

> <b_lp_Chiralities_Consistent>
1

> <s_lp_Variant>
AV-unprocessed.smi:500-8

> <Gold.Version>
5.8.1

> <Gold.Id.Protein>
6NUR|6NUR_protein|mol2

> <Gold.PLP.Fitness>
51.0973

> <Gold.PLP.PLP>
-42.6404

> <Gold.PLP.part.hbond>
-3.9439

> <Gold.PLP.part.metal>
0.0000

> <Gold.PLP.part.buried>
-2.0557

> <Gold.PLP.part.nonpolar>
-35.7054

> <Gold.PLP.part.repulsive>
0.2464

> <Gold.PLP.ligand.clash>
0.0000

> <Gold.PLP.ligand.torsion>
1.8901

> <Gold.PLP.Chemscore.Hbond>
4.0198

> <Gold.PLP.Chemscore.CHOScore>
0.0000

> <Gold.PLP.Chemscore.Metal>
0.0000

> <Gold.Chemscore.Hbonds>
donor molecule, donor type, donor heavy atom, donor atom, acceptor molecule, acceptor atom, score
      P1  H  7989  7998       L1     3  0.19
      P1  H  7997  8009       L1    10  2.00
      P1  H  7997  8010       L1    17  0.11
      P1  H 10752 10763       L1    12  0.80

> <Gold.PLP.Chemscore.Internal.Correction>
0.1777

> <Gold.Rescore>
     Score         DG    S(hbond)    S(metal)    S(lipo)     H(rot)  DE(clash)    DE(int)     intcor
     19.04     -24.05       2.20        0.00     137.49       1.90       3.02       2.00       ----

> <Gold.Chemscore.Fitness>
19.0361

> <Gold.Chemscore.DG>
-24.0543

> <Gold.Chemscore.ZeroCoef>
-5.4800

> <Gold.Chemscore.Hbond>
2.2007

> <Gold.Chemscore.Metal>
0.0000

> <Gold.Chemscore.Lipo>
137.4884

> <Gold.Chemscore.Internal_Hbond>
0.0000

> <Gold.Chemscore.DEClash>
3.0230

> <Gold.Chemscore.DEInternal>
1.9952

> <Gold.Chemscore.Rot>
1.8993

> <Gold.Chemscore.Internal.Correction>
   9.000000E+99

> <Gold.Chemscore.Hbonds>
donor molecule, donor type, donor heavy atom, donor atom, acceptor molecule, acceptor atom, score
      P1  H  7989  7998       L1     3  0.08
      P1  H  7997  8009       L1    10  0.73
      P1  H 10752 10763       L1    12  0.11

> <Gold.Chemscore.Hbond.Weighted>
-7.3504

> <Gold.Chemscore.Metal.Weighted>
-0.0000

> <Gold.Chemscore.Lipo.Weighted>
-16.0861

> <Gold.Chemscore.Internal_Hbond.Weighted>
0.0000

> <Gold.Chemscore.DEClash.Weighted>
3.0230

> <Gold.Chemscore.DEInternal.Weighted>
1.9952

> <Gold.Chemscore.Rot.Weighted>
4.8622

> <Gold.Chemscore.Internal.Correction.Weighted>
   9.000000E+99

> <Gold.Protein.RotatedTorsions>
[ 6907 6896 6895 6894 ] final  -19.91 input  -60.11 | X-H torsion
[ 7974 7965 7964 7962 ] final   95.50 input  175.53 | X-H torsion
[ 8008 7997 7996 7995 ] final  159.57 input   59.86 | X-H torsion
[ 10167 10162 10161 10158 ] final   34.69 input  -65.29 | X-H torsion
[ 10718 10713 10712 10709 ] final  146.37 input   66.30 | X-H torsion
[ 10763 10752 10751 10750 ] final  141.85 input  -60.55 | X-H torsion
[ 11005 11000 10999 10996 ] final -124.37 input  -57.11 | X-H torsion

> <Gold.Protein.ActiveResidues>
 VAL166  LYS551  ARG553  GLY616  TRP617  ASP618  TYR619  PRO620  LYS621  CYS622 
 ASP623  PHE694  ASN695  SER759  ASP760  ASP761  ALA762  ILE779  LEU786  VAL792 
 PHE793  MET794  SER795  GLU796  ALA797  LYS798  CYS799  TRP800  GLU811  SER814 

> <Gold.Protein.RotatedAtoms>
  151.2561  135.0638  159.9080 H   0  0  0  0  0  0  0  0  0  0  0  0  # atno 6907 bound_to 6896
  152.5373  134.0281  159.8022 H   0  0  0  0  0  0  0  0  0  0  0  0  # atno 6908 bound_to 6896
  151.0496  133.5586  159.2674 H   0  0  0  0  0  0  0  0  0  0  0  0  # atno 6909 bound_to 6896
  145.4514  139.2293  143.3038 H   0  0  0  0  0  0  0  0  0  0  0  0  # atno 7974 bound_to 7965
  156.2230  140.1827  156.7431 H   0  0  0  0  0  0  0  0  0  0  0  0  # atno 8008 bound_to 7997
  154.5896  140.0653  156.9248 H   0  0  0  0  0  0  0  0  0  0  0  0  # atno 8009 bound_to 7997
  155.2360  140.3318  155.4300 H   0  0  0  0  0  0  0  0  0  0  0  0  # atno 8010 bound_to 7997
  140.4291  144.1350  150.6157 H   0  0  0  0  0  0  0  0  0  0  0  0  # atno 10167 bound_to 10162
  157.3340  131.0925  151.1139 H   0  0  0  0  0  0  0  0  0  0  0  0  # atno 10718 bound_to 10713
  153.9462  135.2975  155.3440 H   0  0  0  0  0  0  0  0  0  0  0  0  # atno 10763 bound_to 10752
  154.7451  135.5007  153.9193 H   0  0  0  0  0  0  0  0  0  0  0  0  # atno 10764 bound_to 10752
  153.1017  135.6736  153.9768 H   0  0  0  0  0  0  0  0  0  0  0  0  # atno 10765 bound_to 10752
  140.9847  134.0624  157.3725 H   0  0  0  0  0  0  0  0  0  0  0  0  # atno 11005 bound_to 11000
  146.2502  140.5273  142.8896 LP  0  0  0  0  0  0  0  0  0  0  0  0  # atno 17320 bound_to 7965
  144.8059  140.6299  143.6447 LP  0  0  0  0  0  0  0  0  0  0  0  0  # atno 17321 bound_to 7965
  140.4447  143.2511  151.9427 LP  0  0  0  0  0  0  0  0  0  0  0  0  # atno 17342 bound_to 10162
  139.4784  144.5620  151.8224 LP  0  0  0  0  0  0  0  0  0  0  0  0  # atno 17343 bound_to 10162
  157.2376  130.6554  149.5876 LP  0  0  0  0  0  0  0  0  0  0  0  0  # atno 17370 bound_to 10713
  155.9699  130.4578  150.5978 LP  0  0  0  0  0  0  0  0  0  0  0  0  # atno 17371 bound_to 10713
  139.8965  135.0146  156.7055 LP  0  0  0  0  0  0  0  0  0  0  0  0  # atno 17394 bound_to 11000
  140.7133  133.9204  155.8099 LP  0  0  0  0  0  0  0  0  0  0  0  0  # atno 17395 bound_to 11000

$$$$
