AV-unprocessed.smi:1260|AV-procd|sdf|5297|dock5
  -GOLD-   22720 4413D 1   1.00000     0.00000
 Structure written by MMmdl.
 37 39  0  0  0  0  0  0  0  0  2 V2000
  150.2336  135.5027  156.5037 O   0  0  0  0  0  0  0  0  0  0  0  0
  149.5672  136.3330  155.8872 C   0  0  0  0  0  0  0  0  0  0  0  0
  149.8942  137.8229  156.0189 C   0  0  0  0  0  0  0  0  0  0  0  0
  151.2619  138.1141  155.6272 N   0  0  0  0  0  0  0  0  0  0  0  0
  151.9768  139.2379  155.7105 C   0  0  0  0  0  0  0  0  0  0  0  0
  153.1977  139.0782  155.2236 N   0  0  0  0  0  0  0  0  0  0  0  0
  153.2073  137.7515  154.8266 N   0  0  0  0  0  0  0  0  0  0  0  0
  152.0623  137.1734  155.0656 N   0  0  0  0  0  0  0  0  0  0  0  0
  148.5316  136.0051  155.0968 N   0  0  0  0  0  0  0  0  0  0  0  0
  148.0868  134.6431  154.8076 C   0  0  2  0  0  0  0  0  0  0  0  0
  149.1989  133.7694  154.1959 C   0  0  0  0  0  0  0  0  0  0  0  0
  148.4994  132.9606  153.0986 C   0  0  0  0  0  0  0  0  0  0  0  0
  147.4625  133.8824  152.6199 N   0  3  1  0  0  0  0  0  0  0  0  0
  146.4142  133.3594  151.7205 C   0  0  0  0  0  0  0  0  0  0  0  0
  145.5660  134.5474  151.2172 C   0  0  0  0  0  0  0  0  0  0  0  0
  145.0352  135.4206  152.3770 C   0  0  0  0  0  0  0  0  0  0  0  0
  146.1612  135.8261  153.3528 C   0  0  0  0  0  0  0  0  0  0  0  0
  146.9103  134.5600  153.8059 C   0  0  2  0  0  0  0  0  0  0  0  0
  149.2146  138.4018  155.3923 H   0  0  0  0  0  0  0  0  0  0  0  0
  149.7447  138.1526  157.0482 H   0  0  0  0  0  0  0  0  0  0  0  0
  151.6048  140.1662  156.1189 H   0  0  0  0  0  0  0  0  0  0  0  0
  148.0379  136.7536  154.6325 H   0  0  0  0  0  0  0  0  0  0  0  0
  147.7725  134.1722  155.7415 H   0  0  0  0  0  0  0  0  0  0  0  0
  149.9688  134.3967  153.7437 H   0  0  0  0  0  0  0  0  0  0  0  0
  149.6876  133.1332  154.9348 H   0  0  0  0  0  0  0  0  0  0  0  0
  149.1780  132.6579  152.3005 H   0  0  0  0  0  0  0  0  0  0  0  0
  148.0341  132.0665  153.5171 H   0  0  0  0  0  0  0  0  0  0  0  0
  146.8749  132.8421  150.8783 H   0  0  0  0  0  0  0  0  0  0  0  0
  145.7939  132.6329  152.2476 H   0  0  0  0  0  0  0  0  0  0  0  0
  146.1755  135.1667  150.5577 H   0  0  0  0  0  0  0  0  0  0  0  0
  144.7349  134.1833  150.6127 H   0  0  0  0  0  0  0  0  0  0  0  0
  144.5434  136.3100  151.9823 H   0  0  0  0  0  0  0  0  0  0  0  0
  144.2706  134.8648  152.9214 H   0  0  0  0  0  0  0  0  0  0  0  0
  146.8465  136.5210  152.8655 H   0  0  0  0  0  0  0  0  0  0  0  0
  145.7337  136.3468  154.2102 H   0  0  0  0  0  0  0  0  0  0  0  0
  146.1782  133.8851  154.2550 H   0  0  0  0  0  0  0  0  0  0  0  0
  147.9563  134.5929  152.0990 H   0  0  0  0  0  0  0  0  0  0  0  0
  1  2  2  0  0  0  0
  2  3  1  0  0  0  0
  2  9  1  0  0  0  0
  3  4  1  0  0  0  0
  3 19  1  0  0  0  0
  3 20  1  0  0  0  0
  4  8  1  0  0  0  0
  4  5  1  0  0  0  0
  5  6  2  0  0  0  0
  5 21  1  0  0  0  0
  6  7  1  0  0  0  0
  7  8  2  0  0  0  0
  9 10  1  0  0  0  0
  9 22  1  0  0  0  0
 10 18  1  0  0  0  0
 10 11  1  0  0  0  0
 10 23  1  0  0  0  0
 11 12  1  0  0  0  0
 11 24  1  0  0  0  0
 11 25  1  0  0  0  0
 12 13  1  0  0  0  0
 12 26  1  0  0  0  0
 12 27  1  0  0  0  0
 13 18  1  0  0  0  0
 13 14  1  0  0  0  0
 13 37  1  0  0  0  0
 14 15  1  0  0  0  0
 14 28  1  0  0  0  0
 14 29  1  0  0  0  0
 15 16  1  0  0  0  0
 15 30  1  0  0  0  0
 15 31  1  0  0  0  0
 16 17  1  0  0  0  0
 16 32  1  0  0  0  0
 16 33  1  0  0  0  0
 17 18  1  0  0  0  0
 17 34  1  0  0  0  0
 17 35  1  0  0  0  0
 18 36  1  0  0  0  0
M  CHG  1  13   1
M  END
> <s_m_source_file>
AV-unprocessed.smi

> <i_m_source_file_index>
1260

> <i_lp_mmshare_version>
43012

> <i_f3d_flags>
0

> <s_epik_input>
bjFubltjSF1uMVtDSDJdQyg9TylbTkhdW0NASF0oW0NIMl1bQ0gyXTIpW0NAQEhdKE4yMylbQ0gyXVtDSDJdW0NIMl1bQ0gyXTM=

> <s_epik_cmdline>
J2VwaWtfcHl0aG9uJywgJy1waCcsICc3LjAnLCAnLXRuJywgJzgnLCAnLW1hJywgJzIwMCcsICctbWV0YWxfYmluZGluZycsICctaW1hZScsICc8aW5maWxlLm1hZT4nLCAnLW9tYWUnLCAnPG91dGZpbGUubWFlPic=

> <r_lp_tautomer_probability>
1

> <r_epik_Ionization_Penalty>
0.00234324

> <r_epik_Ionization_Penalty_Charging>
0.00233897

> <r_epik_Ionization_Penalty_Neutral>
4.26861e-06

> <r_epik_State_Penalty>
0.00161477

> <r_epik_Charging_Adjusted_Penalty>
0.00395374

> <i_epik_Tot_Q>
1

> <i_epik_Tot_abs_Q>
1

> <r_epik_Metal_State_Penalty>
-0

> <b_epik_Metal_Only>
0

> <s_lp_Force_Field>
OPLS_2005

> <r_lp_Energy>
44.4325

> <b_lp_Chiralities_Consistent>
1

> <s_lp_Variant>
AV-unprocessed.smi:1260-5

> <Gold.Version>
5.8.1

> <Gold.Id.Protein>
6NUR|6NUR_protein|mol2

> <Gold.PLP.Fitness>
37.0114

> <Gold.PLP.PLP>
-27.0180

> <Gold.PLP.part.hbond>
-5.4300

> <Gold.PLP.part.metal>
0.0000

> <Gold.PLP.part.buried>
-2.6396

> <Gold.PLP.part.nonpolar>
-18.7118

> <Gold.PLP.part.repulsive>
0.2030

> <Gold.PLP.ligand.clash>
0.0000

> <Gold.PLP.ligand.torsion>
0.0657

> <Gold.PLP.Chemscore.Hbond>
3.3744

> <Gold.PLP.Chemscore.CHOScore>
0.0000

> <Gold.PLP.Chemscore.Metal>
0.0000

> <Gold.Chemscore.Hbonds>
donor molecule, donor type, donor heavy atom, donor atom, acceptor molecule, acceptor atom, score
      L1  H    13    37       P1  7948  2.00
      P1  H  7997  8008       L1     6  1.00
      P1  H 10752 10763       L1     8  0.17

> <Gold.PLP.Chemscore.Internal.Correction>
0.0016

> <Gold.Rescore>
     Score         DG    S(hbond)    S(metal)    S(lipo)     H(rot)  DE(clash)    DE(int)     intcor
     10.21     -10.59       1.89        0.00      32.98       1.98       0.00       0.37       ----

> <Gold.Chemscore.Fitness>
10.2096

> <Gold.Chemscore.DG>
-10.5853

> <Gold.Chemscore.ZeroCoef>
-5.4800

> <Gold.Chemscore.Hbond>
1.8876

> <Gold.Chemscore.Metal>
0.0000

> <Gold.Chemscore.Lipo>
32.9794

> <Gold.Chemscore.Internal_Hbond>
0.0000

> <Gold.Chemscore.DEClash>
0.0019

> <Gold.Chemscore.DEInternal>
0.3739

> <Gold.Chemscore.Rot>
1.9757

> <Gold.Chemscore.Internal.Correction>
   9.000000E+99

> <Gold.Chemscore.Hbonds>
donor molecule, donor type, donor heavy atom, donor atom, acceptor molecule, acceptor atom, score
      L1  H    13    37       P1  7948  0.30
      P1  H  7997  8008       L1     6  0.94

> <Gold.Chemscore.Hbond.Weighted>
-6.3045

> <Gold.Chemscore.Metal.Weighted>
-0.0000

> <Gold.Chemscore.Lipo.Weighted>
-3.8586

> <Gold.Chemscore.Internal_Hbond.Weighted>
0.0000

> <Gold.Chemscore.DEClash.Weighted>
0.0019

> <Gold.Chemscore.DEInternal.Weighted>
0.3739

> <Gold.Chemscore.Rot.Weighted>
5.0578

> <Gold.Chemscore.Internal.Correction.Weighted>
   9.000000E+99

> <Gold.Protein.RotatedTorsions>
[ 6907 6896 6895 6894 ] final   91.86 input  -60.11 | X-H torsion
[ 7974 7965 7964 7962 ] final -163.98 input  175.53 | X-H torsion
[ 8008 7997 7996 7995 ] final   -7.61 input   59.86 | X-H torsion
[ 10167 10162 10161 10158 ] final  -84.30 input  -65.29 | X-H torsion
[ 10718 10713 10712 10709 ] final  166.01 input   66.30 | X-H torsion
[ 10763 10752 10751 10750 ] final   52.99 input  -60.55 | X-H torsion
[ 11005 11000 10999 10996 ] final  -83.12 input  -57.11 | X-H torsion

> <Gold.Protein.ActiveResidues>
 VAL166  LYS551  ARG553  GLY616  TRP617  ASP618  TYR619  PRO620  LYS621  CYS622 
 ASP623  PHE694  ASN695  SER759  ASP760  ASP761  ALA762  ILE779  LEU786  VAL792 
 PHE793  MET794  SER795  GLU796  ALA797  LYS798  CYS799  TRP800  GLU811  SER814 

> <Gold.Protein.RotatedAtoms>
  152.5451  134.1592  159.8550 H   0  0  0  0  0  0  0  0  0  0  0  0  # atno 6907 bound_to 6896
  151.1612  133.4837  159.2602 H   0  0  0  0  0  0  0  0  0  0  0  0  # atno 6908 bound_to 6896
  151.1371  135.0171  159.8664 H   0  0  0  0  0  0  0  0  0  0  0  0  # atno 6909 bound_to 6896
  144.7310  140.3027  143.6201 H   0  0  0  0  0  0  0  0  0  0  0  0  # atno 7974 bound_to 7965
  154.5821  140.2402  155.8039 H   0  0  0  0  0  0  0  0  0  0  0  0  # atno 8008 bound_to 7997
  156.2187  140.3004  155.9856 H   0  0  0  0  0  0  0  0  0  0  0  0  # atno 8009 bound_to 7997
  155.2522  140.0411  157.2978 H   0  0  0  0  0  0  0  0  0  0  0  0  # atno 8010 bound_to 7997
  140.4145  143.2609  151.8973 H   0  0  0  0  0  0  0  0  0  0  0  0  # atno 10167 bound_to 10162
  157.0720  131.0368  151.2608 H   0  0  0  0  0  0  0  0  0  0  0  0  # atno 10718 bound_to 10713
  152.9792  135.5794  154.4668 H   0  0  0  0  0  0  0  0  0  0  0  0  # atno 10763 bound_to 10752
  154.4236  135.2772  155.1961 H   0  0  0  0  0  0  0  0  0  0  0  0  # atno 10764 bound_to 10752
  154.3699  135.6170  153.5788 H   0  0  0  0  0  0  0  0  0  0  0  0  # atno 10765 bound_to 10752
  141.1659  133.7278  156.8672 H   0  0  0  0  0  0  0  0  0  0  0  0  # atno 11005 bound_to 11000
  145.7744  139.1868  143.2194 LP  0  0  0  0  0  0  0  0  0  0  0  0  # atno 17320 bound_to 7965
  146.0885  140.7683  142.9607 LP  0  0  0  0  0  0  0  0  0  0  0  0  # atno 17321 bound_to 7965
  139.4782  144.5502  151.8397 LP  0  0  0  0  0  0  0  0  0  0  0  0  # atno 17342 bound_to 10162
  140.4601  144.1733  150.5905 LP  0  0  0  0  0  0  0  0  0  0  0  0  # atno 17343 bound_to 10162
  157.4870  130.7799  149.7470 LP  0  0  0  0  0  0  0  0  0  0  0  0  # atno 17370 bound_to 10713
  155.9948  130.3916  150.2845 LP  0  0  0  0  0  0  0  0  0  0  0  0  # atno 17371 bound_to 10713
  140.1807  134.9035  157.2944 LP  0  0  0  0  0  0  0  0  0  0  0  0  # atno 17394 bound_to 11000
  140.2399  134.3808  155.7485 LP  0  0  0  0  0  0  0  0  0  0  0  0  # atno 17395 bound_to 11000

$$$$
