AV-unprocessed.smi:215|AV-procd|sdf|1653|dock4
  -GOLD-   2262020 43D 1   1.00000     0.00000
 Structure written by MMmdl.
 59 62  0  0  0  0  0  0  0  0  2 V2000
  149.8647  142.2535  157.6733 C   0  0  0  0  0  0  0  0  0  0  0  0
  151.3701  141.9993  157.4216 C   0  0  1  0  0  0  0  0  0  0  0  0
  152.2891  142.5235  158.5459 C   0  0  1  0  0  0  0  0  0  0  0  0
  151.9681  143.9014  159.0255 N   0  3  2  0  0  0  0  0  0  0  0  0
  152.3941  144.9396  158.0514 C   0  0  0  0  0  0  0  0  0  0  0  0
  152.4707  144.1998  160.3964 C   0  0  0  0  0  0  0  0  0  0  0  0
  151.4050  143.9555  161.4792 C   0  0  0  0  0  0  0  0  0  0  0  0
  151.7679  142.8470  162.2756 O   0  0  0  0  0  0  0  0  0  0  0  0
  152.1802  141.4027  159.5952 C   0  0  0  0  0  0  0  0  0  0  0  0
  152.0060  140.1257  158.7625 C   0  0  0  0  0  0  0  0  0  0  0  0
  151.6637  140.5730  157.4166 N   0  0  0  0  0  0  0  0  0  0  0  0
  151.2393  139.7063  156.4566 C   0  0  0  0  0  0  0  0  0  0  0  0
  150.8469  140.2196  155.2605 N   0  0  0  0  0  0  0  0  0  0  0  0
  150.4222  139.4189  154.2800 C   0  0  0  0  0  0  0  0  0  0  0  0
  150.3060  138.0911  154.2814 N   0  0  0  0  0  0  0  0  0  0  0  0
  150.6858  137.5623  155.4795 C   0  0  0  0  0  0  0  0  0  0  0  0
  151.1568  138.2891  156.6126 C   0  0  0  0  0  0  0  0  0  0  0  0
  151.4286  137.4020  157.6489 N   0  0  0  0  0  0  0  0  0  0  0  0
  151.1428  136.2280  157.1584 C   0  0  0  0  0  0  0  0  0  0  0  0
  150.6975  136.2298  155.8568 N   0  0  0  0  0  0  0  0  0  0  0  0
  150.3066  135.0860  155.0821 C   0  0  0  0  0  0  0  0  0  0  0  0
  148.8672  134.9280  154.5918 C   0  0  0  0  0  0  0  0  0  0  0  0
  148.9985  133.3940  154.7261 C   0  0  0  0  0  0  0  0  0  0  0  0
  147.7708  132.6828  155.3191 C   0  0  0  0  0  0  0  0  0  0  0  0
  147.3217  133.3302  156.4923 O   0  0  0  0  0  0  0  0  0  0  0  0
  149.4383  132.6592  153.4437 C   0  0  0  0  0  0  0  0  0  0  0  0
  148.3925  132.6042  152.4944 O   0  0  0  0  0  0  0  0  0  0  0  0
  150.1345  133.7090  155.7269 C   0  0  0  0  0  0  0  0  0  0  0  0
  151.6748  142.4517  156.4791 H   0  0  0  0  0  0  0  0  0  0  0  0
  153.3163  142.5293  158.1744 H   0  0  0  0  0  0  0  0  0  0  0  0
  149.6314  143.3173  157.6966 H   0  0  0  0  0  0  0  0  0  0  0  0
  149.5300  141.8228  158.6171 H   0  0  0  0  0  0  0  0  0  0  0  0
  149.2527  141.8153  156.8849 H   0  0  0  0  0  0  0  0  0  0  0  0
  153.4778  144.9347  157.9288 H   0  0  0  0  0  0  0  0  0  0  0  0
  152.0968  145.9376  158.3695 H   0  0  0  0  0  0  0  0  0  0  0  0
  151.9480  144.7834  157.0701 H   0  0  0  0  0  0  0  0  0  0  0  0
  153.3338  143.5887  160.6537 H   0  0  0  0  0  0  0  0  0  0  0  0
  152.8190  145.2330  160.4358 H   0  0  0  0  0  0  0  0  0  0  0  0
  151.3289  144.8289  162.1276 H   0  0  0  0  0  0  0  0  0  0  0  0
  150.4138  143.7944  161.0577 H   0  0  0  0  0  0  0  0  0  0  0  0
  151.8504  143.1314  163.1735 H   0  0  0  0  0  0  0  0  0  0  0  0
  153.0543  141.3371  160.2435 H   0  0  0  0  0  0  0  0  0  0  0  0
  151.3038  141.5531  160.2273 H   0  0  0  0  0  0  0  0  0  0  0  0
  152.9376  139.5599  158.7249 H   0  0  0  0  0  0  0  0  0  0  0  0
  151.2315  139.4844  159.1855 H   0  0  0  0  0  0  0  0  0  0  0  0
  150.1352  139.9127  153.3631 H   0  0  0  0  0  0  0  0  0  0  0  0
  151.2480  135.3230  157.7392 H   0  0  0  0  0  0  0  0  0  0  0  0
  151.0008  135.0179  154.2430 H   0  0  0  0  0  0  0  0  0  0  0  0
  148.1383  135.3546  155.2836 H   0  0  0  0  0  0  0  0  0  0  0  0
  148.6951  135.2863  153.5764 H   0  0  0  0  0  0  0  0  0  0  0  0
  146.9495  132.6329  154.6038 H   0  0  0  0  0  0  0  0  0  0  0  0
  148.0100  131.6515  155.5805 H   0  0  0  0  0  0  0  0  0  0  0  0
  146.3997  133.5154  156.3986 H   0  0  0  0  0  0  0  0  0  0  0  0
  150.3031  133.1392  152.9849 H   0  0  0  0  0  0  0  0  0  0  0  0
  149.7430  131.6353  153.6610 H   0  0  0  0  0  0  0  0  0  0  0  0
  148.6047  131.9439  151.8524 H   0  0  0  0  0  0  0  0  0  0  0  0
  151.0116  133.0660  155.6484 H   0  0  0  0  0  0  0  0  0  0  0  0
  149.7869  133.7624  156.7599 H   0  0  0  0  0  0  0  0  0  0  0  0
  150.9602  143.9445  159.0843 H   0  0  0  0  0  0  0  0  0  0  0  0
  1  2  1  0  0  0  0
  1 31  1  0  0  0  0
  1 32  1  0  0  0  0
  1 33  1  0  0  0  0
  2 29  1  0  0  0  0
  2 11  1  0  0  0  0
  2  3  1  0  0  0  0
  3 30  1  0  0  0  0
  3  4  1  0  0  0  0
  3  9  1  0  0  0  0
  4  5  1  0  0  0  0
  4  6  1  0  0  0  0
  4 59  1  0  0  0  0
  5 34  1  0  0  0  0
  5 35  1  0  0  0  0
  5 36  1  0  0  0  0
  6  7  1  0  0  0  0
  6 37  1  0  0  0  0
  6 38  1  0  0  0  0
  7  8  1  0  0  0  0
  7 39  1  0  0  0  0
  7 40  1  0  0  0  0
  8 41  1  0  0  0  0
  9 10  1  0  0  0  0
  9 42  1  0  0  0  0
  9 43  1  0  0  0  0
 10 11  1  0  0  0  0
 10 44  1  0  0  0  0
 10 45  1  0  0  0  0
 11 12  1  0  0  0  0
 12 17  1  0  0  0  0
 12 13  2  0  0  0  0
 13 14  1  0  0  0  0
 14 15  2  0  0  0  0
 14 46  1  0  0  0  0
 15 16  1  0  0  0  0
 16 20  1  0  0  0  0
 16 17  2  0  0  0  0
 17 18  1  0  0  0  0
 18 19  2  0  0  0  0
 19 20  1  0  0  0  0
 19 47  1  0  0  0  0
 20 21  1  0  0  0  0
 21 28  1  0  0  0  0
 21 22  1  0  0  0  0
 21 48  1  0  0  0  0
 22 23  1  0  0  0  0
 22 49  1  0  0  0  0
 22 50  1  0  0  0  0
 23 24  1  0  0  0  0
 23 26  1  0  0  0  0
 23 28  1  0  0  0  0
 24 25  1  0  0  0  0
 24 51  1  0  0  0  0
 24 52  1  0  0  0  0
 25 53  1  0  0  0  0
 26 27  1  0  0  0  0
 26 54  1  0  0  0  0
 26 55  1  0  0  0  0
 27 56  1  0  0  0  0
 28 57  1  0  0  0  0
 28 58  1  0  0  0  0
M  CHG  1   4   1
M  END
> <s_m_source_file>
AV-unprocessed.smi

> <i_m_source_file_index>
215

> <i_lp_mmshare_version>
43012

> <i_f3d_flags>
0

> <s_epik_input>
W09IXVtDSDJdW0NIMl1OKFtDSDNdKVtDQEBIXShbQ0BIXTFbQ0gzXSlbQ0gyXVtDSDJdTjFjKG5bY0hdbjIpYyhjMjMpbltjSF1uM1tDSF0oW0NIMl00KVtDSDJdQzQoW0NIMl1bT0hdKVtDSDJdW09IXQ==

> <s_epik_cmdline>
J2VwaWtfcHl0aG9uJywgJy1waCcsICc3LjAnLCAnLXRuJywgJzgnLCAnLW1hJywgJzIwMCcsICctbWV0YWxfYmluZGluZycsICctaW1hZScsICc8aW5maWxlLm1hZT4nLCAnLW9tYWUnLCAnPG91dGZpbGUubWFlPic=

> <r_lp_tautomer_probability>
1

> <r_epik_Ionization_Penalty>
0.0036237

> <r_epik_Ionization_Penalty_Charging>
0.0032725

> <r_epik_Ionization_Penalty_Neutral>
0.000351196

> <r_epik_State_Penalty>
-0

> <r_epik_Charging_Adjusted_Penalty>
0.0032725

> <i_epik_Tot_Q>
1

> <i_epik_Tot_abs_Q>
1

> <r_epik_Metal_State_Penalty>
-0

> <b_epik_Metal_Only>
0

> <s_lp_Force_Field>
OPLS_2005

> <r_lp_Energy>
66.6502

> <b_lp_Chiralities_Consistent>
1

> <s_lp_Variant>
AV-unprocessed.smi:215-4

> <Gold.Version>
5.8.1

> <Gold.Id.Protein>
6NUR|6NUR_protein|mol2

> <Gold.PLP.Fitness>
48.2090

> <Gold.PLP.PLP>
-41.7476

> <Gold.PLP.part.hbond>
-4.0000

> <Gold.PLP.part.metal>
0.0000

> <Gold.PLP.part.buried>
-4.7448

> <Gold.PLP.part.nonpolar>
-33.2260

> <Gold.PLP.part.repulsive>
0.2981

> <Gold.PLP.ligand.clash>
0.0000

> <Gold.PLP.ligand.torsion>
1.5462

> <Gold.PLP.Chemscore.Hbond>
1.9199

> <Gold.PLP.Chemscore.CHOScore>
1.0000

> <Gold.PLP.Chemscore.Metal>
0.0000

> <Gold.Chemscore.Hbonds>
donor molecule, donor type, donor heavy atom, donor atom, acceptor molecule, acceptor atom, score
      L1  H    27    56       P1 10747  1.00
      P1  H  6933  6945       L1     8  0.96
      L1  C    14    46       P1  7957  1.00

> <Gold.PLP.Chemscore.Internal.Correction>
0.7943

> <Gold.Rescore>
     Score         DG    S(hbond)    S(metal)    S(lipo)     H(rot)  DE(clash)    DE(int)     intcor
      5.72     -10.10       1.05        0.00     107.62       4.48       1.76       2.62       ----

> <Gold.Chemscore.Fitness>
5.7220

> <Gold.Chemscore.DG>
-10.1013

> <Gold.Chemscore.ZeroCoef>
-5.4800

> <Gold.Chemscore.Hbond>
1.0464

> <Gold.Chemscore.Metal>
0.0000

> <Gold.Chemscore.Lipo>
107.6239

> <Gold.Chemscore.Internal_Hbond>
0.0000

> <Gold.Chemscore.DEClash>
1.7614

> <Gold.Chemscore.DEInternal>
2.6179

> <Gold.Chemscore.Rot>
4.4787

> <Gold.Chemscore.Internal.Correction>
   9.000000E+99

> <Gold.Chemscore.Hbonds>
donor molecule, donor type, donor heavy atom, donor atom, acceptor molecule, acceptor atom, score
      L1  H    27    56       P1 10747  0.99
      P1  H  6933  6945       L1     8  0.12

> <Gold.Chemscore.Hbond.Weighted>
-3.4948

> <Gold.Chemscore.Metal.Weighted>
-0.0000

> <Gold.Chemscore.Lipo.Weighted>
-12.5920

> <Gold.Chemscore.Internal_Hbond.Weighted>
0.0000

> <Gold.Chemscore.DEClash.Weighted>
1.7614

> <Gold.Chemscore.DEInternal.Weighted>
2.6179

> <Gold.Chemscore.Rot.Weighted>
11.4655

> <Gold.Chemscore.Internal.Correction.Weighted>
   9.000000E+99

> <Gold.Protein.RotatedTorsions>
[ 6907 6896 6895 6894 ] final -175.43 input  -60.11 | X-H torsion
[ 7974 7965 7964 7962 ] final  -98.54 input  175.53 | X-H torsion
[ 8008 7997 7996 7995 ] final  -25.98 input   59.86 | X-H torsion
[ 10167 10162 10161 10158 ] final  -94.92 input  -65.29 | X-H torsion
[ 10718 10713 10712 10709 ] final -133.74 input   66.30 | X-H torsion
[ 10763 10752 10751 10750 ] final  157.39 input  -60.55 | X-H torsion
[ 11005 11000 10999 10996 ] final   76.54 input  -57.11 | X-H torsion

> <Gold.Protein.ActiveResidues>
 VAL166  LYS551  ARG553  GLY616  TRP617  ASP618  TYR619  PRO620  LYS621  CYS622 
 ASP623  PHE694  ASN695  SER759  ASP760  ASP761  ALA762  ILE779  LEU786  VAL792 
 PHE793  MET794  SER795  GLU796  ALA797  LYS798  CYS799  TRP800  GLU811  SER814 

> <Gold.Protein.RotatedAtoms>
  151.5884  133.3369  159.3022 H   0  0  0  0  0  0  0  0  0  0  0  0  # atno 6907 bound_to 6896
  150.8274  134.7514  159.6836 H   0  0  0  0  0  0  0  0  0  0  0  0  # atno 6908 bound_to 6896
  152.4362  134.5688  159.9967 H   0  0  0  0  0  0  0  0  0  0  0  0  # atno 6909 bound_to 6896
  145.3193  140.9418  143.2725 H   0  0  0  0  0  0  0  0  0  0  0  0  # atno 7974 bound_to 7965
  154.4448  140.1912  156.0704 H   0  0  0  0  0  0  0  0  0  0  0  0  # atno 8008 bound_to 7997
  156.0515  140.3308  155.7330 H   0  0  0  0  0  0  0  0  0  0  0  0  # atno 8009 bound_to 7997
  155.5549  140.0598  157.2832 H   0  0  0  0  0  0  0  0  0  0  0  0  # atno 8010 bound_to 7997
  140.3095  143.3113  152.0163 H   0  0  0  0  0  0  0  0  0  0  0  0  # atno 10167 bound_to 10162
  156.2481  130.7137  151.1025 H   0  0  0  0  0  0  0  0  0  0  0  0  # atno 10718 bound_to 10713
  154.1994  135.2791  155.2996 H   0  0  0  0  0  0  0  0  0  0  0  0  # atno 10763 bound_to 10752
  154.5866  135.5573  153.7240 H   0  0  0  0  0  0  0  0  0  0  0  0  # atno 10764 bound_to 10752
  153.0091  135.6358  154.2133 H   0  0  0  0  0  0  0  0  0  0  0  0  # atno 10765 bound_to 10752
  139.9294  134.7609  156.1408 H   0  0  0  0  0  0  0  0  0  0  0  0  # atno 11005 bound_to 11000
  144.8952  139.4721  143.6658 LP  0  0  0  0  0  0  0  0  0  0  0  0  # atno 17320 bound_to 7965
  146.3088  139.7674  142.9035 LP  0  0  0  0  0  0  0  0  0  0  0  0  # atno 17321 bound_to 7965
  139.4897  144.6395  151.6906 LP  0  0  0  0  0  0  0  0  0  0  0  0  # atno 17342 bound_to 10162
  140.5581  144.0315  150.6157 LP  0  0  0  0  0  0  0  0  0  0  0  0  # atno 17343 bound_to 10162
  157.7203  131.0685  150.6161 LP  0  0  0  0  0  0  0  0  0  0  0  0  # atno 17370 bound_to 10713
  156.6239  130.4413  149.5812 LP  0  0  0  0  0  0  0  0  0  0  0  0  # atno 17371 bound_to 10713
  141.0873  133.6729  156.2463 LP  0  0  0  0  0  0  0  0  0  0  0  0  # atno 17394 bound_to 11000
  140.6245  134.5327  157.5552 LP  0  0  0  0  0  0  0  0  0  0  0  0  # atno 17395 bound_to 11000

$$$$
