AV-unprocessed.smi:2140|AV-procd|sdf|8714|dock2
  -GOLD-   2272011473D 1   1.00000     0.00000
 Structure written by MMmdl.
 39 40  0  0  0  0  0  0  0  0  1 V2000
  146.4111  140.7198  155.1488 C   0  0  0  0  0  0  0  0  0  0  0  0
  147.3390  139.8266  154.2864 C   0  0  2  0  0  0  0  0  0  0  0  0
  146.6313  138.4679  154.0179 C   0  0  0  0  0  0  0  0  0  0  0  0
  145.2093  138.6145  153.7135 N   0  0  0  0  0  0  0  0  0  0  0  0
  144.2487  137.7291  154.0160 C   0  0  0  0  0  0  0  0  0  0  0  0
  144.4588  136.6697  154.6057 O   0  0  0  0  0  0  0  0  0  0  0  0
  143.0494  138.1488  153.5779 N   0  0  0  0  0  0  0  0  0  0  0  0
  141.7884  137.5078  153.7114 C   0  0  0  0  0  0  0  0  0  0  0  0
  140.6318  138.2512  153.3991 C   0  0  0  0  0  0  0  0  0  0  0  0
  139.3684  137.6463  153.5393 C   0  0  0  0  0  0  0  0  0  0  0  0
  139.3101  136.3166  153.9991 C   0  0  0  0  0  0  0  0  0  0  0  0
  140.4054  135.5956  154.3181 N   0  0  0  0  0  0  0  0  0  0  0  0
  141.6147  136.1813  154.1789 C   0  0  0  0  0  0  0  0  0  0  0  0
  148.6925  139.6742  154.8721 N   0  0  0  0  0  0  0  0  0  0  0  0
  149.5608  138.7988  154.0756 C   0  0  0  0  0  0  0  0  0  0  0  0
  150.9778  138.6653  154.6597 C   0  0  0  0  0  0  0  0  0  0  0  0
  151.5667  139.9517  154.7884 O   0  0  0  0  0  0  0  0  0  0  0  0
  150.7983  140.8070  155.6225 C   0  0  0  0  0  0  0  0  0  0  0  0
  149.3811  140.9591  155.0433 C   0  0  0  0  0  0  0  0  0  0  0  0
  145.4076  140.8002  154.7339 H   0  0  0  0  0  0  0  0  0  0  0  0
  146.7683  141.7463  155.2145 H   0  0  0  0  0  0  0  0  0  0  0  0
  146.3164  140.3281  156.1620 H   0  0  0  0  0  0  0  0  0  0  0  0
  147.4468  140.3236  153.3209 H   0  0  0  0  0  0  0  0  0  0  0  0
  147.0442  137.9735  153.1412 H   0  0  0  0  0  0  0  0  0  0  0  0
  146.7948  137.7889  154.8564 H   0  0  0  0  0  0  0  0  0  0  0  0
  144.9385  139.4562  153.2267 H   0  0  0  0  0  0  0  0  0  0  0  0
  143.0474  138.9995  153.0347 H   0  0  0  0  0  0  0  0  0  0  0  0
  140.7090  139.2710  153.0510 H   0  0  0  0  0  0  0  0  0  0  0  0
  138.4656  138.1889  153.3009 H   0  0  0  0  0  0  0  0  0  0  0  0
  138.3582  135.8208  154.1186 H   0  0  0  0  0  0  0  0  0  0  0  0
  142.4498  135.5654  154.4739 H   0  0  0  0  0  0  0  0  0  0  0  0
  149.1492  137.7931  154.0203 H   0  0  0  0  0  0  0  0  0  0  0  0
  149.6256  139.1737  153.0530 H   0  0  0  0  0  0  0  0  0  0  0  0
  150.9510  138.1687  155.6309 H   0  0  0  0  0  0  0  0  0  0  0  0
  151.5996  138.0543  154.0055 H   0  0  0  0  0  0  0  0  0  0  0  0
  150.7612  140.4041  156.6359 H   0  0  0  0  0  0  0  0  0  0  0  0
  151.2884  141.7790  155.6827 H   0  0  0  0  0  0  0  0  0  0  0  0
  149.4356  141.4802  154.0863 H   0  0  0  0  0  0  0  0  0  0  0  0
  148.8283  141.6034  155.7246 H   0  0  0  0  0  0  0  0  0  0  0  0
  1  2  1  0  0  0  0
  1 20  1  0  0  0  0
  1 21  1  0  0  0  0
  1 22  1  0  0  0  0
  2  3  1  0  0  0  0
  2 14  1  0  0  0  0
  2 23  1  0  0  0  0
  3  4  1  0  0  0  0
  3 24  1  0  0  0  0
  3 25  1  0  0  0  0
  4  5  1  0  0  0  0
  4 26  1  0  0  0  0
  5  6  2  0  0  0  0
  5  7  1  0  0  0  0
  7  8  1  0  0  0  0
  7 27  1  0  0  0  0
  8 13  1  0  0  0  0
  8  9  2  0  0  0  0
  9 10  1  0  0  0  0
  9 28  1  0  0  0  0
 10 11  2  0  0  0  0
 10 29  1  0  0  0  0
 11 12  1  0  0  0  0
 11 30  1  0  0  0  0
 12 13  2  0  0  0  0
 13 31  1  0  0  0  0
 14 19  1  0  0  0  0
 14 15  1  0  0  0  0
 15 16  1  0  0  0  0
 15 32  1  0  0  0  0
 15 33  1  0  0  0  0
 16 17  1  0  0  0  0
 16 34  1  0  0  0  0
 16 35  1  0  0  0  0
 17 18  1  0  0  0  0
 18 19  1  0  0  0  0
 18 36  1  0  0  0  0
 18 37  1  0  0  0  0
 19 38  1  0  0  0  0
 19 39  1  0  0  0  0
M  END
> <s_m_source_file>
AV-unprocessed.smi

> <i_m_source_file_index>
2140

> <i_lp_mmshare_version>
43012

> <i_f3d_flags>
0

> <s_epik_input>
W0NIMl0xW0NIMl1PW0NIMl1bQ0gyXU4xW0NASF0oW0NIM10pW0NIMl1bTkhdQyg9TylbTkhdYzJbY0hdW2NIXVtjSF1uW2NIXTI=

> <s_epik_cmdline>
J2VwaWtfcHl0aG9uJywgJy1waCcsICc3LjAnLCAnLXRuJywgJzgnLCAnLW1hJywgJzIwMCcsICctbWV0YWxfYmluZGluZycsICctaW1hZScsICc8aW5maWxlLm1hZT4nLCAnLW9tYWUnLCAnPG91dGZpbGUubWFlPic=

> <r_epik_Ionization_Penalty>
0.270748

> <r_epik_Ionization_Penalty_Charging>
0

> <r_epik_Ionization_Penalty_Neutral>
0.270748

> <r_epik_State_Penalty>
0.268258

> <r_epik_Charging_Adjusted_Penalty>
0.268258

> <i_epik_Tot_Q>
0

> <i_epik_Tot_abs_Q>
0

> <r_epik_Metal_State_Penalty>
0.264828

> <b_epik_Metal_Only>
0

> <s_lp_Force_Field>
OPLS_2005

> <r_lp_Energy>
32.9676

> <b_lp_Chiralities_Consistent>
1

> <s_lp_Variant>
AV-unprocessed.smi:2140-1

> <Gold.Version>
5.8.1

> <Gold.Id.Protein>
6NUR|6NUR_protein|mol2

> <Gold.PLP.Fitness>
42.7039

> <Gold.PLP.PLP>
-31.4601

> <Gold.PLP.part.hbond>
-4.0457

> <Gold.PLP.part.metal>
0.0000

> <Gold.PLP.part.buried>
-3.6406

> <Gold.PLP.part.nonpolar>
-24.0507

> <Gold.PLP.part.repulsive>
0.3089

> <Gold.PLP.ligand.clash>
0.0000

> <Gold.PLP.ligand.torsion>
0.3461

> <Gold.PLP.Chemscore.Hbond>
3.9600

> <Gold.PLP.Chemscore.CHOScore>
0.0000

> <Gold.PLP.Chemscore.Metal>
0.0000

> <Gold.Chemscore.Hbonds>
donor molecule, donor type, donor heavy atom, donor atom, acceptor molecule, acceptor atom, score
      L1  H     4    26       P1 10175  0.99
      L1  H     7    27       P1 10175  1.00
      P1  H  7989  7998       L1    17  0.95
      P1  H 11000 11005       L1    12  1.00

> <Gold.PLP.Chemscore.Internal.Correction>
0.0561

> <Gold.Rescore>
     Score         DG    S(hbond)    S(metal)    S(lipo)     H(rot)  DE(clash)    DE(int)     intcor
     20.19     -21.79       3.48        0.00      72.19       1.47       0.03       1.56       ----

> <Gold.Chemscore.Fitness>
20.1930

> <Gold.Chemscore.DG>
-21.7858

> <Gold.Chemscore.ZeroCoef>
-5.4800

> <Gold.Chemscore.Hbond>
3.4815

> <Gold.Chemscore.Metal>
0.0000

> <Gold.Chemscore.Lipo>
72.1852

> <Gold.Chemscore.Internal_Hbond>
0.0000

> <Gold.Chemscore.DEClash>
0.0331

> <Gold.Chemscore.DEInternal>
1.5597

> <Gold.Chemscore.Rot>
1.4719

> <Gold.Chemscore.Internal.Correction>
   9.000000E+99

> <Gold.Chemscore.Hbonds>
donor molecule, donor type, donor heavy atom, donor atom, acceptor molecule, acceptor atom, score
      L1  H     4    26       P1 10175  0.94
      L1  H     7    27       P1 10175  0.99
      P1  H  7989  7998       L1    17  0.20
      P1  H 11000 11005       L1    12  0.74

> <Gold.Chemscore.Hbond.Weighted>
-11.6282

> <Gold.Chemscore.Metal.Weighted>
-0.0000

> <Gold.Chemscore.Lipo.Weighted>
-8.4457

> <Gold.Chemscore.Internal_Hbond.Weighted>
0.0000

> <Gold.Chemscore.DEClash.Weighted>
0.0331

> <Gold.Chemscore.DEInternal.Weighted>
1.5597

> <Gold.Chemscore.Rot.Weighted>
3.7681

> <Gold.Chemscore.Internal.Correction.Weighted>
   9.000000E+99

> <Gold.Protein.RotatedTorsions>
[ 6907 6896 6895 6894 ] final   88.48 input  -60.11 | X-H torsion
[ 7974 7965 7964 7962 ] final  -84.96 input  175.53 | X-H torsion
[ 8008 7997 7996 7995 ] final   35.07 input   59.86 | X-H torsion
[ 10167 10162 10161 10158 ] final   53.33 input  -65.29 | X-H torsion
[ 10718 10713 10712 10709 ] final   -6.46 input   66.30 | X-H torsion
[ 10763 10752 10751 10750 ] final   16.31 input  -60.55 | X-H torsion
[ 11005 11000 10999 10996 ] final   51.34 input  -57.11 | X-H torsion

> <Gold.Protein.ActiveResidues>
 VAL166  LYS551  ARG553  GLY616  TRP617  ASP618  TYR619  PRO620  LYS621  CYS622 
 ASP623  PHE694  ASN695  SER759  ASP760  ASP761  ALA762  ILE779  LEU786  VAL792 
 PHE793  MET794  SER795  GLU796  ALA797  LYS798  CYS799  TRP800  GLU811  SER814 

> <Gold.Protein.RotatedAtoms>
  152.5425  134.2115  159.8751 H   0  0  0  0  0  0  0  0  0  0  0  0  # atno 6907 bound_to 6896
  151.2098  133.4556  159.2605 H   0  0  0  0  0  0  0  0  0  0  0  0  # atno 6908 bound_to 6896
  151.0908  134.9927  159.8457 H   0  0  0  0  0  0  0  0  0  0  0  0  # atno 6909 bound_to 6896
  145.4996  140.9548  143.1767 H   0  0  0  0  0  0  0  0  0  0  0  0  # atno 7974 bound_to 7965
  155.1651  140.3287  155.4403 H   0  0  0  0  0  0  0  0  0  0  0  0  # atno 8008 bound_to 7997
  156.2529  140.1953  156.6707 H   0  0  0  0  0  0  0  0  0  0  0  0  # atno 8009 bound_to 7997
  154.6377  140.0574  156.9794 H   0  0  0  0  0  0  0  0  0  0  0  0  # atno 8010 bound_to 7997
  140.2419  144.3574  150.6377 H   0  0  0  0  0  0  0  0  0  0  0  0  # atno 10167 bound_to 10162
  156.7315  130.5181  149.5844 H   0  0  0  0  0  0  0  0  0  0  0  0  # atno 10718 bound_to 10713
  153.1443  135.6766  153.8979 H   0  0  0  0  0  0  0  0  0  0  0  0  # atno 10763 bound_to 10752
  153.8426  135.3103  155.3428 H   0  0  0  0  0  0  0  0  0  0  0  0  # atno 10764 bound_to 10752
  154.7812  135.4887  153.9933 H   0  0  0  0  0  0  0  0  0  0  0  0  # atno 10765 bound_to 10752
  140.0941  134.5169  155.8824 H   0  0  0  0  0  0  0  0  0  0  0  0  # atno 11005 bound_to 11000
  144.7787  139.6573  143.7163 LP  0  0  0  0  0  0  0  0  0  0  0  0  # atno 17320 bound_to 7965
  146.2234  139.5677  142.9603 LP  0  0  0  0  0  0  0  0  0  0  0  0  # atno 17321 bound_to 7965
  140.6107  143.2169  151.6892 LP  0  0  0  0  0  0  0  0  0  0  0  0  # atno 17342 bound_to 10162
  139.5074  144.3646  152.0529 LP  0  0  0  0  0  0  0  0  0  0  0  0  # atno 17343 bound_to 10162
  156.1526  130.6320  151.0615 LP  0  0  0  0  0  0  0  0  0  0  0  0  # atno 17370 bound_to 10713
  157.6857  131.0825  150.7250 LP  0  0  0  0  0  0  0  0  0  0  0  0  # atno 17371 bound_to 10713
  141.2087  133.6676  156.6387 LP  0  0  0  0  0  0  0  0  0  0  0  0  # atno 17394 bound_to 11000
  140.3311  134.7928  157.4327 LP  0  0  0  0  0  0  0  0  0  0  0  0  # atno 17395 bound_to 11000

$$$$
