AV-unprocessed.smi:421|AV-procd|sdf|2535|dock8
  -GOLD-   2262022493D 1   1.00000     0.00000
 Structure written by MMmdl.
 43 45  0  0  0  0  0  0  0  0  1 V2000
  154.2650  140.0253  161.1653 C   0  0  0  0  0  0  0  0  0  0  0  0
  153.4558  140.8022  160.2341 N   0  0  0  0  0  0  0  0  0  0  0  0
  153.1489  140.4765  158.9569 C   0  0  0  0  0  0  0  0  0  0  0  0
  153.5014  139.4569  158.3640 O   0  0  0  0  0  0  0  0  0  0  0  0
  152.3805  141.4666  158.4442 N   0  0  0  0  0  0  0  0  0  0  0  0
  151.8073  141.5144  157.1002 C   0  0  0  0  0  0  0  0  0  0  0  0
  150.2732  141.3595  157.1304 C   0  0  1  0  0  0  0  0  0  0  0  0
  149.6511  142.6277  157.1671 O   0  0  0  0  0  0  0  0  0  0  0  0
  149.7166  140.6004  155.9148 C   0  0  0  0  0  0  0  0  0  0  0  0
  148.3234  140.8380  155.7853 O   0  0  0  0  0  0  0  0  0  0  0  0
  148.0033  141.6157  154.6448 C   0  0  0  0  0  0  0  0  0  0  0  0
  146.6824  142.3358  154.8234 C   0  0  0  0  0  0  0  0  0  0  0  0
  146.2474  143.2739  153.8637 C   0  0  0  0  0  0  0  0  0  0  0  0
  145.0179  143.9401  154.0330 C   0  0  0  0  0  0  0  0  0  0  0  0
  144.2195  143.6701  155.1614 C   0  0  0  0  0  0  0  0  0  0  0  0
  144.6501  142.7324  156.1200 C   0  0  0  0  0  0  0  0  0  0  0  0
  145.8795  142.0657  155.9512 C   0  0  0  0  0  0  0  0  0  0  0  0
  152.1882  142.4524  159.4235 C   0  0  0  0  0  0  0  0  0  0  0  0
  151.4695  143.6606  159.3955 C   0  0  0  0  0  0  0  0  0  0  0  0
  151.4719  144.4418  160.5750 C   0  0  0  0  0  0  0  0  0  0  0  0
  152.1743  144.0122  161.7308 C   0  0  0  0  0  0  0  0  0  0  0  0
  152.8882  142.7910  161.7325 C   0  0  0  0  0  0  0  0  0  0  0  0
  152.8678  142.0341  160.5484 C   0  0  0  0  0  0  0  0  0  0  0  0
  154.3881  138.9936  160.8331 H   0  0  0  0  0  0  0  0  0  0  0  0
  153.7990  140.0030  162.1507 H   0  0  0  0  0  0  0  0  0  0  0  0
  155.2546  140.4717  161.2642 H   0  0  0  0  0  0  0  0  0  0  0  0
  152.1021  142.4277  156.5825 H   0  0  0  0  0  0  0  0  0  0  0  0
  152.2423  140.6971  156.5225 H   0  0  0  0  0  0  0  0  0  0  0  0
  149.9690  140.8196  158.0281 H   0  0  0  0  0  0  0  0  0  0  0  0
  149.6713  142.9940  156.2961 H   0  0  0  0  0  0  0  0  0  0  0  0
  150.2189  140.9543  155.0130 H   0  0  0  0  0  0  0  0  0  0  0  0
  149.9247  139.5323  155.9984 H   0  0  0  0  0  0  0  0  0  0  0  0
  148.7864  142.3539  154.4636 H   0  0  0  0  0  0  0  0  0  0  0  0
  147.9528  140.9787  153.7601 H   0  0  0  0  0  0  0  0  0  0  0  0
  146.8540  143.4844  152.9949 H   0  0  0  0  0  0  0  0  0  0  0  0
  144.6874  144.6583  153.2971 H   0  0  0  0  0  0  0  0  0  0  0  0
  143.2770  144.1814  155.2910 H   0  0  0  0  0  0  0  0  0  0  0  0
  144.0377  142.5246  156.9850 H   0  0  0  0  0  0  0  0  0  0  0  0
  146.2050  141.3463  156.6882 H   0  0  0  0  0  0  0  0  0  0  0  0
  150.9344  143.9830  158.5147 H   0  0  0  0  0  0  0  0  0  0  0  0
  150.9319  145.3770  160.5958 H   0  0  0  0  0  0  0  0  0  0  0  0
  152.1627  144.6242  162.6206 H   0  0  0  0  0  0  0  0  0  0  0  0
  153.4238  142.4566  162.6087 H   0  0  0  0  0  0  0  0  0  0  0  0
  1  2  1  0  0  0  0
  1 24  1  0  0  0  0
  1 25  1  0  0  0  0
  1 26  1  0  0  0  0
  2 23  1  0  0  0  0
  2  3  1  0  0  0  0
  3  4  2  0  0  0  0
  3  5  1  0  0  0  0
  5  6  1  0  0  0  0
  5 18  1  0  0  0  0
  6  7  1  0  0  0  0
  6 27  1  0  0  0  0
  6 28  1  0  0  0  0
  7  8  1  0  0  0  0
  7  9  1  0  0  0  0
  7 29  1  0  0  0  0
  8 30  1  0  0  0  0
  9 10  1  0  0  0  0
  9 31  1  0  0  0  0
  9 32  1  0  0  0  0
 10 11  1  0  0  0  0
 11 12  1  0  0  0  0
 11 33  1  0  0  0  0
 11 34  1  0  0  0  0
 12 17  1  0  0  0  0
 12 13  2  0  0  0  0
 13 14  1  0  0  0  0
 13 35  1  0  0  0  0
 14 15  2  0  0  0  0
 14 36  1  0  0  0  0
 15 16  1  0  0  0  0
 15 37  1  0  0  0  0
 16 17  2  0  0  0  0
 16 38  1  0  0  0  0
 17 39  1  0  0  0  0
 18 23  2  0  0  0  0
 18 19  1  0  0  0  0
 19 20  2  0  0  0  0
 19 40  1  0  0  0  0
 20 21  1  0  0  0  0
 20 41  1  0  0  0  0
 21 22  2  0  0  0  0
 21 42  1  0  0  0  0
 22 23  1  0  0  0  0
 22 43  1  0  0  0  0
M  END
> <s_m_source_file>
AV-unprocessed.smi

> <i_m_source_file_index>
421

> <i_lp_mmshare_version>
43012

> <i_f3d_flags>
0

> <s_epik_input>
W2NIXTFbY0hdW2NIXVtjSF1jKGMxMiluKFtDSDNdKWMoPU8pbjJbQ0gyXVtDQEhdKFtPSF0pW0NIMl1PW0NIMl1jM1tjSF1bY0hdW2NIXVtjSF1bY0hdMw==

> <s_epik_cmdline>
J2VwaWtfcHl0aG9uJywgJy1waCcsICc3LjAnLCAnLXRuJywgJzgnLCAnLW1hJywgJzIwMCcsICctbWV0YWxfYmluZGluZycsICctaW1hZScsICc8aW5maWxlLm1hZT4nLCAnLW9tYWUnLCAnPG91dGZpbGUubWFlPic=

> <r_lp_tautomer_probability>
1

> <r_epik_Ionization_Penalty>
1.0795e-06

> <r_epik_Ionization_Penalty_Charging>
2.82452e-09

> <r_epik_Ionization_Penalty_Neutral>
1.07667e-06

> <r_epik_State_Penalty>
-0

> <r_epik_Charging_Adjusted_Penalty>
2.82452e-09

> <i_epik_Tot_Q>
0

> <i_epik_Tot_abs_Q>
0

> <r_epik_Metal_State_Penalty>
-0

> <b_epik_Metal_Only>
0

> <s_lp_Force_Field>
OPLS_2005

> <r_lp_Energy>
47.6123

> <b_lp_Chiralities_Consistent>
1

> <s_lp_Variant>
AV-unprocessed.smi:421-2

> <Gold.Version>
5.8.1

> <Gold.Id.Protein>
6NUR|6NUR_protein|mol2

> <Gold.PLP.Fitness>
53.6151

> <Gold.PLP.PLP>
-51.4442

> <Gold.PLP.part.hbond>
-2.0000

> <Gold.PLP.part.metal>
0.0000

> <Gold.PLP.part.buried>
-7.4325

> <Gold.PLP.part.nonpolar>
-42.3376

> <Gold.PLP.part.repulsive>
0.0578

> <Gold.PLP.ligand.clash>
0.0000

> <Gold.PLP.ligand.torsion>
1.2167

> <Gold.PLP.Chemscore.Hbond>
1.4960

> <Gold.PLP.Chemscore.CHOScore>
0.0000

> <Gold.PLP.Chemscore.Metal>
0.0000

> <Gold.Chemscore.Hbonds>
donor molecule, donor type, donor heavy atom, donor atom, acceptor molecule, acceptor atom, score
      L1  H     8    30       P1  8028  0.56
      P1  H  7997  8010       L1     4  1.00

> <Gold.PLP.Chemscore.Internal.Correction>
0.1163

> <Gold.Rescore>
     Score         DG    S(hbond)    S(metal)    S(lipo)     H(rot)  DE(clash)    DE(int)     intcor
     17.71     -20.24       1.53        0.00     130.93       2.21       1.29       1.24       ----

> <Gold.Chemscore.Fitness>
17.7150

> <Gold.Chemscore.DG>
-20.2445

> <Gold.Chemscore.ZeroCoef>
-5.4800

> <Gold.Chemscore.Hbond>
1.5294

> <Gold.Chemscore.Metal>
0.0000

> <Gold.Chemscore.Lipo>
130.9286

> <Gold.Chemscore.Internal_Hbond>
0.0000

> <Gold.Chemscore.DEClash>
1.2900

> <Gold.Chemscore.DEInternal>
1.2395

> <Gold.Chemscore.Rot>
2.2119

> <Gold.Chemscore.Internal.Correction>
   9.000000E+99

> <Gold.Chemscore.Hbonds>
donor molecule, donor type, donor heavy atom, donor atom, acceptor molecule, acceptor atom, score
      L1  H     8    30       P1  8028  0.54
      P1  H  7997  8010       L1     4  0.50

> <Gold.Chemscore.Hbond.Weighted>
-5.1082

> <Gold.Chemscore.Metal.Weighted>
-0.0000

> <Gold.Chemscore.Lipo.Weighted>
-15.3187

> <Gold.Chemscore.Internal_Hbond.Weighted>
0.0000

> <Gold.Chemscore.DEClash.Weighted>
1.2900

> <Gold.Chemscore.DEInternal.Weighted>
1.2395

> <Gold.Chemscore.Rot.Weighted>
5.6623

> <Gold.Chemscore.Internal.Correction.Weighted>
   9.000000E+99

> <Gold.Protein.RotatedTorsions>
[ 6907 6896 6895 6894 ] final   88.09 input  -60.11 | X-H torsion
[ 7974 7965 7964 7962 ] final -137.90 input  175.53 | X-H torsion
[ 8008 7997 7996 7995 ] final   29.75 input   59.86 | X-H torsion
[ 10167 10162 10161 10158 ] final  -84.72 input  -65.29 | X-H torsion
[ 10718 10713 10712 10709 ] final -141.78 input   66.30 | X-H torsion
[ 10763 10752 10751 10750 ] final  124.68 input  -60.55 | X-H torsion
[ 11005 11000 10999 10996 ] final -174.69 input  -57.11 | X-H torsion

> <Gold.Protein.ActiveResidues>
 VAL166  LYS551  ARG553  GLY616  TRP617  ASP618  TYR619  PRO620  LYS621  CYS622 
 ASP623  PHE694  ASN695  SER759  ASP760  ASP761  ALA762  ILE779  LEU786  VAL792 
 PHE793  MET794  SER795  GLU796  ALA797  LYS798  CYS799  TRP800  GLU811  SER814 

> <Gold.Protein.RotatedAtoms>
  152.5420  134.2176  159.8774 H   0  0  0  0  0  0  0  0  0  0  0  0  # atno 6907 bound_to 6896
  151.2155  133.4525  159.2607 H   0  0  0  0  0  0  0  0  0  0  0  0  # atno 6908 bound_to 6896
  151.0856  134.9898  159.8433 H   0  0  0  0  0  0  0  0  0  0  0  0  # atno 6909 bound_to 6896
  144.8803  140.6498  143.5210 H   0  0  0  0  0  0  0  0  0  0  0  0  # atno 7974 bound_to 7965
  155.0794  140.3208  155.4606 H   0  0  0  0  0  0  0  0  0  0  0  0  # atno 8008 bound_to 7997
  156.2771  140.2097  156.5868 H   0  0  0  0  0  0  0  0  0  0  0  0  # atno 8009 bound_to 7997
  154.6990  140.0509  157.0427 H   0  0  0  0  0  0  0  0  0  0  0  0  # atno 8010 bound_to 7997
  140.4105  143.2624  151.9024 H   0  0  0  0  0  0  0  0  0  0  0  0  # atno 10167 bound_to 10162
  156.3381  130.7623  151.1754 H   0  0  0  0  0  0  0  0  0  0  0  0  # atno 10718 bound_to 10713
  153.6652  135.3339  155.3138 H   0  0  0  0  0  0  0  0  0  0  0  0  # atno 10763 bound_to 10752
  154.8505  135.4373  154.1763 H   0  0  0  0  0  0  0  0  0  0  0  0  # atno 10764 bound_to 10752
  153.2740  135.7003  153.7528 H   0  0  0  0  0  0  0  0  0  0  0  0  # atno 10765 bound_to 10752
  140.4717  134.6159  157.4884 H   0  0  0  0  0  0  0  0  0  0  0  0  # atno 11005 bound_to 11000
  145.3966  139.1606  143.4200 LP  0  0  0  0  0  0  0  0  0  0  0  0  # atno 17320 bound_to 7965
  146.2990  140.4060  142.8711 LP  0  0  0  0  0  0  0  0  0  0  0  0  # atno 17321 bound_to 7965
  139.4782  144.5541  151.8340 LP  0  0  0  0  0  0  0  0  0  0  0  0  # atno 17342 bound_to 10162
  140.4643  144.1678  150.5910 LP  0  0  0  0  0  0  0  0  0  0  0  0  # atno 17343 bound_to 10162
  157.7442  131.0462  150.4882 LP  0  0  0  0  0  0  0  0  0  0  0  0  # atno 17370 bound_to 10713
  156.5058  130.4128  149.6328 LP  0  0  0  0  0  0  0  0  0  0  0  0  # atno 17371 bound_to 10713
  139.9881  134.7029  155.9738 LP  0  0  0  0  0  0  0  0  0  0  0  0  # atno 17394 bound_to 11000
  141.1574  133.6541  156.4205 LP  0  0  0  0  0  0  0  0  0  0  0  0  # atno 17395 bound_to 11000

$$$$
