AV-unprocessed.smi:2063|AV-procd|sdf|8410|dock2
  -GOLD-   2272011103D 1   1.00000     0.00000
 Structure written by MMmdl.
 39 40  0  0  0  0  0  0  0  0  1 V2000
  151.8530  140.3500  156.3037 C   0  0  0  0  0  0  0  0  0  0  0  0
  150.5295  141.1136  156.1498 C   0  0  0  0  0  0  0  0  0  0  0  0
  150.0181  141.7058  157.4711 C   0  0  0  0  0  0  0  0  0  0  0  0
  149.4843  140.2969  155.4556 C   0  0  0  0  0  0  0  0  0  0  0  0
  148.1704  140.5029  155.6186 N   0  0  0  0  0  0  0  0  0  0  0  0
  147.4007  139.6212  154.8735 N   0  0  0  0  0  0  0  0  0  0  0  0
  148.1577  138.7717  154.1663 C   0  0  0  0  0  0  0  0  0  0  0  0
  147.6298  137.7639  153.3164 N   0  0  0  0  0  0  0  0  0  0  0  0
  146.3405  137.4758  153.0659 C   0  0  0  0  0  0  0  0  0  0  0  0
  145.3731  138.0585  153.5566 O   0  0  0  0  0  0  0  0  0  0  0  0
  146.2327  136.4568  152.2001 N   0  0  0  0  0  0  0  0  0  0  0  0
  144.9802  135.8920  151.7026 C   0  0  2  0  0  0  0  0  0  0  0  0
  144.1107  135.4985  152.9069 C   0  0  0  0  0  0  0  0  0  0  0  0
  145.2743  134.6919  150.7784 C   0  0  1  0  0  0  0  0  0  0  0  0
  146.1354  133.5953  151.4067 C   0  0  0  0  0  0  0  0  0  0  0  0
  145.7699  132.3526  150.6105 C   0  0  0  0  0  0  0  0  0  0  0  0
  144.4612  132.7298  149.9116 C   0  0  0  0  0  0  0  0  0  0  0  0
  144.0852  133.9793  150.4727 O   0  0  0  0  0  0  0  0  0  0  0  0
  149.8897  138.9840  154.3547 S   0  0  0  0  0  0  0  0  0  0  0  0
  152.2276  140.0158  155.3356 H   0  0  0  0  0  0  0  0  0  0  0  0
  151.7332  139.4699  156.9364 H   0  0  0  0  0  0  0  0  0  0  0  0
  152.6196  140.9804  156.7547 H   0  0  0  0  0  0  0  0  0  0  0  0
  150.7404  141.9614  155.4967 H   0  0  0  0  0  0  0  0  0  0  0  0
  149.1275  142.3141  157.3090 H   0  0  0  0  0  0  0  0  0  0  0  0
  150.7725  142.3422  157.9342 H   0  0  0  0  0  0  0  0  0  0  0  0
  149.7618  140.9219  158.1848 H   0  0  0  0  0  0  0  0  0  0  0  0
  148.3154  137.1944  152.8431 H   0  0  0  0  0  0  0  0  0  0  0  0
  147.0837  136.0428  151.8492 H   0  0  0  0  0  0  0  0  0  0  0  0
  144.4360  136.6500  151.1361 H   0  0  0  0  0  0  0  0  0  0  0  0
  143.1359  135.1275  152.5897 H   0  0  0  0  0  0  0  0  0  0  0  0
  143.9341  136.3543  153.5593 H   0  0  0  0  0  0  0  0  0  0  0  0
  144.5862  134.7184  153.5024 H   0  0  0  0  0  0  0  0  0  0  0  0
  145.7299  135.0318  149.8458 H   0  0  0  0  0  0  0  0  0  0  0  0
  147.2014  133.8213  151.3699 H   0  0  0  0  0  0  0  0  0  0  0  0
  145.8574  133.4522  152.4520 H   0  0  0  0  0  0  0  0  0  0  0  0
  146.5391  132.1104  149.8764 H   0  0  0  0  0  0  0  0  0  0  0  0
  145.6468  131.4895  151.2658 H   0  0  0  0  0  0  0  0  0  0  0  0
  144.6199  132.8511  148.8392 H   0  0  0  0  0  0  0  0  0  0  0  0
  143.6782  131.9854  150.0579 H   0  0  0  0  0  0  0  0  0  0  0  0
  1  2  1  0  0  0  0
  1 20  1  0  0  0  0
  1 21  1  0  0  0  0
  1 22  1  0  0  0  0
  2  3  1  0  0  0  0
  2  4  1  0  0  0  0
  2 23  1  0  0  0  0
  3 24  1  0  0  0  0
  3 25  1  0  0  0  0
  3 26  1  0  0  0  0
  4 19  1  0  0  0  0
  4  5  2  0  0  0  0
  5  6  1  0  0  0  0
  6  7  2  0  0  0  0
  7  8  1  0  0  0  0
  7 19  1  0  0  0  0
  8  9  1  0  0  0  0
  8 27  1  0  0  0  0
  9 10  2  0  0  0  0
  9 11  1  0  0  0  0
 11 12  1  0  0  0  0
 11 28  1  0  0  0  0
 12 13  1  0  0  0  0
 12 14  1  0  0  0  0
 12 29  1  0  0  0  0
 13 30  1  0  0  0  0
 13 31  1  0  0  0  0
 13 32  1  0  0  0  0
 14 18  1  0  0  0  0
 14 15  1  0  0  0  0
 14 33  1  0  0  0  0
 15 16  1  0  0  0  0
 15 34  1  0  0  0  0
 15 35  1  0  0  0  0
 16 17  1  0  0  0  0
 16 36  1  0  0  0  0
 16 37  1  0  0  0  0
 17 18  1  0  0  0  0
 17 38  1  0  0  0  0
 17 39  1  0  0  0  0
M  END
> <s_m_source_file>
AV-unprocessed.smi

> <i_m_source_file_index>
2063

> <i_lp_mmshare_version>
43012

> <i_f3d_flags>
0

> <s_epik_input>
W0NIM11bQ0hdKFtDSDNdKWMxbm5jKHMxKVtOSF1DKD1PKVtOSF1bQ0BIXShbQ0gzXSlbQ0BASF0yW0NIMl1bQ0gyXVtDSDJdTzI=

> <s_epik_cmdline>
J2VwaWtfcHl0aG9uJywgJy1waCcsICc3LjAnLCAnLXRuJywgJzgnLCAnLW1hJywgJzIwMCcsICctbWV0YWxfYmluZGluZycsICctaW1hZScsICc8aW5maWxlLm1hZT4nLCAnLW9tYWUnLCAnPG91dGZpbGUubWFlPic=

> <r_lp_tautomer_probability>
1

> <r_epik_Ionization_Penalty>
0.00050567

> <r_epik_Ionization_Penalty_Charging>
0

> <r_epik_Ionization_Penalty_Neutral>
0.00050567

> <r_epik_State_Penalty>
-0

> <r_epik_Charging_Adjusted_Penalty>
0

> <i_epik_Tot_Q>
0

> <i_epik_Tot_abs_Q>
0

> <r_epik_Metal_State_Penalty>
0.219912

> <b_epik_Metal_Only>
0

> <s_lp_Force_Field>
OPLS_2005

> <r_lp_Energy>
10.8912

> <b_lp_Chiralities_Consistent>
1

> <s_lp_Variant>
AV-unprocessed.smi:2063-3

> <Gold.Version>
5.8.1

> <Gold.Id.Protein>
6NUR|6NUR_protein|mol2

> <Gold.PLP.Fitness>
33.2059

> <Gold.PLP.PLP>
-29.0309

> <Gold.PLP.part.hbond>
-1.9294

> <Gold.PLP.part.metal>
0.0000

> <Gold.PLP.part.buried>
-5.5384

> <Gold.PLP.part.nonpolar>
-23.2375

> <Gold.PLP.part.repulsive>
0.9274

> <Gold.PLP.ligand.clash>
0.0000

> <Gold.PLP.ligand.torsion>
0.8064

> <Gold.PLP.Chemscore.Hbond>
1.8960

> <Gold.PLP.Chemscore.CHOScore>
0.0000

> <Gold.PLP.Chemscore.Metal>
0.0000

> <Gold.Chemscore.Hbonds>
donor molecule, donor type, donor heavy atom, donor atom, acceptor molecule, acceptor atom, score
      L1  H     8    27       P1  7948  0.94
      L1  H    11    28       P1  7948  0.88

> <Gold.PLP.Chemscore.Internal.Correction>
0.0998

> <Gold.Rescore>
     Score         DG    S(hbond)    S(metal)    S(lipo)     H(rot)  DE(clash)    DE(int)     intcor
     13.43     -16.45       1.95        0.00      68.97       1.42       0.05       2.97       ----

> <Gold.Chemscore.Fitness>
13.4321

> <Gold.Chemscore.DG>
-16.4510

> <Gold.Chemscore.ZeroCoef>
-5.4800

> <Gold.Chemscore.Hbond>
1.9535

> <Gold.Chemscore.Metal>
0.0000

> <Gold.Chemscore.Lipo>
68.9673

> <Gold.Chemscore.Internal_Hbond>
0.0000

> <Gold.Chemscore.DEClash>
0.0515

> <Gold.Chemscore.DEInternal>
2.9674

> <Gold.Chemscore.Rot>
1.4152

> <Gold.Chemscore.Internal.Correction>
   9.000000E+99

> <Gold.Chemscore.Hbonds>
donor molecule, donor type, donor heavy atom, donor atom, acceptor molecule, acceptor atom, score
      L1  H     8    27       P1  7948  0.90
      L1  H    11    28       P1  7948  0.86

> <Gold.Chemscore.Hbond.Weighted>
-6.5247

> <Gold.Chemscore.Metal.Weighted>
-0.0000

> <Gold.Chemscore.Lipo.Weighted>
-8.0692

> <Gold.Chemscore.Internal_Hbond.Weighted>
0.0000

> <Gold.Chemscore.DEClash.Weighted>
0.0515

> <Gold.Chemscore.DEInternal.Weighted>
2.9674

> <Gold.Chemscore.Rot.Weighted>
3.6229

> <Gold.Chemscore.Internal.Correction.Weighted>
   9.000000E+99

> <Gold.Protein.RotatedTorsions>
[ 6907 6896 6895 6894 ] final  131.39 input  -60.11 | X-H torsion
[ 7974 7965 7964 7962 ] final   71.80 input  175.53 | X-H torsion
[ 8008 7997 7996 7995 ] final   68.34 input   59.86 | X-H torsion
[ 10167 10162 10161 10158 ] final   18.89 input  -65.29 | X-H torsion
[ 10718 10713 10712 10709 ] final  148.96 input   66.30 | X-H torsion
[ 10763 10752 10751 10750 ] final  173.76 input  -60.55 | X-H torsion
[ 11005 11000 10999 10996 ] final  174.22 input  -57.11 | X-H torsion

> <Gold.Protein.ActiveResidues>
 VAL166  LYS551  ARG553  GLY616  TRP617  ASP618  TYR619  PRO620  LYS621  CYS622 
 ASP623  PHE694  ASN695  SER759  ASP760  ASP761  ALA762  ILE779  LEU786  VAL792 
 PHE793  MET794  SER795  GLU796  ALA797  LYS798  CYS799  TRP800  GLU811  SER814 

> <Gold.Protein.RotatedAtoms>
  152.3431  133.6090  159.5890 H   0  0  0  0  0  0  0  0  0  0  0  0  # atno 6907 bound_to 6896
  150.7491  133.9691  159.3549 H   0  0  0  0  0  0  0  0  0  0  0  0  # atno 6908 bound_to 6896
  151.7553  135.0824  160.0388 H   0  0  0  0  0  0  0  0  0  0  0  0  # atno 6909 bound_to 6896
  145.7613  139.2802  143.1375 H   0  0  0  0  0  0  0  0  0  0  0  0  # atno 7974 bound_to 7965
  155.7068  140.3495  155.4956 H   0  0  0  0  0  0  0  0  0  0  0  0  # atno 8008 bound_to 7997
  155.9391  140.1098  157.1092 H   0  0  0  0  0  0  0  0  0  0  0  0  # atno 8009 bound_to 7997
  154.4099  140.1216  156.4890 H   0  0  0  0  0  0  0  0  0  0  0  0  # atno 8010 bound_to 7997
  140.5620  143.9320  150.6649 H   0  0  0  0  0  0  0  0  0  0  0  0  # atno 10167 bound_to 10162
  157.3021  131.0872  151.1382 H   0  0  0  0  0  0  0  0  0  0  0  0  # atno 10718 bound_to 10713
  154.4445  135.2763  155.1824 H   0  0  0  0  0  0  0  0  0  0  0  0  # atno 10763 bound_to 10752
  154.3677  135.6115  153.5727 H   0  0  0  0  0  0  0  0  0  0  0  0  # atno 10764 bound_to 10752
  152.9843  135.5850  154.4778 H   0  0  0  0  0  0  0  0  0  0  0  0  # atno 10765 bound_to 10752
  140.3490  134.7211  157.4255 H   0  0  0  0  0  0  0  0  0  0  0  0  # atno 11005 bound_to 11000
  146.0261  140.8302  142.9899 LP  0  0  0  0  0  0  0  0  0  0  0  0  # atno 17320 bound_to 7965
  144.6830  140.2700  143.7307 LP  0  0  0  0  0  0  0  0  0  0  0  0  # atno 17321 bound_to 7965
  140.2773  143.3414  152.1183 LP  0  0  0  0  0  0  0  0  0  0  0  0  # atno 17342 bound_to 10162
  139.5074  144.6832  151.5955 LP  0  0  0  0  0  0  0  0  0  0  0  0  # atno 17343 bound_to 10162
  157.2737  130.6717  149.6032 LP  0  0  0  0  0  0  0  0  0  0  0  0  # atno 17370 bound_to 10713
  155.9672  130.4471  150.5567 LP  0  0  0  0  0  0  0  0  0  0  0  0  # atno 17371 bound_to 10713
  140.0719  134.5851  155.8633 LP  0  0  0  0  0  0  0  0  0  0  0  0  # atno 17394 bound_to 11000
  141.2017  133.6620  156.5967 LP  0  0  0  0  0  0  0  0  0  0  0  0  # atno 17395 bound_to 11000

$$$$
