AV-unprocessed.smi:283|AV-procd|sdf|2143|dock4
  -GOLD-   2262021473D 1   1.00000     0.00000
 Structure written by MMmdl.
 48 51  0  0  0  0  0  0  0  0  1 V2000
  149.4926  141.7542  157.0304 C   0  0  0  0  0  0  0  0  0  0  0  0
  151.0055  142.0073  156.9945 C   0  0  2  0  0  0  0  0  0  0  0  0
  151.7207  140.7368  156.8816 N   0  0  0  0  0  0  0  0  0  0  0  0
  151.2483  139.7398  156.1001 C   0  0  0  0  0  0  0  0  0  0  0  0
  150.7219  139.9960  154.8739 N   0  0  0  0  0  0  0  0  0  0  0  0
  150.2637  138.9925  154.1204 C   0  0  0  0  0  0  0  0  0  0  0  0
  150.2356  137.6869  154.3979 N   0  0  0  0  0  0  0  0  0  0  0  0
  150.7586  137.4243  155.6305 C   0  0  0  0  0  0  0  0  0  0  0  0
  151.2791  138.3901  156.5362 C   0  0  0  0  0  0  0  0  0  0  0  0
  151.7221  137.7612  157.6924 N   0  0  0  0  0  0  0  0  0  0  0  0
  151.4741  136.4970  157.4785 C   0  0  0  0  0  0  0  0  0  0  0  0
  150.9005  136.2046  156.2608 N   0  0  0  0  0  0  0  0  0  0  0  0
  150.5104  134.8612  155.7371 C   0  0  1  0  0  0  0  0  0  0  0  0
  150.8335  133.9099  156.7019 O   0  0  0  0  0  0  0  0  0  0  0  0
  149.8490  132.8821  156.7292 C   0  0  2  0  0  0  0  0  0  0  0  0
  150.2308  131.7887  155.7118 C   0  0  0  0  0  0  0  0  0  0  0  0
  151.3709  131.0897  156.1625 O   0  0  0  0  0  0  0  0  0  0  0  0
  148.5524  133.6151  156.3573 C   0  0  1  0  0  0  0  0  0  0  0  0
  147.9267  134.0796  157.5369 O   0  0  0  0  0  0  0  0  0  0  0  0
  148.9966  134.7836  155.4794 C   0  0  2  0  0  0  0  0  0  0  0  0
  148.7290  134.4810  154.1246 O   0  0  0  0  0  0  0  0  0  0  0  0
  151.4314  142.8685  158.1861 C   0  0  0  0  0  0  0  0  0  0  0  0
  150.9905  144.2096  158.2765 C   0  0  0  0  0  0  0  0  0  0  0  0
  151.3722  145.0192  159.3627 C   0  0  0  0  0  0  0  0  0  0  0  0
  152.2059  144.4983  160.3684 C   0  0  0  0  0  0  0  0  0  0  0  0
  152.6600  143.1692  160.2830 C   0  0  0  0  0  0  0  0  0  0  0  0
  152.2804  142.3534  159.1981 C   0  0  0  0  0  0  0  0  0  0  0  0
  152.8789  140.7322  159.1394 Cl  0  0  0  0  0  0  0  0  0  0  0  0
  151.1177  134.7186  154.8417 H   0  0  0  0  0  0  0  0  0  0  0  0
  149.7785  132.4426  157.7259 H   0  0  0  0  0  0  0  0  0  0  0  0
  147.8380  132.9598  155.8565 H   0  0  0  0  0  0  0  0  0  0  0  0
  148.4973  135.7177  155.7440 H   0  0  0  0  0  0  0  0  0  0  0  0
  148.9389  142.6938  157.0288 H   0  0  0  0  0  0  0  0  0  0  0  0
  149.2032  141.1988  157.9233 H   0  0  0  0  0  0  0  0  0  0  0  0
  149.1682  141.1813  156.1611 H   0  0  0  0  0  0  0  0  0  0  0  0
  151.2174  142.5506  156.0743 H   0  0  0  0  0  0  0  0  0  0  0  0
  152.6447  140.7184  157.2888 H   0  0  0  0  0  0  0  0  0  0  0  0
  149.8630  139.2761  153.1583 H   0  0  0  0  0  0  0  0  0  0  0  0
  151.7088  135.7363  158.2089 H   0  0  0  0  0  0  0  0  0  0  0  0
  149.4236  131.0615  155.6197 H   0  0  0  0  0  0  0  0  0  0  0  0
  150.4086  132.1977  154.7168 H   0  0  0  0  0  0  0  0  0  0  0  0
  151.1863  130.1632  156.1301 H   0  0  0  0  0  0  0  0  0  0  0  0
  148.3446  133.6670  158.2787 H   0  0  0  0  0  0  0  0  0  0  0  0
  149.0142  135.2082  153.5927 H   0  0  0  0  0  0  0  0  0  0  0  0
  150.3536  144.6268  157.5103 H   0  0  0  0  0  0  0  0  0  0  0  0
  151.0259  146.0405  159.4232 H   0  0  0  0  0  0  0  0  0  0  0  0
  152.5001  145.1182  161.2026 H   0  0  0  0  0  0  0  0  0  0  0  0
  153.3050  142.7745  161.0545 H   0  0  0  0  0  0  0  0  0  0  0  0
  1  2  1  0  0  0  0
  1 33  1  0  0  0  0
  1 34  1  0  0  0  0
  1 35  1  0  0  0  0
  2  3  1  0  0  0  0
  2 22  1  0  0  0  0
  2 36  1  0  0  0  0
  3  4  1  0  0  0  0
  3 37  1  0  0  0  0
  4  9  1  0  0  0  0
  4  5  2  0  0  0  0
  5  6  1  0  0  0  0
  6  7  2  0  0  0  0
  6 38  1  0  0  0  0
  7  8  1  0  0  0  0
  8 12  1  0  0  0  0
  8  9  2  0  0  0  0
  9 10  1  0  0  0  0
 10 11  2  0  0  0  0
 11 12  1  0  0  0  0
 11 39  1  0  0  0  0
 12 13  1  0  0  0  0
 13 29  1  0  0  0  0
 13 20  1  0  0  0  0
 13 14  1  0  0  0  0
 14 15  1  0  0  0  0
 15 30  1  0  0  0  0
 15 16  1  0  0  0  0
 15 18  1  0  0  0  0
 16 17  1  0  0  0  0
 16 40  1  0  0  0  0
 16 41  1  0  0  0  0
 17 42  1  0  0  0  0
 18 31  1  0  0  0  0
 18 19  1  0  0  0  0
 18 20  1  0  0  0  0
 19 43  1  0  0  0  0
 20 32  1  0  0  0  0
 20 21  1  0  0  0  0
 21 44  1  0  0  0  0
 22 27  1  0  0  0  0
 22 23  2  0  0  0  0
 23 24  1  0  0  0  0
 23 45  1  0  0  0  0
 24 25  2  0  0  0  0
 24 46  1  0  0  0  0
 25 26  1  0  0  0  0
 25 47  1  0  0  0  0
 26 27  2  0  0  0  0
 26 48  1  0  0  0  0
 27 28  1  0  0  0  0
M  END
> <s_m_source_file>
AV-unprocessed.smi

> <i_m_source_file_index>
283

> <i_lp_mmshare_version>
43012

> <i_f3d_flags>
0

> <s_epik_input>
Q2xjMVtjSF1bY0hdW2NIXVtjSF1jMVtDQEhdKFtDSDNdKVtOSF1jKG5bY0hdbjIpYyhjMjMpbltjSF1uM1tDQEBIXTRPW0NASF0oW0NIMl1bT0hdKVtDQEBIXShbT0hdKVtDQEhdNFtPSF0=

> <s_epik_cmdline>
J2VwaWtfcHl0aG9uJywgJy1waCcsICc3LjAnLCAnLXRuJywgJzgnLCAnLW1hJywgJzIwMCcsICctbWV0YWxfYmluZGluZycsICctaW1hZScsICc8aW5maWxlLm1hZT4nLCAnLW9tYWUnLCAnPG91dGZpbGUubWFlPic=

> <r_lp_tautomer_probability>
1

> <r_epik_Ionization_Penalty>
0.000266407

> <r_epik_Ionization_Penalty_Charging>
0

> <r_epik_Ionization_Penalty_Neutral>
0.000266407

> <r_epik_State_Penalty>
-0

> <r_epik_Charging_Adjusted_Penalty>
0

> <i_epik_Tot_Q>
0

> <i_epik_Tot_abs_Q>
0

> <r_epik_Metal_State_Penalty>
-0

> <b_epik_Metal_Only>
0

> <s_epik_Chemistry_Notes>
This compound contains an acetal/aminal-like group ( X-CH(R)-Y where X, Y are N, S, or O) that may be acid/base labile, releasing an aldehyde.

> <s_lp_Force_Field>
OPLS_2005

> <r_lp_Energy>
39.2487

> <b_lp_Chiralities_Consistent>
1

> <s_lp_Variant>
AV-unprocessed.smi:283-19

> <Gold.Version>
5.8.1

> <Gold.Id.Protein>
6NUR|6NUR_protein|mol2

> <Gold.PLP.Fitness>
51.5451

> <Gold.PLP.PLP>
-44.4415

> <Gold.PLP.part.hbond>
-2.1778

> <Gold.PLP.part.metal>
0.0000

> <Gold.PLP.part.buried>
-7.0709

> <Gold.PLP.part.nonpolar>
-36.4106

> <Gold.PLP.part.repulsive>
0.4200

> <Gold.PLP.ligand.clash>
0.0000

> <Gold.PLP.ligand.torsion>
0.7588

> <Gold.PLP.Chemscore.Hbond>
1.8420

> <Gold.PLP.Chemscore.CHOScore>
1.0000

> <Gold.PLP.Chemscore.Metal>
0.0000

> <Gold.Chemscore.Hbonds>
donor molecule, donor type, donor heavy atom, donor atom, acceptor molecule, acceptor atom, score
      L1  H    21    44       P1  7948  0.99
      P1  H  7989  7998       L1     5  0.80
      L1  C     6    38       P1  7957  1.00

> <Gold.PLP.Chemscore.Internal.Correction>
0.0951

> <Gold.Rescore>
     Score         DG    S(hbond)    S(metal)    S(lipo)     H(rot)  DE(clash)    DE(int)     intcor
      8.57     -11.62       1.23        0.00     107.09       4.10       0.52       2.53       ----

> <Gold.Chemscore.Fitness>
8.5735

> <Gold.Chemscore.DG>
-11.6198

> <Gold.Chemscore.ZeroCoef>
-5.4800

> <Gold.Chemscore.Hbond>
1.2270

> <Gold.Chemscore.Metal>
0.0000

> <Gold.Chemscore.Lipo>
107.0904

> <Gold.Chemscore.Internal_Hbond>
0.0000

> <Gold.Chemscore.DEClash>
0.5182

> <Gold.Chemscore.DEInternal>
2.5280

> <Gold.Chemscore.Rot>
4.0968

> <Gold.Chemscore.Internal.Correction>
   9.000000E+99

> <Gold.Chemscore.Hbonds>
donor molecule, donor type, donor heavy atom, donor atom, acceptor molecule, acceptor atom, score
      L1  H    21    44       P1  7948  0.46
      P1  H  7989  7998       L1     5  0.12

> <Gold.Chemscore.Hbond.Weighted>
-4.0982

> <Gold.Chemscore.Metal.Weighted>
-0.0000

> <Gold.Chemscore.Lipo.Weighted>
-12.5296

> <Gold.Chemscore.Internal_Hbond.Weighted>
0.0000

> <Gold.Chemscore.DEClash.Weighted>
0.5182

> <Gold.Chemscore.DEInternal.Weighted>
2.5280

> <Gold.Chemscore.Rot.Weighted>
10.4879

> <Gold.Chemscore.Internal.Correction.Weighted>
   9.000000E+99

> <Gold.Protein.RotatedTorsions>
[ 6907 6896 6895 6894 ] final  118.47 input  -60.11 | X-H torsion
[ 7974 7965 7964 7962 ] final -153.11 input  175.53 | X-H torsion
[ 8008 7997 7996 7995 ] final -144.05 input   59.86 | X-H torsion
[ 10167 10162 10161 10158 ] final  -12.29 input  -65.29 | X-H torsion
[ 10718 10713 10712 10709 ] final  167.18 input   66.30 | X-H torsion
[ 10763 10752 10751 10750 ] final -163.39 input  -60.55 | X-H torsion
[ 11005 11000 10999 10996 ] final  149.22 input  -57.11 | X-H torsion

> <Gold.Protein.ActiveResidues>
 VAL166  LYS551  ARG553  GLY616  TRP617  ASP618  TYR619  PRO620  LYS621  CYS622 
 ASP623  PHE694  ASN695  SER759  ASP760  ASP761  ALA762  ILE779  LEU786  VAL792 
 PHE793  MET794  SER795  GLU796  ALA797  LYS798  CYS799  TRP800  GLU811  SER814 

> <Gold.Protein.RotatedAtoms>
  152.4541  133.7687  159.6786 H   0  0  0  0  0  0  0  0  0  0  0  0  # atno 6907 bound_to 6896
  150.8461  133.7849  159.3048 H   0  0  0  0  0  0  0  0  0  0  0  0  # atno 6908 bound_to 6896
  151.5458  135.1071  159.9989 H   0  0  0  0  0  0  0  0  0  0  0  0  # atno 6909 bound_to 6896
  144.7758  140.4570  143.5874 H   0  0  0  0  0  0  0  0  0  0  0  0  # atno 7974 bound_to 7965
  155.5206  140.0591  157.2907 H   0  0  0  0  0  0  0  0  0  0  0  0  # atno 8008 bound_to 7997
  154.4519  140.1953  156.0440 H   0  0  0  0  0  0  0  0  0  0  0  0  # atno 8009 bound_to 7997
  156.0721  140.3258  155.7593 H   0  0  0  0  0  0  0  0  0  0  0  0  # atno 8010 bound_to 7997
  140.7158  143.5548  150.9261 H   0  0  0  0  0  0  0  0  0  0  0  0  # atno 10167 bound_to 10162
  157.0552  131.0324  151.2667 H   0  0  0  0  0  0  0  0  0  0  0  0  # atno 10718 bound_to 10713
  154.7127  135.3009  154.9172 H   0  0  0  0  0  0  0  0  0  0  0  0  # atno 10763 bound_to 10752
  154.0069  135.6700  153.4767 H   0  0  0  0  0  0  0  0  0  0  0  0  # atno 10764 bound_to 10752
  153.0768  135.5030  154.8334 H   0  0  0  0  0  0  0  0  0  0  0  0  # atno 10765 bound_to 10752
  140.1026  134.8974  157.1819 H   0  0  0  0  0  0  0  0  0  0  0  0  # atno 11005 bound_to 11000
  145.6191  139.1522  143.3033 LP  0  0  0  0  0  0  0  0  0  0  0  0  # atno 17320 bound_to 7965
  146.1936  140.6302  142.9134 LP  0  0  0  0  0  0  0  0  0  0  0  0  # atno 17321 bound_to 7965
  139.9273  143.6535  152.3084 LP  0  0  0  0  0  0  0  0  0  0  0  0  # atno 17342 bound_to 10162
  139.6973  144.7639  151.1334 LP  0  0  0  0  0  0  0  0  0  0  0  0  # atno 17343 bound_to 10162
  157.4999  130.7873  149.7593 LP  0  0  0  0  0  0  0  0  0  0  0  0  # atno 17370 bound_to 10713
  155.9995  130.3888  150.2661 LP  0  0  0  0  0  0  0  0  0  0  0  0  # atno 17371 bound_to 10713
  140.3199  134.2928  155.7248 LP  0  0  0  0  0  0  0  0  0  0  0  0  # atno 17394 bound_to 11000
  141.2110  133.7703  156.9896 LP  0  0  0  0  0  0  0  0  0  0  0  0  # atno 17395 bound_to 11000

$$$$
