AV-unprocessed.smi:529|AV-procd|sdf|2839|dock5
  -GOLD-   2262023333D 1   1.00000     0.00000
 Structure written by MMmdl.
 31 32  0  0  0  0  0  0  0  0  2 V2000
  149.6083  138.4191  153.8362 N   0  0  0  0  0  0  0  0  0  0  0  0
  148.7095  139.4063  153.8556 C   0  0  0  0  0  0  0  0  0  0  0  0
  147.1096  139.2975  153.1847 S   0  0  0  0  0  0  0  0  0  0  0  0
  146.7864  140.9359  153.6652 C   0  0  0  0  0  0  0  0  0  0  0  0
  147.8654  141.4950  154.2976 C   0  0  0  0  0  0  0  0  0  0  0  0
  148.9442  140.6189  154.3998 N   0  3  0  0  0  0  0  0  0  0  0  0
  150.2222  140.9933  155.0336 C   0  0  0  0  0  0  0  0  0  0  0  0
  150.0051  141.6555  156.3970 C   0  0  0  0  0  0  0  0  0  0  0  0
  148.8813  141.6816  156.8986 O   0  0  0  0  0  0  0  0  0  0  0  0
  151.0872  142.1964  156.9772 N   0  0  0  0  0  0  0  0  0  0  0  0
  151.0890  142.9015  158.2560 C   0  0  0  0  0  0  0  0  0  0  0  0
  151.4559  144.3850  158.0622 C   0  0  0  0  0  0  0  0  0  0  0  0
  152.5066  144.7019  159.1271 C   0  0  0  0  0  0  0  0  0  0  0  0
  153.2391  143.3804  159.3367 C   0  0  0  0  0  0  0  0  0  0  0  0
  152.1416  142.3214  159.2220 C   0  0  0  0  0  0  0  0  0  0  0  0
  150.5313  138.5205  154.2328 H   0  0  0  0  0  0  0  0  0  0  0  0
  145.8282  141.3865  153.4516 H   0  0  0  0  0  0  0  0  0  0  0  0
  147.9691  142.4921  154.7014 H   0  0  0  0  0  0  0  0  0  0  0  0
  150.8184  140.0896  155.1670 H   0  0  0  0  0  0  0  0  0  0  0  0
  150.7808  141.6408  154.3556 H   0  0  0  0  0  0  0  0  0  0  0  0
  151.9740  142.1180  156.5006 H   0  0  0  0  0  0  0  0  0  0  0  0
  150.1007  142.8326  158.7147 H   0  0  0  0  0  0  0  0  0  0  0  0
  151.8936  144.5481  157.0760 H   0  0  0  0  0  0  0  0  0  0  0  0
  150.5865  145.0388  158.1395 H   0  0  0  0  0  0  0  0  0  0  0  0
  153.1745  145.5113  158.8310 H   0  0  0  0  0  0  0  0  0  0  0  0
  152.0138  144.9984  160.0543 H   0  0  0  0  0  0  0  0  0  0  0  0
  153.9734  143.2377  158.5427 H   0  0  0  0  0  0  0  0  0  0  0  0
  153.7661  143.3380  160.2903 H   0  0  0  0  0  0  0  0  0  0  0  0
  151.6835  142.1708  160.2005 H   0  0  0  0  0  0  0  0  0  0  0  0
  152.5391  141.3560  158.9053 H   0  0  0  0  0  0  0  0  0  0  0  0
  149.4232  137.5287  153.3965 H   0  0  0  0  0  0  0  0  0  0  0  0
  1  2  1  0  0  0  0
  1 16  1  0  0  0  0
  1 31  1  0  0  0  0
  2  6  2  0  0  0  0
  2  3  1  0  0  0  0
  3  4  1  0  0  0  0
  4  5  2  0  0  0  0
  4 17  1  0  0  0  0
  5  6  1  0  0  0  0
  5 18  1  0  0  0  0
  6  7  1  0  0  0  0
  7  8  1  0  0  0  0
  7 19  1  0  0  0  0
  7 20  1  0  0  0  0
  8  9  2  0  0  0  0
  8 10  1  0  0  0  0
 10 11  1  0  0  0  0
 10 21  1  0  0  0  0
 11 15  1  0  0  0  0
 11 12  1  0  0  0  0
 11 22  1  0  0  0  0
 12 13  1  0  0  0  0
 12 23  1  0  0  0  0
 12 24  1  0  0  0  0
 13 14  1  0  0  0  0
 13 25  1  0  0  0  0
 13 26  1  0  0  0  0
 14 15  1  0  0  0  0
 14 27  1  0  0  0  0
 14 28  1  0  0  0  0
 15 29  1  0  0  0  0
 15 30  1  0  0  0  0
M  CHG  1   6   1
M  END
> <s_m_source_file>
AV-unprocessed.smi

> <i_m_source_file_index>
529

> <i_lp_mmshare_version>
43012

> <i_f3d_flags>
0

> <s_epik_input>
W0hdL049YzFcc1tjSF1bY0hdbjFbQ0gyXUMoPU8pW05IXVtDSF0yW0NIMl1bQ0gyXVtDSDJdW0NIMl0y

> <s_epik_cmdline>
J2VwaWtfcHl0aG9uJywgJy1waCcsICc3LjAnLCAnLXRuJywgJzgnLCAnLW1hJywgJzIwMCcsICctbWV0YWxfYmluZGluZycsICctaW1hZScsICc8aW5maWxlLm1hZT4nLCAnLW9tYWUnLCAnPG91dGZpbGUubWFlPic=

> <r_lp_tautomer_probability>
1

> <r_epik_Ionization_Penalty>
0.0151346

> <r_epik_Ionization_Penalty_Charging>
0

> <r_epik_Ionization_Penalty_Neutral>
0.0151346

> <r_epik_State_Penalty>
0.0235202

> <r_epik_Charging_Adjusted_Penalty>
0.0235202

> <i_epik_Tot_Q>
1

> <i_epik_Tot_abs_Q>
1

> <r_epik_Metal_State_Penalty>
0.0235202

> <b_epik_Metal_Only>
0

> <s_lp_Force_Field>
OPLS_2005

> <r_lp_Energy>
21.8229

> <b_lp_Chiralities_Consistent>
1

> <s_lp_Variant>
AV-unprocessed.smi:529-1

> <Gold.Version>
5.8.1

> <Gold.Id.Protein>
6NUR|6NUR_protein|mol2

> <Gold.PLP.Fitness>
41.7319

> <Gold.PLP.PLP>
-33.2034

> <Gold.PLP.part.hbond>
-1.8987

> <Gold.PLP.part.metal>
0.0000

> <Gold.PLP.part.buried>
0.0042

> <Gold.PLP.part.nonpolar>
-32.2101

> <Gold.PLP.part.repulsive>
0.2405

> <Gold.PLP.ligand.clash>
0.0000

> <Gold.PLP.ligand.torsion>
0.2297

> <Gold.PLP.Chemscore.Hbond>
2.0000

> <Gold.PLP.Chemscore.CHOScore>
0.9950

> <Gold.PLP.Chemscore.Metal>
0.0000

> <Gold.Chemscore.Hbonds>
donor molecule, donor type, donor heavy atom, donor atom, acceptor molecule, acceptor atom, score
      L1  H     1    31       P1  7948  1.98
      L1  C     4    17       P1 10175  0.97

> <Gold.PLP.Chemscore.Internal.Correction>
0.0029

> <Gold.Rescore>
     Score         DG    S(hbond)    S(metal)    S(lipo)     H(rot)  DE(clash)    DE(int)     intcor
     12.47     -14.73       0.93        0.00      87.81       1.61       0.72       1.54       ----

> <Gold.Chemscore.Fitness>
12.4683

> <Gold.Chemscore.DG>
-14.7312

> <Gold.Chemscore.ZeroCoef>
-5.4800

> <Gold.Chemscore.Hbond>
0.9271

> <Gold.Chemscore.Metal>
0.0000

> <Gold.Chemscore.Lipo>
87.8078

> <Gold.Chemscore.Internal_Hbond>
0.0000

> <Gold.Chemscore.DEClash>
0.7240

> <Gold.Chemscore.DEInternal>
1.5390

> <Gold.Chemscore.Rot>
1.6089

> <Gold.Chemscore.Internal.Correction>
   9.000000E+99

> <Gold.Chemscore.Hbonds>
donor molecule, donor type, donor heavy atom, donor atom, acceptor molecule, acceptor atom, score
      L1  H     1    31       P1  7948  0.86

> <Gold.Chemscore.Hbond.Weighted>
-3.0965

> <Gold.Chemscore.Metal.Weighted>
-0.0000

> <Gold.Chemscore.Lipo.Weighted>
-10.2735

> <Gold.Chemscore.Internal_Hbond.Weighted>
0.0000

> <Gold.Chemscore.DEClash.Weighted>
0.7240

> <Gold.Chemscore.DEInternal.Weighted>
1.5390

> <Gold.Chemscore.Rot.Weighted>
4.1188

> <Gold.Chemscore.Internal.Correction.Weighted>
   9.000000E+99

> <Gold.Protein.RotatedTorsions>
[ 6907 6896 6895 6894 ] final -114.54 input  -60.11 | X-H torsion
[ 7974 7965 7964 7962 ] final -142.71 input  175.53 | X-H torsion
[ 8008 7997 7996 7995 ] final  -46.76 input   59.86 | X-H torsion
[ 10167 10162 10161 10158 ] final -177.51 input  -65.29 | X-H torsion
[ 10718 10713 10712 10709 ] final  -67.66 input   66.30 | X-H torsion
[ 10763 10752 10751 10750 ] final  -94.05 input  -60.55 | X-H torsion
[ 11005 11000 10999 10996 ] final -132.48 input  -57.11 | X-H torsion

> <Gold.Protein.ActiveResidues>
 VAL166  LYS551  ARG553  GLY616  TRP617  ASP618  TYR619  PRO620  LYS621  CYS622 
 ASP623  PHE694  ASN695  SER759  ASP760  ASP761  ALA762  ILE779  LEU786  VAL792 
 PHE793  MET794  SER795  GLU796  ALA797  LYS798  CYS799  TRP800  GLU811  SER814 

> <Gold.Protein.RotatedAtoms>
  150.7910  133.8786  159.3279 H   0  0  0  0  0  0  0  0  0  0  0  0  # atno 6907 bound_to 6896
  151.6624  135.0985  160.0191 H   0  0  0  0  0  0  0  0  0  0  0  0  # atno 6908 bound_to 6896
  152.3984  133.6742  159.6331 H   0  0  0  0  0  0  0  0  0  0  0  0  # atno 6909 bound_to 6896
  144.8423  140.5925  143.5444 H   0  0  0  0  0  0  0  0  0  0  0  0  # atno 7974 bound_to 7965
  154.4010  140.1363  156.4063 H   0  0  0  0  0  0  0  0  0  0  0  0  # atno 8008 bound_to 7997
  155.7776  140.3482  155.5260 H   0  0  0  0  0  0  0  0  0  0  0  0  # atno 8009 bound_to 7997
  155.8706  140.0971  157.1543 H   0  0  0  0  0  0  0  0  0  0  0  0  # atno 8010 bound_to 7997
  139.5477  144.2193  152.1018 H   0  0  0  0  0  0  0  0  0  0  0  0  # atno 10167 bound_to 10162
  156.0546  130.4281  150.1887 H   0  0  0  0  0  0  0  0  0  0  0  0  # atno 10718 bound_to 10713
  154.7018  135.5172  153.8538 H   0  0  0  0  0  0  0  0  0  0  0  0  # atno 10763 bound_to 10752
  153.0710  135.6601  154.0257 H   0  0  0  0  0  0  0  0  0  0  0  0  # atno 10764 bound_to 10752
  154.0114  135.3002  155.3371 H   0  0  0  0  0  0  0  0  0  0  0  0  # atno 10765 bound_to 10752
  140.9166  134.1499  157.4347 H   0  0  0  0  0  0  0  0  0  0  0  0  # atno 11005 bound_to 11000
  145.4668  139.1507  143.3836 LP  0  0  0  0  0  0  0  0  0  0  0  0  # atno 17320 bound_to 7965
  146.2714  140.4800  142.8813 LP  0  0  0  0  0  0  0  0  0  0  0  0  # atno 17321 bound_to 7965
  140.1682  144.4961  150.6594 LP  0  0  0  0  0  0  0  0  0  0  0  0  # atno 17342 bound_to 10162
  140.6730  143.2293  151.5578 LP  0  0  0  0  0  0  0  0  0  0  0  0  # atno 17343 bound_to 10162
  156.9965  130.9909  151.3401 LP  0  0  0  0  0  0  0  0  0  0  0  0  # atno 17370 bound_to 10713
  157.5503  130.8178  149.8137 LP  0  0  0  0  0  0  0  0  0  0  0  0  # atno 17371 bound_to 10713
  139.8767  134.9956  156.5751 LP  0  0  0  0  0  0  0  0  0  0  0  0  # atno 17394 bound_to 11000
  140.8042  133.8481  155.8753 LP  0  0  0  0  0  0  0  0  0  0  0  0  # atno 17395 bound_to 11000

$$$$
