#       Name:                AV-unprocessed.smi:1558
#       Creating user name   scv26
#       Creation time:       Fri Mar 27 06:46:18 2020


#       File generated by GOLD software.
#

@<TRIPOS>MOLECULE
AV-unprocessed.smi:1558
    43    44     1
SMALL
NO_CHARGES


@<TRIPOS>ATOM
      1 ****        -4.9778  -0.9682  -1.1844 N.am           1 S1                 0.0000
      2 ****        -5.3720  -0.0171  -0.3335 C.2            1 S1                 0.0000
      3 ****        -6.0074   0.9696  -0.6990 O.2            1 S1                 0.0000
      4 ****        -4.9998  -0.1985   1.1391 C.3            1 S1                 0.0000
      5 ****        -3.7306   0.4392   1.4414 N.pl3          1 S1                 0.0000
      6 ****        -2.4570  -0.0361   1.1955 C.2            1 S1                 0.0000
      7 ****        -1.6061   0.9263   1.6600 C.2            1 S1                 0.0000
      8 ****        -0.1886   0.9501   1.6582 N.am           1 S1                 0.0000
      9 ****         0.6413   0.0120   1.1737 C.2            1 S1                 0.0000
     10 ****         0.2858  -1.0361   0.6346 O.2            1 S1                 0.0000
     11 ****         1.9238   0.3617   1.3456 N.am           1 S1                 0.0000
     12 ****         3.0788  -0.4248   0.9243 C.3            1 S1                 0.0000
     13 ****         3.6144   0.0338  -0.4426 C.3            1 S1                 0.0000
     14 ****         2.6755  -0.2080  -1.6245 C.3            1 S1                 0.0000
     15 ****         3.6465  -0.2171  -2.7825 C.3            1 S1                 0.0000
     16 ****         4.8544  -0.9282  -2.1773 C.3            1 S1                 0.0000
     17 ****         4.7991  -0.6843  -0.7732 O.3            1 S1                 0.0000
     18 ****        -2.4327   1.9570   2.1772 C.2            1 S1                 0.0000
     19 ****        -3.7151   1.6556   2.0419 N.2            1 S1                 0.0000
     20 ****        -5.2030  -0.8859  -2.1654 H              1 S1                 0.0000
     21 ****        -4.4570  -1.7646  -0.8472 H              1 S1                 0.0000
     22 ****        -5.7810   0.2252   1.7725 H              1 S1                 0.0000
     23 ****        -4.9282  -1.2586   1.3863 H              1 S1                 0.0000
     24 ****        -2.2841  -0.9914   0.7228 H              1 S1                 0.0000
     25 ****         0.2381   1.7673   2.0696 H              1 S1                 0.0000
     26 ****         2.1182   1.2421   1.7996 H              1 S1                 0.0000
     27 ****         3.8565  -0.2979   1.6777 H              1 S1                 0.0000
     28 ****         2.8445  -1.4905   0.9064 H              1 S1                 0.0000
     29 ****         3.8764   1.0926  -0.4035 H              1 S1                 0.0000
     30 ****         2.1888  -1.1805  -1.5378 H              1 S1                 0.0000
     31 ****         1.9029   0.5555  -1.7197 H              1 S1                 0.0000
     32 ****         3.2552  -0.7180  -3.6685 H              1 S1                 0.0000
     33 ****         3.9101   0.8056  -3.0553 H              1 S1                 0.0000
     34 ****         4.7885  -2.0039  -2.3433 H              1 S1                 0.0000
     35 ****         5.7944  -0.5772  -2.6036 H              1 S1                 0.0000
     36 ****        -2.1521   2.8932   2.6364 H              1 S1                 0.0000
     37 ****        -6.2467   1.0811  -1.6636 LP             1 S1                 0.0000
     38 ****        -6.2851   1.6608  -0.0319 LP             1 S1                 0.0000
     39 ****        -0.6877  -1.2400   0.5312 LP             1 S1                 0.0000
     40 ****         0.9705  -1.6835   0.3000 LP             1 S1                 0.0000
     41 ****         4.8021  -1.5577  -0.2863 LP             1 S1                 0.0000
     42 ****         5.5973  -0.1475  -0.5000 LP             1 S1                 0.0000
     43 ****        -4.5019   2.2057   2.3218 LP             1 S1                 0.0000
@<TRIPOS>BOND
    1    1    2 am    
    2    1   20 1     
    3    1   21 1     
    4    2    3 2     
    5    2    4 1     
    6    4    5 1     
    7    4   22 1     
    8    4   23 1     
    9    5   19 1     
   10    5    6 1     
   11    6    7 2     
   12    6   24 1     
   13    7    8 1     
   14    7   18 1     
   15    8    9 am    
   16    8   25 1     
   17    9   10 2     
   18    9   11 am    
   19   11   12 1     
   20   11   26 1     
   21   12   13 1     
   22   12   27 1     
   23   12   28 1     
   24   13   17 1     
   25   13   14 1     
   26   13   29 1     
   27   14   15 1     
   28   14   30 1     
   29   14   31 1     
   30   15   16 1     
   31   15   32 1     
   32   15   33 1     
   33   16   17 1     
   34   16   34 1     
   35   16   35 1     
   36   18   19 2     
   37   18   36 1     
   38    3   37 1     
   39    3   38 1     
   40   10   39 1     
   41   10   40 1     
   42   17   41 1     
   43   17   42 1     
   44   19   43 1     
@<TRIPOS>SUBSTRUCTURE
      1 S1             1
@<TRIPOS>SET
LONE_PAIRS      STATIC     ATOMS    <user>   **** ""
7 37 38 39 40 41 42 43
DONOR_HYDROGENS      STATIC     ATOMS    <user>   **** ""
4 20 21 25 26
ATOM$BLUE        STATIC     ATOMS    COLORGROUP SYSTEM
7 37 38 39 40 41 42 43
ATOM$RED        STATIC     ATOMS    COLORGROUP SYSTEM
4 20 21 25 26
