#       Name:                AV-unprocessed.smi:1240
#       Creating user name   scv26
#       Creation time:       Fri Mar 27 04:28:47 2020


#       File generated by GOLD software.
#

@<TRIPOS>MOLECULE
AV-unprocessed.smi:1240
    55    57     1
SMALL
NO_CHARGES


@<TRIPOS>ATOM
      1 ****        -0.9007   0.8990  -1.9740 O.2            1 S1                 0.0000
      2 ****        -1.4313   1.2977  -0.9373 C.2            1 S1                 0.0000
      3 ****        -1.5945   0.5272   0.1476 N.am           1 S1                 0.0000
      4 ****        -1.1723  -0.8648   0.2547 C.3            1 S1                 0.0000
      5 ****         0.3675  -1.0513   0.3854 C.3            1 S1                 0.0000
      6 ****         0.9730  -0.4358   1.6794 C.3            1 S1                 0.0000
      7 ****         0.9540   1.0841   1.7679 C.3            1 S1                 0.0000
      8 ****         2.0647   1.4023   2.7687 C.3            1 S1                 0.0000
      9 ****         2.9034   0.2537   2.8137 O.3            1 S1                 0.0000
     10 ****         2.4757  -0.6837   1.8382 C.3            1 S1                 0.0000
     11 ****         0.7617  -2.4882   0.2720 N.4            1 S1                 1.0000
     12 ****         0.0688  -3.4309   1.1868 C.3            1 S1                 0.0000
     13 ****         0.7066  -4.8261   1.0809 C.3            1 S1                 0.0000
     14 ****         0.6469  -5.2753  -0.2679 O.3            1 S1                 0.0000
     15 ****         1.3681  -4.4229  -1.1500 C.3            1 S1                 0.0000
     16 ****         0.7618  -3.0096  -1.1169 C.3            1 S1                 0.0000
     17 ****        -1.9276   2.5306  -0.7363 N.am           1 S1                 0.0000
     18 ****        -1.9163   3.6479  -1.6146 C.ar           1 S1                 0.0000
     19 ****        -2.8386   4.6856  -1.3672 C.ar           1 S1                 0.0000
     20 ****        -2.8361   5.8129  -2.2127 C.ar           1 S1                 0.0000
     21 ****        -1.9848   5.9602  -3.2494 N.ar           1 S1                 0.0000
     22 ****        -1.0927   4.9728  -3.4762 C.ar           1 S1                 0.0000
     23 ****        -1.0119   3.8038  -2.6927 C.ar           1 S1                 0.0000
     24 ****        -2.0468   0.9307   0.9552 H              1 S1                 0.0000
     25 ****        -1.6774  -1.2823   1.1257 H              1 S1                 0.0000
     26 ****        -1.5602  -1.4039  -0.6102 H              1 S1                 0.0000
     27 ****         0.8450  -0.5408  -0.4523 H              1 S1                 0.0000
     28 ****         0.4615  -0.8336   2.5568 H              1 S1                 0.0000
     29 ****         1.1968   1.5239   0.7994 H              1 S1                 0.0000
     30 ****        -0.0067   1.4852   2.0906 H              1 S1                 0.0000
     31 ****         2.6299   2.2874   2.4752 H              1 S1                 0.0000
     32 ****         1.6564   1.5762   3.7648 H              1 S1                 0.0000
     33 ****         2.7067  -1.7024   2.1510 H              1 S1                 0.0000
     34 ****         3.0039  -0.4864   0.9039 H              1 S1                 0.0000
     35 ****         0.1303  -3.0809   2.2169 H              1 S1                 0.0000
     36 ****        -0.9891  -3.5003   0.9306 H              1 S1                 0.0000
     37 ****         1.7413  -4.8096   1.4273 H              1 S1                 0.0000
     38 ****         0.1703  -5.5341   1.7130 H              1 S1                 0.0000
     39 ****         2.4230  -4.4012  -0.8712 H              1 S1                 0.0000
     40 ****         1.3141  -4.8317  -2.1592 H              1 S1                 0.0000
     41 ****        -0.2545  -3.0364  -1.5108 H              1 S1                 0.0000
     42 ****         1.3402  -2.3507  -1.7655 H              1 S1                 0.0000
     43 ****        -2.4114   2.6770   0.1373 H              1 S1                 0.0000
     44 ****        -3.5409   4.6222  -0.5490 H              1 S1                 0.0000
     45 ****        -3.5362   6.6189  -2.0493 H              1 S1                 0.0000
     46 ****        -0.4158   5.1215  -4.3047 H              1 S1                 0.0000
     47 ****        -0.2585   3.0676  -2.9256 H              1 S1                 0.0000
     48 ****         1.7324  -2.5078   0.5510 H              1 S1                 0.0000
     49 ****        -0.5667  -0.0416  -2.0350 LP             1 S1                 0.0000
     50 ****        -0.8036   1.5158  -2.7552 LP             1 S1                 0.0000
     51 ****         2.8502  -0.1623   3.7215 LP             1 S1                 0.0000
     52 ****         3.8478   0.5232   2.6253 LP             1 S1                 0.0000
     53 ****        -0.3102  -5.3020  -0.5565 LP             1 S1                 0.0000
     54 ****         1.0362  -6.1950  -0.3187 LP             1 S1                 0.0000
     55 ****        -2.0139   6.7737  -3.8303 LP             1 S1                 0.0000
@<TRIPOS>BOND
    1    1    2 2     
    2    2    3 am    
    3    2   17 am    
    4    3    4 1     
    5    3   24 1     
    6    4    5 1     
    7    4   25 1     
    8    4   26 1     
    9    5    6 1     
   10    5   11 1     
   11    5   27 1     
   12    6   10 1     
   13    6    7 1     
   14    6   28 1     
   15    7    8 1     
   16    7   29 1     
   17    7   30 1     
   18    8    9 1     
   19    8   31 1     
   20    8   32 1     
   21    9   10 1     
   22   10   33 1     
   23   10   34 1     
   24   11   16 1     
   25   11   12 1     
   26   11   48 1     
   27   12   13 1     
   28   12   35 1     
   29   12   36 1     
   30   13   14 1     
   31   13   37 1     
   32   13   38 1     
   33   14   15 1     
   34   15   16 1     
   35   15   39 1     
   36   15   40 1     
   37   16   41 1     
   38   16   42 1     
   39   17   18 1     
   40   17   43 1     
   41   18   23 ar    
   42   18   19 ar    
   43   19   20 ar    
   44   19   44 1     
   45   20   21 ar    
   46   20   45 1     
   47   21   22 ar    
   48   22   23 ar    
   49   22   46 1     
   50   23   47 1     
   51    1   49 1     
   52    1   50 1     
   53    9   51 1     
   54    9   52 1     
   55   14   53 1     
   56   14   54 1     
   57   21   55 1     
@<TRIPOS>SUBSTRUCTURE
      1 S1             1
@<TRIPOS>SET
LONE_PAIRS      STATIC     ATOMS    <user>   **** ""
7 49 50 51 52 53 54 55
DONOR_HYDROGENS      STATIC     ATOMS    <user>   **** ""
3 24 48 43
ATOM$BLUE        STATIC     ATOMS    COLORGROUP SYSTEM
7 49 50 51 52 53 54 55
ATOM$RED        STATIC     ATOMS    COLORGROUP SYSTEM
3 24 48 43
