AV-unprocessed.smi:3234|AV-procd|sdf|12358|dock9
  -GOLD-   2272018223D 1   1.00000     0.00000
 Structure written by MMmdl.
 37 39  0  0  0  0  0  0  0  0  4 V2000
  144.9868  138.3808  153.4421 O   0  0  0  0  0  0  0  0  0  0  0  0
  145.9258  137.8444  152.8424 C   0  0  0  0  0  0  0  0  0  0  0  0
  147.1660  138.3577  152.9269 N   0  0  0  0  0  0  0  0  0  0  0  0
  147.5996  139.5275  153.6062 C   0  0  0  0  0  0  0  0  0  0  0  0
  148.8618  139.4940  154.2385 C   0  0  0  0  0  0  0  0  0  0  0  0
  149.3352  140.6431  154.9037 C   0  0  0  0  0  0  0  0  0  0  0  0
  148.5872  141.7675  154.9193 N   0  3  0  0  0  0  0  0  0  0  0  0
  147.3837  141.8525  154.3126 C   0  0  0  0  0  0  0  0  0  0  0  0
  146.8583  140.7355  153.6323 C   0  0  0  0  0  0  0  0  0  0  0  0
  145.8836  136.7241  152.0712 N   0  5  0  0  0  0  0  0  0  0  0  0
  144.6631  135.9877  151.7367 C   0  0  2  0  0  0  0  0  0  0  0  0
  144.2908  134.9839  152.8289 C   0  0  0  0  0  0  0  0  0  0  0  0
  143.5040  133.8906  152.0899 C   0  0  0  0  0  0  0  0  0  0  0  0
  143.7742  134.0748  150.6446 N   0  3  2  0  0  0  0  0  0  0  0  0
  144.0290  132.8208  149.9039 C   0  0  0  0  0  0  0  0  0  0  0  0
  144.5115  131.6901  150.7807 C   0  0  0  0  0  0  0  0  0  0  0  0
  145.4843  132.4204  149.8802 C   0  0  0  0  0  0  0  0  0  0  0  0
  144.8467  135.0804  150.5194 C   0  0  0  0  0  0  0  0  0  0  0  0
  147.8946  137.8003  152.5052 H   0  0  0  0  0  0  0  0  0  0  0  0
  149.4600  138.5942  154.2222 H   0  0  0  0  0  0  0  0  0  0  0  0
  150.2838  140.6968  155.4175 H   0  0  0  0  0  0  0  0  0  0  0  0
  146.8827  142.8068  154.3820 H   0  0  0  0  0  0  0  0  0  0  0  0
  145.9053  140.8242  153.1327 H   0  0  0  0  0  0  0  0  0  0  0  0
  143.8097  136.6455  151.5627 H   0  0  0  0  0  0  0  0  0  0  0  0
  145.1882  134.5435  153.2676 H   0  0  0  0  0  0  0  0  0  0  0  0
  143.7179  135.4392  153.6371 H   0  0  0  0  0  0  0  0  0  0  0  0
  143.8076  132.9013  152.4366 H   0  0  0  0  0  0  0  0  0  0  0  0
  142.4307  133.9827  152.2633 H   0  0  0  0  0  0  0  0  0  0  0  0
  143.3840  132.6209  149.0498 H   0  0  0  0  0  0  0  0  0  0  0  0
  144.5883  131.8664  151.8524 H   0  0  0  0  0  0  0  0  0  0  0  0
  144.2300  130.6787  150.4953 H   0  0  0  0  0  0  0  0  0  0  0  0
  145.8446  131.8896  149.0012 H   0  0  0  0  0  0  0  0  0  0  0  0
  146.2082  133.0813  150.3535 H   0  0  0  0  0  0  0  0  0  0  0  0
  144.7775  135.6228  149.5758 H   0  0  0  0  0  0  0  0  0  0  0  0
  145.8181  134.5830  150.5547 H   0  0  0  0  0  0  0  0  0  0  0  0
  142.9456  134.5006  150.2551 H   0  0  0  0  0  0  0  0  0  0  0  0
  148.9489  142.5886  155.4048 H   0  0  0  0  0  0  0  0  0  0  0  0
  1  2  2  0  0  0  0
  2  3  1  0  0  0  0
  2 10  1  0  0  0  0
  3  4  1  0  0  0  0
  3 19  1  0  0  0  0
  4  9  1  0  0  0  0
  4  5  2  0  0  0  0
  5  6  1  0  0  0  0
  5 20  1  0  0  0  0
  6  7  2  0  0  0  0
  6 21  1  0  0  0  0
  7  8  1  0  0  0  0
  7 37  1  0  0  0  0
  8  9  2  0  0  0  0
  8 22  1  0  0  0  0
  9 23  1  0  0  0  0
 10 11  1  0  0  0  0
 11 18  1  0  0  0  0
 11 12  1  0  0  0  0
 11 24  1  0  0  0  0
 12 13  1  0  0  0  0
 12 25  1  0  0  0  0
 12 26  1  0  0  0  0
 13 14  1  0  0  0  0
 13 27  1  0  0  0  0
 13 28  1  0  0  0  0
 14 15  1  0  0  0  0
 14 18  1  0  0  0  0
 14 36  1  0  0  0  0
 15 17  1  0  0  0  0
 15 16  1  0  0  0  0
 15 29  1  0  0  0  0
 16 17  1  0  0  0  0
 16 30  1  0  0  0  0
 16 31  1  0  0  0  0
 17 32  1  0  0  0  0
 17 33  1  0  0  0  0
 18 34  1  0  0  0  0
 18 35  1  0  0  0  0
M  CHG  1   7   1
M  CHG  1  10  -1
M  CHG  1  14   1
M  END
> <s_m_source_file>
AV-unprocessed.smi

> <i_m_source_file_index>
3234

> <i_lp_mmshare_version>
43012

> <i_f3d_flags>
0

> <s_epik_input>
W2NIXTFbY0hdbltjSF1bY0hdYzFbTkhdQyg9TylbTkhdW0NAQEhdMltDSDJdW0NIMl1OKFtDSDJdMilbQ0hdM1tDSDJdW0NIMl0z

> <s_epik_cmdline>
J2VwaWtfcHl0aG9uJywgJy1waCcsICc3LjAnLCAnLXRuJywgJzgnLCAnLW1hJywgJzIwMCcsICctbWV0YWxfYmluZGluZycsICctaW1hZScsICc8aW5maWxlLm1hZT4nLCAnLW9tYWUnLCAnPG91dGZpbGUubWFlPic=

> <r_epik_Ionization_Penalty>
8.3234

> <r_epik_Ionization_Penalty_Charging>
8.3234

> <r_epik_Ionization_Penalty_Neutral>
3.58513e-06

> <r_epik_State_Penalty>
7.99376

> <r_epik_Charging_Adjusted_Penalty>
16.3172

> <i_epik_Tot_Q>
1

> <i_epik_Tot_abs_Q>
3

> <r_epik_Metal_State_Penalty>
3.98956

> <b_epik_Metal_Only>
1

> <s_lp_Force_Field>
OPLS_2005

> <r_lp_Energy>
39.7431

> <b_lp_Chiralities_Consistent>
1

> <s_lp_Variant>
AV-unprocessed.smi:3234-11

> <Gold.Version>
5.8.1

> <Gold.Id.Protein>
6NUR|6NUR_protein|mol2

> <Gold.PLP.Fitness>
45.3349

> <Gold.PLP.PLP>
-32.0366

> <Gold.PLP.part.hbond>
-3.0000

> <Gold.PLP.part.metal>
0.0000

> <Gold.PLP.part.buried>
-3.6775

> <Gold.PLP.part.nonpolar>
-30.1134

> <Gold.PLP.part.repulsive>
4.2834

> <Gold.PLP.ligand.clash>
0.0000

> <Gold.PLP.ligand.torsion>
1.4640

> <Gold.PLP.Chemscore.Hbond>
4.9825

> <Gold.PLP.Chemscore.CHOScore>
0.0000

> <Gold.PLP.Chemscore.Metal>
0.0000

> <Gold.Chemscore.Hbonds>
donor molecule, donor type, donor heavy atom, donor atom, acceptor molecule, acceptor atom, score
      L1  H     3    19       P1  7948  1.00
      L1  H     7    37       P1  8028  1.38
      L1  H    14    36       P1 10186  1.89

> <Gold.PLP.Chemscore.Internal.Correction>
1.2789

> <Gold.Rescore>
     Score         DG    S(hbond)    S(metal)    S(lipo)     H(rot)  DE(clash)    DE(int)     intcor
     16.55     -21.40       2.65        0.00      86.85       1.21       2.34       2.50       ----

> <Gold.Chemscore.Fitness>
16.5539

> <Gold.Chemscore.DG>
-21.3952

> <Gold.Chemscore.ZeroCoef>
-5.4800

> <Gold.Chemscore.Hbond>
2.6508

> <Gold.Chemscore.Metal>
0.0000

> <Gold.Chemscore.Lipo>
86.8461

> <Gold.Chemscore.Internal_Hbond>
0.0000

> <Gold.Chemscore.DEClash>
2.3410

> <Gold.Chemscore.DEInternal>
2.5003

> <Gold.Chemscore.Rot>
1.2108

> <Gold.Chemscore.Internal.Correction>
   9.000000E+99

> <Gold.Chemscore.Hbonds>
donor molecule, donor type, donor heavy atom, donor atom, acceptor molecule, acceptor atom, score
      L1  H     3    19       P1  7948  0.97
      L1  H     7    37       P1  8028  0.66
      L1  H    14    36       P1 10186  0.61

> <Gold.Chemscore.Hbond.Weighted>
-8.8538

> <Gold.Chemscore.Metal.Weighted>
-0.0000

> <Gold.Chemscore.Lipo.Weighted>
-10.1610

> <Gold.Chemscore.Internal_Hbond.Weighted>
0.0000

> <Gold.Chemscore.DEClash.Weighted>
2.3410

> <Gold.Chemscore.DEInternal.Weighted>
2.5003

> <Gold.Chemscore.Rot.Weighted>
3.0996

> <Gold.Chemscore.Internal.Correction.Weighted>
   9.000000E+99

> <Gold.Protein.RotatedTorsions>
[ 6907 6896 6895 6894 ] final  114.14 input  -60.11 | X-H torsion
[ 7974 7965 7964 7962 ] final   64.38 input  175.53 | X-H torsion
[ 8008 7997 7996 7995 ] final  -15.25 input   59.86 | X-H torsion
[ 10167 10162 10161 10158 ] final  -50.44 input  -65.29 | X-H torsion
[ 10718 10713 10712 10709 ] final   41.56 input   66.30 | X-H torsion
[ 10763 10752 10751 10750 ] final  -37.14 input  -60.55 | X-H torsion
[ 11005 11000 10999 10996 ] final   -1.51 input  -57.11 | X-H torsion

> <Gold.Protein.ActiveResidues>
 VAL166  LYS551  ARG553  GLY616  TRP617  ASP618  TYR619  PRO620  LYS621  CYS622 
 ASP623  PHE694  ASN695  SER759  ASP760  ASP761  ALA762  ILE779  LEU786  VAL792 
 PHE793  MET794  SER795  GLU796  ALA797  LYS798  CYS799  TRP800  GLU811  SER814 

> <Gold.Protein.RotatedAtoms>
  152.4820  133.8278  159.7086 H   0  0  0  0  0  0  0  0  0  0  0  0  # atno 6907 bound_to 6896
  150.8877  133.7276  159.2920 H   0  0  0  0  0  0  0  0  0  0  0  0  # atno 6908 bound_to 6896
  151.4759  135.1053  159.9816 H   0  0  0  0  0  0  0  0  0  0  0  0  # atno 6909 bound_to 6896
  145.8508  139.3253  143.0876 H   0  0  0  0  0  0  0  0  0  0  0  0  # atno 7974 bound_to 7965
  154.5145  140.2201  155.9093 H   0  0  0  0  0  0  0  0  0  0  0  0  # atno 8008 bound_to 7997
  156.1591  140.3146  155.8742 H   0  0  0  0  0  0  0  0  0  0  0  0  # atno 8009 bound_to 7997
  155.3787  140.0471  157.3035 H   0  0  0  0  0  0  0  0  0  0  0  0  # atno 8010 bound_to 7997
  140.6637  143.2657  151.4360 H   0  0  0  0  0  0  0  0  0  0  0  0  # atno 10167 bound_to 10162
  157.3950  130.7827  149.7300 H   0  0  0  0  0  0  0  0  0  0  0  0  # atno 10718 bound_to 10713
  153.8913  135.6812  153.4760 H   0  0  0  0  0  0  0  0  0  0  0  0  # atno 10763 bound_to 10752
  153.1179  135.4753  154.9144 H   0  0  0  0  0  0  0  0  0  0  0  0  # atno 10764 bound_to 10752
  154.7621  135.3213  154.8311 H   0  0  0  0  0  0  0  0  0  0  0  0  # atno 10765 bound_to 10752
  140.6481  133.9429  155.8364 H   0  0  0  0  0  0  0  0  0  0  0  0  # atno 11005 bound_to 11000
  145.9359  140.9015  143.0332 LP  0  0  0  0  0  0  0  0  0  0  0  0  # atno 17320 bound_to 7965
  144.6729  140.1482  143.7432 LP  0  0  0  0  0  0  0  0  0  0  0  0  # atno 17321 bound_to 7965
  139.5879  144.1564  152.2052 LP  0  0  0  0  0  0  0  0  0  0  0  0  # atno 17342 bound_to 10162
  140.0909  144.5621  150.7055 LP  0  0  0  0  0  0  0  0  0  0  0  0  # atno 17343 bound_to 10162
  155.9808  130.4026  150.3508 LP  0  0  0  0  0  0  0  0  0  0  0  0  # atno 17370 bound_to 10713
  157.1629  131.0349  151.2832 LP  0  0  0  0  0  0  0  0  0  0  0  0  # atno 17371 bound_to 10713
  141.0557  134.0420  157.3726 LP  0  0  0  0  0  0  0  0  0  0  0  0  # atno 17394 bound_to 11000
  139.9055  135.0178  156.7468 LP  0  0  0  0  0  0  0  0  0  0  0  0  # atno 17395 bound_to 11000

$$$$
