AV-unprocessed.smi:2526|AV-procd|sdf|9941|dock8
  -GOLD-   2272013583D 1   1.00000     0.00000
 Structure written by MMmdl.
 28 29  0  0  0  0  0  0  0  0  1 V2000
  151.4380  138.4294  154.5843 C   0  0  0  0  0  0  0  0  0  0  0  0
  151.1681  139.5771  155.4237 N   0  0  0  0  0  0  0  0  0  0  0  0
  151.4112  139.7314  156.7709 C   0  0  0  0  0  0  0  0  0  0  0  0
  150.9842  140.9811  157.1287 C   0  0  0  0  0  0  0  0  0  0  0  0
  151.0204  141.6564  158.4800 C   0  0  1  0  0  0  0  0  0  0  0  0
  152.3053  141.4160  159.1450 N   0  0  0  0  0  0  0  0  0  0  0  0
  153.0085  142.2841  159.8941 C   0  0  0  0  0  0  0  0  0  0  0  0
  154.0564  141.9538  160.4442 O   0  0  0  0  0  0  0  0  0  0  0  0
  152.5041  143.7273  160.0368 C   0  0  0  0  0  0  0  0  0  0  0  0
  151.0209  143.8901  159.6740 C   0  0  0  0  0  0  0  0  0  0  0  0
  150.7067  143.1670  158.3594 C   0  0  2  0  0  0  0  0  0  0  0  0
  149.3164  143.3846  158.0016 N   0  0  0  0  0  0  0  0  0  0  0  0
  150.4913  141.5174  155.9039 C   0  0  0  0  0  0  0  0  0  0  0  0
  150.5993  140.6761  154.8887 N   0  0  0  0  0  0  0  0  0  0  0  0
  152.1960  137.7983  155.0493 H   0  0  0  0  0  0  0  0  0  0  0  0
  151.8008  138.7548  153.6085 H   0  0  0  0  0  0  0  0  0  0  0  0
  150.5240  137.8499  154.4524 H   0  0  0  0  0  0  0  0  0  0  0  0
  151.8642  138.9469  157.3593 H   0  0  0  0  0  0  0  0  0  0  0  0
  150.2728  141.2039  159.1337 H   0  0  0  0  0  0  0  0  0  0  0  0
  152.6793  140.4821  159.0572 H   0  0  0  0  0  0  0  0  0  0  0  0
  152.6803  144.0765  161.0548 H   0  0  0  0  0  0  0  0  0  0  0  0
  153.1099  144.3545  159.3820 H   0  0  0  0  0  0  0  0  0  0  0  0
  150.3999  143.4945  160.4796 H   0  0  0  0  0  0  0  0  0  0  0  0
  150.7829  144.9511  159.5904 H   0  0  0  0  0  0  0  0  0  0  0  0
  151.3244  143.6010  157.5717 H   0  0  0  0  0  0  0  0  0  0  0  0
  149.2549  143.6689  157.0345 H   0  0  0  0  0  0  0  0  0  0  0  0
  148.8073  142.5155  158.0771 H   0  0  0  0  0  0  0  0  0  0  0  0
  150.0582  142.4905  155.7253 H   0  0  0  0  0  0  0  0  0  0  0  0
  1  2  1  0  0  0  0
  1 15  1  0  0  0  0
  1 16  1  0  0  0  0
  1 17  1  0  0  0  0
  2 14  1  0  0  0  0
  2  3  1  0  0  0  0
  3  4  2  0  0  0  0
  3 18  1  0  0  0  0
  4  5  1  0  0  0  0
  4 13  1  0  0  0  0
  5 11  1  0  0  0  0
  5  6  1  0  0  0  0
  5 19  1  0  0  0  0
  6  7  1  0  0  0  0
  6 20  1  0  0  0  0
  7  8  2  0  0  0  0
  7  9  1  0  0  0  0
  9 10  1  0  0  0  0
  9 21  1  0  0  0  0
  9 22  1  0  0  0  0
 10 11  1  0  0  0  0
 10 23  1  0  0  0  0
 10 24  1  0  0  0  0
 11 12  1  0  0  0  0
 11 25  1  0  0  0  0
 12 26  1  0  0  0  0
 12 27  1  0  0  0  0
 13 14  2  0  0  0  0
 13 28  1  0  0  0  0
M  END
> <s_m_source_file>
AV-unprocessed.smi

> <i_m_source_file_index>
2526

> <i_lp_mmshare_version>
43012

> <i_f3d_flags>
0

> <s_epik_input>
W0NIM11uMVtjSF1jKFtjSF1uMSlbQ0BASF0yW05IXUMoPU8pW0NIMl1bQ0gyXVtDQEhdMltOSDJd

> <s_epik_cmdline>
J2VwaWtfcHl0aG9uJywgJy1waCcsICc3LjAnLCAnLXRuJywgJzgnLCAnLW1hJywgJzIwMCcsICctbWV0YWxfYmluZGluZycsICctaW1hZScsICc8aW5maWxlLm1hZT4nLCAnLW9tYWUnLCAnPG91dGZpbGUubWFlPic=

> <r_lp_tautomer_probability>
1

> <r_epik_Ionization_Penalty>
2.50279

> <r_epik_Ionization_Penalty_Charging>
0

> <r_epik_Ionization_Penalty_Neutral>
2.50279

> <r_epik_State_Penalty>
2.66754

> <r_epik_Charging_Adjusted_Penalty>
2.66754

> <i_epik_Tot_Q>
0

> <i_epik_Tot_abs_Q>
0

> <r_epik_Metal_State_Penalty>
2.66721

> <b_epik_Metal_Only>
0

> <s_lp_Force_Field>
OPLS_2005

> <r_lp_Energy>
8.34042

> <b_lp_Chiralities_Consistent>
1

> <s_lp_Variant>
AV-unprocessed.smi:2526-8

> <Gold.Version>
5.8.1

> <Gold.Id.Protein>
6NUR|6NUR_protein|mol2

> <Gold.PLP.Fitness>
37.7489

> <Gold.PLP.PLP>
-29.6280

> <Gold.PLP.part.hbond>
-3.0000

> <Gold.PLP.part.metal>
0.0000

> <Gold.PLP.part.buried>
-2.9235

> <Gold.PLP.part.nonpolar>
-23.5838

> <Gold.PLP.part.repulsive>
0.2021

> <Gold.PLP.ligand.clash>
0.0000

> <Gold.PLP.ligand.torsion>
0.3446

> <Gold.PLP.Chemscore.Hbond>
1.9280

> <Gold.PLP.Chemscore.CHOScore>
1.0000

> <Gold.PLP.Chemscore.Metal>
0.0000

> <Gold.Chemscore.Hbonds>
donor molecule, donor type, donor heavy atom, donor atom, acceptor molecule, acceptor atom, score
      L1  H    12    26       P1  8028  1.00
      P1  H  7989  7998       L1    14  0.91
      L1  C    13    28       P1  8028  1.00

> <Gold.PLP.Chemscore.Internal.Correction>
0.0260

> <Gold.Rescore>
     Score         DG    S(hbond)    S(metal)    S(lipo)     H(rot)  DE(clash)    DE(int)     intcor
     14.87     -15.76       1.74        0.00      60.18       1.00       0.02       0.87       ----

> <Gold.Chemscore.Fitness>
14.8714

> <Gold.Chemscore.DG>
-15.7585

> <Gold.Chemscore.ZeroCoef>
-5.4800

> <Gold.Chemscore.Hbond>
1.7359

> <Gold.Chemscore.Metal>
0.0000

> <Gold.Chemscore.Lipo>
60.1753

> <Gold.Chemscore.Internal_Hbond>
0.0000

> <Gold.Chemscore.DEClash>
0.0217

> <Gold.Chemscore.DEInternal>
0.8654

> <Gold.Chemscore.Rot>
1.0000

> <Gold.Chemscore.Internal.Correction>
   9.000000E+99

> <Gold.Chemscore.Hbonds>
donor molecule, donor type, donor heavy atom, donor atom, acceptor molecule, acceptor atom, score
      L1  H    12    26       P1  8028  0.69
      P1  H  7989  7998       L1    14  0.23

> <Gold.Chemscore.Hbond.Weighted>
-5.7980

> <Gold.Chemscore.Metal.Weighted>
-0.0000

> <Gold.Chemscore.Lipo.Weighted>
-7.0405

> <Gold.Chemscore.Internal_Hbond.Weighted>
0.0000

> <Gold.Chemscore.DEClash.Weighted>
0.0217

> <Gold.Chemscore.DEInternal.Weighted>
0.8654

> <Gold.Chemscore.Rot.Weighted>
2.5600

> <Gold.Chemscore.Internal.Correction.Weighted>
   9.000000E+99

> <Gold.Protein.RotatedTorsions>
[ 6907 6896 6895 6894 ] final    5.47 input  -60.11 | X-H torsion
[ 7974 7965 7964 7962 ] final  -83.37 input  175.53 | X-H torsion
[ 8008 7997 7996 7995 ] final  -64.88 input   59.86 | X-H torsion
[ 10167 10162 10161 10158 ] final -168.36 input  -65.29 | X-H torsion
[ 10718 10713 10712 10709 ] final    1.03 input   66.30 | X-H torsion
[ 10763 10752 10751 10750 ] final   59.80 input  -60.55 | X-H torsion
[ 11005 11000 10999 10996 ] final -108.64 input  -57.11 | X-H torsion

> <Gold.Protein.ActiveResidues>
 VAL166  LYS551  ARG553  GLY616  TRP617  ASP618  TYR619  PRO620  LYS621  CYS622 
 ASP623  PHE694  ASN695  SER759  ASP760  ASP761  ALA762  ILE779  LEU786  VAL792 
 PHE793  MET794  SER795  GLU796  ALA797  LYS798  CYS799  TRP800  GLU811  SER814 

> <Gold.Protein.RotatedAtoms>
  151.6580  135.0993  160.0173 H   0  0  0  0  0  0  0  0  0  0  0  0  # atno 6907 bound_to 6896
  152.3963  133.6747  159.6287 H   0  0  0  0  0  0  0  0  0  0  0  0  # atno 6908 bound_to 6896
  150.7870  133.8785  159.3320 H   0  0  0  0  0  0  0  0  0  0  0  0  # atno 6909 bound_to 6896
  145.5209  140.9531  143.1655 H   0  0  0  0  0  0  0  0  0  0  0  0  # atno 7974 bound_to 7965
  154.4638  140.0945  156.6964 H   0  0  0  0  0  0  0  0  0  0  0  0  # atno 8008 bound_to 7997
  155.4918  140.3471  155.4338 H   0  0  0  0  0  0  0  0  0  0  0  0  # atno 8009 bound_to 7997
  156.0918  140.1399  156.9570 H   0  0  0  0  0  0  0  0  0  0  0  0  # atno 8010 bound_to 7997
  139.5990  144.1051  152.1721 H   0  0  0  0  0  0  0  0  0  0  0  0  # atno 10167 bound_to 10162
  156.8422  130.5525  149.5676 H   0  0  0  0  0  0  0  0  0  0  0  0  # atno 10718 bound_to 10713
  152.9904  135.5558  154.5772 H   0  0  0  0  0  0  0  0  0  0  0  0  # atno 10763 bound_to 10752
  154.5161  135.2805  155.1304 H   0  0  0  0  0  0  0  0  0  0  0  0  # atno 10764 bound_to 10752
  154.2677  135.6369  153.5351 H   0  0  0  0  0  0  0  0  0  0  0  0  # atno 10765 bound_to 10752
  141.0891  133.9087  157.2118 H   0  0  0  0  0  0  0  0  0  0  0  0  # atno 11005 bound_to 11000
  144.7676  139.6808  143.7208 LP  0  0  0  0  0  0  0  0  0  0  0  0  # atno 17320 bound_to 7965
  146.2106  139.5460  142.9683 LP  0  0  0  0  0  0  0  0  0  0  0  0  # atno 17321 bound_to 7965
  140.0643  144.5831  150.7239 LP  0  0  0  0  0  0  0  0  0  0  0  0  # atno 17342 bound_to 10162
  140.7235  143.2612  151.4200 LP  0  0  0  0  0  0  0  0  0  0  0  0  # atno 17343 bound_to 10162
  156.0874  130.5869  150.9673 LP  0  0  0  0  0  0  0  0  0  0  0  0  # atno 17370 bound_to 10713
  157.6349  131.0917  150.8368 LP  0  0  0  0  0  0  0  0  0  0  0  0  # atno 17371 bound_to 10713
  139.9713  135.0127  156.9520 LP  0  0  0  0  0  0  0  0  0  0  0  0  # atno 17394 bound_to 11000
  140.5295  134.0828  155.7312 LP  0  0  0  0  0  0  0  0  0  0  0  0  # atno 17395 bound_to 11000

$$$$
