#       Name:                AV-unprocessed.smi:630
#       Creating user name   scv26
#       Creation time:       Fri Mar 27 00:04:22 2020


#       File generated by GOLD software.
#

@<TRIPOS>MOLECULE
AV-unprocessed.smi:630
    42    43     1
SMALL
NO_CHARGES


@<TRIPOS>ATOM
      1 ****        -1.7311   0.7601   3.1593 N.am           1 S1                 0.0000
      2 ****        -0.9882  -0.1059   2.4646 C.2            1 S1                 0.0000
      3 ****         0.0814  -0.5355   2.8949 O.2            1 S1                 0.0000
      4 ****        -1.5338  -0.5661   1.0965 C.3            1 S1                 0.0000
      5 ****        -1.4909  -2.1082   0.9604 C.3            1 S1                 0.0000
      6 ****        -2.7316  -2.6716   0.2424 C.3            1 S1                 0.0000
      7 ****        -2.7810  -2.4025  -1.2703 C.3            1 S1                 0.0000
      8 ****        -2.6560  -0.9226  -1.6761 C.3            1 S1                 0.0000
      9 ****        -1.2274  -0.3801  -1.5009 C.3            1 S1                 0.0000
     10 ****        -0.8853   0.1886  -0.1031 C.3            1 S1                 0.0000
     11 ****         0.5721   0.2872   0.0190 N.am           1 S1                 0.0000
     12 ****         1.3291   1.2916  -0.4457 C.2            1 S1                 0.0000
     13 ****         0.8744   2.2595  -1.0556 O.2            1 S1                 0.0000
     14 ****         2.6254   1.0949  -0.1567 N.am           1 S1                 0.0000
     15 ****         3.7236   1.9261  -0.4884 C.2            1 S1                 0.0000
     16 ****         4.9500   1.5534  -0.1178 N.2            1 S1                 0.0000
     17 ****         5.9221   2.4742  -0.5193 C.2            1 S1                 0.0000
     18 ****         5.4134   3.5526  -1.1999 C.2            1 S1                 0.0000
     19 ****         3.6812   3.4564  -1.3678 S.3            1 S1                 0.0000
     20 ****        -1.4072   1.0893   4.0573 H              1 S1                 0.0000
     21 ****        -2.6100   1.0863   2.7845 H              1 S1                 0.0000
     22 ****        -2.5878  -0.2832   1.1078 H              1 S1                 0.0000
     23 ****        -0.5779  -2.4304   0.4583 H              1 S1                 0.0000
     24 ****        -1.4587  -2.5710   1.9482 H              1 S1                 0.0000
     25 ****        -2.7615  -3.7509   0.3948 H              1 S1                 0.0000
     26 ****        -3.6370  -2.2868   0.7133 H              1 S1                 0.0000
     27 ****        -2.0042  -2.9840  -1.7683 H              1 S1                 0.0000
     28 ****        -3.7256  -2.7901  -1.6532 H              1 S1                 0.0000
     29 ****        -2.9127  -0.8508  -2.7335 H              1 S1                 0.0000
     30 ****        -3.3840  -0.3018  -1.1530 H              1 S1                 0.0000
     31 ****        -0.5170  -1.1625  -1.7730 H              1 S1                 0.0000
     32 ****        -1.0674   0.4127  -2.2330 H              1 S1                 0.0000
     33 ****        -1.2922   1.2013  -0.0620 H              1 S1                 0.0000
     34 ****         1.0335  -0.4632   0.5125 H              1 S1                 0.0000
     35 ****         2.8537   0.2546   0.3539 H              1 S1                 0.0000
     36 ****         6.9570   2.2828  -0.2774 H              1 S1                 0.0000
     37 ****         5.9502   4.3944  -1.6112 H              1 S1                 0.0000
     38 ****         0.4170  -0.2370   3.7883 LP             1 S1                 0.0000
     39 ****         0.6152  -1.1831   2.3511 LP             1 S1                 0.0000
     40 ****        -0.1085   2.3255  -1.2275 LP             1 S1                 0.0000
     41 ****         1.4880   2.9798  -1.3792 LP             1 S1                 0.0000
     42 ****         5.1502   0.7141   0.3877 LP             1 S1                 0.0000
@<TRIPOS>BOND
    1    1    2 am    
    2    1   20 1     
    3    1   21 1     
    4    2    3 2     
    5    2    4 1     
    6    4   10 1     
    7    4    5 1     
    8    4   22 1     
    9    5    6 1     
   10    5   23 1     
   11    5   24 1     
   12    6    7 1     
   13    6   25 1     
   14    6   26 1     
   15    7    8 1     
   16    7   27 1     
   17    7   28 1     
   18    8    9 1     
   19    8   29 1     
   20    8   30 1     
   21    9   10 1     
   22    9   31 1     
   23    9   32 1     
   24   10   11 1     
   25   10   33 1     
   26   11   12 am    
   27   11   34 1     
   28   12   13 2     
   29   12   14 am    
   30   14   15 1     
   31   14   35 1     
   32   15   19 1     
   33   15   16 2     
   34   16   17 1     
   35   17   18 2     
   36   17   36 1     
   37   18   19 1     
   38   18   37 1     
   39    3   38 1     
   40    3   39 1     
   41   13   40 1     
   42   13   41 1     
   43   16   42 1     
@<TRIPOS>SUBSTRUCTURE
      1 S1             1
@<TRIPOS>SET
LONE_PAIRS      STATIC     ATOMS    <user>   **** ""
5 38 39 40 41 42
DONOR_HYDROGENS      STATIC     ATOMS    <user>   **** ""
4 20 21 34 35
ATOM$BLUE        STATIC     ATOMS    COLORGROUP SYSTEM
5 38 39 40 41 42
ATOM$RED        STATIC     ATOMS    COLORGROUP SYSTEM
4 20 21 34 35
