#       Name:                AV-unprocessed.smi:183
#       Creating user name   scv26
#       Creation time:       Thu Mar 26 19:26:27 2020


#       File generated by GOLD software.
#

@<TRIPOS>MOLECULE
AV-unprocessed.smi:183
    65    67     1
SMALL
NO_CHARGES


@<TRIPOS>ATOM
      1 ****        -1.4930  -3.9201   1.3596 C.3            1 S1                 0.0000
      2 ****        -1.5656  -2.5298   0.7380 C.2            1 S1                 0.0000
      3 ****        -0.5332  -1.8898   0.5369 O.2            1 S1                 0.0000
      4 ****        -2.7932  -2.0774   0.4353 N.am           1 S1                 0.0000
      5 ****        -3.0695  -0.7835  -0.1770 C.3            1 S1                 0.0000
      6 ****        -2.8904  -0.8350  -1.7103 C.3            1 S1                 0.0000
      7 ****        -2.2869   0.3766  -2.2758 N.3            1 S1                 0.0000
      8 ****        -0.9358   0.3411  -2.1521 C.ar           1 S1                 0.0000
      9 ****        -0.2571  -0.4275  -3.0415 N.ar           1 S1                 0.0000
     10 ****         1.0679  -0.5631  -2.9401 C.ar           1 S1                 0.0000
     11 ****         1.8927  -0.0402  -2.0315 N.ar           1 S1                 0.0000
     12 ****         1.2150   0.7294  -1.1324 C.ar           1 S1                 0.0000
     13 ****        -0.1848   0.9873  -1.1271 C.ar           1 S1                 0.0000
     14 ****        -0.5040   1.8226  -0.0623 N.2            1 S1                 0.0000
     15 ****         0.6368   2.0342   0.5330 C.2            1 S1                 0.0000
     16 ****         1.7172   1.3909  -0.0258 N.pl3          1 S1                 0.0000
     17 ****         3.0904   1.4210   0.4505 C.3            1 S1                 0.0000
     18 ****         3.4453   0.3112   1.4752 C.3            1 S1                 0.0000
     19 ****         4.8094   0.5041   1.8089 O.3            1 S1                 0.0000
     20 ****         3.2609  -1.1163   0.9782 C.3            1 S1                 0.0000
     21 ****         3.2143  -1.9224   2.2724 C.3            1 S1                 0.0000
     22 ****         2.6389  -1.0572   3.2460 O.3            1 S1                 0.0000
     23 ****         2.5841   0.2811   2.7566 C.3            1 S1                 0.0000
     24 ****         2.9515   1.2923   3.8533 C.3            1 S1                 0.0000
     25 ****        -2.9685   1.6742  -2.1348 C.3            1 S1                 0.0000
     26 ****        -4.4527   1.5841  -2.5364 C.3            1 S1                 0.0000
     27 ****        -2.2975   2.7862  -2.9706 C.3            1 S1                 0.0000
     28 ****        -1.8999  -4.6648   0.6750 H              1 S1                 0.0000
     29 ****        -2.0643  -3.9534   2.2875 H              1 S1                 0.0000
     30 ****        -0.4606  -4.1906   1.5836 H              1 S1                 0.0000
     31 ****        -3.5853  -2.6708   0.6356 H              1 S1                 0.0000
     32 ****        -4.0885  -0.4840   0.0678 H              1 S1                 0.0000
     33 ****        -2.4246  -0.0364   0.2841 H              1 S1                 0.0000
     34 ****        -2.2756  -1.6953  -1.9805 H              1 S1                 0.0000
     35 ****        -3.8495  -1.0279  -2.1903 H              1 S1                 0.0000
     36 ****         1.5317  -1.1912  -3.6861 H              1 S1                 0.0000
     37 ****         0.7186   2.6513   1.4159 H              1 S1                 0.0000
     38 ****         3.7494   1.3519  -0.4161 H              1 S1                 0.0000
     39 ****         3.2705   2.4037   0.8888 H              1 S1                 0.0000
     40 ****         5.0549  -0.1503   2.4451 H              1 S1                 0.0000
     41 ****         2.3036  -1.2320   0.4716 H              1 S1                 0.0000
     42 ****         4.0420  -1.4474   0.2929 H              1 S1                 0.0000
     43 ****         2.6397  -2.8431   2.1685 H              1 S1                 0.0000
     44 ****         4.2220  -2.1873   2.5944 H              1 S1                 0.0000
     45 ****         1.5388   0.4318   2.4912 H              1 S1                 0.0000
     46 ****         2.9126   2.3132   3.4730 H              1 S1                 0.0000
     47 ****         3.9528   1.1162   4.2469 H              1 S1                 0.0000
     48 ****         2.2554   1.2236   4.6892 H              1 S1                 0.0000
     49 ****        -2.9330   1.9674  -1.0858 H              1 S1                 0.0000
     50 ****        -4.9357   2.5594  -2.4702 H              1 S1                 0.0000
     51 ****        -5.0116   0.9143  -1.8833 H              1 S1                 0.0000
     52 ****        -4.5654   1.2283  -3.5611 H              1 S1                 0.0000
     53 ****        -2.8410   3.7265  -2.8753 H              1 S1                 0.0000
     54 ****        -2.2754   2.5248  -4.0290 H              1 S1                 0.0000
     55 ****        -1.2734   2.9864  -2.6576 H              1 S1                 0.0000
     56 ****         0.3537  -2.2818   0.7813 LP             1 S1                 0.0000
     57 ****        -0.5816  -0.9780   0.1291 LP             1 S1                 0.0000
     58 ****        -2.4938   0.3269  -3.2529 LP             1 S1                 0.0000
     59 ****        -0.7509  -0.8939  -3.7754 LP             1 S1                 0.0000
     60 ****         2.8808  -0.1928  -2.0121 LP             1 S1                 0.0000
     61 ****        -1.4035   2.1797   0.1896 LP             1 S1                 0.0000
     62 ****         4.9368   1.4171   2.1965 LP             1 S1                 0.0000
     63 ****         5.3747   0.4080   0.9896 LP             1 S1                 0.0000
     64 ****         3.1950  -1.0810   4.0768 LP             1 S1                 0.0000
     65 ****         1.7122  -1.3687   3.4561 LP             1 S1                 0.0000
@<TRIPOS>BOND
    1    1    2 1     
    2    1   28 1     
    3    1   29 1     
    4    1   30 1     
    5    2    3 2     
    6    2    4 am    
    7    4    5 1     
    8    4   31 1     
    9    5    6 1     
   10    5   32 1     
   11    5   33 1     
   12    6    7 1     
   13    6   34 1     
   14    6   35 1     
   15    7    8 1     
   16    7   25 1     
   17    8   13 ar    
   18    8    9 ar    
   19    9   10 ar    
   20   10   11 ar    
   21   10   36 1     
   22   11   12 ar    
   23   12   16 1     
   24   12   13 ar    
   25   13   14 1     
   26   14   15 2     
   27   15   16 1     
   28   15   37 1     
   29   16   17 1     
   30   17   18 1     
   31   17   38 1     
   32   17   39 1     
   33   18   23 1     
   34   18   19 1     
   35   18   20 1     
   36   19   40 1     
   37   20   21 1     
   38   20   41 1     
   39   20   42 1     
   40   21   22 1     
   41   21   43 1     
   42   21   44 1     
   43   22   23 1     
   44   23   24 1     
   45   23   45 1     
   46   24   46 1     
   47   24   47 1     
   48   24   48 1     
   49   25   26 1     
   50   25   27 1     
   51   25   49 1     
   52   26   50 1     
   53   26   51 1     
   54   26   52 1     
   55   27   53 1     
   56   27   54 1     
   57   27   55 1     
   58    3   56 1     
   59    3   57 1     
   60    7   58 1     
   61    9   59 1     
   62   11   60 1     
   63   14   61 1     
   64   19   62 1     
   65   19   63 1     
   66   22   64 1     
   67   22   65 1     
@<TRIPOS>SUBSTRUCTURE
      1 S1             1
@<TRIPOS>SET
LONE_PAIRS      STATIC     ATOMS    <user>   **** ""
10 56 57 58 59 60 61 62 63 64 65
DONOR_HYDROGENS      STATIC     ATOMS    <user>   **** ""
2 31 40
ATOM$BLUE        STATIC     ATOMS    COLORGROUP SYSTEM
10 56 57 58 59 60 61 62 63 64 65
ATOM$RED        STATIC     ATOMS    COLORGROUP SYSTEM
2 31 40
