AV-unprocessed.smi:3118|AV-procd|sdf|11888|dock1
  -GOLD-   2272017273D 1   1.00000     0.00000
 Structure written by MMmdl.
 32 33  0  0  0  0  0  0  0  0  1 V2000
  149.2863  140.6616  156.9553 C   0  0  0  0  0  0  0  0  0  0  0  0
  150.2740  141.4734  156.1037 C   0  0  2  0  0  0  0  0  0  0  0  0
  151.6267  140.7502  155.9622 C   0  0  0  0  0  0  0  0  0  0  0  0
  151.4971  139.4681  155.2942 N   0  0  0  0  0  0  0  0  0  0  0  0
  150.3451  138.9252  154.7412 C   0  0  0  0  0  0  0  0  0  0  0  0
  150.6992  137.7025  154.2170 C   0  0  0  0  0  0  0  0  0  0  0  0
  152.0554  137.4730  154.4372 N   0  0  0  0  0  0  0  0  0  0  0  0
  152.4596  138.5602  155.0808 C   0  0  0  0  0  0  0  0  0  0  0  0
  150.4724  142.7943  156.6970 N   0  0  0  0  0  0  0  0  0  0  0  0
  151.0502  143.0377  157.8828 C   0  0  0  0  0  0  0  0  0  0  0  0
  151.5117  142.1527  158.6045 O   0  0  0  0  0  0  0  0  0  0  0  0
  151.1087  144.5102  158.3093 C   0  0  0  0  0  0  0  0  0  0  0  0
  152.5069  145.0065  158.7187 C   0  0  0  0  0  0  0  0  0  0  0  0
  151.8604  145.7103  159.9155 C   0  0  0  0  0  0  0  0  0  0  0  0
  150.6593  144.7732  159.7573 C   0  0  0  0  0  0  0  0  0  0  0  0
  149.1104  139.6781  156.5191 H   0  0  0  0  0  0  0  0  0  0  0  0
  148.3214  141.1644  157.0280 H   0  0  0  0  0  0  0  0  0  0  0  0
  149.6626  140.5141  157.9682 H   0  0  0  0  0  0  0  0  0  0  0  0
  149.8462  141.5833  155.1052 H   0  0  0  0  0  0  0  0  0  0  0  0
  152.3392  141.3668  155.4120 H   0  0  0  0  0  0  0  0  0  0  0  0
  152.0627  140.5716  156.9459 H   0  0  0  0  0  0  0  0  0  0  0  0
  149.3964  139.4410  154.7628 H   0  0  0  0  0  0  0  0  0  0  0  0
  150.0874  136.9764  153.7026 H   0  0  0  0  0  0  0  0  0  0  0  0
  153.4816  138.7012  155.4005 H   0  0  0  0  0  0  0  0  0  0  0  0
  150.1261  143.5843  156.1718 H   0  0  0  0  0  0  0  0  0  0  0  0
  150.6248  145.1881  157.6032 H   0  0  0  0  0  0  0  0  0  0  0  0
  153.1962  144.2153  159.0187 H   0  0  0  0  0  0  0  0  0  0  0  0
  152.9706  145.6857  158.0028 H   0  0  0  0  0  0  0  0  0  0  0  0
  152.4019  145.6016  160.8555 H   0  0  0  0  0  0  0  0  0  0  0  0
  151.6118  146.7522  159.7080 H   0  0  0  0  0  0  0  0  0  0  0  0
  149.6933  145.2713  159.8453 H   0  0  0  0  0  0  0  0  0  0  0  0
  150.7176  143.9012  160.4115 H   0  0  0  0  0  0  0  0  0  0  0  0
  1  2  1  0  0  0  0
  1 16  1  0  0  0  0
  1 17  1  0  0  0  0
  1 18  1  0  0  0  0
  2  3  1  0  0  0  0
  2  9  1  0  0  0  0
  2 19  1  0  0  0  0
  3  4  1  0  0  0  0
  3 20  1  0  0  0  0
  3 21  1  0  0  0  0
  4  8  1  0  0  0  0
  4  5  1  0  0  0  0
  5  6  2  0  0  0  0
  5 22  1  0  0  0  0
  6  7  1  0  0  0  0
  6 23  1  0  0  0  0
  7  8  2  0  0  0  0
  8 24  1  0  0  0  0
  9 10  1  0  0  0  0
  9 25  1  0  0  0  0
 10 11  2  0  0  0  0
 10 12  1  0  0  0  0
 12 15  1  0  0  0  0
 12 13  1  0  0  0  0
 12 26  1  0  0  0  0
 13 14  1  0  0  0  0
 13 27  1  0  0  0  0
 13 28  1  0  0  0  0
 14 15  1  0  0  0  0
 14 29  1  0  0  0  0
 14 30  1  0  0  0  0
 15 31  1  0  0  0  0
 15 32  1  0  0  0  0
M  END
> <s_m_source_file>
AV-unprocessed.smi

> <i_m_source_file_index>
3118

> <i_lp_mmshare_version>
43012

> <i_f3d_flags>
0

> <s_epik_input>
W0NIMl0xW0NIMl1bQ0gyXVtDSF0xQyg9TylbTkhdW0NASF0oW0NIM10pW0NIMl1uMltjSF1bY0hdbltjSF0y

> <s_epik_cmdline>
J2VwaWtfcHl0aG9uJywgJy1waCcsICc3LjAnLCAnLXRuJywgJzgnLCAnLW1hJywgJzIwMCcsICctbWV0YWxfYmluZGluZycsICctaW1hZScsICc8aW5maWxlLm1hZT4nLCAnLW9tYWUnLCAnPG91dGZpbGUubWFlPic=

> <r_lp_tautomer_probability>
1

> <r_epik_Ionization_Penalty>
0.642614

> <r_epik_Ionization_Penalty_Charging>
0.642614

> <r_epik_Ionization_Penalty_Neutral>
2.50867e-08

> <r_epik_State_Penalty>
0.660429

> <r_epik_Charging_Adjusted_Penalty>
1.30304

> <i_epik_Tot_Q>
0

> <i_epik_Tot_abs_Q>
0

> <r_epik_Metal_State_Penalty>
0.312239

> <b_epik_Metal_Only>
0

> <s_lp_Force_Field>
OPLS_2005

> <r_lp_Energy>
13.2916

> <b_lp_Chiralities_Consistent>
1

> <s_lp_Variant>
AV-unprocessed.smi:3118-3

> <Gold.Version>
5.8.1

> <Gold.Id.Protein>
6NUR|6NUR_protein|mol2

> <Gold.PLP.Fitness>
46.4065

> <Gold.PLP.PLP>
-37.7868

> <Gold.PLP.part.hbond>
-2.0000

> <Gold.PLP.part.metal>
0.0000

> <Gold.PLP.part.buried>
-4.0195

> <Gold.PLP.part.nonpolar>
-31.8516

> <Gold.PLP.part.repulsive>
0.2000

> <Gold.PLP.ligand.clash>
0.0000

> <Gold.PLP.ligand.torsion>
0.2452

> <Gold.PLP.Chemscore.Hbond>
1.8480

> <Gold.PLP.Chemscore.CHOScore>
1.0436

> <Gold.PLP.Chemscore.Metal>
0.0000

> <Gold.Chemscore.Hbonds>
donor molecule, donor type, donor heavy atom, donor atom, acceptor molecule, acceptor atom, score
      L1  H     9    25       P1  8028  1.00
      P1  H 10752 10764       L1     7  0.85
      L1  C     6    23       P1  7948  1.00
      L1  C     6    23       P1  7949  0.04

> <Gold.PLP.Chemscore.Internal.Correction>
0.4351

> <Gold.Rescore>
     Score         DG    S(hbond)    S(metal)    S(lipo)     H(rot)  DE(clash)    DE(int)     intcor
     15.18     -16.58       1.89        0.00      80.20       1.79       0.10       1.30       ----

> <Gold.Chemscore.Fitness>
15.1789

> <Gold.Chemscore.DG>
-16.5800

> <Gold.Chemscore.ZeroCoef>
-5.4800

> <Gold.Chemscore.Hbond>
1.8852

> <Gold.Chemscore.Metal>
0.0000

> <Gold.Chemscore.Lipo>
80.1977

> <Gold.Chemscore.Internal_Hbond>
0.0000

> <Gold.Chemscore.DEClash>
0.0965

> <Gold.Chemscore.DEInternal>
1.3047

> <Gold.Chemscore.Rot>
1.7889

> <Gold.Chemscore.Internal.Correction>
   9.000000E+99

> <Gold.Chemscore.Hbonds>
donor molecule, donor type, donor heavy atom, donor atom, acceptor molecule, acceptor atom, score
      L1  H     9    25       P1  8028  0.98
      P1  H 10752 10764       L1     7  0.80

> <Gold.Chemscore.Hbond.Weighted>
-6.2964

> <Gold.Chemscore.Metal.Weighted>
-0.0000

> <Gold.Chemscore.Lipo.Weighted>
-9.3831

> <Gold.Chemscore.Internal_Hbond.Weighted>
0.0000

> <Gold.Chemscore.DEClash.Weighted>
0.0965

> <Gold.Chemscore.DEInternal.Weighted>
1.3047

> <Gold.Chemscore.Rot.Weighted>
4.5795

> <Gold.Chemscore.Internal.Correction.Weighted>
   9.000000E+99

> <Gold.Protein.RotatedTorsions>
[ 6907 6896 6895 6894 ] final -104.53 input  -60.11 | X-H torsion
[ 7974 7965 7964 7962 ] final -137.23 input  175.53 | X-H torsion
[ 8008 7997 7996 7995 ] final  116.92 input   59.86 | X-H torsion
[ 10167 10162 10161 10158 ] final  -43.91 input  -65.29 | X-H torsion
[ 10718 10713 10712 10709 ] final   -3.64 input   66.30 | X-H torsion
[ 10763 10752 10751 10750 ] final  -76.39 input  -60.55 | X-H torsion
[ 11005 11000 10999 10996 ] final -136.59 input  -57.11 | X-H torsion

> <Gold.Protein.ActiveResidues>
 VAL166  LYS551  ARG553  GLY616  TRP617  ASP618  TYR619  PRO620  LYS621  CYS622 
 ASP623  PHE694  ASN695  SER759  ASP760  ASP761  ALA762  ILE779  LEU786  VAL792 
 PHE793  MET794  SER795  GLU796  ALA797  LYS798  CYS799  TRP800  GLU811  SER814 

> <Gold.Protein.RotatedAtoms>
  150.7292  134.0263  159.3718 H   0  0  0  0  0  0  0  0  0  0  0  0  # atno 6907 bound_to 6896
  151.8230  135.0643  160.0437 H   0  0  0  0  0  0  0  0  0  0  0  0  # atno 6908 bound_to 6896
  152.2989  133.5599  159.5642 H   0  0  0  0  0  0  0  0  0  0  0  0  # atno 6909 bound_to 6896
  144.8859  140.6574  143.5176 H   0  0  0  0  0  0  0  0  0  0  0  0  # atno 7974 bound_to 7965
  156.2466  140.2907  156.0597 H   0  0  0  0  0  0  0  0  0  0  0  0  # atno 8008 bound_to 7997
  155.1789  140.0403  157.2895 H   0  0  0  0  0  0  0  0  0  0  0  0  # atno 8009 bound_to 7997
  154.6273  140.2491  155.7483 H   0  0  0  0  0  0  0  0  0  0  0  0  # atno 8010 bound_to 7997
  140.6916  143.2958  151.3420 H   0  0  0  0  0  0  0  0  0  0  0  0  # atno 10167 bound_to 10162
  156.7731  130.5306  149.5764 H   0  0  0  0  0  0  0  0  0  0  0  0  # atno 10718 bound_to 10713
  154.4991  135.5799  153.6517 H   0  0  0  0  0  0  0  0  0  0  0  0  # atno 10763 bound_to 10752
  152.9875  135.6131  154.3025 H   0  0  0  0  0  0  0  0  0  0  0  0  # atno 10764 bound_to 10752
  154.2931  135.2848  155.2625 H   0  0  0  0  0  0  0  0  0  0  0  0  # atno 10765 bound_to 10752
  140.8791  134.1955  157.4603 H   0  0  0  0  0  0  0  0  0  0  0  0  # atno 11005 bound_to 11000
  145.3869  139.1625  143.4250 LP  0  0  0  0  0  0  0  0  0  0  0  0  # atno 17320 bound_to 7965
  146.3024  140.3955  142.8699 LP  0  0  0  0  0  0  0  0  0  0  0  0  # atno 17321 bound_to 7965
  139.6325  144.0692  152.2489 LP  0  0  0  0  0  0  0  0  0  0  0  0  # atno 17342 bound_to 10162
  140.0172  144.6180  150.7597 LP  0  0  0  0  0  0  0  0  0  0  0  0  # atno 17343 bound_to 10162
  156.1265  130.6148  151.0271 LP  0  0  0  0  0  0  0  0  0  0  0  0  # atno 17370 bound_to 10713
  157.6682  131.0867  150.7678 LP  0  0  0  0  0  0  0  0  0  0  0  0  # atno 17371 bound_to 10713
  139.8718  134.9809  156.5094 LP  0  0  0  0  0  0  0  0  0  0  0  0  # atno 17394 bound_to 11000
  140.8483  133.8152  155.9143 LP  0  0  0  0  0  0  0  0  0  0  0  0  # atno 17395 bound_to 11000

$$$$
