AV-unprocessed.smi:3078|AV-procd|sdf|11736|dock3
  -GOLD-   2272017133D 1   1.00000     0.00000
 Structure written by MMmdl.
 24 24  0  0  0  0  0  0  0  0  3 V2000
  145.6702  136.6823  151.6459 C   0  0  0  0  0  0  0  0  0  0  0  0
  145.4540  135.3122  151.2324 N   0  0  0  0  0  0  0  0  0  0  0  0
  144.4057  134.7857  150.5096 C   0  0  0  0  0  0  0  0  0  0  0  0
  144.6387  133.4451  150.3616 C   0  0  0  0  0  0  0  0  0  0  0  0
  143.8101  132.4003  149.6572 C   0  0  1  0  0  0  0  0  0  0  0  0
  142.4470  132.3937  150.2184 N   0  3  0  0  0  0  0  0  0  0  0  0
  143.7728  132.6039  148.1296 C   0  0  0  0  0  0  0  0  0  0  0  0
  143.3681  133.9749  147.7653 N   0  3  0  0  0  0  0  0  0  0  0  0
  145.8734  133.2511  151.0458 C   0  0  0  0  0  0  0  0  0  0  0  0
  146.3585  134.3680  151.5604 N   0  0  0  0  0  0  0  0  0  0  0  0
  144.7820  137.2808  151.4404 H   0  0  0  0  0  0  0  0  0  0  0  0
  146.5156  137.1023  151.1003 H   0  0  0  0  0  0  0  0  0  0  0  0
  145.8806  136.7185  152.7154 H   0  0  0  0  0  0  0  0  0  0  0  0
  143.5897  135.4038  150.1648 H   0  0  0  0  0  0  0  0  0  0  0  0
  144.2206  131.4089  149.8551 H   0  0  0  0  0  0  0  0  0  0  0  0
  141.9453  131.5875  149.8728 H   0  0  0  0  0  0  0  0  0  0  0  0
  141.9591  133.2336  149.9412 H   0  0  0  0  0  0  0  0  0  0  0  0
  144.7595  132.4210  147.7025 H   0  0  0  0  0  0  0  0  0  0  0  0
  143.0887  131.8965  147.6593 H   0  0  0  0  0  0  0  0  0  0  0  0
  142.9274  133.9676  146.8562 H   0  0  0  0  0  0  0  0  0  0  0  0
  144.1803  134.5751  147.7371 H   0  0  0  0  0  0  0  0  0  0  0  0
  146.4302  132.3354  151.1803 H   0  0  0  0  0  0  0  0  0  0  0  0
  142.7148  134.3289  148.4501 H   0  0  0  0  0  0  0  0  0  0  0  0
  142.4927  132.3485  151.2265 H   0  0  0  0  0  0  0  0  0  0  0  0
  1  2  1  0  0  0  0
  1 11  1  0  0  0  0
  1 12  1  0  0  0  0
  1 13  1  0  0  0  0
  2 10  1  0  0  0  0
  2  3  1  0  0  0  0
  3  4  2  0  0  0  0
  3 14  1  0  0  0  0
  4  5  1  0  0  0  0
  4  9  1  0  0  0  0
  5  6  1  0  0  0  0
  5  7  1  0  0  0  0
  5 15  1  0  0  0  0
  6 16  1  0  0  0  0
  6 17  1  0  0  0  0
  6 24  1  0  0  0  0
  7  8  1  0  0  0  0
  7 18  1  0  0  0  0
  7 19  1  0  0  0  0
  8 20  1  0  0  0  0
  8 21  1  0  0  0  0
  8 23  1  0  0  0  0
  9 10  2  0  0  0  0
  9 22  1  0  0  0  0
M  CHG  1   6   1
M  CHG  1   8   1
M  END
> <s_m_source_file>
AV-unprocessed.smi

> <i_m_source_file_index>
3078

> <i_lp_mmshare_version>
43012

> <i_f3d_flags>
0

> <s_epik_input>
W0NIM11uMVtjSF1jKFtjSF1uMSlbQ0BIXShbTkgyXSlbQ0gyXVtOSDJd

> <s_epik_cmdline>
J2VwaWtfcHl0aG9uJywgJy1waCcsICc3LjAnLCAnLXRuJywgJzgnLCAnLW1hJywgJzIwMCcsICctbWV0YWxfYmluZGluZycsICctaW1hZScsICc8aW5maWxlLm1hZT4nLCAnLW9tYWUnLCAnPG91dGZpbGUubWFlPic=

> <r_lp_tautomer_probability>
1

> <r_epik_Ionization_Penalty>
2.39325

> <r_epik_Ionization_Penalty_Charging>
2.39325

> <r_epik_Ionization_Penalty_Neutral>
1.68997e-07

> <r_epik_State_Penalty>
1.77229

> <r_epik_Charging_Adjusted_Penalty>
4.16555

> <i_epik_Tot_Q>
2

> <i_epik_Tot_abs_Q>
2

> <r_epik_Metal_State_Penalty>
1.77233

> <b_epik_Metal_Only>
0

> <s_lp_Force_Field>
OPLS_2005

> <r_lp_Energy>
8.51806

> <b_lp_Chiralities_Consistent>
1

> <s_lp_Variant>
AV-unprocessed.smi:3078-6

> <Gold.Version>
5.8.1

> <Gold.Id.Protein>
6NUR|6NUR_protein|mol2

> <Gold.PLP.Fitness>
46.7635

> <Gold.PLP.PLP>
-25.2289

> <Gold.PLP.part.hbond>
-5.0000

> <Gold.PLP.part.metal>
0.0000

> <Gold.PLP.part.buried>
-3.7341

> <Gold.PLP.part.nonpolar>
-18.7356

> <Gold.PLP.part.repulsive>
1.7085

> <Gold.PLP.ligand.clash>
0.0000

> <Gold.PLP.ligand.torsion>
0.1130

> <Gold.PLP.Chemscore.Hbond>
7.0000

> <Gold.PLP.Chemscore.CHOScore>
0.2480

> <Gold.PLP.Chemscore.Metal>
0.0000

> <Gold.Chemscore.Hbonds>
donor molecule, donor type, donor heavy atom, donor atom, acceptor molecule, acceptor atom, score
      L1  H     6    16       P1 10952  1.00
      L1  H     6    17       P1 10186  2.00
      L1  H     8    20       P1 10195  1.00
      L1  H     8    21       P1  7921  1.00
      L1  H     8    23       P1 10186  2.00
      L1  C     3    14       P1 10186  0.25

> <Gold.PLP.Chemscore.Internal.Correction>
0.0169

> <Gold.Rescore>
     Score         DG    S(hbond)    S(metal)    S(lipo)     H(rot)  DE(clash)    DE(int)     intcor
     23.59     -24.11       4.84        0.00      52.33       1.43       0.38       0.15       ----

> <Gold.Chemscore.Fitness>
23.5880

> <Gold.Chemscore.DG>
-24.1150

> <Gold.Chemscore.ZeroCoef>
-5.4800

> <Gold.Chemscore.Hbond>
4.8427

> <Gold.Chemscore.Metal>
0.0000

> <Gold.Chemscore.Lipo>
52.3263

> <Gold.Chemscore.Internal_Hbond>
0.0000

> <Gold.Chemscore.DEClash>
0.3797

> <Gold.Chemscore.DEInternal>
0.1473

> <Gold.Chemscore.Rot>
1.4304

> <Gold.Chemscore.Internal.Correction>
   9.000000E+99

> <Gold.Chemscore.Hbonds>
donor molecule, donor type, donor heavy atom, donor atom, acceptor molecule, acceptor atom, score
      L1  H     6    16       P1 10952  0.96
      L1  H     6    17       P1 10186  0.97
      L1  H     8    20       P1 10195  0.91
      L1  H     8    21       P1  7921  0.95
      L1  H     8    23       P1 10186  0.94

> <Gold.Chemscore.Hbond.Weighted>
-16.1746

> <Gold.Chemscore.Metal.Weighted>
-0.0000

> <Gold.Chemscore.Lipo.Weighted>
-6.1222

> <Gold.Chemscore.Internal_Hbond.Weighted>
0.0000

> <Gold.Chemscore.DEClash.Weighted>
0.3797

> <Gold.Chemscore.DEInternal.Weighted>
0.1473

> <Gold.Chemscore.Rot.Weighted>
3.6618

> <Gold.Chemscore.Internal.Correction.Weighted>
   9.000000E+99

> <Gold.Protein.RotatedTorsions>
[ 6907 6896 6895 6894 ] final -151.04 input  -60.11 | X-H torsion
[ 7974 7965 7964 7962 ] final  164.01 input  175.53 | X-H torsion
[ 8008 7997 7996 7995 ] final  131.36 input   59.86 | X-H torsion
[ 10167 10162 10161 10158 ] final -176.09 input  -65.29 | X-H torsion
[ 10718 10713 10712 10709 ] final  100.96 input   66.30 | X-H torsion
[ 10763 10752 10751 10750 ] final  -78.24 input  -60.55 | X-H torsion
[ 11005 11000 10999 10996 ] final  148.37 input  -57.11 | X-H torsion

> <Gold.Protein.ActiveResidues>
 VAL166  LYS551  ARG553  GLY616  TRP617  ASP618  TYR619  PRO620  LYS621  CYS622 
 ASP623  PHE694  ASN695  SER759  ASP760  ASP761  ALA762  ILE779  LEU786  VAL792 
 PHE793  MET794  SER795  GLU796  ALA797  LYS798  CYS799  TRP800  GLU811  SER814 

> <Gold.Protein.RotatedAtoms>
  151.2072  133.4576  159.2597 H   0  0  0  0  0  0  0  0  0  0  0  0  # atno 6907 bound_to 6896
  151.1011  134.9973  159.8459 H   0  0  0  0  0  0  0  0  0  0  0  0  # atno 6908 bound_to 6896
  152.5443  134.1999  159.8761 H   0  0  0  0  0  0  0  0  0  0  0  0  # atno 6909 bound_to 6896
  144.7564  139.8264  143.6348 H   0  0  0  0  0  0  0  0  0  0  0  0  # atno 7974 bound_to 7965
  156.2969  140.2573  156.2912 H   0  0  0  0  0  0  0  0  0  0  0  0  # atno 8008 bound_to 7997
  154.9507  140.0394  157.2161 H   0  0  0  0  0  0  0  0  0  0  0  0  # atno 8009 bound_to 7997
  154.8038  140.2833  155.5906 H   0  0  0  0  0  0  0  0  0  0  0  0  # atno 8010 bound_to 7997
  139.5547  144.2019  152.1139 H   0  0  0  0  0  0  0  0  0  0  0  0  # atno 10167 bound_to 10162
  157.6841  131.0713  150.5179 H   0  0  0  0  0  0  0  0  0  0  0  0  # atno 10718 bound_to 10713
  154.5233  135.5736  153.6699 H   0  0  0  0  0  0  0  0  0  0  0  0  # atno 10763 bound_to 10752
  152.9922  135.6187  154.2725 H   0  0  0  0  0  0  0  0  0  0  0  0  # atno 10764 bound_to 10752
  154.2648  135.2855  155.2743 H   0  0  0  0  0  0  0  0  0  0  0  0  # atno 10765 bound_to 10752
  140.0954  134.9016  157.1715 H   0  0  0  0  0  0  0  0  0  0  0  0  # atno 11005 bound_to 11000
  146.1579  139.4683  143.0007 LP  0  0  0  0  0  0  0  0  0  0  0  0  # atno 17320 bound_to 7965
  145.6765  141.0202  143.1629 LP  0  0  0  0  0  0  0  0  0  0  0  0  # atno 17321 bound_to 7965
  140.1521  144.5105  150.6681 LP  0  0  0  0  0  0  0  0  0  0  0  0  # atno 17342 bound_to 10162
  140.6818  143.2330  151.5365 LP  0  0  0  0  0  0  0  0  0  0  0  0  # atno 17343 bound_to 10162
  156.5494  130.4228  149.6115 LP  0  0  0  0  0  0  0  0  0  0  0  0  # atno 17370 bound_to 10713
  156.2916  130.7127  151.1977 LP  0  0  0  0  0  0  0  0  0  0  0  0  # atno 17371 bound_to 10713
  140.3294  134.2827  155.7231 LP  0  0  0  0  0  0  0  0  0  0  0  0  # atno 17394 bound_to 11000
  141.2090  133.7760  157.0022 LP  0  0  0  0  0  0  0  0  0  0  0  0  # atno 17395 bound_to 11000

$$$$
