#       Name:                AV-unprocessed.smi:1030
#       Creating user name   scv26
#       Creation time:       Fri Mar 27 02:45:48 2020


#       File generated by GOLD software.
#

@<TRIPOS>MOLECULE
AV-unprocessed.smi:1030
    34    35     1
SMALL
NO_CHARGES


@<TRIPOS>ATOM
      1 ****        -2.1976   0.6891   1.5287 N.3            1 S1                 0.0000
      2 ****        -1.8346  -0.9890   1.4045 S.o2           1 S1                 0.0000
      3 ****        -2.3387  -1.6300   2.6289 O.2            1 S1                 0.0000
      4 ****        -2.2869  -1.4498   0.0826 O.2            1 S1                 0.0000
      5 ****        -0.0364  -1.0067   1.4517 C.ar           1 S1                 0.0000
      6 ****         0.6162  -1.6326   2.5343 C.ar           1 S1                 0.0000
      7 ****         2.0233  -1.6404   2.5641 C.ar           1 S1                 0.0000
      8 ****         2.7187  -1.0202   1.5087 C.ar           1 S1                 0.0000
      9 ****         2.1036  -0.4176   0.4691 N.ar           1 S1                 0.0000
     10 ****         0.7483  -0.4068   0.4338 C.ar           1 S1                 0.0000
     11 ****         0.1393   0.2236  -0.6617 N.3            1 S1                 0.0000
     12 ****         0.3410  -0.4672  -1.9282 C.3            1 S1                 0.0000
     13 ****        -0.5080   0.1986  -3.0246 C.3            1 S1                 0.0000
     14 ****        -0.1886   1.5857  -3.1008 O.3            1 S1                 0.0000
     15 ****        -0.4536   2.2661  -1.8767 C.3            1 S1                 0.0000
     16 ****         0.3984   1.6543  -0.7517 C.3            1 S1                 0.0000
     17 ****        -1.9544   1.0528   2.4497 H              1 S1                 0.0000
     18 ****        -3.1762   0.8714   1.3075 H              1 S1                 0.0000
     19 ****         0.0585  -2.1013   3.3311 H              1 S1                 0.0000
     20 ****         2.5568  -2.1111   3.3764 H              1 S1                 0.0000
     21 ****         3.7986  -1.0076   1.4989 H              1 S1                 0.0000
     22 ****         1.3962  -0.4329  -2.2031 H              1 S1                 0.0000
     23 ****         0.0664  -1.5178  -1.8264 H              1 S1                 0.0000
     24 ****        -0.3087  -0.2664  -3.9900 H              1 S1                 0.0000
     25 ****        -1.5726   0.0707  -2.8217 H              1 S1                 0.0000
     26 ****        -0.2153   3.3228  -1.9974 H              1 S1                 0.0000
     27 ****        -1.5164   2.2032  -1.6367 H              1 S1                 0.0000
     28 ****         0.1649   2.1334   0.1998 H              1 S1                 0.0000
     29 ****         1.4568   1.8271  -0.9513 H              1 S1                 0.0000
     30 ****        -1.6377   1.1711   0.8548 LP             1 S1                 0.0000
     31 ****         2.6366   0.0119  -0.2599 LP             1 S1                 0.0000
     32 ****        -0.8383   0.1473  -0.4657 LP             1 S1                 0.0000
     33 ****        -0.7357   2.0029  -3.8264 LP             1 S1                 0.0000
     34 ****         0.7827   1.6812  -3.3188 LP             1 S1                 0.0000
@<TRIPOS>BOND
    1    1    2 1     
    2    1   17 1     
    3    1   18 1     
    4    2    3 2     
    5    2    4 2     
    6    2    5 1     
    7    5   10 ar    
    8    5    6 ar    
    9    6    7 ar    
   10    6   19 1     
   11    7    8 ar    
   12    7   20 1     
   13    8    9 ar    
   14    8   21 1     
   15    9   10 ar    
   16   10   11 1     
   17   11   16 1     
   18   11   12 1     
   19   12   13 1     
   20   12   22 1     
   21   12   23 1     
   22   13   14 1     
   23   13   24 1     
   24   13   25 1     
   25   14   15 1     
   26   15   16 1     
   27   15   26 1     
   28   15   27 1     
   29   16   28 1     
   30   16   29 1     
   31    1   30 1     
   32    9   31 1     
   33   11   32 1     
   34   14   33 1     
   35   14   34 1     
@<TRIPOS>SUBSTRUCTURE
      1 S1             1
@<TRIPOS>SET
LONE_PAIRS      STATIC     ATOMS    <user>   **** ""
7 30 3 4 31 32 33 34
DONOR_HYDROGENS      STATIC     ATOMS    <user>   **** ""
2 17 18
ATOM$BLUE        STATIC     ATOMS    COLORGROUP SYSTEM
7 30 3 4 31 32 33 34
ATOM$RED        STATIC     ATOMS    COLORGROUP SYSTEM
2 17 18
