AV-unprocessed.smi:241|AV-procd|sdf|1840|dock5
  -GOLD-   2262020453D 1   1.00000     0.00000
 Structure written by MMmdl.
 54 57  0  0  0  0  0  0  0  0  1 V2000
  152.2029  145.2746  158.7606 C   0  0  0  0  0  0  0  0  0  0  0  0
  152.3269  144.2841  157.7563 O   0  0  0  0  0  0  0  0  0  0  0  0
  151.2849  143.3225  157.8089 C   0  0  0  0  0  0  0  0  0  0  0  0
  151.7111  142.1316  158.6882 C   0  0  2  0  0  0  0  0  0  0  0  0
  152.5451  142.5185  159.9179 C   0  0  0  0  0  0  0  0  0  0  0  0
  153.5026  141.3369  160.1312 C   0  0  1  0  0  0  0  0  0  0  0  0
  153.3476  140.8020  161.4380 O   0  0  0  0  0  0  0  0  0  0  0  0
  154.3276  139.8325  161.7725 C   0  0  0  0  0  0  0  0  0  0  0  0
  153.1137  140.3305  159.0396 C   0  0  0  0  0  0  0  0  0  0  0  0
  152.5003  141.1265  157.9874 N   0  0  0  0  0  0  0  0  0  0  0  0
  151.8516  140.4489  157.0115 C   0  0  0  0  0  0  0  0  0  0  0  0
  152.5473  139.7731  156.0589 N   0  0  0  0  0  0  0  0  0  0  0  0
  151.8950  139.0912  155.1124 C   0  0  0  0  0  0  0  0  0  0  0  0
  150.5783  138.9530  154.9395 N   0  0  0  0  0  0  0  0  0  0  0  0
  149.8781  139.6282  155.8961 C   0  0  0  0  0  0  0  0  0  0  0  0
  150.4336  140.3923  156.9600 C   0  0  0  0  0  0  0  0  0  0  0  0
  149.4195  140.9259  157.7435 N   0  0  0  0  0  0  0  0  0  0  0  0
  148.3244  140.4942  157.1806 C   0  0  0  0  0  0  0  0  0  0  0  0
  148.5050  139.7226  156.0530 N   0  0  0  0  0  0  0  0  0  0  0  0
  147.4860  139.1058  155.2508 C   0  0  0  0  0  0  0  0  0  0  0  0
  147.8177  138.1021  154.1424 C   0  0  0  0  0  0  0  0  0  0  0  0
  146.6077  138.6159  153.3294 C   0  0  0  0  0  0  0  0  0  0  0  0
  146.8535  138.7836  151.8204 C   0  0  0  0  0  0  0  0  0  0  0  0
  146.8913  137.5338  151.1613 O   0  0  0  0  0  0  0  0  0  0  0  0
  145.2952  137.8346  153.5447 C   0  0  0  0  0  0  0  0  0  0  0  0
  144.2803  138.2758  152.6656 O   0  0  0  0  0  0  0  0  0  0  0  0
  146.7543  139.9042  154.1728 C   0  0  0  0  0  0  0  0  0  0  0  0
  150.8051  141.6386  159.0456 H   0  0  0  0  0  0  0  0  0  0  0  0
  154.5254  141.6856  159.9767 H   0  0  0  0  0  0  0  0  0  0  0  0
  153.0283  145.9819  158.6807 H   0  0  0  0  0  0  0  0  0  0  0  0
  152.2326  144.8322  159.7572 H   0  0  0  0  0  0  0  0  0  0  0  0
  151.2716  145.8315  158.6503 H   0  0  0  0  0  0  0  0  0  0  0  0
  150.3856  143.7802  158.2230 H   0  0  0  0  0  0  0  0  0  0  0  0
  151.0326  142.9816  156.8036 H   0  0  0  0  0  0  0  0  0  0  0  0
  153.1229  143.4260  159.7388 H   0  0  0  0  0  0  0  0  0  0  0  0
  151.9071  142.7045  160.7827 H   0  0  0  0  0  0  0  0  0  0  0  0
  154.1634  139.4862  162.7927 H   0  0  0  0  0  0  0  0  0  0  0  0
  155.3326  140.2525  161.7196 H   0  0  0  0  0  0  0  0  0  0  0  0
  154.2758  138.9651  161.1138 H   0  0  0  0  0  0  0  0  0  0  0  0
  153.9793  139.7806  158.6694 H   0  0  0  0  0  0  0  0  0  0  0  0
  152.4008  139.6089  159.4416 H   0  0  0  0  0  0  0  0  0  0  0  0
  152.5172  138.5815  154.3915 H   0  0  0  0  0  0  0  0  0  0  0  0
  147.3503  140.7314  157.5818 H   0  0  0  0  0  0  0  0  0  0  0  0
  146.7704  138.6625  155.9453 H   0  0  0  0  0  0  0  0  0  0  0  0
  148.7693  138.3010  153.6477 H   0  0  0  0  0  0  0  0  0  0  0  0
  147.7516  137.0573  154.4474 H   0  0  0  0  0  0  0  0  0  0  0  0
  146.0884  139.4055  151.3554 H   0  0  0  0  0  0  0  0  0  0  0  0
  147.8047  139.2840  151.6367 H   0  0  0  0  0  0  0  0  0  0  0  0
  147.2397  136.8891  151.7577 H   0  0  0  0  0  0  0  0  0  0  0  0
  145.4404  136.7635  153.4024 H   0  0  0  0  0  0  0  0  0  0  0  0
  144.9271  137.9549  154.5637 H   0  0  0  0  0  0  0  0  0  0  0  0
  144.2520  139.2201  152.6895 H   0  0  0  0  0  0  0  0  0  0  0  0
  145.8164  140.3502  154.5053 H   0  0  0  0  0  0  0  0  0  0  0  0
  147.3951  140.6528  153.7032 H   0  0  0  0  0  0  0  0  0  0  0  0
  1  2  1  0  0  0  0
  1 30  1  0  0  0  0
  1 31  1  0  0  0  0
  1 32  1  0  0  0  0
  2  3  1  0  0  0  0
  3  4  1  0  0  0  0
  3 33  1  0  0  0  0
  3 34  1  0  0  0  0
  4 28  1  0  0  0  0
  4 10  1  0  0  0  0
  4  5  1  0  0  0  0
  5  6  1  0  0  0  0
  5 35  1  0  0  0  0
  5 36  1  0  0  0  0
  6 29  1  0  0  0  0
  6  7  1  0  0  0  0
  6  9  1  0  0  0  0
  7  8  1  0  0  0  0
  8 37  1  0  0  0  0
  8 38  1  0  0  0  0
  8 39  1  0  0  0  0
  9 10  1  0  0  0  0
  9 40  1  0  0  0  0
  9 41  1  0  0  0  0
 10 11  1  0  0  0  0
 11 16  1  0  0  0  0
 11 12  2  0  0  0  0
 12 13  1  0  0  0  0
 13 14  2  0  0  0  0
 13 42  1  0  0  0  0
 14 15  1  0  0  0  0
 15 19  1  0  0  0  0
 15 16  2  0  0  0  0
 16 17  1  0  0  0  0
 17 18  2  0  0  0  0
 18 19  1  0  0  0  0
 18 43  1  0  0  0  0
 19 20  1  0  0  0  0
 20 27  1  0  0  0  0
 20 21  1  0  0  0  0
 20 44  1  0  0  0  0
 21 22  1  0  0  0  0
 21 45  1  0  0  0  0
 21 46  1  0  0  0  0
 22 23  1  0  0  0  0
 22 25  1  0  0  0  0
 22 27  1  0  0  0  0
 23 24  1  0  0  0  0
 23 47  1  0  0  0  0
 23 48  1  0  0  0  0
 24 49  1  0  0  0  0
 25 26  1  0  0  0  0
 25 50  1  0  0  0  0
 25 51  1  0  0  0  0
 26 52  1  0  0  0  0
 27 53  1  0  0  0  0
 27 54  1  0  0  0  0
M  END
> <s_m_source_file>
AV-unprocessed.smi

> <i_m_source_file_index>
241

> <i_lp_mmshare_version>
43012

> <i_f3d_flags>
0

> <s_epik_input>
W0NIM11PW0NIMl1bQ0BASF0xW0NIMl1bQ0BASF0oT1tDSDNdKVtDSDJdTjFjKG5bY0hdbjIpYyhjMjMpbltjSF1uM1tDSF0oW0NIMl00KVtDSDJdQzQoW0NIMl1bT0hdKVtDSDJdW09IXQ==

> <s_epik_cmdline>
J2VwaWtfcHl0aG9uJywgJy1waCcsICc3LjAnLCAnLXRuJywgJzgnLCAnLW1hJywgJzIwMCcsICctbWV0YWxfYmluZGluZycsICctaW1hZScsICc8aW5maWxlLm1hZT4nLCAnLW9tYWUnLCAnPG91dGZpbGUubWFlPic=

> <r_lp_tautomer_probability>
1

> <r_epik_Ionization_Penalty>
0.00568677

> <r_epik_Ionization_Penalty_Charging>
0

> <r_epik_Ionization_Penalty_Neutral>
0.00568677

> <r_epik_State_Penalty>
0.00400877

> <r_epik_Charging_Adjusted_Penalty>
0.00400877

> <i_epik_Tot_Q>
0

> <i_epik_Tot_abs_Q>
0

> <r_epik_Metal_State_Penalty>
-0

> <b_epik_Metal_Only>
0

> <s_lp_Force_Field>
OPLS_2005

> <r_lp_Energy>
60.5945

> <b_lp_Chiralities_Consistent>
1

> <s_lp_Variant>
AV-unprocessed.smi:241-1

> <Gold.Version>
5.8.1

> <Gold.Id.Protein>
6NUR|6NUR_protein|mol2

> <Gold.PLP.Fitness>
48.2838

> <Gold.PLP.PLP>
-40.0009

> <Gold.PLP.part.hbond>
-4.9290

> <Gold.PLP.part.metal>
0.0000

> <Gold.PLP.part.buried>
-2.0058

> <Gold.PLP.part.nonpolar>
-32.6649

> <Gold.PLP.part.repulsive>
0.2020

> <Gold.PLP.ligand.clash>
0.0000

> <Gold.PLP.ligand.torsion>
1.6546

> <Gold.PLP.Chemscore.Hbond>
3.6720

> <Gold.PLP.Chemscore.CHOScore>
0.0000

> <Gold.PLP.Chemscore.Metal>
0.0000

> <Gold.Chemscore.Hbonds>
donor molecule, donor type, donor heavy atom, donor atom, acceptor molecule, acceptor atom, score
      L1  H    24    49       P1  7948  0.54
      L1  H    26    52       P1 10175  0.62
      P1  H  7954  7966       L1    24  1.00
      P1  H  7997  8010       L1    12  1.00

> <Gold.PLP.Chemscore.Internal.Correction>
0.5762

> <Gold.Rescore>
     Score         DG    S(hbond)    S(metal)    S(lipo)     H(rot)  DE(clash)    DE(int)     intcor
     11.36     -16.23       2.91        0.00      95.74       3.97       0.43       4.43       ----

> <Gold.Chemscore.Fitness>
11.3625

> <Gold.Chemscore.DG>
-16.2263

> <Gold.Chemscore.ZeroCoef>
-5.4800

> <Gold.Chemscore.Hbond>
2.9086

> <Gold.Chemscore.Metal>
0.0000

> <Gold.Chemscore.Lipo>
95.7412

> <Gold.Chemscore.Internal_Hbond>
0.0000

> <Gold.Chemscore.DEClash>
0.4312

> <Gold.Chemscore.DEInternal>
4.4325

> <Gold.Chemscore.Rot>
3.9727

> <Gold.Chemscore.Internal.Correction>
   9.000000E+99

> <Gold.Chemscore.Hbonds>
donor molecule, donor type, donor heavy atom, donor atom, acceptor molecule, acceptor atom, score
      L1  H    24    49       P1  7948  0.54
      L1  H    26    52       P1 10175  0.61
      P1  H  7954  7966       L1    24  0.20
      P1  H  7997  8010       L1    12  0.74

> <Gold.Chemscore.Hbond.Weighted>
-9.7148

> <Gold.Chemscore.Metal.Weighted>
-0.0000

> <Gold.Chemscore.Lipo.Weighted>
-11.2017

> <Gold.Chemscore.Internal_Hbond.Weighted>
0.0000

> <Gold.Chemscore.DEClash.Weighted>
0.4312

> <Gold.Chemscore.DEInternal.Weighted>
4.4325

> <Gold.Chemscore.Rot.Weighted>
10.1702

> <Gold.Chemscore.Internal.Correction.Weighted>
   9.000000E+99

> <Gold.Protein.RotatedTorsions>
[ 6907 6896 6895 6894 ] final -111.30 input  -60.11 | X-H torsion
[ 7974 7965 7964 7962 ] final   50.80 input  175.53 | X-H torsion
[ 8008 7997 7996 7995 ] final   84.90 input   59.86 | X-H torsion
[ 10167 10162 10161 10158 ] final    0.58 input  -65.29 | X-H torsion
[ 10718 10713 10712 10709 ] final  -80.65 input   66.30 | X-H torsion
[ 10763 10752 10751 10750 ] final   -5.93 input  -60.55 | X-H torsion
[ 11005 11000 10999 10996 ] final -142.37 input  -57.11 | X-H torsion

> <Gold.Protein.ActiveResidues>
 VAL166  LYS551  ARG553  GLY616  TRP617  ASP618  TYR619  PRO620  LYS621  CYS622 
 ASP623  PHE694  ASN695  SER759  ASP760  ASP761  ALA762  ILE779  LEU786  VAL792 
 PHE793  MET794  SER795  GLU796  ALA797  LYS798  CYS799  TRP800  GLU811  SER814 

> <Gold.Protein.RotatedAtoms>
  150.7681  133.9256  159.3410 H   0  0  0  0  0  0  0  0  0  0  0  0  # atno 6907 bound_to 6896
  151.7148  135.0904  160.0283 H   0  0  0  0  0  0  0  0  0  0  0  0  # atno 6908 bound_to 6896
  152.3686  133.6352  159.6105 H   0  0  0  0  0  0  0  0  0  0  0  0  # atno 6909 bound_to 6896
  145.9976  139.4404  143.0035 H   0  0  0  0  0  0  0  0  0  0  0  0  # atno 7974 bound_to 7965
  155.9430  140.3406  155.6343 H   0  0  0  0  0  0  0  0  0  0  0  0  # atno 8008 bound_to 7997
  155.7015  140.0761  157.2426 H   0  0  0  0  0  0  0  0  0  0  0  0  # atno 8009 bound_to 7997
  154.4106  140.1639  156.2184 H   0  0  0  0  0  0  0  0  0  0  0  0  # atno 8010 bound_to 7997
  140.6722  143.7017  150.7947 H   0  0  0  0  0  0  0  0  0  0  0  0  # atno 10167 bound_to 10162
  156.0066  130.4580  150.3832 H   0  0  0  0  0  0  0  0  0  0  0  0  # atno 10718 bound_to 10713
  153.4053  135.7006  153.6397 H   0  0  0  0  0  0  0  0  0  0  0  0  # atno 10763 bound_to 10752
  153.4913  135.3672  155.2493 H   0  0  0  0  0  0  0  0  0  0  0  0  # atno 10764 bound_to 10752
  154.8713  135.4089  154.3396 H   0  0  0  0  0  0  0  0  0  0  0  0  # atno 10765 bound_to 10752
  140.8232  134.2606  157.4891 H   0  0  0  0  0  0  0  0  0  0  0  0  # atno 11005 bound_to 11000
  145.7536  140.9963  143.1237 LP  0  0  0  0  0  0  0  0  0  0  0  0  # atno 17320 bound_to 7965
  144.6908  139.9245  143.7469 LP  0  0  0  0  0  0  0  0  0  0  0  0  # atno 17321 bound_to 7965
  140.0704  143.5067  152.2583 LP  0  0  0  0  0  0  0  0  0  0  0  0  # atno 17342 bound_to 10162
  139.5996  144.7578  151.3204 LP  0  0  0  0  0  0  0  0  0  0  0  0  # atno 17343 bound_to 10162
  157.1911  131.0415  151.2700 LP  0  0  0  0  0  0  0  0  0  0  0  0  # atno 17370 bound_to 10713
  157.4060  130.7359  149.6803 LP  0  0  0  0  0  0  0  0  0  0  0  0  # atno 17371 bound_to 10713
  139.8707  134.9547  156.4182 LP  0  0  0  0  0  0  0  0  0  0  0  0  # atno 17394 bound_to 11000
  140.9077  133.7734  155.9754 LP  0  0  0  0  0  0  0  0  0  0  0  0  # atno 17395 bound_to 11000

$$$$
