AV-unprocessed.smi:1260|AV-procd|sdf|5297|dock6
  -GOLD-   22720 4413D 1   1.00000     0.00000
 Structure written by MMmdl.
 37 39  0  0  0  0  0  0  0  0  2 V2000
  154.4680  139.1466  158.9161 O   0  0  0  0  0  0  0  0  0  0  0  0
  153.2821  139.4189  158.7343 C   0  0  0  0  0  0  0  0  0  0  0  0
  152.3659  138.4084  158.0386 C   0  0  0  0  0  0  0  0  0  0  0  0
  151.8155  138.9372  156.8032 N   0  0  0  0  0  0  0  0  0  0  0  0
  152.4132  139.3479  155.6828 C   0  0  0  0  0  0  0  0  0  0  0  0
  151.5353  139.7737  154.7878 N   0  0  0  0  0  0  0  0  0  0  0  0
  150.3205  139.5940  155.4282 N   0  0  0  0  0  0  0  0  0  0  0  0
  150.4802  139.0958  156.6235 N   0  0  0  0  0  0  0  0  0  0  0  0
  152.7301  140.5864  159.1042 N   0  0  0  0  0  0  0  0  0  0  0  0
  153.4211  141.6607  159.8148 C   0  0  2  0  0  0  0  0  0  0  0  0
  153.3319  141.5169  161.3463 C   0  0  0  0  0  0  0  0  0  0  0  0
  153.0946  142.9415  161.8580 C   0  0  0  0  0  0  0  0  0  0  0  0
  152.3046  143.5510  160.7817 N   0  3  1  0  0  0  0  0  0  0  0  0
  152.0927  145.0125  160.8029 C   0  0  0  0  0  0  0  0  0  0  0  0
  151.0905  145.3763  159.6861 C   0  0  0  0  0  0  0  0  0  0  0  0
  151.5160  144.8126  158.3112 C   0  0  0  0  0  0  0  0  0  0  0  0
  151.8485  143.3065  158.3857 C   0  0  0  0  0  0  0  0  0  0  0  0
  152.8753  143.0761  159.5091 C   0  0  2  0  0  0  0  0  0  0  0  0
  152.9274  137.5000  157.8170 H   0  0  0  0  0  0  0  0  0  0  0  0
  151.5439  138.1274  158.6987 H   0  0  0  0  0  0  0  0  0  0  0  0
  153.4821  139.3406  155.5262 H   0  0  0  0  0  0  0  0  0  0  0  0
  151.7489  140.7258  158.9109 H   0  0  0  0  0  0  0  0  0  0  0  0
  154.4782  141.6373  159.5416 H   0  0  0  0  0  0  0  0  0  0  0  0
  152.4809  140.8910  161.6198 H   0  0  0  0  0  0  0  0  0  0  0  0
  154.2243  141.0625  161.7783 H   0  0  0  0  0  0  0  0  0  0  0  0
  152.5701  142.9642  162.8138 H   0  0  0  0  0  0  0  0  0  0  0  0
  154.0412  143.4733  161.9681 H   0  0  0  0  0  0  0  0  0  0  0  0
  151.6999  145.3143  161.7744 H   0  0  0  0  0  0  0  0  0  0  0  0
  153.0411  145.5327  160.6605 H   0  0  0  0  0  0  0  0  0  0  0  0
  150.1086  144.9772  159.9442 H   0  0  0  0  0  0  0  0  0  0  0  0
  150.9743  146.4588  159.6266 H   0  0  0  0  0  0  0  0  0  0  0  0
  150.7310  144.9868  157.5749 H   0  0  0  0  0  0  0  0  0  0  0  0
  152.3926  145.3572  157.9578 H   0  0  0  0  0  0  0  0  0  0  0  0
  150.9408  142.7318  158.5747 H   0  0  0  0  0  0  0  0  0  0  0  0
  152.2460  142.9708  157.4274 H   0  0  0  0  0  0  0  0  0  0  0  0
  153.7481  143.6961  159.2922 H   0  0  0  0  0  0  0  0  0  0  0  0
  151.3894  143.1293  160.8501 H   0  0  0  0  0  0  0  0  0  0  0  0
  1  2  2  0  0  0  0
  2  3  1  0  0  0  0
  2  9  1  0  0  0  0
  3  4  1  0  0  0  0
  3 19  1  0  0  0  0
  3 20  1  0  0  0  0
  4  8  1  0  0  0  0
  4  5  1  0  0  0  0
  5  6  2  0  0  0  0
  5 21  1  0  0  0  0
  6  7  1  0  0  0  0
  7  8  2  0  0  0  0
  9 10  1  0  0  0  0
  9 22  1  0  0  0  0
 10 18  1  0  0  0  0
 10 11  1  0  0  0  0
 10 23  1  0  0  0  0
 11 12  1  0  0  0  0
 11 24  1  0  0  0  0
 11 25  1  0  0  0  0
 12 13  1  0  0  0  0
 12 26  1  0  0  0  0
 12 27  1  0  0  0  0
 13 18  1  0  0  0  0
 13 14  1  0  0  0  0
 13 37  1  0  0  0  0
 14 15  1  0  0  0  0
 14 28  1  0  0  0  0
 14 29  1  0  0  0  0
 15 16  1  0  0  0  0
 15 30  1  0  0  0  0
 15 31  1  0  0  0  0
 16 17  1  0  0  0  0
 16 32  1  0  0  0  0
 16 33  1  0  0  0  0
 17 18  1  0  0  0  0
 17 34  1  0  0  0  0
 17 35  1  0  0  0  0
 18 36  1  0  0  0  0
M  CHG  1  13   1
M  END
> <s_m_source_file>
AV-unprocessed.smi

> <i_m_source_file_index>
1260

> <i_lp_mmshare_version>
43012

> <i_f3d_flags>
0

> <s_epik_input>
bjFubltjSF1uMVtDSDJdQyg9TylbTkhdW0NASF0oW0NIMl1bQ0gyXTIpW0NAQEhdKE4yMylbQ0gyXVtDSDJdW0NIMl1bQ0gyXTM=

> <s_epik_cmdline>
J2VwaWtfcHl0aG9uJywgJy1waCcsICc3LjAnLCAnLXRuJywgJzgnLCAnLW1hJywgJzIwMCcsICctbWV0YWxfYmluZGluZycsICctaW1hZScsICc8aW5maWxlLm1hZT4nLCAnLW9tYWUnLCAnPG91dGZpbGUubWFlPic=

> <r_lp_tautomer_probability>
1

> <r_epik_Ionization_Penalty>
0.00234324

> <r_epik_Ionization_Penalty_Charging>
0.00233897

> <r_epik_Ionization_Penalty_Neutral>
4.26861e-06

> <r_epik_State_Penalty>
0.00161477

> <r_epik_Charging_Adjusted_Penalty>
0.00395374

> <i_epik_Tot_Q>
1

> <i_epik_Tot_abs_Q>
1

> <r_epik_Metal_State_Penalty>
-0

> <b_epik_Metal_Only>
0

> <s_lp_Force_Field>
OPLS_2005

> <r_lp_Energy>
44.4325

> <b_lp_Chiralities_Consistent>
1

> <s_lp_Variant>
AV-unprocessed.smi:1260-5

> <Gold.Version>
5.8.1

> <Gold.Id.Protein>
6NUR|6NUR_protein|mol2

> <Gold.PLP.Fitness>
43.2026

> <Gold.PLP.PLP>
-37.9566

> <Gold.PLP.part.hbond>
-2.0000

> <Gold.PLP.part.metal>
0.0000

> <Gold.PLP.part.buried>
-5.8422

> <Gold.PLP.part.nonpolar>
-30.0084

> <Gold.PLP.part.repulsive>
0.2888

> <Gold.PLP.ligand.clash>
0.0000

> <Gold.PLP.ligand.torsion>
0.3778

> <Gold.PLP.Chemscore.Hbond>
2.0000

> <Gold.PLP.Chemscore.CHOScore>
0.0000

> <Gold.PLP.Chemscore.Metal>
0.0000

> <Gold.Chemscore.Hbonds>
donor molecule, donor type, donor heavy atom, donor atom, acceptor molecule, acceptor atom, score
      P1  H  7989  7998       L1     6  1.00
      P1  H  7997  8009       L1     1  0.85

> <Gold.PLP.Chemscore.Internal.Correction>
0.0016

> <Gold.Rescore>
     Score         DG    S(hbond)    S(metal)    S(lipo)     H(rot)  DE(clash)    DE(int)     intcor
     17.09     -17.58       1.83        0.00      94.31       1.98       0.05       0.43       ----

> <Gold.Chemscore.Fitness>
17.0925

> <Gold.Chemscore.DG>
-17.5779

> <Gold.Chemscore.ZeroCoef>
-5.4800

> <Gold.Chemscore.Hbond>
1.8329

> <Gold.Chemscore.Metal>
0.0000

> <Gold.Chemscore.Lipo>
94.3051

> <Gold.Chemscore.Internal_Hbond>
0.0000

> <Gold.Chemscore.DEClash>
0.0544

> <Gold.Chemscore.DEInternal>
0.4310

> <Gold.Chemscore.Rot>
1.9757

> <Gold.Chemscore.Internal.Correction>
   9.000000E+99

> <Gold.Chemscore.Hbonds>
donor molecule, donor type, donor heavy atom, donor atom, acceptor molecule, acceptor atom, score
      P1  H  7989  7998       L1     6  0.97
      P1  H  7997  8009       L1     1  0.15

> <Gold.Chemscore.Hbond.Weighted>
-6.1220

> <Gold.Chemscore.Metal.Weighted>
-0.0000

> <Gold.Chemscore.Lipo.Weighted>
-11.0337

> <Gold.Chemscore.Internal_Hbond.Weighted>
0.0000

> <Gold.Chemscore.DEClash.Weighted>
0.0544

> <Gold.Chemscore.DEInternal.Weighted>
0.4310

> <Gold.Chemscore.Rot.Weighted>
5.0578

> <Gold.Chemscore.Internal.Correction.Weighted>
   9.000000E+99

> <Gold.Protein.RotatedTorsions>
[ 6907 6896 6895 6894 ] final   13.01 input  -60.11 | X-H torsion
[ 7974 7965 7964 7962 ] final   29.90 input  175.53 | X-H torsion
[ 8008 7997 7996 7995 ] final  117.15 input   59.86 | X-H torsion
[ 10167 10162 10161 10158 ] final   86.42 input  -65.29 | X-H torsion
[ 10718 10713 10712 10709 ] final  -62.48 input   66.30 | X-H torsion
[ 10763 10752 10751 10750 ] final  151.59 input  -60.55 | X-H torsion
[ 11005 11000 10999 10996 ] final   88.49 input  -57.11 | X-H torsion

> <Gold.Protein.ActiveResidues>
 VAL166  LYS551  ARG553  GLY616  TRP617  ASP618  TYR619  PRO620  LYS621  CYS622 
 ASP623  PHE694  ASN695  SER759  ASP760  ASP761  ALA762  ILE779  LEU786  VAL792 
 PHE793  MET794  SER795  GLU796  ALA797  LYS798  CYS799  TRP800  GLU811  SER814 

> <Gold.Protein.RotatedAtoms>
  151.7794  135.0765  160.0371 H   0  0  0  0  0  0  0  0  0  0  0  0  # atno 6907 bound_to 6896
  152.3233  133.5873  159.5768 H   0  0  0  0  0  0  0  0  0  0  0  0  # atno 6908 bound_to 6896
  150.7381  133.9894  159.3644 H   0  0  0  0  0  0  0  0  0  0  0  0  # atno 6909 bound_to 6896
  146.1644  139.6860  142.9011 H   0  0  0  0  0  0  0  0  0  0  0  0  # atno 7974 bound_to 7965
  156.2479  140.2902  156.0634 H   0  0  0  0  0  0  0  0  0  0  0  0  # atno 8008 bound_to 7997
  155.1750  140.0403  157.2888 H   0  0  0  0  0  0  0  0  0  0  0  0  # atno 8009 bound_to 7997
  154.6299  140.2497  155.7453 H   0  0  0  0  0  0  0  0  0  0  0  0  # atno 8010 bound_to 7997
  139.8877  144.6404  150.8773 H   0  0  0  0  0  0  0  0  0  0  0  0  # atno 10167 bound_to 10162
  156.0852  130.4209  150.1142 H   0  0  0  0  0  0  0  0  0  0  0  0  # atno 10718 bound_to 10713
  154.1063  135.2842  155.3240 H   0  0  0  0  0  0  0  0  0  0  0  0  # atno 10763 bound_to 10752
  154.6521  135.5365  153.7917 H   0  0  0  0  0  0  0  0  0  0  0  0  # atno 10764 bound_to 10752
  153.0361  135.6512  154.1224 H   0  0  0  0  0  0  0  0  0  0  0  0  # atno 10765 bound_to 10752
  139.8895  134.8491  156.3007 H   0  0  0  0  0  0  0  0  0  0  0  0  # atno 11005 bound_to 11000
  145.4505  141.0428  143.2807 LP  0  0  0  0  0  0  0  0  0  0  0  0  # atno 17320 bound_to 7965
  144.8072  139.6029  143.7045 LP  0  0  0  0  0  0  0  0  0  0  0  0  # atno 17321 bound_to 7965
  140.7732  143.3535  151.1967 LP  0  0  0  0  0  0  0  0  0  0  0  0  # atno 17342 bound_to 10162
  139.7138  143.9333  152.2958 LP  0  0  0  0  0  0  0  0  0  0  0  0  # atno 17343 bound_to 10162
  156.9164  130.9668  151.3555 LP  0  0  0  0  0  0  0  0  0  0  0  0  # atno 17370 bound_to 10713
  157.5984  130.8494  149.8764 LP  0  0  0  0  0  0  0  0  0  0  0  0  # atno 17371 bound_to 10713
  140.9915  133.7206  156.0821 LP  0  0  0  0  0  0  0  0  0  0  0  0  # atno 17394 bound_to 11000
  140.7619  134.3930  157.5524 LP  0  0  0  0  0  0  0  0  0  0  0  0  # atno 17395 bound_to 11000

$$$$
