AV-unprocessed.smi:2391|AV-procd|sdf|9482|dock4
  -GOLD-   2272013113D 1   1.00000     0.00000
 Structure written by MMmdl.
 35 36  0  0  0  0  0  0  0  0  1 V2000
  145.4784  136.0481  154.4930 O   0  0  0  0  0  0  0  0  0  0  0  0
  146.3856  136.1548  153.6677 C   0  0  0  0  0  0  0  0  0  0  0  0
  146.9964  137.3040  153.3304 N   0  0  0  0  0  0  0  0  0  0  0  0
  146.7399  138.6095  153.8258 C   0  0  0  0  0  0  0  0  0  0  0  0
  147.3306  139.6605  153.0923 C   0  0  0  0  0  0  0  0  0  0  0  0
  147.1151  140.9797  153.5262 C   0  0  0  0  0  0  0  0  0  0  0  0
  146.3198  141.1588  154.6709 C   0  0  0  0  0  0  0  0  0  0  0  0
  145.7743  140.1224  155.3433 N   0  0  0  0  0  0  0  0  0  0  0  0
  145.9831  138.8695  154.9242 N   0  0  0  0  0  0  0  0  0  0  0  0
  146.8911  135.1201  152.9804 N   0  0  0  0  0  0  0  0  0  0  0  0
  146.4780  133.7201  153.1024 C   0  0  1  0  0  0  0  0  0  0  0  0
  145.9751  133.2038  151.7289 C   0  0  0  0  0  0  0  0  0  0  0  0
  145.0398  134.1716  150.9924 C   0  0  0  0  0  0  0  0  0  0  0  0
  144.3550  133.3147  149.9275 C   0  0  0  0  0  0  0  0  0  0  0  0
  144.2838  131.8997  150.5151 C   0  0  0  0  0  0  0  0  0  0  0  0
  145.1474  131.9119  151.7843 C   0  0  0  0  0  0  0  0  0  0  0  0
  147.6573  132.9072  153.6835 C   0  0  0  0  0  0  0  0  0  0  0  0
  147.9966  133.3959  154.8773 F   0  0  0  0  0  0  0  0  0  0  0  0
  147.3231  131.6282  153.8495 F   0  0  0  0  0  0  0  0  0  0  0  0
  148.7175  132.9764  152.8776 F   0  0  0  0  0  0  0  0  0  0  0  0
  147.7274  137.2383  152.6377 H   0  0  0  0  0  0  0  0  0  0  0  0
  147.9338  139.4640  152.2179 H   0  0  0  0  0  0  0  0  0  0  0  0
  147.5424  141.8214  153.0018 H   0  0  0  0  0  0  0  0  0  0  0  0
  146.1168  142.1476  155.0543 H   0  0  0  0  0  0  0  0  0  0  0  0
  147.6358  135.3086  152.3255 H   0  0  0  0  0  0  0  0  0  0  0  0
  145.6532  133.6449  153.8135 H   0  0  0  0  0  0  0  0  0  0  0  0
  146.8361  133.0230  151.0831 H   0  0  0  0  0  0  0  0  0  0  0  0
  144.2913  134.5640  151.6824 H   0  0  0  0  0  0  0  0  0  0  0  0
  145.5668  135.0214  150.5573 H   0  0  0  0  0  0  0  0  0  0  0  0
  143.3726  133.7033  149.6578 H   0  0  0  0  0  0  0  0  0  0  0  0
  144.9629  133.3029  149.0219 H   0  0  0  0  0  0  0  0  0  0  0  0
  143.2567  131.6218  150.7546 H   0  0  0  0  0  0  0  0  0  0  0  0
  144.6578  131.1717  149.7942 H   0  0  0  0  0  0  0  0  0  0  0  0
  145.7741  131.0225  151.8541 H   0  0  0  0  0  0  0  0  0  0  0  0
  144.4967  131.9245  152.6598 H   0  0  0  0  0  0  0  0  0  0  0  0
  1  2  2  0  0  0  0
  2  3  1  0  0  0  0
  2 10  1  0  0  0  0
  3  4  1  0  0  0  0
  3 21  1  0  0  0  0
  4  9  1  0  0  0  0
  4  5  2  0  0  0  0
  5  6  1  0  0  0  0
  5 22  1  0  0  0  0
  6  7  2  0  0  0  0
  6 23  1  0  0  0  0
  7  8  1  0  0  0  0
  7 24  1  0  0  0  0
  8  9  2  0  0  0  0
 10 11  1  0  0  0  0
 10 25  1  0  0  0  0
 11 12  1  0  0  0  0
 11 17  1  0  0  0  0
 11 26  1  0  0  0  0
 12 16  1  0  0  0  0
 12 13  1  0  0  0  0
 12 27  1  0  0  0  0
 13 14  1  0  0  0  0
 13 28  1  0  0  0  0
 13 29  1  0  0  0  0
 14 15  1  0  0  0  0
 14 30  1  0  0  0  0
 14 31  1  0  0  0  0
 15 16  1  0  0  0  0
 15 32  1  0  0  0  0
 15 33  1  0  0  0  0
 16 34  1  0  0  0  0
 16 35  1  0  0  0  0
 17 18  1  0  0  0  0
 17 19  1  0  0  0  0
 17 20  1  0  0  0  0
M  END
> <s_m_source_file>
AV-unprocessed.smi

> <i_m_source_file_index>
2391

> <i_lp_mmshare_version>
43012

> <i_f3d_flags>
0

> <s_epik_input>
W0NIMl0xW0NIMl1bQ0gyXVtDSDJdW0NIXTFbQ0BIXShDKEYpKEYpRilbTkhdQyg9TylbTkhdYzJbY0hdW2NIXVtjSF1ubjI=

> <s_epik_cmdline>
J2VwaWtfcHl0aG9uJywgJy1waCcsICc3LjAnLCAnLXRuJywgJzgnLCAnLW1hJywgJzIwMCcsICctbWV0YWxfYmluZGluZycsICctaW1hZScsICc8aW5maWxlLm1hZT4nLCAnLW9tYWUnLCAnPG91dGZpbGUubWFlPic=

> <r_lp_tautomer_probability>
1

> <r_epik_Ionization_Penalty>
0.00359591

> <r_epik_Ionization_Penalty_Charging>
0

> <r_epik_Ionization_Penalty_Neutral>
0.00359591

> <r_epik_State_Penalty>
0.0123658

> <r_epik_Charging_Adjusted_Penalty>
0.0123658

> <i_epik_Tot_Q>
0

> <i_epik_Tot_abs_Q>
0

> <r_epik_Metal_State_Penalty>
0.0410426

> <b_epik_Metal_Only>
0

> <s_lp_Force_Field>
OPLS_2005

> <r_lp_Energy>
31.4034

> <b_lp_Chiralities_Consistent>
1

> <s_lp_Variant>
AV-unprocessed.smi:2391-2

> <Gold.Version>
5.8.1

> <Gold.Id.Protein>
6NUR|6NUR_protein|mol2

> <Gold.PLP.Fitness>
34.7192

> <Gold.PLP.PLP>
-29.0460

> <Gold.PLP.part.hbond>
-2.0000

> <Gold.PLP.part.metal>
0.0000

> <Gold.PLP.part.buried>
-2.7554

> <Gold.PLP.part.nonpolar>
-24.5095

> <Gold.PLP.part.repulsive>
0.1952

> <Gold.PLP.ligand.clash>
0.0000

> <Gold.PLP.ligand.torsion>
0.2799

> <Gold.PLP.Chemscore.Hbond>
1.9760

> <Gold.PLP.Chemscore.CHOScore>
0.0000

> <Gold.PLP.Chemscore.Metal>
0.0000

> <Gold.Chemscore.Hbonds>
donor molecule, donor type, donor heavy atom, donor atom, acceptor molecule, acceptor atom, score
      L1  H     3    21       P1  7948  0.96
      L1  H    10    25       P1  7948  1.00

> <Gold.PLP.Chemscore.Internal.Correction>
0.3051

> <Gold.Rescore>
     Score         DG    S(hbond)    S(metal)    S(lipo)     H(rot)  DE(clash)    DE(int)     intcor
     13.82     -16.27       1.95        0.00      65.64       1.33       0.04       2.41       ----

> <Gold.Chemscore.Fitness>
13.8205

> <Gold.Chemscore.DG>
-16.2729

> <Gold.Chemscore.ZeroCoef>
-5.4800

> <Gold.Chemscore.Hbond>
1.9517

> <Gold.Chemscore.Metal>
0.0000

> <Gold.Chemscore.Lipo>
65.6411

> <Gold.Chemscore.Internal_Hbond>
0.0000

> <Gold.Chemscore.DEClash>
0.0447

> <Gold.Chemscore.DEInternal>
2.4076

> <Gold.Chemscore.Rot>
1.3304

> <Gold.Chemscore.Internal.Correction>
   9.000000E+99

> <Gold.Chemscore.Hbonds>
donor molecule, donor type, donor heavy atom, donor atom, acceptor molecule, acceptor atom, score
      L1  H     3    21       P1  7948  0.92
      L1  H    10    25       P1  7948  0.96

> <Gold.Chemscore.Hbond.Weighted>
-6.5186

> <Gold.Chemscore.Metal.Weighted>
-0.0000

> <Gold.Chemscore.Lipo.Weighted>
-7.6800

> <Gold.Chemscore.Internal_Hbond.Weighted>
0.0000

> <Gold.Chemscore.DEClash.Weighted>
0.0447

> <Gold.Chemscore.DEInternal.Weighted>
2.4076

> <Gold.Chemscore.Rot.Weighted>
3.4057

> <Gold.Chemscore.Internal.Correction.Weighted>
   9.000000E+99

> <Gold.Protein.RotatedTorsions>
[ 6907 6896 6895 6894 ] final -120.65 input  -60.11 | X-H torsion
[ 7974 7965 7964 7962 ] final    3.88 input  175.53 | X-H torsion
[ 8008 7997 7996 7995 ] final  -25.75 input   59.86 | X-H torsion
[ 10167 10162 10161 10158 ] final   76.25 input  -65.29 | X-H torsion
[ 10718 10713 10712 10709 ] final  -52.42 input   66.30 | X-H torsion
[ 10763 10752 10751 10750 ] final  -16.90 input  -60.55 | X-H torsion
[ 11005 11000 10999 10996 ] final  117.36 input  -57.11 | X-H torsion

> <Gold.Protein.ActiveResidues>
 VAL166  LYS551  ARG553  GLY616  TRP617  ASP618  TYR619  PRO620  LYS621  CYS622 
 ASP623  PHE694  ASN695  SER759  ASP760  ASP761  ALA762  ILE779  LEU786  VAL792 
 PHE793  MET794  SER795  GLU796  ALA797  LYS798  CYS799  TRP800  GLU811  SER814 

> <Gold.Protein.RotatedAtoms>
  150.8412  133.7932  159.3059 H   0  0  0  0  0  0  0  0  0  0  0  0  # atno 6907 bound_to 6896
  151.5633  135.1063  159.9987 H   0  0  0  0  0  0  0  0  0  0  0  0  # atno 6908 bound_to 6896
  152.4476  133.7523  159.6757 H   0  0  0  0  0  0  0  0  0  0  0  0  # atno 6909 bound_to 6896
  146.2445  140.0619  142.8368 H   0  0  0  0  0  0  0  0  0  0  0  0  # atno 7974 bound_to 7965
  154.4460  140.1918  156.0667 H   0  0  0  0  0  0  0  0  0  0  0  0  # atno 8008 bound_to 7997
  156.0542  140.3305  155.7359 H   0  0  0  0  0  0  0  0  0  0  0  0  # atno 8009 bound_to 7997
  155.5511  140.0595  157.2840 H   0  0  0  0  0  0  0  0  0  0  0  0  # atno 8010 bound_to 7997
  139.9943  144.5734  150.7791 H   0  0  0  0  0  0  0  0  0  0  0  0  # atno 10167 bound_to 10162
  156.1623  130.4149  149.9774 H   0  0  0  0  0  0  0  0  0  0  0  0  # atno 10718 bound_to 10713
  153.5657  135.7008  153.5527 H   0  0  0  0  0  0  0  0  0  0  0  0  # atno 10763 bound_to 10752
  153.3389  135.4026  155.1556 H   0  0  0  0  0  0  0  0  0  0  0  0  # atno 10764 bound_to 10752
  154.8641  135.3737  154.5177 H   0  0  0  0  0  0  0  0  0  0  0  0  # atno 10765 bound_to 10752
  139.9072  134.9609  156.7338 H   0  0  0  0  0  0  0  0  0  0  0  0  # atno 11005 bound_to 11000
  145.0892  140.9273  143.4779 LP  0  0  0  0  0  0  0  0  0  0  0  0  # atno 17320 bound_to 7965
  145.0788  139.2975  143.5794 LP  0  0  0  0  0  0  0  0  0  0  0  0  # atno 17321 bound_to 7965
  140.7443  143.2859  151.3466 LP  0  0  0  0  0  0  0  0  0  0  0  0  # atno 17342 bound_to 10162
  139.6317  144.0707  152.2482 LP  0  0  0  0  0  0  0  0  0  0  0  0  # atno 17343 bound_to 10162
  156.7599  130.9147  151.3641 LP  0  0  0  0  0  0  0  0  0  0  0  0  # atno 17370 bound_to 10713
  157.6742  130.9079  150.0110 LP  0  0  0  0  0  0  0  0  0  0  0  0  # atno 17371 bound_to 10713
  140.6904  133.9395  155.7962 LP  0  0  0  0  0  0  0  0  0  0  0  0  # atno 17394 bound_to 11000
  141.0446  134.0572  157.3860 LP  0  0  0  0  0  0  0  0  0  0  0  0  # atno 17395 bound_to 11000

$$$$
