AV-unprocessed.smi:1346|AV-procd|sdf|5514|dock7
  -GOLD-   22720 5103D 1   1.00000     0.00000
 Structure written by MMmdl.
 47 48  0  0  0  0  0  0  0  0  1 V2000
  149.4009  140.2012  155.1986 C   0  0  0  0  0  0  0  0  0  0  0  0
  150.6969  139.6653  155.7361 C   0  0  0  0  0  0  0  0  0  0  0  0
  151.7725  139.6635  154.9668 N   0  0  0  0  0  0  0  0  0  0  0  0
  152.7964  139.1104  155.7414 O   0  0  0  0  0  0  0  0  0  0  0  0
  152.2911  138.7966  156.9613 C   0  0  0  0  0  0  0  0  0  0  0  0
  153.2387  138.1878  157.9387 C   0  0  0  0  0  0  0  0  0  0  0  0
  150.9633  139.1207  157.0252 C   0  0  0  0  0  0  0  0  0  0  0  0
  150.0031  138.9476  158.1735 C   0  0  0  0  0  0  0  0  0  0  0  0
  149.9766  137.4822  158.6074 C   0  0  0  0  0  0  0  0  0  0  0  0
  150.9775  136.9700  159.1081 O   0  0  0  0  0  0  0  0  0  0  0  0
  148.8258  136.8206  158.4121 N   0  0  0  0  0  0  0  0  0  0  0  0
  148.5857  135.4255  158.7635 C   0  0  0  0  0  0  0  0  0  0  0  0
  148.3841  135.2469  160.2748 C   0  0  0  0  0  0  0  0  0  0  0  0
  147.0116  135.4348  160.5849 O   0  0  0  0  0  0  0  0  0  0  0  0
  146.7531  135.7110  161.9572 C   0  0  2  0  0  0  0  0  0  0  0  0
  147.2818  134.5259  162.7867 C   0  0  0  0  0  0  0  0  0  0  0  0
  146.4879  133.2355  162.5211 C   0  0  0  0  0  0  0  0  0  0  0  0
  144.9837  133.4486  162.7473 C   0  0  0  0  0  0  0  0  0  0  0  0
  144.4534  134.6167  161.9008 C   0  0  0  0  0  0  0  0  0  0  0  0
  145.2357  135.9157  162.1790 C   0  0  2  0  0  0  0  0  0  0  0  0
  144.6742  137.1001  161.3778 C   0  0  0  0  0  0  0  0  0  0  0  0
  148.9155  140.8515  155.9262 H   0  0  0  0  0  0  0  0  0  0  0  0
  148.7114  139.3894  154.9666 H   0  0  0  0  0  0  0  0  0  0  0  0
  149.5499  140.7816  154.2874 H   0  0  0  0  0  0  0  0  0  0  0  0
  152.9339  138.4008  158.9630 H   0  0  0  0  0  0  0  0  0  0  0  0
  154.2461  138.5807  157.8007 H   0  0  0  0  0  0  0  0  0  0  0  0
  153.2772  137.1055  157.8151 H   0  0  0  0  0  0  0  0  0  0  0  0
  150.2929  139.5586  159.0291 H   0  0  0  0  0  0  0  0  0  0  0  0
  148.9966  139.2697  157.9028 H   0  0  0  0  0  0  0  0  0  0  0  0
  148.0536  137.3244  158.0005 H   0  0  0  0  0  0  0  0  0  0  0  0
  147.7007  135.0817  158.2275 H   0  0  0  0  0  0  0  0  0  0  0  0
  149.4172  134.8087  158.4189 H   0  0  0  0  0  0  0  0  0  0  0  0
  148.6888  134.2431  160.5738 H   0  0  0  0  0  0  0  0  0  0  0  0
  149.0068  135.9518  160.8273 H   0  0  0  0  0  0  0  0  0  0  0  0
  147.2853  136.6083  162.2802 H   0  0  0  0  0  0  0  0  0  0  0  0
  148.3388  134.3636  162.5729 H   0  0  0  0  0  0  0  0  0  0  0  0
  147.2192  134.7728  163.8472 H   0  0  0  0  0  0  0  0  0  0  0  0
  146.6594  132.9025  161.4966 H   0  0  0  0  0  0  0  0  0  0  0  0
  146.8510  132.4370  163.1686 H   0  0  0  0  0  0  0  0  0  0  0  0
  144.4385  132.5360  162.5058 H   0  0  0  0  0  0  0  0  0  0  0  0
  144.7977  133.6493  163.8031 H   0  0  0  0  0  0  0  0  0  0  0  0
  144.5215  134.3619  160.8422 H   0  0  0  0  0  0  0  0  0  0  0  0
  143.3942  134.7666  162.1128 H   0  0  0  0  0  0  0  0  0  0  0  0
  145.0957  136.1582  163.2335 H   0  0  0  0  0  0  0  0  0  0  0  0
  144.7318  136.9187  160.3047 H   0  0  0  0  0  0  0  0  0  0  0  0
  145.2243  138.0167  161.5921 H   0  0  0  0  0  0  0  0  0  0  0  0
  143.6276  137.2790  161.6250 H   0  0  0  0  0  0  0  0  0  0  0  0
  1  2  1  0  0  0  0
  1 22  1  0  0  0  0
  1 23  1  0  0  0  0
  1 24  1  0  0  0  0
  2  7  1  0  0  0  0
  2  3  2  0  0  0  0
  3  4  1  0  0  0  0
  4  5  1  0  0  0  0
  5  6  1  0  0  0  0
  5  7  2  0  0  0  0
  6 25  1  0  0  0  0
  6 26  1  0  0  0  0
  6 27  1  0  0  0  0
  7  8  1  0  0  0  0
  8  9  1  0  0  0  0
  8 28  1  0  0  0  0
  8 29  1  0  0  0  0
  9 10  2  0  0  0  0
  9 11  1  0  0  0  0
 11 12  1  0  0  0  0
 11 30  1  0  0  0  0
 12 13  1  0  0  0  0
 12 31  1  0  0  0  0
 12 32  1  0  0  0  0
 13 14  1  0  0  0  0
 13 33  1  0  0  0  0
 13 34  1  0  0  0  0
 14 15  1  0  0  0  0
 15 20  1  0  0  0  0
 15 16  1  0  0  0  0
 15 35  1  0  0  0  0
 16 17  1  0  0  0  0
 16 36  1  0  0  0  0
 16 37  1  0  0  0  0
 17 18  1  0  0  0  0
 17 38  1  0  0  0  0
 17 39  1  0  0  0  0
 18 19  1  0  0  0  0
 18 40  1  0  0  0  0
 18 41  1  0  0  0  0
 19 20  1  0  0  0  0
 19 42  1  0  0  0  0
 19 43  1  0  0  0  0
 20 21  1  0  0  0  0
 20 44  1  0  0  0  0
 21 45  1  0  0  0  0
 21 46  1  0  0  0  0
 21 47  1  0  0  0  0
M  END
> <s_m_source_file>
AV-unprocessed.smi

> <i_m_source_file_index>
1346

> <i_lp_mmshare_version>
43012

> <i_f3d_flags>
0

> <s_epik_input>
W0NIM11jMW5vYyhbQ0gzXSljMVtDSDJdQyg9TylbTkhdW0NIMl1bQ0gyXU9bQ0BASF0yW0NIMl1bQ0gyXVtDSDJdW0NIMl1bQ0BIXTJbQ0gzXQ==

> <s_epik_cmdline>
J2VwaWtfcHl0aG9uJywgJy1waCcsICc3LjAnLCAnLXRuJywgJzgnLCAnLW1hJywgJzIwMCcsICctbWV0YWxfYmluZGluZycsICctaW1hZScsICc8aW5maWxlLm1hZT4nLCAnLW9tYWUnLCAnPG91dGZpbGUubWFlPic=

> <r_lp_tautomer_probability>
1

> <r_epik_Ionization_Penalty>
3.26154e-08

> <r_epik_Ionization_Penalty_Charging>
0

> <r_epik_Ionization_Penalty_Neutral>
3.26154e-08

> <r_epik_State_Penalty>
-0

> <r_epik_Charging_Adjusted_Penalty>
0

> <i_epik_Tot_Q>
0

> <i_epik_Tot_abs_Q>
0

> <r_epik_Metal_State_Penalty>
-0

> <b_epik_Metal_Only>
0

> <s_lp_Force_Field>
OPLS_2005

> <r_lp_Energy>
6.35262

> <b_lp_Chiralities_Consistent>
1

> <s_lp_Variant>
AV-unprocessed.smi:1346-3

> <Gold.Version>
5.8.1

> <Gold.Id.Protein>
6NUR|6NUR_protein|mol2

> <Gold.PLP.Fitness>
44.1843

> <Gold.PLP.PLP>
-36.3417

> <Gold.PLP.part.hbond>
-3.0000

> <Gold.PLP.part.metal>
0.0000

> <Gold.PLP.part.buried>
-7.4269

> <Gold.PLP.part.nonpolar>
-27.9760

> <Gold.PLP.part.repulsive>
0.1645

> <Gold.PLP.ligand.clash>
0.0000

> <Gold.PLP.ligand.torsion>
0.4004

> <Gold.PLP.Chemscore.Hbond>
2.8476

> <Gold.PLP.Chemscore.CHOScore>
0.0000

> <Gold.PLP.Chemscore.Metal>
0.0000

> <Gold.Chemscore.Hbonds>
donor molecule, donor type, donor heavy atom, donor atom, acceptor molecule, acceptor atom, score
      P1  H  6896  6909       L1    10  0.94
      P1  H  7989  7998       L1     3  1.00
      P1  H  7997  8008       L1     4  1.00

> <Gold.PLP.Chemscore.Internal.Correction>
0.1006

> <Gold.Rescore>
     Score         DG    S(hbond)    S(metal)    S(lipo)     H(rot)  DE(clash)    DE(int)     intcor
     19.39     -19.91       2.65        0.00      85.80       1.74       0.01       0.52       ----

> <Gold.Chemscore.Fitness>
19.3867

> <Gold.Chemscore.DG>
-19.9116

> <Gold.Chemscore.ZeroCoef>
-5.4800

> <Gold.Chemscore.Hbond>
2.6454

> <Gold.Chemscore.Metal>
0.0000

> <Gold.Chemscore.Lipo>
85.7958

> <Gold.Chemscore.Internal_Hbond>
0.0000

> <Gold.Chemscore.DEClash>
0.0097

> <Gold.Chemscore.DEInternal>
0.5152

> <Gold.Chemscore.Rot>
1.7352

> <Gold.Chemscore.Internal.Correction>
   9.000000E+99

> <Gold.Chemscore.Hbonds>
donor molecule, donor type, donor heavy atom, donor atom, acceptor molecule, acceptor atom, score
      P1  H  6896  6909       L1    10  0.86
      P1  H  7989  7998       L1     3  0.85
      P1  H  7997  8008       L1     4  0.49

> <Gold.Chemscore.Hbond.Weighted>
-8.8355

> <Gold.Chemscore.Metal.Weighted>
-0.0000

> <Gold.Chemscore.Lipo.Weighted>
-10.0381

> <Gold.Chemscore.Internal_Hbond.Weighted>
0.0000

> <Gold.Chemscore.DEClash.Weighted>
0.0097

> <Gold.Chemscore.DEInternal.Weighted>
0.5152

> <Gold.Chemscore.Rot.Weighted>
4.4420

> <Gold.Chemscore.Internal.Correction.Weighted>
   9.000000E+99

> <Gold.Protein.RotatedTorsions>
[ 6907 6896 6895 6894 ] final   86.07 input  -60.11 | X-H torsion
[ 7974 7965 7964 7962 ] final   14.98 input  175.53 | X-H torsion
[ 8008 7997 7996 7995 ] final  -29.19 input   59.86 | X-H torsion
[ 10167 10162 10161 10158 ] final  -18.02 input  -65.29 | X-H torsion
[ 10718 10713 10712 10709 ] final    7.69 input   66.30 | X-H torsion
[ 10763 10752 10751 10750 ] final  121.18 input  -60.55 | X-H torsion
[ 11005 11000 10999 10996 ] final  -16.08 input  -57.11 | X-H torsion

> <Gold.Protein.ActiveResidues>
 VAL166  LYS551  ARG553  GLY616  TRP617  ASP618  TYR619  PRO620  LYS621  CYS622 
 ASP623  PHE694  ASN695  SER759  ASP760  ASP761  ALA762  ILE779  LEU786  VAL792 
 PHE793  MET794  SER795  GLU796  ALA797  LYS798  CYS799  TRP800  GLU811  SER814 

> <Gold.Protein.RotatedAtoms>
  152.5387  134.2489  159.8890 H   0  0  0  0  0  0  0  0  0  0  0  0  # atno 6907 bound_to 6896
  151.2453  133.4371  159.2616 H   0  0  0  0  0  0  0  0  0  0  0  0  # atno 6908 bound_to 6896
  151.0589  134.9737  159.8306 H   0  0  0  0  0  0  0  0  0  0  0  0  # atno 6909 bound_to 6896
  146.2291  139.8961  142.8547 H   0  0  0  0  0  0  0  0  0  0  0  0  # atno 7974 bound_to 7965
  154.4300  140.1825  156.1209 H   0  0  0  0  0  0  0  0  0  0  0  0  # atno 8008 bound_to 7997
  156.0144  140.3347  155.6948 H   0  0  0  0  0  0  0  0  0  0  0  0  # atno 8009 bound_to 7997
  155.6065  140.0645  157.2709 H   0  0  0  0  0  0  0  0  0  0  0  0  # atno 8010 bound_to 7997
  140.7254  143.4958  150.9933 H   0  0  0  0  0  0  0  0  0  0  0  0  # atno 10167 bound_to 10162
  156.9407  130.5860  149.5652 H   0  0  0  0  0  0  0  0  0  0  0  0  # atno 10718 bound_to 10713
  153.6101  135.3432  155.2975 H   0  0  0  0  0  0  0  0  0  0  0  0  # atno 10763 bound_to 10752
  154.8620  135.4248  154.2319 H   0  0  0  0  0  0  0  0  0  0  0  0  # atno 10764 bound_to 10752
  153.3167  135.7035  153.7138 H   0  0  0  0  0  0  0  0  0  0  0  0  # atno 10765 bound_to 10752
  140.8031  133.8198  155.9490 H   0  0  0  0  0  0  0  0  0  0  0  0  # atno 11005 bound_to 11000
  145.2369  140.9994  143.3958 LP  0  0  0  0  0  0  0  0  0  0  0  0  # atno 17320 bound_to 7965
  144.9484  139.4110  143.6414 LP  0  0  0  0  0  0  0  0  0  0  0  0  # atno 17321 bound_to 7965
  139.8664  143.7248  152.3170 LP  0  0  0  0  0  0  0  0  0  0  0  0  # atno 17342 bound_to 10162
  139.7481  144.7541  151.0548 LP  0  0  0  0  0  0  0  0  0  0  0  0  # atno 17343 bound_to 10162
  156.0406  130.5489  150.8761 LP  0  0  0  0  0  0  0  0  0  0  0  0  # atno 17370 bound_to 10713
  157.5787  131.0946  150.9305 LP  0  0  0  0  0  0  0  0  0  0  0  0  # atno 17371 bound_to 10713
  140.9274  134.2065  157.4887 LP  0  0  0  0  0  0  0  0  0  0  0  0  # atno 17394 bound_to 11000
  139.8720  134.9818  156.5131 LP  0  0  0  0  0  0  0  0  0  0  0  0  # atno 17395 bound_to 11000

$$$$
