AV-unprocessed.smi:196|AV-procd|sdf|1530|dock2
  -GOLD-   2262019383D 1   1.00000     0.00000
 Structure written by MMmdl.
 47 50  0  0  0  0  0  0  0  0  1 V2000
  149.5083  141.8378  154.8049 C   0  0  0  0  0  0  0  0  0  0  0  0
  149.9654  140.4202  155.1863 C   0  0  2  0  0  0  0  0  0  0  0  0
  151.3072  140.2019  154.7739 O   0  0  0  0  0  0  0  0  0  0  0  0
  151.5188  138.8019  154.7684 C   0  0  0  0  0  0  0  0  0  0  0  0
  150.2516  138.2772  154.1057 C   0  0  0  0  0  0  0  0  0  0  0  0
  149.1591  139.2346  154.5910 C   0  0  2  0  0  0  0  0  0  0  0  0
  148.3905  139.6326  153.4678 O   0  0  0  0  0  0  0  0  0  0  0  0
  148.2137  138.5629  155.6187 C   0  0  0  0  0  0  0  0  0  0  0  0
  147.6937  137.2769  155.1782 N   0  0  0  0  0  0  0  0  0  0  0  0
  147.8399  136.0651  155.8145 C   0  0  0  0  0  0  0  0  0  0  0  0
  147.2644  135.0541  155.2241 N   0  0  0  0  0  0  0  0  0  0  0  0
  146.6939  135.6036  154.0812 C   0  0  0  0  0  0  0  0  0  0  0  0
  145.9231  135.0788  153.0031 C   0  0  0  0  0  0  0  0  0  0  0  0
  145.5753  133.7668  152.9026 N   0  0  0  0  0  0  0  0  0  0  0  0
  145.9263  132.8673  153.9970 C   0  0  0  0  0  0  0  0  0  0  0  0
  146.3019  131.5394  153.3407 C   0  0  2  0  0  0  0  0  0  0  0  0
  147.6122  131.5224  153.0902 F   0  0  0  0  0  0  0  0  0  0  0  0
  145.5328  131.5704  152.0247 C   0  0  0  0  0  0  0  0  0  0  0  0
  145.5587  133.0528  151.6178 C   0  0  1  0  0  0  0  0  0  0  0  0
  144.3689  133.3906  150.6971 C   0  0  0  0  0  0  0  0  0  0  0  0
  143.4617  134.2805  151.1134 N   0  0  0  0  0  0  0  0  0  0  0  0
  144.2748  132.8423  149.6011 O   0  0  0  0  0  0  0  0  0  0  0  0
  145.5139  135.9562  152.0487 N   0  0  0  0  0  0  0  0  0  0  0  0
  145.8421  137.2487  152.1281 C   0  0  0  0  0  0  0  0  0  0  0  0
  146.5553  137.8713  153.0674 N   0  0  0  0  0  0  0  0  0  0  0  0
  146.9590  137.0023  154.0376 C   0  0  0  0  0  0  0  0  0  0  0  0
  146.0736  130.6712  153.9593 H   0  0  0  0  0  0  0  0  0  0  0  0
  146.4888  133.2507  151.0820 H   0  0  0  0  0  0  0  0  0  0  0  0
  148.4742  142.0114  155.1032 H   0  0  0  0  0  0  0  0  0  0  0  0
  149.5834  142.0083  153.7307 H   0  0  0  0  0  0  0  0  0  0  0  0
  150.1253  142.5884  155.2991 H   0  0  0  0  0  0  0  0  0  0  0  0
  149.9730  140.3409  156.2742 H   0  0  0  0  0  0  0  0  0  0  0  0
  152.4234  138.5314  154.2237 H   0  0  0  0  0  0  0  0  0  0  0  0
  151.6075  138.4364  155.7926 H   0  0  0  0  0  0  0  0  0  0  0  0
  150.3743  138.3401  153.0228 H   0  0  0  0  0  0  0  0  0  0  0  0
  150.0574  137.2323  154.3501 H   0  0  0  0  0  0  0  0  0  0  0  0
  148.8954  139.4728  152.6852 H   0  0  0  0  0  0  0  0  0  0  0  0
  148.7285  138.4164  156.5694 H   0  0  0  0  0  0  0  0  0  0  0  0
  147.3662  139.2164  155.8307 H   0  0  0  0  0  0  0  0  0  0  0  0
  148.3816  135.9533  156.7423 H   0  0  0  0  0  0  0  0  0  0  0  0
  146.7424  133.2422  154.6173 H   0  0  0  0  0  0  0  0  0  0  0  0
  145.0493  132.7418  154.6330 H   0  0  0  0  0  0  0  0  0  0  0  0
  145.9693  130.9175  151.2680 H   0  0  0  0  0  0  0  0  0  0  0  0
  144.5091  131.2347  152.2013 H   0  0  0  0  0  0  0  0  0  0  0  0
  142.6734  134.5077  150.5250 H   0  0  0  0  0  0  0  0  0  0  0  0
  143.5652  134.7171  152.0177 H   0  0  0  0  0  0  0  0  0  0  0  0
  145.4803  137.8726  151.3242 H   0  0  0  0  0  0  0  0  0  0  0  0
  1  2  1  0  0  0  0
  1 29  1  0  0  0  0
  1 30  1  0  0  0  0
  1 31  1  0  0  0  0
  2  6  1  0  0  0  0
  2  3  1  0  0  0  0
  2 32  1  0  0  0  0
  3  4  1  0  0  0  0
  4  5  1  0  0  0  0
  4 33  1  0  0  0  0
  4 34  1  0  0  0  0
  5  6  1  0  0  0  0
  5 35  1  0  0  0  0
  5 36  1  0  0  0  0
  6  7  1  0  0  0  0
  6  8  1  0  0  0  0
  7 37  1  0  0  0  0
  8  9  1  0  0  0  0
  8 38  1  0  0  0  0
  8 39  1  0  0  0  0
  9 26  1  0  0  0  0
  9 10  1  0  0  0  0
 10 11  2  0  0  0  0
 10 40  1  0  0  0  0
 11 12  1  0  0  0  0
 12 26  2  0  0  0  0
 12 13  1  0  0  0  0
 13 14  1  0  0  0  0
 13 23  2  0  0  0  0
 14 19  1  0  0  0  0
 14 15  1  0  0  0  0
 15 16  1  0  0  0  0
 15 41  1  0  0  0  0
 15 42  1  0  0  0  0
 16 27  1  0  0  0  0
 16 17  1  0  0  0  0
 16 18  1  0  0  0  0
 18 19  1  0  0  0  0
 18 43  1  0  0  0  0
 18 44  1  0  0  0  0
 19 28  1  0  0  0  0
 19 20  1  0  0  0  0
 20 21  1  0  0  0  0
 20 22  2  0  0  0  0
 21 45  1  0  0  0  0
 21 46  1  0  0  0  0
 23 24  1  0  0  0  0
 24 25  2  0  0  0  0
 24 47  1  0  0  0  0
 25 26  1  0  0  0  0
M  END
> <s_m_source_file>
AV-unprocessed.smi

> <i_m_source_file_index>
196

> <i_lp_mmshare_version>
43012

> <i_f3d_flags>
0

> <s_epik_input>
W0NIMl0xW0NIMl1PW0NAQEhdKFtDSDNdKVtDQEBdMShbT0hdKVtDSDJdbihbY0hdbjIpYyhjMjMpbltjSF1uYzNONFtDSDJdW0NASF0oRilbQ0gyXVtDQEhdNEMoPU8pW05IMl0=

> <s_epik_cmdline>
J2VwaWtfcHl0aG9uJywgJy1waCcsICc3LjAnLCAnLXRuJywgJzgnLCAnLW1hJywgJzIwMCcsICctbWV0YWxfYmluZGluZycsICctaW1hZScsICc8aW5maWxlLm1hZT4nLCAnLW9tYWUnLCAnPG91dGZpbGUubWFlPic=

> <r_lp_tautomer_probability>
1

> <r_epik_Ionization_Penalty>
0.000857933

> <r_epik_Ionization_Penalty_Charging>
0

> <r_epik_Ionization_Penalty_Neutral>
0.000857933

> <r_epik_State_Penalty>
0.000462053

> <r_epik_Charging_Adjusted_Penalty>
0.000462053

> <i_epik_Tot_Q>
0

> <i_epik_Tot_abs_Q>
0

> <r_epik_Metal_State_Penalty>
-0

> <b_epik_Metal_Only>
0

> <s_lp_Force_Field>
OPLS_2005

> <r_lp_Energy>
46.3924

> <b_lp_Chiralities_Consistent>
1

> <s_lp_Variant>
AV-unprocessed.smi:196-3

> <Gold.Version>
5.8.1

> <Gold.Id.Protein>
6NUR|6NUR_protein|mol2

> <Gold.PLP.Fitness>
42.0418

> <Gold.PLP.PLP>
-30.5377

> <Gold.PLP.part.hbond>
-3.0000

> <Gold.PLP.part.metal>
0.0000

> <Gold.PLP.part.buried>
-2.7292

> <Gold.PLP.part.nonpolar>
-25.4181

> <Gold.PLP.part.repulsive>
0.7130

> <Gold.PLP.ligand.clash>
0.0000

> <Gold.PLP.ligand.torsion>
0.4024

> <Gold.PLP.Chemscore.Hbond>
3.0000

> <Gold.PLP.Chemscore.CHOScore>
1.0000

> <Gold.PLP.Chemscore.Metal>
0.0000

> <Gold.Chemscore.Hbonds>
donor molecule, donor type, donor heavy atom, donor atom, acceptor molecule, acceptor atom, score
      L1  H     7    37       P1  7957  1.00
      L1  H    21    45       P1 10186  1.00
      P1  H  7989  7998       L1     3  0.86
      L1  C    24    47       P1 10171  1.00

> <Gold.PLP.Chemscore.Internal.Correction>
0.3090

> <Gold.Rescore>
     Score         DG    S(hbond)    S(metal)    S(lipo)     H(rot)  DE(clash)    DE(int)     intcor
      9.21     -14.88       2.79        0.00      57.52       2.60       0.73       4.94       ----

> <Gold.Chemscore.Fitness>
9.2116

> <Gold.Chemscore.DG>
-14.8836

> <Gold.Chemscore.ZeroCoef>
-5.4800

> <Gold.Chemscore.Hbond>
2.7907

> <Gold.Chemscore.Metal>
0.0000

> <Gold.Chemscore.Lipo>
57.5245

> <Gold.Chemscore.Internal_Hbond>
0.0000

> <Gold.Chemscore.DEClash>
0.7286

> <Gold.Chemscore.DEInternal>
4.9434

> <Gold.Chemscore.Rot>
2.5968

> <Gold.Chemscore.Internal.Correction>
   9.000000E+99

> <Gold.Chemscore.Hbonds>
donor molecule, donor type, donor heavy atom, donor atom, acceptor molecule, acceptor atom, score
      L1  H     7    37       P1  7957  0.95
      L1  H    21    45       P1 10186  0.39
      P1  H  7989  7998       L1     3  0.63

> <Gold.Chemscore.Hbond.Weighted>
-9.3210

> <Gold.Chemscore.Metal.Weighted>
-0.0000

> <Gold.Chemscore.Lipo.Weighted>
-6.7304

> <Gold.Chemscore.Internal_Hbond.Weighted>
0.0000

> <Gold.Chemscore.DEClash.Weighted>
0.7286

> <Gold.Chemscore.DEInternal.Weighted>
4.9434

> <Gold.Chemscore.Rot.Weighted>
6.6477

> <Gold.Chemscore.Internal.Correction.Weighted>
   9.000000E+99

> <Gold.Protein.RotatedTorsions>
[ 6907 6896 6895 6894 ] final  119.60 input  -60.11 | X-H torsion
[ 7974 7965 7964 7962 ] final   75.82 input  175.53 | X-H torsion
[ 8008 7997 7996 7995 ] final  -25.14 input   59.86 | X-H torsion
[ 10167 10162 10161 10158 ] final -152.16 input  -65.29 | X-H torsion
[ 10718 10713 10712 10709 ] final  -37.82 input   66.30 | X-H torsion
[ 10763 10752 10751 10750 ] final   88.64 input  -60.55 | X-H torsion
[ 11005 11000 10999 10996 ] final  -67.38 input  -57.11 | X-H torsion

> <Gold.Protein.ActiveResidues>
 VAL166  LYS551  ARG553  GLY616  TRP617  ASP618  TYR619  PRO620  LYS621  CYS622 
 ASP623  PHE694  ASN695  SER759  ASP760  ASP761  ALA762  ILE779  LEU786  VAL792 
 PHE793  MET794  SER795  GLU796  ALA797  LYS798  CYS799  TRP800  GLU811  SER814 

> <Gold.Protein.RotatedAtoms>
  152.4460  133.7537  159.6707 H   0  0  0  0  0  0  0  0  0  0  0  0  # atno 6907 bound_to 6896
  150.8360  133.8003  159.3085 H   0  0  0  0  0  0  0  0  0  0  0  0  # atno 6908 bound_to 6896
  151.5642  135.1067  160.0031 H   0  0  0  0  0  0  0  0  0  0  0  0  # atno 6909 bound_to 6896
  145.7107  139.2614  143.1652 H   0  0  0  0  0  0  0  0  0  0  0  0  # atno 7974 bound_to 7965
  154.4491  140.1934  156.0573 H   0  0  0  0  0  0  0  0  0  0  0  0  # atno 8008 bound_to 7997
  156.0609  140.3297  155.7433 H   0  0  0  0  0  0  0  0  0  0  0  0  # atno 8009 bound_to 7997
  155.5413  140.0586  157.2860 H   0  0  0  0  0  0  0  0  0  0  0  0  # atno 8010 bound_to 7997
  139.7205  143.8965  152.2501 H   0  0  0  0  0  0  0  0  0  0  0  0  # atno 10167 bound_to 10162
  156.3109  130.4252  149.8052 H   0  0  0  0  0  0  0  0  0  0  0  0  # atno 10718 bound_to 10713
  153.1789  135.4499  155.0001 H   0  0  0  0  0  0  0  0  0  0  0  0  # atno 10763 bound_to 10752
  154.8016  135.3258  154.7537 H   0  0  0  0  0  0  0  0  0  0  0  0  # atno 10764 bound_to 10752
  153.8004  135.6963  153.4911 H   0  0  0  0  0  0  0  0  0  0  0  0  # atno 10765 bound_to 10752
  141.1506  133.6718  156.6284 H   0  0  0  0  0  0  0  0  0  0  0  0  # atno 11005 bound_to 11000
  146.0715  140.7864  142.9686 LP  0  0  0  0  0  0  0  0  0  0  0  0  # atno 17320 bound_to 7965
  144.6943  140.3349  143.7209 LP  0  0  0  0  0  0  0  0  0  0  0  0  # atno 17321 bound_to 7965
  139.8859  144.6992  150.8824 LP  0  0  0  0  0  0  0  0  0  0  0  0  # atno 17342 bound_to 10162
  140.7752  143.3624  151.1803 LP  0  0  0  0  0  0  0  0  0  0  0  0  # atno 17343 bound_to 10162
  156.5395  130.8293  151.3264 LP  0  0  0  0  0  0  0  0  0  0  0  0  # atno 17370 bound_to 10713
  157.7390  130.9824  150.2290 LP  0  0  0  0  0  0  0  0  0  0  0  0  # atno 17371 bound_to 10713
  140.3486  134.7788  157.4450 LP  0  0  0  0  0  0  0  0  0  0  0  0  # atno 17394 bound_to 11000
  140.0879  134.5641  155.8473 LP  0  0  0  0  0  0  0  0  0  0  0  0  # atno 17395 bound_to 11000

$$$$
