#       Name:                AV-unprocessed.smi:72
#       Creating user name   scv26
#       Creation time:       Thu Mar 26 16:56:46 2020


#       File generated by GOLD software.
#

@<TRIPOS>MOLECULE
AV-unprocessed.smi:72
    41    42     1
SMALL
NO_CHARGES


@<TRIPOS>ATOM
      1 ****        -3.8189   2.7343  -2.0768 N.2            1 S1                 0.0000
      2 ****        -2.8061   2.2143  -1.4806 C.2            1 S1                 0.0000
      3 ****        -1.5535   1.9789  -2.0661 N.2            1 S1                 0.0000
      4 ****        -0.6237   1.4265  -1.3493 C.2            1 S1                 0.0000
      5 ****        -0.8432   1.0254   0.0353 N.am           1 S1                 0.0000
      6 ****         0.2389   0.3846   0.8899 C.3            1 S1                 0.0000
      7 ****         1.4428   0.3356   0.1791 O.3            1 S1                 0.0000
      8 ****         1.6101  -0.9562  -0.3983 C.3            1 S1                 0.0000
      9 ****         3.0701  -1.1961  -0.8200 C.3            1 S1                 0.0000
     10 ****         3.3023  -0.6317  -2.0931 O.3            1 S1                 0.0000
     11 ****         1.0778  -1.8671   0.7116 C.3            1 S1                 0.0000
     12 ****         2.0702  -2.0722   1.7044 O.3            1 S1                 0.0000
     13 ****        -0.1231  -1.0780   1.2334 C.3            1 S1                 0.0000
     14 ****        -0.3541  -1.2912   2.6135 O.3            1 S1                 0.0000
     15 ****        -2.0898   1.2997   0.6510 C.2            1 S1                 0.0000
     16 ****        -2.3166   1.0289   1.8300 O.2            1 S1                 0.0000
     17 ****        -3.0212   1.8757  -0.1388 N.am           1 S1                 0.0000
     18 ****         0.3492   1.0416   1.7547 H              1 S1                 0.0000
     19 ****         0.9517  -1.0574  -1.2633 H              1 S1                 0.0000
     20 ****         0.7785  -2.8421   0.3256 H              1 S1                 0.0000
     21 ****        -1.0118  -1.3732   0.6732 H              1 S1                 0.0000
     22 ****        -4.6041   2.8033  -1.4464 H              1 S1                 0.0000
     23 ****         0.3729   1.2338  -1.7462 H              1 S1                 0.0000
     24 ****         3.7691  -0.7849  -0.0909 H              1 S1                 0.0000
     25 ****         3.2682  -2.2657  -0.8958 H              1 S1                 0.0000
     26 ****         4.2029  -0.7903  -2.3315 H              1 S1                 0.0000
     27 ****         1.6644  -2.5007   2.4429 H              1 S1                 0.0000
     28 ****        -1.0798  -0.7471   2.8808 H              1 S1                 0.0000
     29 ****        -3.9218   2.0733   0.2724 H              1 S1                 0.0000
     30 ****        -3.8278   3.0294  -3.0322 LP             1 S1                 0.0000
     31 ****        -1.3804   2.2320  -3.0179 LP             1 S1                 0.0000
     32 ****         2.2033   0.5223   0.8010 LP             1 S1                 0.0000
     33 ****         1.4284   1.0240  -0.5461 LP             1 S1                 0.0000
     34 ****         3.1298   0.3528  -2.0622 LP             1 S1                 0.0000
     35 ****         2.6956  -1.0554  -2.7657 LP             1 S1                 0.0000
     36 ****         2.4502  -1.1925   1.9902 LP             1 S1                 0.0000
     37 ****         2.8013  -2.6481   1.3385 LP             1 S1                 0.0000
     38 ****         0.4629  -1.0452   3.1350 LP             1 S1                 0.0000
     39 ****        -0.5754  -2.2530   2.7746 LP             1 S1                 0.0000
     40 ****        -1.6078   0.5995   2.3897 LP             1 S1                 0.0000
     41 ****        -3.2097   1.2383   2.2283 LP             1 S1                 0.0000
@<TRIPOS>BOND
    1    1    2 2     
    2    1   22 1     
    3    2   17 1     
    4    2    3 1     
    5    3    4 2     
    6    4    5 1     
    7    4   23 1     
    8    5    6 1     
    9    5   15 am    
   10    6   18 1     
   11    6   13 1     
   12    6    7 1     
   13    7    8 1     
   14    8   19 1     
   15    8    9 1     
   16    8   11 1     
   17    9   10 1     
   18    9   24 1     
   19    9   25 1     
   20   10   26 1     
   21   11   20 1     
   22   11   12 1     
   23   11   13 1     
   24   12   27 1     
   25   13   21 1     
   26   13   14 1     
   27   14   28 1     
   28   15   16 2     
   29   15   17 am    
   30   17   29 1     
   31    1   30 1     
   32    3   31 1     
   33    7   32 1     
   34    7   33 1     
   35   10   34 1     
   36   10   35 1     
   37   12   36 1     
   38   12   37 1     
   39   14   38 1     
   40   14   39 1     
   41   16   40 1     
   42   16   41 1     
@<TRIPOS>SUBSTRUCTURE
      1 S1             1
@<TRIPOS>SET
LONE_PAIRS      STATIC     ATOMS    <user>   **** ""
12 30 31 32 33 34 35 36 37 38 39 40 41
DONOR_HYDROGENS      STATIC     ATOMS    <user>   **** ""
5 22 26 27 28 29
ATOM$BLUE        STATIC     ATOMS    COLORGROUP SYSTEM
12 30 31 32 33 34 35 36 37 38 39 40 41
ATOM$RED        STATIC     ATOMS    COLORGROUP SYSTEM
5 22 26 27 28 29
