AV-unprocessed.smi:153|AV-procd|sdf|1263|dock3
  -GOLD-   2262018513D 1   1.00000     0.00000
 Structure written by MMmdl.
 59 62  0  0  0  0  0  0  0  0  1 V2000
  147.4327  133.3415  152.1481 C   0  0  0  0  0  0  0  0  0  0  0  0
  146.0778  133.7777  151.5668 C   0  0  1  0  0  0  0  0  0  0  0  0
  145.9146  133.1664  150.2899 O   0  0  0  0  0  0  0  0  0  0  0  0
  144.5336  132.9447  150.0661 C   0  0  0  0  0  0  0  0  0  0  0  0
  144.0595  132.4748  151.4314 C   0  0  0  0  0  0  0  0  0  0  0  0
  144.8129  133.4001  152.3879 C   0  0  1  0  0  0  0  0  0  0  0  0
  145.1197  132.6688  153.5633 O   0  0  0  0  0  0  0  0  0  0  0  0
  144.0152  134.6679  152.7923 C   0  0  0  0  0  0  0  0  0  0  0  0
  144.8062  135.8893  152.8260 N   0  0  0  0  0  0  0  0  0  0  0  0
  144.9990  136.7761  151.7930 C   0  0  0  0  0  0  0  0  0  0  0  0
  145.7488  137.8041  152.0786 N   0  0  0  0  0  0  0  0  0  0  0  0
  146.0999  137.6228  153.4128 C   0  0  0  0  0  0  0  0  0  0  0  0
  146.8885  138.3545  154.3535 C   0  0  0  0  0  0  0  0  0  0  0  0
  147.5564  139.5097  154.0702 N   0  0  0  0  0  0  0  0  0  0  0  0
  147.1655  140.2623  152.8796 C   0  0  0  0  0  0  0  0  0  0  0  0
  148.1642  140.2631  155.1675 C   0  0  0  0  0  0  0  0  0  0  0  0
  149.1682  141.3371  154.6919 C   0  0  1  0  0  0  0  0  0  0  0  0
  148.5025  142.5303  154.3288 O   0  0  0  0  0  0  0  0  0  0  0  0
  150.2528  141.6713  155.7413 C   0  0  0  0  0  0  0  0  0  0  0  0
  150.8005  140.5471  156.5079 N   0  0  0  0  0  0  0  0  0  0  0  0
  151.4290  140.9592  157.7617 C   0  0  0  0  0  0  0  0  0  0  0  0
  152.0208  139.7642  158.5297 C   0  0  0  0  0  0  0  0  0  0  0  0
  152.9466  139.0697  157.7005 O   0  0  0  0  0  0  0  0  0  0  0  0
  152.3570  138.6086  156.4896 C   0  0  0  0  0  0  0  0  0  0  0  0
  151.7740  139.8032  155.7151 C   0  0  0  0  0  0  0  0  0  0  0  0
  146.9649  137.8471  155.6142 N   0  0  0  0  0  0  0  0  0  0  0  0
  146.3421  136.7107  155.9355 C   0  0  0  0  0  0  0  0  0  0  0  0
  145.5922  135.9255  155.1632 N   0  0  0  0  0  0  0  0  0  0  0  0
  145.4965  136.4259  153.8991 C   0  0  0  0  0  0  0  0  0  0  0  0
  147.6098  133.7995  153.1216 H   0  0  0  0  0  0  0  0  0  0  0  0
  148.2493  133.6404  151.4905 H   0  0  0  0  0  0  0  0  0  0  0  0
  147.4857  132.2587  152.2672 H   0  0  0  0  0  0  0  0  0  0  0  0
  146.1043  134.8563  151.4038 H   0  0  0  0  0  0  0  0  0  0  0  0
  144.0460  133.8771  149.7773 H   0  0  0  0  0  0  0  0  0  0  0  0
  144.3661  132.2057  149.2827 H   0  0  0  0  0  0  0  0  0  0  0  0
  142.9758  132.4932  151.5354 H   0  0  0  0  0  0  0  0  0  0  0  0
  144.3782  131.4399  151.5688 H   0  0  0  0  0  0  0  0  0  0  0  0
  144.3134  132.3337  153.9243 H   0  0  0  0  0  0  0  0  0  0  0  0
  143.1865  134.8227  152.1001 H   0  0  0  0  0  0  0  0  0  0  0  0
  143.5630  134.5302  153.7752 H   0  0  0  0  0  0  0  0  0  0  0  0
  144.5643  136.6353  150.8141 H   0  0  0  0  0  0  0  0  0  0  0  0
  147.1583  139.6191  151.9988 H   0  0  0  0  0  0  0  0  0  0  0  0
  147.8655  141.0751  152.6855 H   0  0  0  0  0  0  0  0  0  0  0  0
  146.1722  140.6952  153.0027 H   0  0  0  0  0  0  0  0  0  0  0  0
  147.4238  140.6801  155.8455 H   0  0  0  0  0  0  0  0  0  0  0  0
  148.7064  139.5379  155.7749 H   0  0  0  0  0  0  0  0  0  0  0  0
  149.6825  140.9823  153.7981 H   0  0  0  0  0  0  0  0  0  0  0  0
  148.8781  143.2428  154.8231 H   0  0  0  0  0  0  0  0  0  0  0  0
  151.0769  142.1271  155.1906 H   0  0  0  0  0  0  0  0  0  0  0  0
  149.8941  142.4499  156.4165 H   0  0  0  0  0  0  0  0  0  0  0  0
  152.2169  141.6866  157.5599 H   0  0  0  0  0  0  0  0  0  0  0  0
  150.7025  141.4520  158.4063 H   0  0  0  0  0  0  0  0  0  0  0  0
  152.5341  140.1071  159.4280 H   0  0  0  0  0  0  0  0  0  0  0  0
  151.2304  139.0845  158.8521 H   0  0  0  0  0  0  0  0  0  0  0  0
  153.1161  138.1027  155.8927 H   0  0  0  0  0  0  0  0  0  0  0  0
  151.5801  137.8748  156.7105 H   0  0  0  0  0  0  0  0  0  0  0  0
  151.3070  139.4412  154.7985 H   0  0  0  0  0  0  0  0  0  0  0  0
  152.5861  140.4654  155.4103 H   0  0  0  0  0  0  0  0  0  0  0  0
  146.4636  136.3839  156.9577 H   0  0  0  0  0  0  0  0  0  0  0  0
  1  2  1  0  0  0  0
  1 30  1  0  0  0  0
  1 31  1  0  0  0  0
  1 32  1  0  0  0  0
  2  6  1  0  0  0  0
  2  3  1  0  0  0  0
  2 33  1  0  0  0  0
  3  4  1  0  0  0  0
  4  5  1  0  0  0  0
  4 34  1  0  0  0  0
  4 35  1  0  0  0  0
  5  6  1  0  0  0  0
  5 36  1  0  0  0  0
  5 37  1  0  0  0  0
  6  7  1  0  0  0  0
  6  8  1  0  0  0  0
  7 38  1  0  0  0  0
  8  9  1  0  0  0  0
  8 39  1  0  0  0  0
  8 40  1  0  0  0  0
  9 29  1  0  0  0  0
  9 10  1  0  0  0  0
 10 11  2  0  0  0  0
 10 41  1  0  0  0  0
 11 12  1  0  0  0  0
 12 29  2  0  0  0  0
 12 13  1  0  0  0  0
 13 14  1  0  0  0  0
 13 26  2  0  0  0  0
 14 15  1  0  0  0  0
 14 16  1  0  0  0  0
 15 42  1  0  0  0  0
 15 43  1  0  0  0  0
 15 44  1  0  0  0  0
 16 17  1  0  0  0  0
 16 45  1  0  0  0  0
 16 46  1  0  0  0  0
 17 18  1  0  0  0  0
 17 19  1  0  0  0  0
 17 47  1  0  0  0  0
 18 48  1  0  0  0  0
 19 20  1  0  0  0  0
 19 49  1  0  0  0  0
 19 50  1  0  0  0  0
 20 25  1  0  0  0  0
 20 21  1  0  0  0  0
 21 22  1  0  0  0  0
 21 51  1  0  0  0  0
 21 52  1  0  0  0  0
 22 23  1  0  0  0  0
 22 53  1  0  0  0  0
 22 54  1  0  0  0  0
 23 24  1  0  0  0  0
 24 25  1  0  0  0  0
 24 55  1  0  0  0  0
 24 56  1  0  0  0  0
 25 57  1  0  0  0  0
 25 58  1  0  0  0  0
 26 27  1  0  0  0  0
 27 28  2  0  0  0  0
 27 59  1  0  0  0  0
 28 29  1  0  0  0  0
M  END
> <s_m_source_file>
AV-unprocessed.smi

> <i_m_source_file_index>
153

> <i_lp_mmshare_version>
43012

> <i_f3d_flags>
0

> <s_epik_input>
W0NIMl0xW0NIMl1PW0NAQEhdKFtDSDNdKVtDQEBdMShbT0hdKVtDSDJdbihbY0hdbjIpYyhjMjMpbltjSF1uYzNOKFtDSDNdKVtDSDJdW0NASF0oW09IXSlbQ0gyXU40W0NIMl1bQ0gyXU9bQ0gyXVtDSDJdNA==

> <s_epik_cmdline>
J2VwaWtfcHl0aG9uJywgJy1waCcsICc3LjAnLCAnLXRuJywgJzgnLCAnLW1hJywgJzIwMCcsICctbWV0YWxfYmluZGluZycsICctaW1hZScsICc8aW5maWxlLm1hZT4nLCAnLW9tYWUnLCAnPG91dGZpbGUubWFlPic=

> <r_lp_tautomer_probability>
1

> <r_epik_Ionization_Penalty>
0.424123

> <r_epik_Ionization_Penalty_Charging>
0

> <r_epik_Ionization_Penalty_Neutral>
0.424123

> <r_epik_State_Penalty>
0.421495

> <r_epik_Charging_Adjusted_Penalty>
0.421495

> <i_epik_Tot_Q>
0

> <i_epik_Tot_abs_Q>
0

> <r_epik_Metal_State_Penalty>
0.421223

> <b_epik_Metal_Only>
0

> <s_lp_Force_Field>
OPLS_2005

> <r_lp_Energy>
60.0656

> <b_lp_Chiralities_Consistent>
1

> <s_lp_Variant>
AV-unprocessed.smi:153-14

> <Gold.Version>
5.8.1

> <Gold.Id.Protein>
6NUR|6NUR_protein|mol2

> <Gold.PLP.Fitness>
46.1034

> <Gold.PLP.PLP>
-38.4042

> <Gold.PLP.part.hbond>
-4.0651

> <Gold.PLP.part.metal>
0.0000

> <Gold.PLP.part.buried>
-3.8033

> <Gold.PLP.part.nonpolar>
-30.8300

> <Gold.PLP.part.repulsive>
1.6865

> <Gold.PLP.ligand.clash>
0.0000

> <Gold.PLP.ligand.torsion>
2.1331

> <Gold.PLP.Chemscore.Hbond>
3.0025

> <Gold.PLP.Chemscore.CHOScore>
0.7379

> <Gold.PLP.Chemscore.Metal>
0.0000

> <Gold.Chemscore.Hbonds>
donor molecule, donor type, donor heavy atom, donor atom, acceptor molecule, acceptor atom, score
      L1  H     7    38       P1 10957  1.00
      L1  H    18    48       P1  8028  1.00
      P1  H  7997  8009       L1    23  0.85
      P1  H  8011  8017       L1    18  0.01
      L1  C    10    41       P1 10171  0.69

> <Gold.PLP.Chemscore.Internal.Correction>
0.7442

> <Gold.Rescore>
     Score         DG    S(hbond)    S(metal)    S(lipo)     H(rot)  DE(clash)    DE(int)     intcor
     11.14     -15.48       2.61        0.00      88.04       3.52       0.13       4.22       ----

> <Gold.Chemscore.Fitness>
11.1404

> <Gold.Chemscore.DG>
-15.4848

> <Gold.Chemscore.ZeroCoef>
-5.4800

> <Gold.Chemscore.Hbond>
2.6072

> <Gold.Chemscore.Metal>
0.0000

> <Gold.Chemscore.Lipo>
88.0381

> <Gold.Chemscore.Internal_Hbond>
0.0000

> <Gold.Chemscore.DEClash>
0.1261

> <Gold.Chemscore.DEInternal>
4.2183

> <Gold.Chemscore.Rot>
3.5170

> <Gold.Chemscore.Internal.Correction>
   9.000000E+99

> <Gold.Chemscore.Hbonds>
donor molecule, donor type, donor heavy atom, donor atom, acceptor molecule, acceptor atom, score
      L1  H     7    38       P1 10957  0.30
      L1  H    18    48       P1  8028  0.98
      P1  H  7997  8009       L1    23  0.14

> <Gold.Chemscore.Hbond.Weighted>
-8.7080

> <Gold.Chemscore.Metal.Weighted>
-0.0000

> <Gold.Chemscore.Lipo.Weighted>
-10.3005

> <Gold.Chemscore.Internal_Hbond.Weighted>
0.0000

> <Gold.Chemscore.DEClash.Weighted>
0.1261

> <Gold.Chemscore.DEInternal.Weighted>
4.2183

> <Gold.Chemscore.Rot.Weighted>
9.0036

> <Gold.Chemscore.Internal.Correction.Weighted>
   9.000000E+99

> <Gold.Protein.RotatedTorsions>
[ 6907 6896 6895 6894 ] final  -89.52 input  -60.11 | X-H torsion
[ 7974 7965 7964 7962 ] final  -49.72 input  175.53 | X-H torsion
[ 8008 7997 7996 7995 ] final  166.43 input   59.86 | X-H torsion
[ 10167 10162 10161 10158 ] final -147.93 input  -65.29 | X-H torsion
[ 10718 10713 10712 10709 ] final -165.57 input   66.30 | X-H torsion
[ 10763 10752 10751 10750 ] final  -47.91 input  -60.55 | X-H torsion
[ 11005 11000 10999 10996 ] final   65.86 input  -57.11 | X-H torsion

> <Gold.Protein.ActiveResidues>
 VAL166  LYS551  ARG553  GLY616  TRP617  ASP618  TYR619  PRO620  LYS621  CYS622 
 ASP623  PHE694  ASN695  SER759  ASP760  ASP761  ALA762  ILE779  LEU786  VAL792 
 PHE793  MET794  SER795  GLU796  ALA797  LYS798  CYS799  TRP800  GLU811  SER814 

> <Gold.Protein.RotatedAtoms>
  150.6874  134.2575  159.4535 H   0  0  0  0  0  0  0  0  0  0  0  0  # atno 6907 bound_to 6896
  152.0507  134.9652  160.0584 H   0  0  0  0  0  0  0  0  0  0  0  0  # atno 6908 bound_to 6896
  152.1118  133.4270  159.4671 H   0  0  0  0  0  0  0  0  0  0  0  0  # atno 6909 bound_to 6896
  145.9375  140.7693  142.9568 H   0  0  0  0  0  0  0  0  0  0  0  0  # atno 7974 bound_to 7965
  156.1719  140.1643  156.8432 H   0  0  0  0  0  0  0  0  0  0  0  0  # atno 8008 bound_to 7997
  154.5266  140.0766  156.8303 H   0  0  0  0  0  0  0  0  0  0  0  0  # atno 8009 bound_to 7997
  155.3494  140.3389  155.4241 H   0  0  0  0  0  0  0  0  0  0  0  0  # atno 8010 bound_to 7997
  139.7578  143.8423  152.2600 H   0  0  0  0  0  0  0  0  0  0  0  0  # atno 10167 bound_to 10162
  156.6553  130.9024  151.3020 H   0  0  0  0  0  0  0  0  0  0  0  0  # atno 10718 bound_to 10713
  154.0691  135.6607  153.4822 H   0  0  0  0  0  0  0  0  0  0  0  0  # atno 10763 bound_to 10752
  153.0397  135.5153  154.7584 H   0  0  0  0  0  0  0  0  0  0  0  0  # atno 10764 bound_to 10752
  154.6644  135.3020  154.9791 H   0  0  0  0  0  0  0  0  0  0  0  0  # atno 10765 bound_to 10752
  139.9868  134.6655  156.0162 H   0  0  0  0  0  0  0  0  0  0  0  0  # atno 11005 bound_to 11000
  144.6774  140.2226  143.7364 LP  0  0  0  0  0  0  0  0  0  0  0  0  # atno 17320 bound_to 7965
  145.8344  139.2101  143.1864 LP  0  0  0  0  0  0  0  0  0  0  0  0  # atno 17321 bound_to 7965
  139.8420  144.7205  150.9320 LP  0  0  0  0  0  0  0  0  0  0  0  0  # atno 17342 bound_to 10162
  140.7804  143.3975  151.1205 LP  0  0  0  0  0  0  0  0  0  0  0  0  # atno 17343 bound_to 10162
  157.7127  130.9460  150.1147 LP  0  0  0  0  0  0  0  0  0  0  0  0  # atno 17370 bound_to 10713
  156.2053  130.3663  149.8737 LP  0  0  0  0  0  0  0  0  0  0  0  0  # atno 17371 bound_to 10713
  141.1531  133.6546  156.4076 LP  0  0  0  0  0  0  0  0  0  0  0  0  # atno 17394 bound_to 11000
  140.4987  134.6506  157.5240 LP  0  0  0  0  0  0  0  0  0  0  0  0  # atno 17395 bound_to 11000

$$$$
