AV-unprocessed.smi:2712|AV-procd|sdf|10476|dock7
  -GOLD-   2272014513D 1   1.00000     0.00000
 Structure written by MMmdl.
 52 53  0  0  0  0  0  0  0  0  1 V2000
  147.7900  140.8695  154.1320 C   0  0  0  0  0  0  0  0  0  0  0  0
  149.1405  140.4849  154.6601 C   0  0  0  0  0  0  0  0  0  0  0  0
  149.8831  141.3051  155.5982 C   0  0  0  0  0  0  0  0  0  0  0  0
  151.0961  140.8912  156.0230 C   0  0  0  0  0  0  0  0  0  0  0  0
  151.6826  139.6335  155.5652 C   0  0  0  0  0  0  0  0  0  0  0  0
  152.7865  139.2300  155.9308 O   0  0  0  0  0  0  0  0  0  0  0  0
  150.8893  138.9431  154.6930 N   0  0  0  0  0  0  0  0  0  0  0  0
  151.3090  137.6445  154.1461 C   0  0  0  0  0  0  0  0  0  0  0  0
  150.7014  136.4417  154.8836 C   0  0  0  0  0  0  0  0  0  0  0  0
  151.0137  136.1869  156.0479 O   0  0  0  0  0  0  0  0  0  0  0  0
  149.8148  135.7163  154.1847 N   0  0  0  0  0  0  0  0  0  0  0  0
  149.1033  134.5385  154.6771 C   0  0  2  0  0  0  0  0  0  0  0  0
  149.7312  133.2617  154.0830 C   0  0  0  0  0  0  0  0  0  0  0  0
  148.8514  132.0080  154.1915 C   0  0  0  0  0  0  0  0  0  0  0  0
  147.9006  131.8287  152.9926 C   0  0  0  0  0  0  0  0  0  0  0  0
  146.6764  132.7850  152.9298 C   0  0  2  0  0  0  0  0  0  0  0  0
  145.7216  132.4944  151.7123 C   0  0  0  0  0  0  0  0  0  0  0  0
  145.3784  130.9934  151.5945 C   0  0  0  0  0  0  0  0  0  0  0  0
  146.3712  132.9565  150.3857 C   0  0  0  0  0  0  0  0  0  0  0  0
  144.3982  133.2842  151.8395 C   0  0  0  0  0  0  0  0  0  0  0  0
  147.1076  134.2769  153.0241 C   0  0  0  0  0  0  0  0  0  0  0  0
  147.5912  134.6963  154.4240 C   0  0  0  0  0  0  0  0  0  0  0  0
  149.6482  139.3694  154.2492 N   0  0  0  0  0  0  0  0  0  0  0  0
  147.4821  141.8451  154.5092 H   0  0  0  0  0  0  0  0  0  0  0  0
  147.0352  140.1418  154.4317 H   0  0  0  0  0  0  0  0  0  0  0  0
  147.7980  140.9204  153.0429 H   0  0  0  0  0  0  0  0  0  0  0  0
  149.4625  142.2362  155.9483 H   0  0  0  0  0  0  0  0  0  0  0  0
  151.6479  141.5026  156.7220 H   0  0  0  0  0  0  0  0  0  0  0  0
  151.0287  137.5731  153.0936 H   0  0  0  0  0  0  0  0  0  0  0  0
  152.3977  137.5660  154.1634 H   0  0  0  0  0  0  0  0  0  0  0  0
  149.6186  135.9990  153.2355 H   0  0  0  0  0  0  0  0  0  0  0  0
  149.2233  134.4995  155.7615 H   0  0  0  0  0  0  0  0  0  0  0  0
  150.0052  133.4201  153.0388 H   0  0  0  0  0  0  0  0  0  0  0  0
  150.6731  133.0761  154.6011 H   0  0  0  0  0  0  0  0  0  0  0  0
  149.5133  131.1416  154.2143 H   0  0  0  0  0  0  0  0  0  0  0  0
  148.3069  131.9859  155.1361 H   0  0  0  0  0  0  0  0  0  0  0  0
  148.4771  131.8921  152.0700 H   0  0  0  0  0  0  0  0  0  0  0  0
  147.5486  130.8000  153.0510 H   0  0  0  0  0  0  0  0  0  0  0  0
  146.0862  132.5696  153.8217 H   0  0  0  0  0  0  0  0  0  0  0  0
  144.7001  130.8117  150.7600 H   0  0  0  0  0  0  0  0  0  0  0  0
  144.8890  130.6147  152.4916 H   0  0  0  0  0  0  0  0  0  0  0  0
  146.2653  130.3847  151.4196 H   0  0  0  0  0  0  0  0  0  0  0  0
  147.2321  132.3538  150.1012 H   0  0  0  0  0  0  0  0  0  0  0  0
  146.6963  133.9959  150.4422 H   0  0  0  0  0  0  0  0  0  0  0  0
  145.6684  132.8843  149.5547 H   0  0  0  0  0  0  0  0  0  0  0  0
  143.7971  133.2045  150.9330 H   0  0  0  0  0  0  0  0  0  0  0  0
  144.5822  134.3448  152.0146 H   0  0  0  0  0  0  0  0  0  0  0  0
  143.7720  132.9122  152.6503 H   0  0  0  0  0  0  0  0  0  0  0  0
  147.8583  134.5169  152.2705 H   0  0  0  0  0  0  0  0  0  0  0  0
  146.2622  134.9212  152.7980 H   0  0  0  0  0  0  0  0  0  0  0  0
  147.0360  134.1399  155.1798 H   0  0  0  0  0  0  0  0  0  0  0  0
  147.3163  135.7378  154.5982 H   0  0  0  0  0  0  0  0  0  0  0  0
  1  2  1  0  0  0  0
  1 24  1  0  0  0  0
  1 25  1  0  0  0  0
  1 26  1  0  0  0  0
  2 23  2  0  0  0  0
  2  3  1  0  0  0  0
  3  4  2  0  0  0  0
  3 27  1  0  0  0  0
  4  5  1  0  0  0  0
  4 28  1  0  0  0  0
  5  6  2  0  0  0  0
  5  7  1  0  0  0  0
  7  8  1  0  0  0  0
  7 23  1  0  0  0  0
  8  9  1  0  0  0  0
  8 29  1  0  0  0  0
  8 30  1  0  0  0  0
  9 10  2  0  0  0  0
  9 11  1  0  0  0  0
 11 12  1  0  0  0  0
 11 31  1  0  0  0  0
 12 22  1  0  0  0  0
 12 13  1  0  0  0  0
 12 32  1  0  0  0  0
 13 14  1  0  0  0  0
 13 33  1  0  0  0  0
 13 34  1  0  0  0  0
 14 15  1  0  0  0  0
 14 35  1  0  0  0  0
 14 36  1  0  0  0  0
 15 16  1  0  0  0  0
 15 37  1  0  0  0  0
 15 38  1  0  0  0  0
 16 17  1  0  0  0  0
 16 21  1  0  0  0  0
 16 39  1  0  0  0  0
 17 18  1  0  0  0  0
 17 19  1  0  0  0  0
 17 20  1  0  0  0  0
 18 40  1  0  0  0  0
 18 41  1  0  0  0  0
 18 42  1  0  0  0  0
 19 43  1  0  0  0  0
 19 44  1  0  0  0  0
 19 45  1  0  0  0  0
 20 46  1  0  0  0  0
 20 47  1  0  0  0  0
 20 48  1  0  0  0  0
 21 22  1  0  0  0  0
 21 49  1  0  0  0  0
 21 50  1  0  0  0  0
 22 51  1  0  0  0  0
 22 52  1  0  0  0  0
M  END
> <s_m_source_file>
AV-unprocessed.smi

> <i_m_source_file_index>
2712

> <i_lp_mmshare_version>
43012

> <i_f3d_flags>
0

> <s_epik_input>
W0NIM11jMVtjSF1bY0hdYyg9TyluKG4xKVtDSDJdQyg9TylbTkhdW0NAQEhdMltDSDJdW0NIMl1bQ0gyXVtDQEBIXShDKFtDSDNdKShbQ0gzXSlbQ0gzXSlbQ0gyXVtDSDJdMg==

> <s_epik_cmdline>
J2VwaWtfcHl0aG9uJywgJy1waCcsICc3LjAnLCAnLXRuJywgJzgnLCAnLW1hJywgJzIwMCcsICctbWV0YWxfYmluZGluZycsICctaW1hZScsICc8aW5maWxlLm1hZT4nLCAnLW9tYWUnLCAnPG91dGZpbGUubWFlPic=

> <r_lp_tautomer_probability>
1

> <r_epik_Ionization_Penalty>
8.71758e-07

> <r_epik_Ionization_Penalty_Charging>
8.50442e-07

> <r_epik_Ionization_Penalty_Neutral>
2.13165e-08

> <r_epik_State_Penalty>
-0

> <r_epik_Charging_Adjusted_Penalty>
8.50442e-07

> <i_epik_Tot_Q>
0

> <i_epik_Tot_abs_Q>
0

> <r_epik_Metal_State_Penalty>
-0

> <b_epik_Metal_Only>
0

> <s_lp_Force_Field>
OPLS_2005

> <r_lp_Energy>
39.6201

> <b_lp_Chiralities_Consistent>
1

> <s_lp_Variant>
AV-unprocessed.smi:2712-3

> <Gold.Version>
5.8.1

> <Gold.Id.Protein>
6NUR|6NUR_protein|mol2

> <Gold.PLP.Fitness>
48.1212

> <Gold.PLP.PLP>
-43.2622

> <Gold.PLP.part.hbond>
-2.5249

> <Gold.PLP.part.metal>
0.0000

> <Gold.PLP.part.buried>
-2.0350

> <Gold.PLP.part.nonpolar>
-40.6303

> <Gold.PLP.part.repulsive>
0.8175

> <Gold.PLP.ligand.clash>
0.0000

> <Gold.PLP.ligand.torsion>
0.6252

> <Gold.PLP.Chemscore.Hbond>
2.0000

> <Gold.PLP.Chemscore.CHOScore>
0.0000

> <Gold.PLP.Chemscore.Metal>
0.0000

> <Gold.Chemscore.Hbonds>
donor molecule, donor type, donor heavy atom, donor atom, acceptor molecule, acceptor atom, score
      L1  H    11    31       P1  7948  0.79
      P1  H  7997  8008       L1     6  1.00

> <Gold.PLP.Chemscore.Internal.Correction>
0.1095

> <Gold.Rescore>
     Score         DG    S(hbond)    S(metal)    S(lipo)     H(rot)  DE(clash)    DE(int)     intcor
     17.21     -17.88       1.57        0.00      94.35       1.52       0.09       0.58       ----

> <Gold.Chemscore.Fitness>
17.2121

> <Gold.Chemscore.DG>
-17.8821

> <Gold.Chemscore.ZeroCoef>
-5.4800

> <Gold.Chemscore.Hbond>
1.5704

> <Gold.Chemscore.Metal>
0.0000

> <Gold.Chemscore.Lipo>
94.3465

> <Gold.Chemscore.Internal_Hbond>
0.0000

> <Gold.Chemscore.DEClash>
0.0914

> <Gold.Chemscore.DEInternal>
0.5787

> <Gold.Chemscore.Rot>
1.5162

> <Gold.Chemscore.Internal.Correction>
   9.000000E+99

> <Gold.Chemscore.Hbonds>
donor molecule, donor type, donor heavy atom, donor atom, acceptor molecule, acceptor atom, score
      L1  H    11    31       P1  7948  0.13
      P1  H  7997  8008       L1     6  1.00

> <Gold.Chemscore.Hbond.Weighted>
-5.2450

> <Gold.Chemscore.Metal.Weighted>
-0.0000

> <Gold.Chemscore.Lipo.Weighted>
-11.0385

> <Gold.Chemscore.Internal_Hbond.Weighted>
0.0000

> <Gold.Chemscore.DEClash.Weighted>
0.0914

> <Gold.Chemscore.DEInternal.Weighted>
0.5787

> <Gold.Chemscore.Rot.Weighted>
3.8814

> <Gold.Chemscore.Internal.Correction.Weighted>
   9.000000E+99

> <Gold.Protein.RotatedTorsions>
[ 6907 6896 6895 6894 ] final  -94.47 input  -60.11 | X-H torsion
[ 7974 7965 7964 7962 ] final  -12.07 input  175.53 | X-H torsion
[ 8008 7997 7996 7995 ] final  -34.57 input   59.86 | X-H torsion
[ 10167 10162 10161 10158 ] final -100.12 input  -65.29 | X-H torsion
[ 10718 10713 10712 10709 ] final  165.39 input   66.30 | X-H torsion
[ 10763 10752 10751 10750 ] final  133.06 input  -60.55 | X-H torsion
[ 11005 11000 10999 10996 ] final   38.78 input  -57.11 | X-H torsion

> <Gold.Protein.ActiveResidues>
 VAL166  LYS551  ARG553  GLY616  TRP617  ASP618  TYR619  PRO620  LYS621  CYS622 
 ASP623  PHE694  ASN695  SER759  ASP760  ASP761  ALA762  ILE779  LEU786  VAL792 
 PHE793  MET794  SER795  GLU796  ALA797  LYS798  CYS799  TRP800  GLU811  SER814 

> <Gold.Protein.RotatedAtoms>
  150.6942  134.1807  159.4247 H   0  0  0  0  0  0  0  0  0  0  0  0  # atno 6907 bound_to 6896
  151.9781  135.0040  160.0565 H   0  0  0  0  0  0  0  0  0  0  0  0  # atno 6908 bound_to 6896
  152.1780  133.4653  159.4980 H   0  0  0  0  0  0  0  0  0  0  0  0  # atno 6909 bound_to 6896
  146.2165  140.3004  142.8375 H   0  0  0  0  0  0  0  0  0  0  0  0  # atno 7974 bound_to 7965
  154.4117  140.1680  156.2070 H   0  0  0  0  0  0  0  0  0  0  0  0  # atno 8008 bound_to 7997
  155.9476  140.3403  155.6357 H   0  0  0  0  0  0  0  0  0  0  0  0  # atno 8009 bound_to 7997
  155.6911  140.0734  157.2438 H   0  0  0  0  0  0  0  0  0  0  0  0  # atno 8010 bound_to 7997
  140.2552  143.3445  152.0677 H   0  0  0  0  0  0  0  0  0  0  0  0  # atno 10167 bound_to 10162
  157.0808  131.0391  151.2576 H   0  0  0  0  0  0  0  0  0  0  0  0  # atno 10718 bound_to 10713
  153.8009  135.3142  155.3390 H   0  0  0  0  0  0  0  0  0  0  0  0  # atno 10763 bound_to 10752
  154.8089  135.4680  154.0468 H   0  0  0  0  0  0  0  0  0  0  0  0  # atno 10764 bound_to 10752
  153.1815  135.6894  153.8559 H   0  0  0  0  0  0  0  0  0  0  0  0  # atno 10765 bound_to 10752
  140.2092  134.3775  155.8057 H   0  0  0  0  0  0  0  0  0  0  0  0  # atno 11005 bound_to 11000
  144.9061  140.7702  143.5836 LP  0  0  0  0  0  0  0  0  0  0  0  0  # atno 17320 bound_to 7965
  145.2932  139.1876  143.4729 LP  0  0  0  0  0  0  0  0  0  0  0  0  # atno 17321 bound_to 7965
  139.5034  144.6754  151.6142 LP  0  0  0  0  0  0  0  0  0  0  0  0  # atno 17342 bound_to 10162
  140.6009  143.9611  150.6386 LP  0  0  0  0  0  0  0  0  0  0  0  0  # atno 17343 bound_to 10162
  157.4802  130.7760  149.7406 LP  0  0  0  0  0  0  0  0  0  0  0  0  # atno 17370 bound_to 10713
  155.9924  130.3931  150.2943 LP  0  0  0  0  0  0  0  0  0  0  0  0  # atno 17371 bound_to 10713
  141.2226  133.7134  156.8390 LP  0  0  0  0  0  0  0  0  0  0  0  0  # atno 17394 bound_to 11000
  140.1969  134.8925  157.3124 LP  0  0  0  0  0  0  0  0  0  0  0  0  # atno 17395 bound_to 11000

$$$$
