AV-unprocessed.smi:1504|AV-procd|sdf|6074|dock7
  -GOLD-   22720 6193D 1   1.00000     0.00000
 Structure written by MMmdl.
 40 41  0  0  0  0  0  0  0  0  2 V2000
  151.0446  139.2649  154.1237 O   0  0  0  0  0  0  0  0  0  0  0  0
  151.2480  138.8466  155.2635 C   0  0  0  0  0  0  0  0  0  0  0  0
  151.4706  139.6377  156.3225 N   0  0  0  0  0  0  0  0  0  0  0  0
  151.5092  141.0948  156.2787 C   0  0  0  0  0  0  0  0  0  0  0  0
  150.4747  141.7174  157.2315 C   0  0  0  0  0  0  0  0  0  0  0  0
  151.0965  142.7314  158.1717 C   0  0  0  0  0  0  0  0  0  0  0  0
  152.1438  142.3911  159.0553 C   0  0  0  0  0  0  0  0  0  0  0  0
  152.6826  143.3838  159.9002 C   0  0  0  0  0  0  0  0  0  0  0  0
  152.1647  144.6944  159.8427 C   0  0  0  0  0  0  0  0  0  0  0  0
  151.1200  144.9796  158.9398 C   0  0  0  0  0  0  0  0  0  0  0  0
  150.6301  144.0011  158.1471 N   0  3  0  0  0  0  0  0  0  0  0  0
  151.2812  137.5496  155.5961 N   0  0  0  0  0  0  0  0  0  0  0  0
  151.0995  136.4408  154.6655 C   0  0  0  0  0  0  0  0  0  0  0  0
  150.5733  135.1921  155.3936 C   0  0  1  0  0  0  0  0  0  0  0  0
  150.1000  134.0976  154.4175 C   0  0  0  0  0  0  0  0  0  0  0  0
  149.8593  132.8090  155.2095 C   0  0  0  0  0  0  0  0  0  0  0  0
  151.1260  132.8011  156.5316 S   0  0  0  0  0  0  0  0  0  0  0  0
  150.4631  132.6077  157.8301 O   0  0  0  0  0  0  0  0  0  0  0  0
  152.2554  131.9522  156.1237 O   0  0  0  0  0  0  0  0  0  0  0  0
  151.6072  134.5603  156.3430 C   0  0  0  0  0  0  0  0  0  0  0  0
  151.6243  139.2019  157.2203 H   0  0  0  0  0  0  0  0  0  0  0  0
  152.5133  141.4473  156.5216 H   0  0  0  0  0  0  0  0  0  0  0  0
  151.3099  141.4077  155.2534 H   0  0  0  0  0  0  0  0  0  0  0  0
  149.6832  142.2032  156.6590 H   0  0  0  0  0  0  0  0  0  0  0  0
  149.9904  140.9406  157.8248 H   0  0  0  0  0  0  0  0  0  0  0  0
  152.5317  141.3832  159.0856 H   0  0  0  0  0  0  0  0  0  0  0  0
  153.4842  143.1427  160.5832 H   0  0  0  0  0  0  0  0  0  0  0  0
  152.5636  145.4691  160.4813 H   0  0  0  0  0  0  0  0  0  0  0  0
  150.6650  145.9530  158.8284 H   0  0  0  0  0  0  0  0  0  0  0  0
  151.4539  137.3091  156.5613 H   0  0  0  0  0  0  0  0  0  0  0  0
  150.3941  136.7501  153.8935 H   0  0  0  0  0  0  0  0  0  0  0  0
  152.0362  136.2010  154.1589 H   0  0  0  0  0  0  0  0  0  0  0  0
  149.7091  135.4800  155.9947 H   0  0  0  0  0  0  0  0  0  0  0  0
  149.2067  134.4013  153.8710 H   0  0  0  0  0  0  0  0  0  0  0  0
  150.8796  133.9144  153.6766 H   0  0  0  0  0  0  0  0  0  0  0  0
  148.8776  132.8242  155.6833 H   0  0  0  0  0  0  0  0  0  0  0  0
  149.9406  131.9087  154.6004 H   0  0  0  0  0  0  0  0  0  0  0  0
  152.6067  134.5852  155.9075 H   0  0  0  0  0  0  0  0  0  0  0  0
  151.6429  135.0456  157.3184 H   0  0  0  0  0  0  0  0  0  0  0  0
  149.8743  144.2302  157.5013 H   0  0  0  0  0  0  0  0  0  0  0  0
  1  2  2  0  0  0  0
  2  3  1  0  0  0  0
  2 12  1  0  0  0  0
  3  4  1  0  0  0  0
  3 21  1  0  0  0  0
  4  5  1  0  0  0  0
  4 22  1  0  0  0  0
  4 23  1  0  0  0  0
  5  6  1  0  0  0  0
  5 24  1  0  0  0  0
  5 25  1  0  0  0  0
  6 11  1  0  0  0  0
  6  7  2  0  0  0  0
  7  8  1  0  0  0  0
  7 26  1  0  0  0  0
  8  9  2  0  0  0  0
  8 27  1  0  0  0  0
  9 10  1  0  0  0  0
  9 28  1  0  0  0  0
 10 11  2  0  0  0  0
 10 29  1  0  0  0  0
 11 40  1  0  0  0  0
 12 13  1  0  0  0  0
 12 30  1  0  0  0  0
 13 14  1  0  0  0  0
 13 31  1  0  0  0  0
 13 32  1  0  0  0  0
 14 20  1  0  0  0  0
 14 15  1  0  0  0  0
 14 33  1  0  0  0  0
 15 16  1  0  0  0  0
 15 34  1  0  0  0  0
 15 35  1  0  0  0  0
 16 17  1  0  0  0  0
 16 36  1  0  0  0  0
 16 37  1  0  0  0  0
 17 18  2  0  0  0  0
 17 19  2  0  0  0  0
 17 20  1  0  0  0  0
 20 38  1  0  0  0  0
 20 39  1  0  0  0  0
M  CHG  1  11   1
M  END
> <s_m_source_file>
AV-unprocessed.smi

> <i_m_source_file_index>
1504

> <i_lp_mmshare_version>
43012

> <i_f3d_flags>
0

> <s_epik_input>
Tz1TMSg9TylbQ0gyXVtDSDJdW0NASF0oW0NIMl0xKVtDSDJdW05IXUMoPU8pW05IXVtDSDJdW0NIMl1jMltjSF1bY0hdW2NIXVtjSF1uMg==

> <s_epik_cmdline>
J2VwaWtfcHl0aG9uJywgJy1waCcsICc3LjAnLCAnLXRuJywgJzgnLCAnLW1hJywgJzIwMCcsICctbWV0YWxfYmluZGluZycsICctaW1hZScsICc8aW5maWxlLm1hZT4nLCAnLW9tYWUnLCAnPG91dGZpbGUubWFlPic=

> <r_epik_Ionization_Penalty>
1.57393

> <r_epik_Ionization_Penalty_Charging>
1.57388

> <r_epik_Ionization_Penalty_Neutral>
4.82054e-05

> <r_epik_State_Penalty>
1.66991

> <r_epik_Charging_Adjusted_Penalty>
3.24379

> <i_epik_Tot_Q>
1

> <i_epik_Tot_abs_Q>
1

> <r_epik_Metal_State_Penalty>
1.71052

> <b_epik_Metal_Only>
0

> <s_lp_Force_Field>
OPLS_2005

> <r_lp_Energy>
6.78157

> <b_lp_Chiralities_Consistent>
1

> <s_lp_Variant>
AV-unprocessed.smi:1504-4

> <Gold.Version>
5.8.1

> <Gold.Id.Protein>
6NUR|6NUR_protein|mol2

> <Gold.PLP.Fitness>
49.2219

> <Gold.PLP.PLP>
-38.4068

> <Gold.PLP.part.hbond>
-3.1790

> <Gold.PLP.part.metal>
0.0000

> <Gold.PLP.part.buried>
-4.9535

> <Gold.PLP.part.nonpolar>
-30.5349

> <Gold.PLP.part.repulsive>
0.3953

> <Gold.PLP.ligand.clash>
0.0000

> <Gold.PLP.ligand.torsion>
0.5972

> <Gold.PLP.Chemscore.Hbond>
4.0000

> <Gold.PLP.Chemscore.CHOScore>
0.0000

> <Gold.PLP.Chemscore.Metal>
0.0000

> <Gold.Chemscore.Hbonds>
donor molecule, donor type, donor heavy atom, donor atom, acceptor molecule, acceptor atom, score
      L1  H    11    40       P1  8028  1.56
      P1  H  6896  6909       L1    18  1.00
      P1  H  7989  7998       L1     1  1.00

> <Gold.PLP.Chemscore.Internal.Correction>
0.0095

> <Gold.Rescore>
     Score         DG    S(hbond)    S(metal)    S(lipo)     H(rot)  DE(clash)    DE(int)     intcor
     18.10     -19.55       2.30        0.00      98.83       2.01       0.82       0.63       ----

> <Gold.Chemscore.Fitness>
18.0994

> <Gold.Chemscore.DG>
-19.5512

> <Gold.Chemscore.ZeroCoef>
-5.4800

> <Gold.Chemscore.Hbond>
2.2950

> <Gold.Chemscore.Metal>
0.0000

> <Gold.Chemscore.Lipo>
98.8292

> <Gold.Chemscore.Internal_Hbond>
0.0000

> <Gold.Chemscore.DEClash>
0.8198

> <Gold.Chemscore.DEInternal>
0.6320

> <Gold.Chemscore.Rot>
2.0146

> <Gold.Chemscore.Internal.Correction>
   9.000000E+99

> <Gold.Chemscore.Hbonds>
donor molecule, donor type, donor heavy atom, donor atom, acceptor molecule, acceptor atom, score
      L1  H    11    40       P1  8028  0.27
      P1  H  6896  6909       L1    18  0.93
      P1  H  7989  7998       L1     1  0.99

> <Gold.Chemscore.Hbond.Weighted>
-7.6655

> <Gold.Chemscore.Metal.Weighted>
-0.0000

> <Gold.Chemscore.Lipo.Weighted>
-11.5630

> <Gold.Chemscore.Internal_Hbond.Weighted>
0.0000

> <Gold.Chemscore.DEClash.Weighted>
0.8198

> <Gold.Chemscore.DEInternal.Weighted>
0.6320

> <Gold.Chemscore.Rot.Weighted>
5.1573

> <Gold.Chemscore.Internal.Correction.Weighted>
   9.000000E+99

> <Gold.Protein.RotatedTorsions>
[ 6907 6896 6895 6894 ] final  -33.54 input  -60.11 | X-H torsion
[ 7974 7965 7964 7962 ] final  -78.34 input  175.53 | X-H torsion
[ 8008 7997 7996 7995 ] final  -67.85 input   59.86 | X-H torsion
[ 10167 10162 10161 10158 ] final  -16.68 input  -65.29 | X-H torsion
[ 10718 10713 10712 10709 ] final  140.77 input   66.30 | X-H torsion
[ 10763 10752 10751 10750 ] final -109.55 input  -60.55 | X-H torsion
[ 11005 11000 10999 10996 ] final  -49.02 input  -57.11 | X-H torsion

> <Gold.Protein.ActiveResidues>
 VAL166  LYS551  ARG553  GLY616  TRP617  ASP618  TYR619  PRO620  LYS621  CYS622 
 ASP623  PHE694  ASN695  SER759  ASP760  ASP761  ALA762  ILE779  LEU786  VAL792 
 PHE793  MET794  SER795  GLU796  ALA797  LYS798  CYS799  TRP800  GLU811  SER814 

> <Gold.Protein.RotatedAtoms>
  151.0643  134.9757  159.8276 H   0  0  0  0  0  0  0  0  0  0  0  0  # atno 6907 bound_to 6896
  152.5400  134.2378  159.8860 H   0  0  0  0  0  0  0  0  0  0  0  0  # atno 6908 bound_to 6896
  151.2400  133.4361  159.2640 H   0  0  0  0  0  0  0  0  0  0  0  0  # atno 6909 bound_to 6896
  145.5877  140.9435  143.1309 H   0  0  0  0  0  0  0  0  0  0  0  0  # atno 7974 bound_to 7965
  154.4828  140.0884  156.7416 H   0  0  0  0  0  0  0  0  0  0  0  0  # atno 8008 bound_to 7997
  155.4428  140.3454  155.4273 H   0  0  0  0  0  0  0  0  0  0  0  0  # atno 8009 bound_to 7997
  156.1216  140.1476  156.9184 H   0  0  0  0  0  0  0  0  0  0  0  0  # atno 8010 bound_to 7997
  140.7237  143.5092  150.9772 H   0  0  0  0  0  0  0  0  0  0  0  0  # atno 10167 bound_to 10162
  157.3995  131.1015  151.0565 H   0  0  0  0  0  0  0  0  0  0  0  0  # atno 10718 bound_to 10713
  154.8199  135.4597  154.0750 H   0  0  0  0  0  0  0  0  0  0  0  0  # atno 10763 bound_to 10752
  153.2112  135.6882  153.8118 H   0  0  0  0  0  0  0  0  0  0  0  0  # atno 10764 bound_to 10752
  153.7569  135.3290  155.3307 H   0  0  0  0  0  0  0  0  0  0  0  0  # atno 10765 bound_to 10752
  141.0735  133.6672  156.3526 H   0  0  0  0  0  0  0  0  0  0  0  0  # atno 11005 bound_to 11000
  144.7365  139.7571  143.7327 LP  0  0  0  0  0  0  0  0  0  0  0  0  # atno 17320 bound_to 7965
  146.1669  139.4805  142.9952 LP  0  0  0  0  0  0  0  0  0  0  0  0  # atno 17321 bound_to 7965
  139.8805  143.7078  152.3157 LP  0  0  0  0  0  0  0  0  0  0  0  0  # atno 17342 bound_to 10162
  139.7359  144.7571  151.0728 LP  0  0  0  0  0  0  0  0  0  0  0  0  # atno 17343 bound_to 10162
  157.1569  130.6209  149.5599 LP  0  0  0  0  0  0  0  0  0  0  0  0  # atno 17370 bound_to 10713
  155.9819  130.4830  150.6855 LP  0  0  0  0  0  0  0  0  0  0  0  0  # atno 17371 bound_to 10713
  140.5623  134.5922  157.5437 LP  0  0  0  0  0  0  0  0  0  0  0  0  # atno 17394 bound_to 11000
  139.9548  134.7554  156.0367 LP  0  0  0  0  0  0  0  0  0  0  0  0  # atno 17395 bound_to 11000

$$$$
