AV-unprocessed.smi:252|AV-procd|sdf|1937|dock8
  -GOLD-   2262021 63D 1   1.00000     0.00000
 Structure written by MMmdl.
 56 59  0  0  0  0  0  0  0  0  1 V2000
  152.2932  144.6189  159.5664 C   0  0  0  0  0  0  0  0  0  0  0  0
  151.3859  144.3417  158.3576 C   0  0  0  0  0  0  0  0  0  0  0  0
  151.4226  142.8833  157.8899 C   0  0  0  0  0  0  0  0  0  0  0  0
  152.1568  142.0620  158.4410 O   0  0  0  0  0  0  0  0  0  0  0  0
  150.6224  142.5773  156.8568 N   0  0  0  0  0  0  0  0  0  0  0  0
  150.5025  141.2577  156.2451 C   0  0  1  0  0  0  0  0  0  0  0  0
  151.9035  140.6729  155.9888 C   0  0  0  0  0  0  0  0  0  0  0  0
  151.7987  139.2467  155.4260 C   0  0  0  0  0  0  0  0  0  0  0  0
  150.9449  138.3520  156.3391 C   0  0  0  0  0  0  0  0  0  0  0  0
  149.6381  138.9624  156.5866 N   0  0  0  0  0  0  0  0  0  0  0  0
  148.6506  138.1749  157.0831 C   0  0  0  0  0  0  0  0  0  0  0  0
  147.4836  138.0353  156.3987 N   0  0  0  0  0  0  0  0  0  0  0  0
  146.5133  137.2486  156.8734 C   0  0  0  0  0  0  0  0  0  0  0  0
  146.4993  136.5232  157.9931 N   0  0  0  0  0  0  0  0  0  0  0  0
  147.6639  136.6645  158.6884 C   0  0  0  0  0  0  0  0  0  0  0  0
  148.7780  137.4664  158.3113 C   0  0  0  0  0  0  0  0  0  0  0  0
  149.7731  137.3771  159.2777 N   0  0  0  0  0  0  0  0  0  0  0  0
  149.2811  136.5593  160.1674 C   0  0  0  0  0  0  0  0  0  0  0  0
  148.0231  136.0748  159.8882 N   0  0  0  0  0  0  0  0  0  0  0  0
  147.2467  135.1484  160.6986 C   0  0  0  0  0  0  0  0  0  0  0  0
  146.4932  135.8358  161.8678 C   0  0  1  0  0  0  0  0  0  0  0  0
  147.4538  136.4768  162.6901 O   0  0  0  0  0  0  0  0  0  0  0  0
  145.4921  136.8935  161.4109 C   0  0  0  0  0  0  0  0  0  0  0  0
  144.4542  136.8846  162.5222 C   0  0  0  0  0  0  0  0  0  0  0  0
  144.3400  135.5046  162.8205 O   0  0  0  0  0  0  0  0  0  0  0  0
  145.6356  134.9112  162.7780 C   0  0  1  0  0  0  0  0  0  0  0  0
  145.4632  133.4547  162.3196 C   0  0  0  0  0  0  0  0  0  0  0  0
  149.6829  140.3124  157.1468 C   0  0  0  0  0  0  0  0  0  0  0  0
  152.2001  145.6567  159.8870 H   0  0  0  0  0  0  0  0  0  0  0  0
  153.3426  144.4431  159.3267 H   0  0  0  0  0  0  0  0  0  0  0  0
  152.0296  143.9867  160.4153 H   0  0  0  0  0  0  0  0  0  0  0  0
  150.3588  144.6079  158.6113 H   0  0  0  0  0  0  0  0  0  0  0  0
  151.6787  144.9802  157.5239 H   0  0  0  0  0  0  0  0  0  0  0  0
  150.0546  143.3139  156.4636 H   0  0  0  0  0  0  0  0  0  0  0  0
  149.9936  141.3594  155.2843 H   0  0  0  0  0  0  0  0  0  0  0  0
  152.4574  141.3063  155.2949 H   0  0  0  0  0  0  0  0  0  0  0  0
  152.4741  140.6533  156.9185 H   0  0  0  0  0  0  0  0  0  0  0  0
  151.3534  139.2793  154.4309 H   0  0  0  0  0  0  0  0  0  0  0  0
  152.7934  138.8165  155.3067 H   0  0  0  0  0  0  0  0  0  0  0  0
  150.8213  137.3732  155.8734 H   0  0  0  0  0  0  0  0  0  0  0  0
  151.4546  138.1956  157.2909 H   0  0  0  0  0  0  0  0  0  0  0  0
  145.6207  137.1902  156.2680 H   0  0  0  0  0  0  0  0  0  0  0  0
  149.8292  136.2825  161.0561 H   0  0  0  0  0  0  0  0  0  0  0  0
  146.5437  134.6452  160.0344 H   0  0  0  0  0  0  0  0  0  0  0  0
  147.9191  134.3782  161.0781 H   0  0  0  0  0  0  0  0  0  0  0  0
  147.0296  137.1839  163.1515 H   0  0  0  0  0  0  0  0  0  0  0  0
  145.9332  137.8770  161.2413 H   0  0  0  0  0  0  0  0  0  0  0  0
  145.0125  136.5799  160.4828 H   0  0  0  0  0  0  0  0  0  0  0  0
  144.8107  137.4257  163.4001 H   0  0  0  0  0  0  0  0  0  0  0  0
  143.4998  137.3113  162.2139 H   0  0  0  0  0  0  0  0  0  0  0  0
  146.0304  134.9056  163.7958 H   0  0  0  0  0  0  0  0  0  0  0  0
  146.4192  132.9326  162.2822 H   0  0  0  0  0  0  0  0  0  0  0  0
  145.0020  133.3962  161.3336 H   0  0  0  0  0  0  0  0  0  0  0  0
  144.8215  132.9086  163.0113 H   0  0  0  0  0  0  0  0  0  0  0  0
  150.1347  140.2587  158.1382 H   0  0  0  0  0  0  0  0  0  0  0  0
  148.6813  140.7171  157.2866 H   0  0  0  0  0  0  0  0  0  0  0  0
  1  2  1  0  0  0  0
  1 29  1  0  0  0  0
  1 30  1  0  0  0  0
  1 31  1  0  0  0  0
  2  3  1  0  0  0  0
  2 32  1  0  0  0  0
  2 33  1  0  0  0  0
  3  4  2  0  0  0  0
  3  5  1  0  0  0  0
  5  6  1  0  0  0  0
  5 34  1  0  0  0  0
  6 28  1  0  0  0  0
  6  7  1  0  0  0  0
  6 35  1  0  0  0  0
  7  8  1  0  0  0  0
  7 36  1  0  0  0  0
  7 37  1  0  0  0  0
  8  9  1  0  0  0  0
  8 38  1  0  0  0  0
  8 39  1  0  0  0  0
  9 10  1  0  0  0  0
  9 40  1  0  0  0  0
  9 41  1  0  0  0  0
 10 11  1  0  0  0  0
 10 28  1  0  0  0  0
 11 16  1  0  0  0  0
 11 12  2  0  0  0  0
 12 13  1  0  0  0  0
 13 14  2  0  0  0  0
 13 42  1  0  0  0  0
 14 15  1  0  0  0  0
 15 19  1  0  0  0  0
 15 16  2  0  0  0  0
 16 17  1  0  0  0  0
 17 18  2  0  0  0  0
 18 19  1  0  0  0  0
 18 43  1  0  0  0  0
 19 20  1  0  0  0  0
 20 21  1  0  0  0  0
 20 44  1  0  0  0  0
 20 45  1  0  0  0  0
 21 26  1  0  0  0  0
 21 22  1  0  0  0  0
 21 23  1  0  0  0  0
 22 46  1  0  0  0  0
 23 24  1  0  0  0  0
 23 47  1  0  0  0  0
 23 48  1  0  0  0  0
 24 25  1  0  0  0  0
 24 49  1  0  0  0  0
 24 50  1  0  0  0  0
 25 26  1  0  0  0  0
 26 27  1  0  0  0  0
 26 51  1  0  0  0  0
 27 52  1  0  0  0  0
 27 53  1  0  0  0  0
 27 54  1  0  0  0  0
 28 55  1  0  0  0  0
 28 56  1  0  0  0  0
M  END
> <s_m_source_file>
AV-unprocessed.smi

> <i_m_source_file_index>
252

> <i_lp_mmshare_version>
43012

> <i_f3d_flags>
0

> <s_epik_input>
W0NIM11bQ0gyXUMoPU8pW05IXVtDQEBIXTFbQ0gyXVtDSDJdW0NIMl1OKFtDSDJdMSljKG5bY0hdbjIpYyhjMjMpbltjSF1uM1tDSDJdW0NAQF00KFtPSF0pW0NIMl1bQ0gyXU9bQ0BIXTRbQ0gzXQ==

> <s_epik_cmdline>
J2VwaWtfcHl0aG9uJywgJy1waCcsICc3LjAnLCAnLXRuJywgJzgnLCAnLW1hJywgJzIwMCcsICctbWV0YWxfYmluZGluZycsICctaW1hZScsICc8aW5maWxlLm1hZT4nLCAnLW9tYWUnLCAnPG91dGZpbGUubWFlPic=

> <r_lp_tautomer_probability>
1

> <r_epik_Ionization_Penalty>
0.00182575

> <r_epik_Ionization_Penalty_Charging>
0

> <r_epik_Ionization_Penalty_Neutral>
0.00182575

> <r_epik_State_Penalty>
0.00104524

> <r_epik_Charging_Adjusted_Penalty>
0.00104524

> <i_epik_Tot_Q>
0

> <i_epik_Tot_abs_Q>
0

> <r_epik_Metal_State_Penalty>
-0

> <b_epik_Metal_Only>
0

> <s_lp_Force_Field>
OPLS_2005

> <r_lp_Energy>
35.3243

> <b_lp_Chiralities_Consistent>
1

> <s_lp_Variant>
AV-unprocessed.smi:252-2

> <Gold.Version>
5.8.1

> <Gold.Id.Protein>
6NUR|6NUR_protein|mol2

> <Gold.PLP.Fitness>
41.5166

> <Gold.PLP.PLP>
-39.7238

> <Gold.PLP.part.hbond>
-1.2073

> <Gold.PLP.part.metal>
0.0000

> <Gold.PLP.part.buried>
-6.5299

> <Gold.PLP.part.nonpolar>
-32.0101

> <Gold.PLP.part.repulsive>
0.0923

> <Gold.PLP.ligand.clash>
0.0000

> <Gold.PLP.ligand.torsion>
0.8104

> <Gold.PLP.Chemscore.Hbond>
1.0000

> <Gold.PLP.Chemscore.CHOScore>
0.0000

> <Gold.PLP.Chemscore.Metal>
0.0000

> <Gold.Chemscore.Hbonds>
donor molecule, donor type, donor heavy atom, donor atom, acceptor molecule, acceptor atom, score
      L1  H     5    34       P1  8028  1.00

> <Gold.PLP.Chemscore.Internal.Correction>
0.4137

> <Gold.Rescore>
     Score         DG    S(hbond)    S(metal)    S(lipo)     H(rot)  DE(clash)    DE(int)     intcor
     11.10     -12.96       1.00        0.00      94.55       2.70       0.13       1.73       ----

> <Gold.Chemscore.Fitness>
11.0992

> <Gold.Chemscore.DG>
-12.9632

> <Gold.Chemscore.ZeroCoef>
-5.4800

> <Gold.Chemscore.Hbond>
1.0009

> <Gold.Chemscore.Metal>
0.0000

> <Gold.Chemscore.Lipo>
94.5538

> <Gold.Chemscore.Internal_Hbond>
0.0000

> <Gold.Chemscore.DEClash>
0.1292

> <Gold.Chemscore.DEInternal>
1.7348

> <Gold.Chemscore.Rot>
2.7041

> <Gold.Chemscore.Internal.Correction>
   9.000000E+99

> <Gold.Chemscore.Hbonds>
donor molecule, donor type, donor heavy atom, donor atom, acceptor molecule, acceptor atom, score
      L1  H     5    34       P1  8028  0.97

> <Gold.Chemscore.Hbond.Weighted>
-3.3429

> <Gold.Chemscore.Metal.Weighted>
-0.0000

> <Gold.Chemscore.Lipo.Weighted>
-11.0628

> <Gold.Chemscore.Internal_Hbond.Weighted>
0.0000

> <Gold.Chemscore.DEClash.Weighted>
0.1292

> <Gold.Chemscore.DEInternal.Weighted>
1.7348

> <Gold.Chemscore.Rot.Weighted>
6.9225

> <Gold.Chemscore.Internal.Correction.Weighted>
   9.000000E+99

> <Gold.Protein.RotatedTorsions>
[ 6907 6896 6895 6894 ] final -131.39 input  -60.11 | X-H torsion
[ 7974 7965 7964 7962 ] final  100.96 input  175.53 | X-H torsion
[ 8008 7997 7996 7995 ] final  156.59 input   59.86 | X-H torsion
[ 10167 10162 10161 10158 ] final  -20.07 input  -65.29 | X-H torsion
[ 10718 10713 10712 10709 ] final   41.73 input   66.30 | X-H torsion
[ 10763 10752 10751 10750 ] final  124.01 input  -60.55 | X-H torsion
[ 11005 11000 10999 10996 ] final  -96.41 input  -57.11 | X-H torsion

> <Gold.Protein.ActiveResidues>
 VAL166  LYS551  ARG553  GLY616  TRP617  ASP618  TYR619  PRO620  LYS621  CYS622 
 ASP623  PHE694  ASN695  SER759  ASP760  ASP761  ALA762  ILE779  LEU786  VAL792 
 PHE793  MET794  SER795  GLU796  ALA797  LYS798  CYS799  TRP800  GLU811  SER814 

> <Gold.Protein.RotatedAtoms>
  150.9505  133.6555  159.2772 H   0  0  0  0  0  0  0  0  0  0  0  0  # atno 6907 bound_to 6896
  151.3913  135.0955  159.9536 H   0  0  0  0  0  0  0  0  0  0  0  0  # atno 6908 bound_to 6896
  152.5108  133.9018  159.7499 H   0  0  0  0  0  0  0  0  0  0  0  0  # atno 6909 bound_to 6896
  145.3786  139.2384  143.3416 H   0  0  0  0  0  0  0  0  0  0  0  0  # atno 7974 bound_to 7965
  156.2413  140.1908  156.6978 H   0  0  0  0  0  0  0  0  0  0  0  0  # atno 8008 bound_to 7997
  154.6204  140.0609  156.9634 H   0  0  0  0  0  0  0  0  0  0  0  0  # atno 8009 bound_to 7997
  155.1871  140.3281  155.4367 H   0  0  0  0  0  0  0  0  0  0  0  0  # atno 8010 bound_to 7997
  140.7273  143.4757  151.0185 H   0  0  0  0  0  0  0  0  0  0  0  0  # atno 10167 bound_to 10162
  157.3969  130.7838  149.7316 H   0  0  0  0  0  0  0  0  0  0  0  0  # atno 10718 bound_to 10713
  153.6546  135.3357  155.3110 H   0  0  0  0  0  0  0  0  0  0  0  0  # atno 10763 bound_to 10752
  154.8529  135.4349  154.1868 H   0  0  0  0  0  0  0  0  0  0  0  0  # atno 10764 bound_to 10752
  153.2819  135.7009  153.7452 H   0  0  0  0  0  0  0  0  0  0  0  0  # atno 10765 bound_to 10752
  141.1412  133.8096  157.0567 H   0  0  0  0  0  0  0  0  0  0  0  0  # atno 11005 bound_to 11000
  146.2852  140.4449  142.8760 LP  0  0  0  0  0  0  0  0  0  0  0  0  # atno 17320 bound_to 7965
  144.8524  140.7021  143.6160 LP  0  0  0  0  0  0  0  0  0  0  0  0  # atno 17321 bound_to 7965
  139.8452  143.7510  152.3179 LP  0  0  0  0  0  0  0  0  0  0  0  0  # atno 17342 bound_to 10162
  139.7673  144.7488  151.0275 LP  0  0  0  0  0  0  0  0  0  0  0  0  # atno 17343 bound_to 10162
  155.9813  130.4021  150.3481 LP  0  0  0  0  0  0  0  0  0  0  0  0  # atno 17370 bound_to 10713
  157.1604  131.0343  151.2844 LP  0  0  0  0  0  0  0  0  0  0  0  0  # atno 17371 bound_to 10713
  140.0597  134.9761  157.1283 LP  0  0  0  0  0  0  0  0  0  0  0  0  # atno 17394 bound_to 11000
  140.3866  134.2229  155.7168 LP  0  0  0  0  0  0  0  0  0  0  0  0  # atno 17395 bound_to 11000

$$$$
