AV-unprocessed.smi:2123|AV-procd|sdf|8647|dock3
  -GOLD-   2272011393D 1   1.00000     0.00000
 Structure written by MMmdl.
 47 48  0  0  0  0  0  0  0  0  1 V2000
  144.0267  132.4914  149.6201 C   0  0  0  0  0  0  0  0  0  0  0  0
  145.4422  132.9433  150.6559 S   0  0  0  0  0  0  0  0  0  0  0  0
  145.0604  134.6966  150.9382 C   0  0  0  0  0  0  0  0  0  0  0  0
  145.9446  135.3269  152.0309 C   0  0  0  0  0  0  0  0  0  0  0  0
  145.6792  136.8198  152.2614 C   0  0  0  0  0  0  0  0  0  0  0  0
  144.5711  137.2131  152.6262 O   0  0  0  0  0  0  0  0  0  0  0  0
  146.7139  137.6449  152.0374 N   0  0  0  0  0  0  0  0  0  0  0  0
  146.6922  139.0981  152.1817 C   0  0  0  0  0  0  0  0  0  0  0  0
  147.5524  139.6160  153.3252 C   0  0  0  0  0  0  0  0  0  0  0  0
  147.6389  140.9897  153.6334 C   0  0  0  0  0  0  0  0  0  0  0  0
  148.4469  141.4005  154.7104 C   0  0  0  0  0  0  0  0  0  0  0  0
  149.1520  140.4269  155.4572 C   0  0  0  0  0  0  0  0  0  0  0  0
  149.9740  140.8161  156.5378 N   0  0  0  0  0  0  0  0  0  0  0  0
  150.9404  139.8458  157.0484 C   0  0  0  0  0  0  0  0  0  0  0  0
  151.5261  140.3208  158.3912 C   0  0  1  0  0  0  0  0  0  0  0  0
  152.6345  139.3908  158.8956 C   0  0  0  0  0  0  0  0  0  0  0  0
  152.0763  141.6250  158.2275 O   0  0  0  0  0  0  0  0  0  0  0  0
  151.0968  142.5839  157.8386 C   0  0  1  0  0  0  0  0  0  0  0  0
  151.7664  143.9609  157.7851 C   0  0  0  0  0  0  0  0  0  0  0  0
  150.5019  142.1768  156.4773 C   0  0  0  0  0  0  0  0  0  0  0  0
  149.0542  139.1059  155.1664 N   0  0  0  0  0  0  0  0  0  0  0  0
  148.2766  138.7175  154.1342 C   0  0  0  0  0  0  0  0  0  0  0  0
  144.0852  131.4396  149.3408 H   0  0  0  0  0  0  0  0  0  0  0  0
  144.0135  133.0915  148.7104 H   0  0  0  0  0  0  0  0  0  0  0  0
  143.0933  132.6549  150.1592 H   0  0  0  0  0  0  0  0  0  0  0  0
  145.2158  135.2267  149.9983 H   0  0  0  0  0  0  0  0  0  0  0  0
  144.0023  134.8022  151.1823 H   0  0  0  0  0  0  0  0  0  0  0  0
  145.8319  134.7897  152.9732 H   0  0  0  0  0  0  0  0  0  0  0  0
  146.9888  135.2092  151.7370 H   0  0  0  0  0  0  0  0  0  0  0  0
  147.5875  137.2337  151.7413 H   0  0  0  0  0  0  0  0  0  0  0  0
  147.0022  139.5894  151.2581 H   0  0  0  0  0  0  0  0  0  0  0  0
  145.6562  139.3951  152.3483 H   0  0  0  0  0  0  0  0  0  0  0  0
  147.0921  141.7254  153.0634 H   0  0  0  0  0  0  0  0  0  0  0  0
  148.5022  142.4499  154.9577 H   0  0  0  0  0  0  0  0  0  0  0  0
  150.4612  138.8758  157.1876 H   0  0  0  0  0  0  0  0  0  0  0  0
  151.7374  139.7139  156.3151 H   0  0  0  0  0  0  0  0  0  0  0  0
  150.7362  140.3580  159.1435 H   0  0  0  0  0  0  0  0  0  0  0  0
  152.2582  138.3791  159.0488 H   0  0  0  0  0  0  0  0  0  0  0  0
  153.0369  139.7433  159.8457 H   0  0  0  0  0  0  0  0  0  0  0  0
  153.4590  139.3371  158.1840 H   0  0  0  0  0  0  0  0  0  0  0  0
  150.3061  142.6134  158.5906 H   0  0  0  0  0  0  0  0  0  0  0  0
  151.0524  144.7339  157.5000 H   0  0  0  0  0  0  0  0  0  0  0  0
  152.5824  143.9750  157.0620 H   0  0  0  0  0  0  0  0  0  0  0  0
  152.1782  144.2315  158.7576 H   0  0  0  0  0  0  0  0  0  0  0  0
  151.2697  142.2190  155.7035 H   0  0  0  0  0  0  0  0  0  0  0  0
  149.7334  142.8960  156.1982 H   0  0  0  0  0  0  0  0  0  0  0  0
  148.2359  137.6543  153.9484 H   0  0  0  0  0  0  0  0  0  0  0  0
  1  2  1  0  0  0  0
  1 23  1  0  0  0  0
  1 24  1  0  0  0  0
  1 25  1  0  0  0  0
  2  3  1  0  0  0  0
  3  4  1  0  0  0  0
  3 26  1  0  0  0  0
  3 27  1  0  0  0  0
  4  5  1  0  0  0  0
  4 28  1  0  0  0  0
  4 29  1  0  0  0  0
  5  6  2  0  0  0  0
  5  7  1  0  0  0  0
  7  8  1  0  0  0  0
  7 30  1  0  0  0  0
  8  9  1  0  0  0  0
  8 31  1  0  0  0  0
  8 32  1  0  0  0  0
  9 22  1  0  0  0  0
  9 10  2  0  0  0  0
 10 11  1  0  0  0  0
 10 33  1  0  0  0  0
 11 12  2  0  0  0  0
 11 34  1  0  0  0  0
 12 13  1  0  0  0  0
 12 21  1  0  0  0  0
 13 20  1  0  0  0  0
 13 14  1  0  0  0  0
 14 15  1  0  0  0  0
 14 35  1  0  0  0  0
 14 36  1  0  0  0  0
 15 16  1  0  0  0  0
 15 17  1  0  0  0  0
 15 37  1  0  0  0  0
 16 38  1  0  0  0  0
 16 39  1  0  0  0  0
 16 40  1  0  0  0  0
 17 18  1  0  0  0  0
 18 19  1  0  0  0  0
 18 20  1  0  0  0  0
 18 41  1  0  0  0  0
 19 42  1  0  0  0  0
 19 43  1  0  0  0  0
 19 44  1  0  0  0  0
 20 45  1  0  0  0  0
 20 46  1  0  0  0  0
 21 22  2  0  0  0  0
 22 47  1  0  0  0  0
M  END
> <s_m_source_file>
AV-unprocessed.smi

> <i_m_source_file_index>
2123

> <i_lp_mmshare_version>
43012

> <i_f3d_flags>
0

> <s_epik_input>
W0NIM11TW0NIMl1bQ0gyXUMoPU8pW05IXVtDSDJdYzFbY0hdW2NIXWMobltjSF0xKU4yW0NIMl1bQ0BASF0oW0NIM10pT1tDQEBIXShbQ0gzXSlbQ0gyXTI=

> <s_epik_cmdline>
J2VwaWtfcHl0aG9uJywgJy1waCcsICc3LjAnLCAnLXRuJywgJzgnLCAnLW1hJywgJzIwMCcsICctbWV0YWxfYmluZGluZycsICctaW1hZScsICc8aW5maWxlLm1hZT4nLCAnLW9tYWUnLCAnPG91dGZpbGUubWFlPic=

> <r_lp_tautomer_probability>
1

> <r_epik_Ionization_Penalty>
0.00642497

> <r_epik_Ionization_Penalty_Charging>
0

> <r_epik_Ionization_Penalty_Neutral>
0.00642497

> <r_epik_State_Penalty>
0.0047515

> <r_epik_Charging_Adjusted_Penalty>
0.0047515

> <i_epik_Tot_Q>
0

> <i_epik_Tot_abs_Q>
0

> <r_epik_Metal_State_Penalty>
-0

> <b_epik_Metal_Only>
0

> <s_lp_Force_Field>
OPLS_2005

> <r_lp_Energy>
15.9329

> <b_lp_Chiralities_Consistent>
1

> <s_lp_Variant>
AV-unprocessed.smi:2123-1

> <Gold.Version>
5.8.1

> <Gold.Id.Protein>
6NUR|6NUR_protein|mol2

> <Gold.PLP.Fitness>
44.8198

> <Gold.PLP.PLP>
-39.6751

> <Gold.PLP.part.hbond>
-1.0000

> <Gold.PLP.part.metal>
0.0000

> <Gold.PLP.part.buried>
-1.7485

> <Gold.PLP.part.nonpolar>
-37.9193

> <Gold.PLP.part.repulsive>
0.5674

> <Gold.PLP.ligand.clash>
0.0000

> <Gold.PLP.ligand.torsion>
0.6200

> <Gold.PLP.Chemscore.Hbond>
1.0000

> <Gold.PLP.Chemscore.CHOScore>
1.0000

> <Gold.PLP.Chemscore.Metal>
0.0000

> <Gold.Chemscore.Hbonds>
donor molecule, donor type, donor heavy atom, donor atom, acceptor molecule, acceptor atom, score
      L1  H     7    30       P1  7948  1.00
      L1  C    22    47       P1  7948  0.78

> <Gold.PLP.Chemscore.Internal.Correction>
0.3847

> <Gold.Rescore>
     Score         DG    S(hbond)    S(metal)    S(lipo)     H(rot)  DE(clash)    DE(int)     intcor
     15.38     -16.53       1.00        0.00     103.19       1.70       0.22       0.93       ----

> <Gold.Chemscore.Fitness>
15.3795

> <Gold.Chemscore.DG>
-16.5252

> <Gold.Chemscore.ZeroCoef>
-5.4800

> <Gold.Chemscore.Hbond>
0.9991

> <Gold.Chemscore.Metal>
0.0000

> <Gold.Chemscore.Lipo>
103.1875

> <Gold.Chemscore.Internal_Hbond>
0.0000

> <Gold.Chemscore.DEClash>
0.2155

> <Gold.Chemscore.DEInternal>
0.9301

> <Gold.Chemscore.Rot>
1.7049

> <Gold.Chemscore.Internal.Correction>
   9.000000E+99

> <Gold.Chemscore.Hbonds>
donor molecule, donor type, donor heavy atom, donor atom, acceptor molecule, acceptor atom, score
      L1  H     7    30       P1  7948  0.99

> <Gold.Chemscore.Hbond.Weighted>
-3.3369

> <Gold.Chemscore.Metal.Weighted>
-0.0000

> <Gold.Chemscore.Lipo.Weighted>
-12.0729

> <Gold.Chemscore.Internal_Hbond.Weighted>
0.0000

> <Gold.Chemscore.DEClash.Weighted>
0.2155

> <Gold.Chemscore.DEInternal.Weighted>
0.9301

> <Gold.Chemscore.Rot.Weighted>
4.3647

> <Gold.Chemscore.Internal.Correction.Weighted>
   9.000000E+99

> <Gold.Protein.RotatedTorsions>
[ 6907 6896 6895 6894 ] final   84.30 input  -60.11 | X-H torsion
[ 7974 7965 7964 7962 ] final  134.27 input  175.53 | X-H torsion
[ 8008 7997 7996 7995 ] final  163.75 input   59.86 | X-H torsion
[ 10167 10162 10161 10158 ] final -172.41 input  -65.29 | X-H torsion
[ 10718 10713 10712 10709 ] final -115.25 input   66.30 | X-H torsion
[ 10763 10752 10751 10750 ] final -170.55 input  -60.55 | X-H torsion
[ 11005 11000 10999 10996 ] final  109.82 input  -57.11 | X-H torsion

> <Gold.Protein.ActiveResidues>
 VAL166  LYS551  ARG553  GLY616  TRP617  ASP618  TYR619  PRO620  LYS621  CYS622 
 ASP623  PHE694  ASN695  SER759  ASP760  ASP761  ALA762  ILE779  LEU786  VAL792 
 PHE793  MET794  SER795  GLU796  ALA797  LYS798  CYS799  TRP800  GLU811  SER814 

> <Gold.Protein.RotatedAtoms>
  152.5349  134.2762  159.8989 H   0  0  0  0  0  0  0  0  0  0  0  0  # atno 6907 bound_to 6896
  151.2717  133.4245  159.2629 H   0  0  0  0  0  0  0  0  0  0  0  0  # atno 6908 bound_to 6896
  151.0362  134.9589  159.8194 H   0  0  0  0  0  0  0  0  0  0  0  0  # atno 6909 bound_to 6896
  144.9780  139.4534  143.5400 H   0  0  0  0  0  0  0  0  0  0  0  0  # atno 7974 bound_to 7965
  156.1933  140.1715  156.8048 H   0  0  0  0  0  0  0  0  0  0  0  0  # atno 8008 bound_to 7997
  154.5498  140.0720  156.8681 H   0  0  0  0  0  0  0  0  0  0  0  0  # atno 8009 bound_to 7997
  155.3050  140.3364  155.4248 H   0  0  0  0  0  0  0  0  0  0  0  0  # atno 8010 bound_to 7997
  139.5746  144.1562  152.1432 H   0  0  0  0  0  0  0  0  0  0  0  0  # atno 10167 bound_to 10162
  156.0883  130.6070  150.8881 H   0  0  0  0  0  0  0  0  0  0  0  0  # atno 10718 bound_to 10713
  154.6403  135.2898  155.0111 H   0  0  0  0  0  0  0  0  0  0  0  0  # atno 10763 bound_to 10752
  154.1240  135.6543  153.4912 H   0  0  0  0  0  0  0  0  0  0  0  0  # atno 10764 bound_to 10752
  153.0323  135.5294  154.7267 H   0  0  0  0  0  0  0  0  0  0  0  0  # atno 10765 bound_to 10752
  139.8869  134.9468  156.6184 H   0  0  0  0  0  0  0  0  0  0  0  0  # atno 11005 bound_to 11000
  146.3400  139.9035  142.8791 LP  0  0  0  0  0  0  0  0  0  0  0  0  # atno 17320 bound_to 7965
  145.2462  141.0027  143.3907 LP  0  0  0  0  0  0  0  0  0  0  0  0  # atno 17321 bound_to 7965
  140.1103  144.5463  150.6930 LP  0  0  0  0  0  0  0  0  0  0  0  0  # atno 17342 bound_to 10162
  140.7029  143.2447  151.4812 LP  0  0  0  0  0  0  0  0  0  0  0  0  # atno 17343 bound_to 10162
  157.6024  131.0940  150.8937 LP  0  0  0  0  0  0  0  0  0  0  0  0  # atno 17370 bound_to 10713
  156.9091  130.5274  149.5281 LP  0  0  0  0  0  0  0  0  0  0  0  0  # atno 17371 bound_to 10713
  140.7758  133.8701  155.8528 LP  0  0  0  0  0  0  0  0  0  0  0  0  # atno 17394 bound_to 11000
  140.9803  134.1414  157.4500 LP  0  0  0  0  0  0  0  0  0  0  0  0  # atno 17395 bound_to 11000

$$$$
