AV-unprocessed.smi:231|AV-procd|sdf|1765|dock2
  -GOLD-   2262020303D 1   1.00000     0.00000
 Structure written by MMmdl.
 50 53  0  0  0  0  0  0  0  0  1 V2000
  147.2599  141.8230  153.7798 C   0  0  0  0  0  0  0  0  0  0  0  0
  148.3116  140.7054  153.8656 C   0  0  0  0  0  0  0  0  0  0  0  0
  148.2179  139.9261  155.1087 N   0  0  0  0  0  0  0  0  0  0  0  0
  147.7329  138.6601  155.0227 C   0  0  0  0  0  0  0  0  0  0  0  0
  147.9383  137.7802  156.0385 N   0  0  0  0  0  0  0  0  0  0  0  0
  147.4449  136.5404  155.9649 C   0  0  0  0  0  0  0  0  0  0  0  0
  146.7275  135.9841  154.9866 N   0  0  0  0  0  0  0  0  0  0  0  0
  146.5185  136.8635  153.9653 C   0  0  0  0  0  0  0  0  0  0  0  0
  146.9857  138.2059  153.9010 C   0  0  0  0  0  0  0  0  0  0  0  0
  146.5965  138.7872  152.7003 N   0  0  0  0  0  0  0  0  0  0  0  0
  145.9373  137.8406  152.0890 C   0  0  0  0  0  0  0  0  0  0  0  0
  145.8202  136.6599  152.7888 N   0  0  0  0  0  0  0  0  0  0  0  0
  145.1789  135.4525  152.3575 C   0  0  0  0  0  0  0  0  0  0  0  0
  145.9072  134.1038  152.3594 C   0  0  0  0  0  0  0  0  0  0  0  0
  145.1028  133.6831  151.1073 C   0  0  0  0  0  0  0  0  0  0  0  0
  145.8689  132.8881  150.0314 C   0  0  0  0  0  0  0  0  0  0  0  0
  145.1365  132.7535  148.8296 O   0  0  0  0  0  0  0  0  0  0  0  0
  143.8126  132.9010  151.4196 C   0  0  0  0  0  0  0  0  0  0  0  0
  143.0763  132.6215  150.2459 O   0  0  0  0  0  0  0  0  0  0  0  0
  144.9163  135.1998  150.8703 C   0  0  0  0  0  0  0  0  0  0  0  0
  149.2173  140.1026  156.1745 C   0  0  2  0  0  0  0  0  0  0  0  0
  148.8587  141.2451  157.1404 C   0  0  0  0  0  0  0  0  0  0  0  0
  150.2079  141.8757  157.5199 C   0  0  0  0  0  0  0  0  0  0  0  0
  151.1186  141.4458  156.4748 N   0  0  0  0  0  0  0  0  0  0  0  0
  150.6143  140.4885  155.6974 C   0  0  0  0  0  0  0  0  0  0  0  0
  151.1848  139.9635  154.7432 O   0  0  0  0  0  0  0  0  0  0  0  0
  147.3925  142.4067  152.8687 H   0  0  0  0  0  0  0  0  0  0  0  0
  147.3457  142.5060  154.6255 H   0  0  0  0  0  0  0  0  0  0  0  0
  146.2436  141.4291  153.7696 H   0  0  0  0  0  0  0  0  0  0  0  0
  148.2216  140.0460  153.0014 H   0  0  0  0  0  0  0  0  0  0  0  0
  149.3006  141.1551  153.7834 H   0  0  0  0  0  0  0  0  0  0  0  0
  147.6516  135.9048  156.8132 H   0  0  0  0  0  0  0  0  0  0  0  0
  145.5124  137.9848  151.1065 H   0  0  0  0  0  0  0  0  0  0  0  0
  144.2505  135.3879  152.9276 H   0  0  0  0  0  0  0  0  0  0  0  0
  146.9779  134.2086  152.1777 H   0  0  0  0  0  0  0  0  0  0  0  0
  145.7243  133.4967  153.2465 H   0  0  0  0  0  0  0  0  0  0  0  0
  146.8164  133.3725  149.7924 H   0  0  0  0  0  0  0  0  0  0  0  0
  146.1086  131.8837  150.3815 H   0  0  0  0  0  0  0  0  0  0  0  0
  145.4209  133.4242  148.2279 H   0  0  0  0  0  0  0  0  0  0  0  0
  144.0364  131.9607  151.9243 H   0  0  0  0  0  0  0  0  0  0  0  0
  143.1626  133.4601  152.0930 H   0  0  0  0  0  0  0  0  0  0  0  0
  142.5335  133.3688  150.0458 H   0  0  0  0  0  0  0  0  0  0  0  0
  143.9228  135.4981  150.5342 H   0  0  0  0  0  0  0  0  0  0  0  0
  145.6865  135.6413  150.2357 H   0  0  0  0  0  0  0  0  0  0  0  0
  149.3459  139.1890  156.7577 H   0  0  0  0  0  0  0  0  0  0  0  0
  148.2275  141.9958  156.6646 H   0  0  0  0  0  0  0  0  0  0  0  0
  148.3183  140.8830  158.0155 H   0  0  0  0  0  0  0  0  0  0  0  0
  150.1511  142.9631  157.5759 H   0  0  0  0  0  0  0  0  0  0  0  0
  150.5624  141.4983  158.4798 H   0  0  0  0  0  0  0  0  0  0  0  0
  152.0348  141.8517  156.3496 H   0  0  0  0  0  0  0  0  0  0  0  0
  1  2  1  0  0  0  0
  1 27  1  0  0  0  0
  1 28  1  0  0  0  0
  1 29  1  0  0  0  0
  2  3  1  0  0  0  0
  2 30  1  0  0  0  0
  2 31  1  0  0  0  0
  3  4  1  0  0  0  0
  3 21  1  0  0  0  0
  4  9  1  0  0  0  0
  4  5  2  0  0  0  0
  5  6  1  0  0  0  0
  6  7  2  0  0  0  0
  6 32  1  0  0  0  0
  7  8  1  0  0  0  0
  8 12  1  0  0  0  0
  8  9  2  0  0  0  0
  9 10  1  0  0  0  0
 10 11  2  0  0  0  0
 11 12  1  0  0  0  0
 11 33  1  0  0  0  0
 12 13  1  0  0  0  0
 13 20  1  0  0  0  0
 13 14  1  0  0  0  0
 13 34  1  0  0  0  0
 14 15  1  0  0  0  0
 14 35  1  0  0  0  0
 14 36  1  0  0  0  0
 15 16  1  0  0  0  0
 15 18  1  0  0  0  0
 15 20  1  0  0  0  0
 16 17  1  0  0  0  0
 16 37  1  0  0  0  0
 16 38  1  0  0  0  0
 17 39  1  0  0  0  0
 18 19  1  0  0  0  0
 18 40  1  0  0  0  0
 18 41  1  0  0  0  0
 19 42  1  0  0  0  0
 20 43  1  0  0  0  0
 20 44  1  0  0  0  0
 21 25  1  0  0  0  0
 21 22  1  0  0  0  0
 21 45  1  0  0  0  0
 22 23  1  0  0  0  0
 22 46  1  0  0  0  0
 22 47  1  0  0  0  0
 23 24  1  0  0  0  0
 23 48  1  0  0  0  0
 23 49  1  0  0  0  0
 24 25  1  0  0  0  0
 24 50  1  0  0  0  0
 25 26  2  0  0  0  0
M  END
> <s_m_source_file>
AV-unprocessed.smi

> <i_m_source_file_index>
231

> <i_lp_mmshare_version>
43012

> <i_f3d_flags>
0

> <s_epik_input>
Tz1DMVtOSF1bQ0gyXVtDSDJdW0NASF0xTihbQ0gyXVtDSDNdKWMobltjSF1uMiljKGMyMyluW2NIXW4zW0NIXShbQ0gyXTQpW0NIMl1DNChbQ0gyXVtPSF0pW0NIMl1bT0hd

> <s_epik_cmdline>
J2VwaWtfcHl0aG9uJywgJy1waCcsICc3LjAnLCAnLXRuJywgJzgnLCAnLW1hJywgJzIwMCcsICctbWV0YWxfYmluZGluZycsICctaW1hZScsICc8aW5maWxlLm1hZT4nLCAnLW9tYWUnLCAnPG91dGZpbGUubWFlPic=

> <r_lp_tautomer_probability>
1

> <r_epik_Ionization_Penalty>
0.000842899

> <r_epik_Ionization_Penalty_Charging>
0

> <r_epik_Ionization_Penalty_Neutral>
0.000842899

> <r_epik_State_Penalty>
0.000441286

> <r_epik_Charging_Adjusted_Penalty>
0.000441286

> <i_epik_Tot_Q>
0

> <i_epik_Tot_abs_Q>
0

> <r_epik_Metal_State_Penalty>
-0

> <b_epik_Metal_Only>
0

> <s_lp_Force_Field>
OPLS_2005

> <r_lp_Energy>
47.8415

> <b_lp_Chiralities_Consistent>
1

> <s_lp_Variant>
AV-unprocessed.smi:231-1

> <Gold.Version>
5.8.1

> <Gold.Id.Protein>
6NUR|6NUR_protein|mol2

> <Gold.PLP.Fitness>
45.8963

> <Gold.PLP.PLP>
-34.5981

> <Gold.PLP.part.hbond>
-4.6746

> <Gold.PLP.part.metal>
0.0000

> <Gold.PLP.part.buried>
-3.7622

> <Gold.PLP.part.nonpolar>
-26.3835

> <Gold.PLP.part.repulsive>
0.5826

> <Gold.PLP.ligand.clash>
0.0000

> <Gold.PLP.ligand.torsion>
1.1748

> <Gold.PLP.Chemscore.Hbond>
3.0000

> <Gold.PLP.Chemscore.CHOScore>
1.0000

> <Gold.PLP.Chemscore.Metal>
0.0000

> <Gold.Chemscore.Hbonds>
donor molecule, donor type, donor heavy atom, donor atom, acceptor molecule, acceptor atom, score
      L1  H    17    39       P1  7921  0.90
      L1  H    19    42       P1 10186  1.00
      P1  H  7989  7998       L1    26  1.00
      L1  C    11    33       P1 10171  1.00

> <Gold.PLP.Chemscore.Internal.Correction>
1.6477

> <Gold.Rescore>
     Score         DG    S(hbond)    S(metal)    S(lipo)     H(rot)  DE(clash)    DE(int)     intcor
      9.11     -13.06       2.84        0.00      63.06       3.63       0.49       3.47       ----

> <Gold.Chemscore.Fitness>
9.1126

> <Gold.Chemscore.DG>
-13.0635

> <Gold.Chemscore.ZeroCoef>
-5.4800

> <Gold.Chemscore.Hbond>
2.8412

> <Gold.Chemscore.Metal>
0.0000

> <Gold.Chemscore.Lipo>
63.0559

> <Gold.Chemscore.Internal_Hbond>
0.0000

> <Gold.Chemscore.DEClash>
0.4855

> <Gold.Chemscore.DEInternal>
3.4654

> <Gold.Chemscore.Rot>
3.6264

> <Gold.Chemscore.Internal.Correction>
   9.000000E+99

> <Gold.Chemscore.Hbonds>
donor molecule, donor type, donor heavy atom, donor atom, acceptor molecule, acceptor atom, score
      L1  H    17    39       P1  7921  0.18
      L1  H    19    42       P1 10186  0.99
      P1  H  7989  7998       L1    26  0.96

> <Gold.Chemscore.Hbond.Weighted>
-9.4895

> <Gold.Chemscore.Metal.Weighted>
-0.0000

> <Gold.Chemscore.Lipo.Weighted>
-7.3775

> <Gold.Chemscore.Internal_Hbond.Weighted>
0.0000

> <Gold.Chemscore.DEClash.Weighted>
0.4855

> <Gold.Chemscore.DEInternal.Weighted>
3.4654

> <Gold.Chemscore.Rot.Weighted>
9.2835

> <Gold.Chemscore.Internal.Correction.Weighted>
   9.000000E+99

> <Gold.Protein.RotatedTorsions>
[ 6907 6896 6895 6894 ] final   75.33 input  -60.11 | X-H torsion
[ 7974 7965 7964 7962 ] final -175.75 input  175.53 | X-H torsion
[ 8008 7997 7996 7995 ] final  -52.03 input   59.86 | X-H torsion
[ 10167 10162 10161 10158 ] final   -6.55 input  -65.29 | X-H torsion
[ 10718 10713 10712 10709 ] final -165.00 input   66.30 | X-H torsion
[ 10763 10752 10751 10750 ] final  -92.55 input  -60.55 | X-H torsion
[ 11005 11000 10999 10996 ] final  160.30 input  -57.11 | X-H torsion

> <Gold.Protein.ActiveResidues>
 VAL166  LYS551  ARG553  GLY616  TRP617  ASP618  TYR619  PRO620  LYS621  CYS622 
 ASP623  PHE694  ASN695  SER759  ASP760  ASP761  ALA762  ILE779  LEU786  VAL792 
 PHE793  MET794  SER795  GLU796  ALA797  LYS798  CYS799  TRP800  GLU811  SER814 

> <Gold.Protein.RotatedAtoms>
  152.5020  134.4137  159.9456 H   0  0  0  0  0  0  0  0  0  0  0  0  # atno 6907 bound_to 6896
  151.4106  133.3722  159.2751 H   0  0  0  0  0  0  0  0  0  0  0  0  # atno 6908 bound_to 6896
  150.9294  134.8732  159.7601 H   0  0  0  0  0  0  0  0  0  0  0  0  # atno 6909 bound_to 6896
  144.7127  140.1273  143.6401 H   0  0  0  0  0  0  0  0  0  0  0  0  # atno 7974 bound_to 7965
  154.4097  140.1233  156.4925 H   0  0  0  0  0  0  0  0  0  0  0  0  # atno 8008 bound_to 7997
  155.6976  140.3495  155.4900 H   0  0  0  0  0  0  0  0  0  0  0  0  # atno 8009 bound_to 7997
  155.9414  140.1088  157.1042 H   0  0  0  0  0  0  0  0  0  0  0  0  # atno 8010 bound_to 7997
  140.7000  143.6182  150.8638 H   0  0  0  0  0  0  0  0  0  0  0  0  # atno 10167 bound_to 10162
  156.6471  130.8992  151.3006 H   0  0  0  0  0  0  0  0  0  0  0  0  # atno 10718 bound_to 10713
  154.6872  135.5227  153.8342 H   0  0  0  0  0  0  0  0  0  0  0  0  # atno 10763 bound_to 10752
  153.0606  135.6567  154.0482 H   0  0  0  0  0  0  0  0  0  0  0  0  # atno 10764 bound_to 10752
  154.0361  135.2981  155.3341 H   0  0  0  0  0  0  0  0  0  0  0  0  # atno 10765 bound_to 10752
  140.2046  134.8312  157.3055 H   0  0  0  0  0  0  0  0  0  0  0  0  # atno 11005 bound_to 11000
  145.9318  139.2611  143.1321 LP  0  0  0  0  0  0  0  0  0  0  0  0  # atno 17320 bound_to 7965
  145.9515  140.8905  143.0257 LP  0  0  0  0  0  0  0  0  0  0  0  0  # atno 17321 bound_to 7965
  139.9903  143.5854  152.2912 LP  0  0  0  0  0  0  0  0  0  0  0  0  # atno 17342 bound_to 10162
  139.6507  144.7660  151.2154 LP  0  0  0  0  0  0  0  0  0  0  0  0  # atno 17343 bound_to 10162
  157.7152  130.9489  150.1231 LP  0  0  0  0  0  0  0  0  0  0  0  0  # atno 17370 bound_to 10713
  156.2113  130.3667  149.8667 LP  0  0  0  0  0  0  0  0  0  0  0  0  # atno 17371 bound_to 10713
  140.2017  134.4247  155.7659 LP  0  0  0  0  0  0  0  0  0  0  0  0  # atno 17394 bound_to 11000
  141.2227  133.7075  156.8194 LP  0  0  0  0  0  0  0  0  0  0  0  0  # atno 17395 bound_to 11000

$$$$
