AV-unprocessed.smi:2856|AV-procd|sdf|10993|dock10
  -GOLD-   2272015443D 1   1.00000     0.00000
 Structure written by MMmdl.
 37 38  0  0  0  0  0  0  0  0  1 V2000
  143.7487  135.7710  151.8835 C   0  0  0  0  0  0  0  0  0  0  0  0
  145.2789  135.8601  150.9141 S   0  0  0  0  0  0  0  0  0  0  0  0
  145.7571  134.1035  150.8400 C   0  0  2  0  0  0  0  0  0  0  0  0
  144.6164  133.2912  150.1978 C   0  0  0  0  0  0  0  0  0  0  0  0
  144.9383  131.7910  150.1436 C   0  0  0  0  0  0  0  0  0  0  0  0
  145.2535  131.2493  151.5438 C   0  0  0  0  0  0  0  0  0  0  0  0
  146.4072  132.0318  152.1872 C   0  0  0  0  0  0  0  0  0  0  0  0
  146.1173  133.5464  152.2400 C   0  0  1  0  0  0  0  0  0  0  0  0
  147.2882  134.2370  152.7755 N   0  0  0  0  0  0  0  0  0  0  0  0
  147.8327  134.0293  153.9827 C   0  0  0  0  0  0  0  0  0  0  0  0
  147.4183  133.1911  154.7838 O   0  0  0  0  0  0  0  0  0  0  0  0
  148.8754  134.8508  154.1914 N   0  0  0  0  0  0  0  0  0  0  0  0
  149.6779  134.9508  155.3562 C   0  0  0  0  0  0  0  0  0  0  0  0
  150.6761  135.9549  155.4691 C   0  0  0  0  0  0  0  0  0  0  0  0
  151.2093  135.7210  156.7053 C   0  0  0  0  0  0  0  0  0  0  0  0
  152.2946  136.3818  157.4838 C   0  0  0  0  0  0  0  0  0  0  0  0
  150.5887  134.6645  157.2970 O   0  0  0  0  0  0  0  0  0  0  0  0
  149.6073  134.1751  156.4270 N   0  0  0  0  0  0  0  0  0  0  0  0
  143.3498  136.7730  152.0403 H   0  0  0  0  0  0  0  0  0  0  0  0
  143.9399  135.3211  152.8575 H   0  0  0  0  0  0  0  0  0  0  0  0
  142.9920  135.1805  151.3680 H   0  0  0  0  0  0  0  0  0  0  0  0
  146.6280  134.0203  150.1882 H   0  0  0  0  0  0  0  0  0  0  0  0
  143.6958  133.4416  150.7634 H   0  0  0  0  0  0  0  0  0  0  0  0
  144.4207  133.6589  149.1901 H   0  0  0  0  0  0  0  0  0  0  0  0
  144.0972  131.2456  149.7148 H   0  0  0  0  0  0  0  0  0  0  0  0
  145.7884  131.6209  149.4820 H   0  0  0  0  0  0  0  0  0  0  0  0
  144.3660  131.3200  152.1738 H   0  0  0  0  0  0  0  0  0  0  0  0
  145.5088  130.1909  151.4853 H   0  0  0  0  0  0  0  0  0  0  0  0
  146.5890  131.6507  153.1928 H   0  0  0  0  0  0  0  0  0  0  0  0
  147.3216  131.8512  151.6201 H   0  0  0  0  0  0  0  0  0  0  0  0
  145.2592  133.7097  152.8950 H   0  0  0  0  0  0  0  0  0  0  0  0
  147.7025  134.9429  152.1849 H   0  0  0  0  0  0  0  0  0  0  0  0
  149.1134  135.4815  153.4405 H   0  0  0  0  0  0  0  0  0  0  0  0
  150.9575  136.7215  154.7625 H   0  0  0  0  0  0  0  0  0  0  0  0
  152.7256  137.2122  156.9241 H   0  0  0  0  0  0  0  0  0  0  0  0
  153.0937  135.6754  157.7089 H   0  0  0  0  0  0  0  0  0  0  0  0
  151.9113  136.7723  158.4266 H   0  0  0  0  0  0  0  0  0  0  0  0
  1  2  1  0  0  0  0
  1 19  1  0  0  0  0
  1 20  1  0  0  0  0
  1 21  1  0  0  0  0
  2  3  1  0  0  0  0
  3  8  1  0  0  0  0
  3  4  1  0  0  0  0
  3 22  1  0  0  0  0
  4  5  1  0  0  0  0
  4 23  1  0  0  0  0
  4 24  1  0  0  0  0
  5  6  1  0  0  0  0
  5 25  1  0  0  0  0
  5 26  1  0  0  0  0
  6  7  1  0  0  0  0
  6 27  1  0  0  0  0
  6 28  1  0  0  0  0
  7  8  1  0  0  0  0
  7 29  1  0  0  0  0
  7 30  1  0  0  0  0
  8  9  1  0  0  0  0
  8 31  1  0  0  0  0
  9 10  1  0  0  0  0
  9 32  1  0  0  0  0
 10 11  2  0  0  0  0
 10 12  1  0  0  0  0
 12 13  1  0  0  0  0
 12 33  1  0  0  0  0
 13 18  2  0  0  0  0
 13 14  1  0  0  0  0
 14 15  2  0  0  0  0
 14 34  1  0  0  0  0
 15 16  1  0  0  0  0
 15 17  1  0  0  0  0
 16 35  1  0  0  0  0
 16 36  1  0  0  0  0
 16 37  1  0  0  0  0
 17 18  1  0  0  0  0
M  END
> <s_m_source_file>
AV-unprocessed.smi

> <i_m_source_file_index>
2856

> <i_lp_mmshare_version>
43012

> <i_f3d_flags>
0

> <s_epik_input>
W0NIM11TW0NAQEhdMVtDSDJdW0NIMl1bQ0gyXVtDSDJdW0NASF0xW05IXUMoPU8pW05IXWMyW2NIXWMoW0NIM10pb24y

> <s_epik_cmdline>
J2VwaWtfcHl0aG9uJywgJy1waCcsICc3LjAnLCAnLXRuJywgJzgnLCAnLW1hJywgJzIwMCcsICctbWV0YWxfYmluZGluZycsICctaW1hZScsICc8aW5maWxlLm1hZT4nLCAnLW9tYWUnLCAnPG91dGZpbGUubWFlPic=

> <r_lp_tautomer_probability>
1

> <r_epik_Ionization_Penalty>
2.20874e-05

> <r_epik_Ionization_Penalty_Charging>
0

> <r_epik_Ionization_Penalty_Neutral>
2.20874e-05

> <r_epik_State_Penalty>
-0

> <r_epik_Charging_Adjusted_Penalty>
0

> <i_epik_Tot_Q>
0

> <i_epik_Tot_abs_Q>
0

> <r_epik_Metal_State_Penalty>
-0

> <b_epik_Metal_Only>
0

> <s_lp_Force_Field>
OPLS_2005

> <r_lp_Energy>
6.84472

> <b_lp_Chiralities_Consistent>
1

> <s_lp_Variant>
AV-unprocessed.smi:2856-1

> <Gold.Version>
5.8.1

> <Gold.Id.Protein>
6NUR|6NUR_protein|mol2

> <Gold.PLP.Fitness>
36.3703

> <Gold.PLP.PLP>
-29.2889

> <Gold.PLP.part.hbond>
-3.0000

> <Gold.PLP.part.metal>
0.0000

> <Gold.PLP.part.buried>
-4.3699

> <Gold.PLP.part.nonpolar>
-22.5435

> <Gold.PLP.part.repulsive>
0.0279

> <Gold.PLP.ligand.clash>
0.0000

> <Gold.PLP.ligand.torsion>
0.0188

> <Gold.PLP.Chemscore.Hbond>
2.3708

> <Gold.PLP.Chemscore.CHOScore>
0.0000

> <Gold.PLP.Chemscore.Metal>
0.0000

> <Gold.Chemscore.Hbonds>
donor molecule, donor type, donor heavy atom, donor atom, acceptor molecule, acceptor atom, score
      L1  H     9    32       P1  7948  1.00
      L1  H    12    33       P1  7948  1.00
      P1  H  6896  6908       L1    17  0.43

> <Gold.PLP.Chemscore.Internal.Correction>
0.0068

> <Gold.Rescore>
     Score         DG    S(hbond)    S(metal)    S(lipo)     H(rot)  DE(clash)    DE(int)     intcor
     16.77     -19.09       2.59        0.00      68.87       1.21       0.03       2.29       ----

> <Gold.Chemscore.Fitness>
16.7690

> <Gold.Chemscore.DG>
-19.0897

> <Gold.Chemscore.ZeroCoef>
-5.4800

> <Gold.Chemscore.Hbond>
2.5904

> <Gold.Chemscore.Metal>
0.0000

> <Gold.Chemscore.Lipo>
68.8684

> <Gold.Chemscore.Internal_Hbond>
0.0000

> <Gold.Chemscore.DEClash>
0.0318

> <Gold.Chemscore.DEInternal>
2.2888

> <Gold.Chemscore.Rot>
1.2109

> <Gold.Chemscore.Internal.Correction>
   9.000000E+99

> <Gold.Chemscore.Hbonds>
donor molecule, donor type, donor heavy atom, donor atom, acceptor molecule, acceptor atom, score
      L1  H     9    32       P1  7948  0.82
      L1  H    12    33       P1  7948  0.55
      P1  H  6896  6908       L1    17  0.41

> <Gold.Chemscore.Hbond.Weighted>
-8.6521

> <Gold.Chemscore.Metal.Weighted>
-0.0000

> <Gold.Chemscore.Lipo.Weighted>
-8.0576

> <Gold.Chemscore.Internal_Hbond.Weighted>
0.0000

> <Gold.Chemscore.DEClash.Weighted>
0.0318

> <Gold.Chemscore.DEInternal.Weighted>
2.2888

> <Gold.Chemscore.Rot.Weighted>
3.1000

> <Gold.Chemscore.Internal.Correction.Weighted>
   9.000000E+99

> <Gold.Protein.RotatedTorsions>
[ 6907 6896 6895 6894 ] final  133.47 input  -60.11 | X-H torsion
[ 7974 7965 7964 7962 ] final  -75.58 input  175.53 | X-H torsion
[ 8008 7997 7996 7995 ] final  -11.78 input   59.86 | X-H torsion
[ 10167 10162 10161 10158 ] final  171.14 input  -65.29 | X-H torsion
[ 10718 10713 10712 10709 ] final   90.07 input   66.30 | X-H torsion
[ 10763 10752 10751 10750 ] final  -78.05 input  -60.55 | X-H torsion
[ 11005 11000 10999 10996 ] final   58.80 input  -57.11 | X-H torsion

> <Gold.Protein.ActiveResidues>
 VAL166  LYS551  ARG553  GLY616  TRP617  ASP618  TYR619  PRO620  LYS621  CYS622 
 ASP623  PHE694  ASN695  SER759  ASP760  ASP761  ALA762  ILE779  LEU786  VAL792 
 PHE793  MET794  SER795  GLU796  ALA797  LYS798  CYS799  TRP800  GLU811  SER814 

> <Gold.Protein.RotatedAtoms>
  152.3216  133.5860  159.5747 H   0  0  0  0  0  0  0  0  0  0  0  0  # atno 6907 bound_to 6896
  150.7374  134.0003  159.3645 H   0  0  0  0  0  0  0  0  0  0  0  0  # atno 6908 bound_to 6896
  151.7887  135.0742  160.0435 H   0  0  0  0  0  0  0  0  0  0  0  0  # atno 6909 bound_to 6896
  145.6241  140.9355  143.1122 H   0  0  0  0  0  0  0  0  0  0  0  0  # atno 7974 bound_to 7965
  154.5434  140.2293  155.8603 H   0  0  0  0  0  0  0  0  0  0  0  0  # atno 8008 bound_to 7997
  156.1880  140.3084  155.9238 H   0  0  0  0  0  0  0  0  0  0  0  0  # atno 8009 bound_to 7997
  155.3212  140.0440  157.3030 H   0  0  0  0  0  0  0  0  0  0  0  0  # atno 8010 bound_to 7997
  139.5038  144.3519  151.9914 H   0  0  0  0  0  0  0  0  0  0  0  0  # atno 10167 bound_to 10162
  157.6958  131.0357  150.3522 H   0  0  0  0  0  0  0  0  0  0  0  0  # atno 10718 bound_to 10713
  154.5209  135.5743  153.6680 H   0  0  0  0  0  0  0  0  0  0  0  0  # atno 10763 bound_to 10752
  152.9917  135.6181  154.2755 H   0  0  0  0  0  0  0  0  0  0  0  0  # atno 10764 bound_to 10752
  154.2676  135.2854  155.2731 H   0  0  0  0  0  0  0  0  0  0  0  0  # atno 10765 bound_to 10752
  140.0351  134.5955  155.9455 H   0  0  0  0  0  0  0  0  0  0  0  0  # atno 11005 bound_to 11000
  144.7219  139.8001  143.7379 LP  0  0  0  0  0  0  0  0  0  0  0  0  # atno 17320 bound_to 7965
  146.1408  139.4465  143.0110 LP  0  0  0  0  0  0  0  0  0  0  0  0  # atno 17321 bound_to 7965
  140.2955  144.3705  150.6075 LP  0  0  0  0  0  0  0  0  0  0  0  0  # atno 17342 bound_to 10162
  140.5913  143.2168  151.7247 LP  0  0  0  0  0  0  0  0  0  0  0  0  # atno 17343 bound_to 10162
  156.3969  130.3908  149.6988 LP  0  0  0  0  0  0  0  0  0  0  0  0  # atno 17370 bound_to 10713
  156.4319  130.7819  151.2839 LP  0  0  0  0  0  0  0  0  0  0  0  0  # atno 17371 bound_to 10713
  141.1853  133.6554  156.5191 LP  0  0  0  0  0  0  0  0  0  0  0  0  # atno 17394 bound_to 11000
  140.4161  134.7229  157.4864 LP  0  0  0  0  0  0  0  0  0  0  0  0  # atno 17395 bound_to 11000

$$$$
