#       Name:                AV-unprocessed.smi:3048
#       Creating user name   scv26
#       Creation time:       Fri Mar 27 17:01:36 2020


#       File generated by GOLD software.
#

@<TRIPOS>MOLECULE
AV-unprocessed.smi:3048
    41    42     1
SMALL
NO_CHARGES


@<TRIPOS>ATOM
      1 ****        -3.7403   2.9247  -3.1771 C.3            1 S1                 0.0000
      2 ****        -3.4562   1.7301  -2.3131 C.2            1 S1                 0.0000
      3 ****        -3.7360   1.5681  -0.9264 C.2            1 S1                 0.0000
      4 ****        -3.3614   0.3885  -0.4602 N.2            1 S1                 0.0000
      5 ****        -2.8273  -0.2420  -1.5277 N.pl3          1 S1                 0.0000
      6 ****        -2.3036  -1.5888  -1.3846 C.3            1 S1                 0.0000
      7 ****        -0.7673  -1.6265  -1.4135 C.3            1 S1                 0.0000
      8 ****        -0.1876  -0.9516  -0.2558 N.3            1 S1                 0.0000
      9 ****         1.2690  -1.0182  -0.2128 C.3            1 S1                 0.0000
     10 ****         1.8157  -0.3219   1.0416 C.3            1 S1                 0.0000
     11 ****         3.3421  -0.1243   0.9631 C.3            1 S1                 0.0000
     12 ****         3.8762   0.4837   2.2652 C.3            1 S1                 0.0000
     13 ****         3.4133  -0.3589   3.4584 C.3            1 S1                 0.0000
     14 ****         1.8904  -0.5593   3.4120 C.3            1 S1                 0.0000
     15 ****         1.5179  -1.1449   2.1683 O.3            1 S1                 0.0000
     16 ****        -2.8740   0.5437  -2.6597 C.2            1 S1                 0.0000
     17 ****        -4.0073   3.7991  -2.5833 H              1 S1                 0.0000
     18 ****        -4.5672   2.7371  -3.8622 H              1 S1                 0.0000
     19 ****        -2.8758   3.2000  -3.7815 H              1 S1                 0.0000
     20 ****        -4.1999   2.2694  -0.2487 H              1 S1                 0.0000
     21 ****        -2.6808  -2.0304  -0.4605 H              1 S1                 0.0000
     22 ****        -2.7015  -2.1913  -2.2017 H              1 S1                 0.0000
     23 ****        -0.4429  -2.6675  -1.4299 H              1 S1                 0.0000
     24 ****        -0.4019  -1.1740  -2.3362 H              1 S1                 0.0000
     25 ****        -0.5724  -1.3414   0.5992 H              1 S1                 0.0000
     26 ****         1.6061  -2.0552  -0.2359 H              1 S1                 0.0000
     27 ****         1.6767  -0.5367  -1.1025 H              1 S1                 0.0000
     28 ****         1.3323   0.6504   1.1559 H              1 S1                 0.0000
     29 ****         3.8286  -1.0838   0.7827 H              1 S1                 0.0000
     30 ****         3.5984   0.5191   0.1209 H              1 S1                 0.0000
     31 ****         4.9646   0.5426   2.2401 H              1 S1                 0.0000
     32 ****         3.5082   1.5049   2.3718 H              1 S1                 0.0000
     33 ****         3.9085  -1.3303   3.4355 H              1 S1                 0.0000
     34 ****         3.7040   0.1191   4.3942 H              1 S1                 0.0000
     35 ****         1.5745  -1.2193   4.2199 H              1 S1                 0.0000
     36 ****         1.3677   0.3879   3.5520 H              1 S1                 0.0000
     37 ****        -2.4910   0.1972  -3.6083 H              1 S1                 0.0000
     38 ****        -3.4532   0.0416   0.4732 LP             1 S1                 0.0000
     39 ****        -0.4288   0.0151  -0.3410 LP             1 S1                 0.0000
     40 ****         2.0078  -2.0107   2.0665 LP             1 S1                 0.0000
     41 ****         0.5332  -1.3187   2.1823 LP             1 S1                 0.0000
@<TRIPOS>BOND
    1    1    2 1     
    2    1   17 1     
    3    1   18 1     
    4    1   19 1     
    5    2   16 2     
    6    2    3 1     
    7    3    4 2     
    8    3   20 1     
    9    4    5 1     
   10    5    6 1     
   11    5   16 1     
   12    6    7 1     
   13    6   21 1     
   14    6   22 1     
   15    7    8 1     
   16    7   23 1     
   17    7   24 1     
   18    8    9 1     
   19    8   25 1     
   20    9   10 1     
   21    9   26 1     
   22    9   27 1     
   23   10   15 1     
   24   10   11 1     
   25   10   28 1     
   26   11   12 1     
   27   11   29 1     
   28   11   30 1     
   29   12   13 1     
   30   12   31 1     
   31   12   32 1     
   32   13   14 1     
   33   13   33 1     
   34   13   34 1     
   35   14   15 1     
   36   14   35 1     
   37   14   36 1     
   38   16   37 1     
   39    4   38 1     
   40    8   39 1     
   41   15   40 1     
   42   15   41 1     
@<TRIPOS>SUBSTRUCTURE
      1 S1             1
@<TRIPOS>SET
LONE_PAIRS      STATIC     ATOMS    <user>   **** ""
4 38 39 40 41
DONOR_HYDROGENS      STATIC     ATOMS    <user>   **** ""
1 25
ATOM$BLUE        STATIC     ATOMS    COLORGROUP SYSTEM
4 38 39 40 41
ATOM$RED        STATIC     ATOMS    COLORGROUP SYSTEM
1 25
