AV-unprocessed.smi:1246|AV-procd|sdf|5242|dock1
  -GOLD-   22720 4353D 1   1.00000     0.00000
 Structure written by MMmdl.
 35 36  0  0  0  0  0  0  0  0  1 V2000
  153.7259  142.3526  162.4763 C   0  0  0  0  0  0  0  0  0  0  0  0
  152.9024  142.8648  161.3317 C   0  0  0  0  0  0  0  0  0  0  0  0
  152.4982  142.1650  160.1573 C   0  0  0  0  0  0  0  0  0  0  0  0
  151.7785  143.1091  159.4770 C   0  0  0  0  0  0  0  0  0  0  0  0
  151.1512  143.0060  158.2753 N   0  0  0  0  0  0  0  0  0  0  0  0
  151.0347  141.9315  157.4762 C   0  0  0  0  0  0  0  0  0  0  0  0
  151.4831  140.8100  157.7154 O   0  0  0  0  0  0  0  0  0  0  0  0
  150.3557  142.2322  156.3601 N   0  0  0  0  0  0  0  0  0  0  0  0
  150.0679  141.2991  155.2768 C   0  0  0  0  0  0  0  0  0  0  0  0
  148.5550  141.1045  155.0836 C   0  0  1  0  0  0  0  0  0  0  0  0
  147.8410  142.3356  154.5345 C   0  0  0  0  0  0  0  0  0  0  0  0
  146.5774  141.7237  153.9718 C   0  0  0  0  0  0  0  0  0  0  0  0
  147.0712  140.3813  153.4325 C   0  0  0  0  0  0  0  0  0  0  0  0
  148.2945  140.0995  154.1095 O   0  0  0  0  0  0  0  0  0  0  0  0
  151.7692  144.2748  160.2100 N   0  0  0  0  0  0  0  0  0  0  0  0
  151.1468  145.5482  159.9059 C   0  0  0  0  0  0  0  0  0  0  0  0
  152.4657  144.1190  161.3565 N   0  0  0  0  0  0  0  0  0  0  0  0
  154.0694  141.3346  162.2905 H   0  0  0  0  0  0  0  0  0  0  0  0
  153.1492  142.3443  163.4013 H   0  0  0  0  0  0  0  0  0  0  0  0
  154.6069  142.9745  162.6370 H   0  0  0  0  0  0  0  0  0  0  0  0
  152.7130  141.1440  159.8802 H   0  0  0  0  0  0  0  0  0  0  0  0
  150.7181  143.8547  157.9426 H   0  0  0  0  0  0  0  0  0  0  0  0
  150.0261  143.1791  156.2421 H   0  0  0  0  0  0  0  0  0  0  0  0
  150.5243  141.6560  154.3520 H   0  0  0  0  0  0  0  0  0  0  0  0
  150.5427  140.3453  155.5083 H   0  0  0  0  0  0  0  0  0  0  0  0
  148.0806  140.8071  156.0207 H   0  0  0  0  0  0  0  0  0  0  0  0
  147.6480  143.0913  155.2965 H   0  0  0  0  0  0  0  0  0  0  0  0
  148.4237  142.7942  153.7343 H   0  0  0  0  0  0  0  0  0  0  0  0
  145.8559  141.5614  154.7736 H   0  0  0  0  0  0  0  0  0  0  0  0
  146.1045  142.3423  153.2087 H   0  0  0  0  0  0  0  0  0  0  0  0
  146.3420  139.5877  153.5958 H   0  0  0  0  0  0  0  0  0  0  0  0
  147.2708  140.4412  152.3623 H   0  0  0  0  0  0  0  0  0  0  0  0
  150.0997  145.3921  159.6456 H   0  0  0  0  0  0  0  0  0  0  0  0
  151.6594  146.0131  159.0632 H   0  0  0  0  0  0  0  0  0  0  0  0
  151.1991  146.2167  160.7664 H   0  0  0  0  0  0  0  0  0  0  0  0
  1  2  1  0  0  0  0
  1 18  1  0  0  0  0
  1 19  1  0  0  0  0
  1 20  1  0  0  0  0
  2 17  2  0  0  0  0
  2  3  1  0  0  0  0
  3  4  2  0  0  0  0
  3 21  1  0  0  0  0
  4  5  1  0  0  0  0
  4 15  1  0  0  0  0
  5  6  1  0  0  0  0
  5 22  1  0  0  0  0
  6  7  2  0  0  0  0
  6  8  1  0  0  0  0
  8  9  1  0  0  0  0
  8 23  1  0  0  0  0
  9 10  1  0  0  0  0
  9 24  1  0  0  0  0
  9 25  1  0  0  0  0
 10 14  1  0  0  0  0
 10 11  1  0  0  0  0
 10 26  1  0  0  0  0
 11 12  1  0  0  0  0
 11 27  1  0  0  0  0
 11 28  1  0  0  0  0
 12 13  1  0  0  0  0
 12 29  1  0  0  0  0
 12 30  1  0  0  0  0
 13 14  1  0  0  0  0
 13 31  1  0  0  0  0
 13 32  1  0  0  0  0
 15 16  1  0  0  0  0
 15 17  1  0  0  0  0
 16 33  1  0  0  0  0
 16 34  1  0  0  0  0
 16 35  1  0  0  0  0
M  END
> <s_m_source_file>
AV-unprocessed.smi

> <i_m_source_file_index>
1246

> <i_lp_mmshare_version>
43012

> <i_f3d_flags>
0

> <s_epik_input>
W0NIM11jMVtjSF1jKG4objEpW0NIM10pW05IXUMoPU8pW05IXVtDSDJdW0NAQEhdMltDSDJdW0NIMl1bQ0gyXU8y

> <s_epik_cmdline>
J2VwaWtfcHl0aG9uJywgJy1waCcsICc3LjAnLCAnLXRuJywgJzgnLCAnLW1hJywgJzIwMCcsICctbWV0YWxfYmluZGluZycsICctaW1hZScsICc8aW5maWxlLm1hZT4nLCAnLW9tYWUnLCAnPG91dGZpbGUubWFlPic=

> <r_lp_tautomer_probability>
1

> <r_epik_Ionization_Penalty>
9.6187e-05

> <r_epik_Ionization_Penalty_Charging>
0

> <r_epik_Ionization_Penalty_Neutral>
9.6187e-05

> <r_epik_State_Penalty>
-0

> <r_epik_Charging_Adjusted_Penalty>
0

> <i_epik_Tot_Q>
0

> <i_epik_Tot_abs_Q>
0

> <r_epik_Metal_State_Penalty>
-0

> <b_epik_Metal_Only>
0

> <s_lp_Force_Field>
OPLS_2005

> <r_lp_Energy>
18.0702

> <b_lp_Chiralities_Consistent>
1

> <s_lp_Variant>
AV-unprocessed.smi:1246-2

> <Gold.Version>
5.8.1

> <Gold.Id.Protein>
6NUR|6NUR_protein|mol2

> <Gold.PLP.Fitness>
40.7666

> <Gold.PLP.PLP>
-37.8180

> <Gold.PLP.part.hbond>
-1.0000

> <Gold.PLP.part.metal>
0.0000

> <Gold.PLP.part.buried>
0.8101

> <Gold.PLP.part.nonpolar>
-35.0257

> <Gold.PLP.part.repulsive>
0.3868

> <Gold.PLP.ligand.clash>
0.0000

> <Gold.PLP.ligand.torsion>
0.0307

> <Gold.PLP.Chemscore.Hbond>
1.0000

> <Gold.PLP.Chemscore.CHOScore>
0.0000

> <Gold.PLP.Chemscore.Metal>
0.0000

> <Gold.Chemscore.Hbonds>
donor molecule, donor type, donor heavy atom, donor atom, acceptor molecule, acceptor atom, score
      L1  H     8    23       P1  8028  1.00

> <Gold.PLP.Chemscore.Internal.Correction>
0.0100

> <Gold.Rescore>
     Score         DG    S(hbond)    S(metal)    S(lipo)     H(rot)  DE(clash)    DE(int)     intcor
     13.05     -14.41       0.99        0.00      75.26       1.25       0.16       1.20       ----

> <Gold.Chemscore.Fitness>
13.0504

> <Gold.Chemscore.DG>
-14.4091

> <Gold.Chemscore.ZeroCoef>
-5.4800

> <Gold.Chemscore.Hbond>
0.9936

> <Gold.Chemscore.Metal>
0.0000

> <Gold.Chemscore.Lipo>
75.2561

> <Gold.Chemscore.Internal_Hbond>
0.0000

> <Gold.Chemscore.DEClash>
0.1575

> <Gold.Chemscore.DEInternal>
1.2012

> <Gold.Chemscore.Rot>
1.2478

> <Gold.Chemscore.Internal.Correction>
   9.000000E+99

> <Gold.Chemscore.Hbonds>
donor molecule, donor type, donor heavy atom, donor atom, acceptor molecule, acceptor atom, score
      L1  H     8    23       P1  8028  0.96

> <Gold.Chemscore.Hbond.Weighted>
-3.3186

> <Gold.Chemscore.Metal.Weighted>
-0.0000

> <Gold.Chemscore.Lipo.Weighted>
-8.8050

> <Gold.Chemscore.Internal_Hbond.Weighted>
0.0000

> <Gold.Chemscore.DEClash.Weighted>
0.1575

> <Gold.Chemscore.DEInternal.Weighted>
1.2012

> <Gold.Chemscore.Rot.Weighted>
3.1944

> <Gold.Chemscore.Internal.Correction.Weighted>
   9.000000E+99

> <Gold.Protein.RotatedTorsions>
[ 6907 6896 6895 6894 ] final  -12.10 input  -60.11 | X-H torsion
[ 7974 7965 7964 7962 ] final  -89.92 input  175.53 | X-H torsion
[ 8008 7997 7996 7995 ] final -147.41 input   59.86 | X-H torsion
[ 10167 10162 10161 10158 ] final  -97.93 input  -65.29 | X-H torsion
[ 10718 10713 10712 10709 ] final  -81.22 input   66.30 | X-H torsion
[ 10763 10752 10751 10750 ] final   55.63 input  -60.55 | X-H torsion
[ 11005 11000 10999 10996 ] final  -32.69 input  -57.11 | X-H torsion

> <Gold.Protein.ActiveResidues>
 VAL166  LYS551  ARG553  GLY616  TRP617  ASP618  TYR619  PRO620  LYS621  CYS622 
 ASP623  PHE694  ASN695  SER759  ASP760  ASP761  ALA762  ILE779  LEU786  VAL792 
 PHE793  MET794  SER795  GLU796  ALA797  LYS798  CYS799  TRP800  GLU811  SER814 

> <Gold.Protein.RotatedAtoms>
  151.3758  135.0931  159.9479 H   0  0  0  0  0  0  0  0  0  0  0  0  # atno 6907 bound_to 6896
  152.5122  133.9120  159.7503 H   0  0  0  0  0  0  0  0  0  0  0  0  # atno 6908 bound_to 6896
  150.9543  133.6459  159.2795 H   0  0  0  0  0  0  0  0  0  0  0  0  # atno 6909 bound_to 6896
  145.4334  140.9556  143.2115 H   0  0  0  0  0  0  0  0  0  0  0  0  # atno 7974 bound_to 7965
  155.5750  140.0638  157.2797 H   0  0  0  0  0  0  0  0  0  0  0  0  # atno 8008 bound_to 7997
  154.4349  140.1862  156.0965 H   0  0  0  0  0  0  0  0  0  0  0  0  # atno 8009 bound_to 7997
  156.0347  140.3302  155.7182 H   0  0  0  0  0  0  0  0  0  0  0  0  # atno 8010 bound_to 7997
  140.2783  143.3298  152.0466 H   0  0  0  0  0  0  0  0  0  0  0  0  # atno 10167 bound_to 10162
  156.0054  130.4597  150.3919 H   0  0  0  0  0  0  0  0  0  0  0  0  # atno 10718 bound_to 10713
  152.9819  135.5704  154.5098 H   0  0  0  0  0  0  0  0  0  0  0  0  # atno 10763 bound_to 10752
  154.4604  135.2781  155.1719 H   0  0  0  0  0  0  0  0  0  0  0  0  # atno 10764 bound_to 10752
  154.3309  135.6249  153.5604 H   0  0  0  0  0  0  0  0  0  0  0  0  # atno 10765 bound_to 10752
  140.9573  133.7185  156.1313 H   0  0  0  0  0  0  0  0  0  0  0  0  # atno 11005 bound_to 11000
  144.8168  139.5863  143.7005 LP  0  0  0  0  0  0  0  0  0  0  0  0  # atno 17320 bound_to 7965
  146.2595  139.6378  142.9372 LP  0  0  0  0  0  0  0  0  0  0  0  0  # atno 17321 bound_to 7965
  139.4969  144.6609  151.6466 LP  0  0  0  0  0  0  0  0  0  0  0  0  # atno 17342 bound_to 10162
  140.5833  143.9908  150.6281 LP  0  0  0  0  0  0  0  0  0  0  0  0  # atno 17343 bound_to 10162
  157.1994  131.0434  151.2659 LP  0  0  0  0  0  0  0  0  0  0  0  0  # atno 17370 bound_to 10713
  157.3990  130.7323  149.6753 LP  0  0  0  0  0  0  0  0  0  0  0  0  # atno 17371 bound_to 10713
  140.7518  134.4036  157.5540 LP  0  0  0  0  0  0  0  0  0  0  0  0  # atno 17394 bound_to 11000
  139.8866  134.8905  156.2574 LP  0  0  0  0  0  0  0  0  0  0  0  0  # atno 17395 bound_to 11000

$$$$
