AV-unprocessed.smi:2747|AV-procd|sdf|10580|dock4
  -GOLD-   2272015 33D 1   1.00000     0.00000
 Structure written by MMmdl.
 23 24  0  0  0  0  0  0  0  0  2 V2000
  152.2970  139.9558  155.4447 O   0  5  0  0  0  0  0  0  0  0  0  0
  151.3479  139.8000  156.3374 C   0  0  1  0  0  0  0  0  0  0  0  0
  151.5192  140.9157  157.4055 C   0  0  0  0  0  0  0  0  0  0  0  0
  152.4629  140.5963  158.4746 N   0  0  0  0  0  0  0  0  0  0  0  0
  153.1842  139.4370  158.4191 N   0  0  0  0  0  0  0  0  0  0  0  0
  153.9277  139.3549  159.4823 N   0  0  0  0  0  0  0  0  0  0  0  0
  153.6880  140.4754  160.2598 C   0  0  0  0  0  0  0  0  0  0  0  0
  154.2127  140.8874  161.5052 C   0  0  0  0  0  0  0  0  0  0  0  0
  153.7866  142.0983  162.0945 C   0  0  0  0  0  0  0  0  0  0  0  0
  154.4504  142.5666  163.6196 Cl  0  0  0  0  0  0  0  0  0  0  0  0
  152.8291  142.9123  161.4424 C   0  0  0  0  0  0  0  0  0  0  0  0
  152.2972  144.3967  162.1490 Cl  0  0  0  0  0  0  0  0  0  0  0  0
  152.2967  142.5129  160.2008 C   0  0  0  0  0  0  0  0  0  0  0  0
  152.7341  141.3048  159.6316 C   0  0  0  0  0  0  0  0  0  0  0  0
  149.9889  139.9263  155.6068 C   0  0  0  0  0  0  0  0  0  0  0  0
  149.9409  139.0915  154.5670 F   0  0  0  0  0  0  0  0  0  0  0  0
  149.0005  139.5961  156.4394 F   0  0  0  0  0  0  0  0  0  0  0  0
  149.7748  141.1724  155.1772 F   0  0  0  0  0  0  0  0  0  0  0  0
  151.2828  138.8685  156.9022 H   0  0  0  0  0  0  0  0  0  0  0  0
  151.8438  141.8462  156.9370 H   0  0  0  0  0  0  0  0  0  0  0  0
  150.5554  141.1379  157.8657 H   0  0  0  0  0  0  0  0  0  0  0  0
  154.9419  140.2700  162.0088 H   0  0  0  0  0  0  0  0  0  0  0  0
  151.5684  143.1246  159.6888 H   0  0  0  0  0  0  0  0  0  0  0  0
  1  2  1  0  0  0  0
  2  3  1  0  0  0  0
  2 15  1  0  0  0  0
  2 19  1  0  0  0  0
  3  4  1  0  0  0  0
  3 20  1  0  0  0  0
  3 21  1  0  0  0  0
  4 14  1  0  0  0  0
  4  5  1  0  0  0  0
  5  6  2  0  0  0  0
  6  7  1  0  0  0  0
  7 14  2  0  0  0  0
  7  8  1  0  0  0  0
  8  9  2  0  0  0  0
  8 22  1  0  0  0  0
  9 10  1  0  0  0  0
  9 11  1  0  0  0  0
 11 12  1  0  0  0  0
 11 13  2  0  0  0  0
 13 14  1  0  0  0  0
 13 23  1  0  0  0  0
 15 16  1  0  0  0  0
 15 17  1  0  0  0  0
 15 18  1  0  0  0  0
M  CHG  1   1  -1
M  END
> <s_m_source_file>
AV-unprocessed.smi

> <i_m_source_file_index>
2747

> <i_lp_mmshare_version>
43012

> <i_f3d_flags>
0

> <s_epik_input>
RkMoRikoRilbQ0BIXShbT0hdKVtDSDJdbihubjEpYyhjMTIpW2NIXWMoQ2wpYyhDbClbY0hdMg==

> <s_epik_cmdline>
J2VwaWtfcHl0aG9uJywgJy1waCcsICc3LjAnLCAnLXRuJywgJzgnLCAnLW1hJywgJzIwMCcsICctbWV0YWxfYmluZGluZycsICctaW1hZScsICc8aW5maWxlLm1hZT4nLCAnLW9tYWUnLCAnPG91dGZpbGUubWFlPic=

> <r_lp_tautomer_probability>
1

> <r_epik_Ionization_Penalty>
1.2724

> <r_epik_Ionization_Penalty_Charging>
1.2724

> <r_epik_Ionization_Penalty_Neutral>
1.57383e-10

> <r_epik_State_Penalty>
1.34397

> <r_epik_Charging_Adjusted_Penalty>
2.61637

> <i_epik_Tot_Q>
-1

> <i_epik_Tot_abs_Q>
1

> <r_epik_Metal_State_Penalty>
1.34397

> <b_epik_Metal_Only>
0

> <s_lp_Force_Field>
OPLS_2005

> <r_lp_Energy>
12.5023

> <b_lp_Chiralities_Consistent>
1

> <s_lp_Variant>
AV-unprocessed.smi:2747-4

> <Gold.Version>
5.8.1

> <Gold.Id.Protein>
6NUR|6NUR_protein|mol2

> <Gold.PLP.Fitness>
44.2997

> <Gold.PLP.PLP>
-37.8427

> <Gold.PLP.part.hbond>
-3.0000

> <Gold.PLP.part.metal>
0.0000

> <Gold.PLP.part.buried>
4.3320

> <Gold.PLP.part.nonpolar>
-37.5785

> <Gold.PLP.part.repulsive>
0.0060

> <Gold.PLP.ligand.clash>
0.0000

> <Gold.PLP.ligand.torsion>
0.4278

> <Gold.PLP.Chemscore.Hbond>
2.4332

> <Gold.PLP.Chemscore.CHOScore>
0.0000

> <Gold.PLP.Chemscore.Metal>
0.0000

> <Gold.Chemscore.Hbonds>
donor molecule, donor type, donor heavy atom, donor atom, acceptor molecule, acceptor atom, score
      P1  H  7989  7998       L1     1  0.35
      P1  H  7997  8008       L1     1  1.20

> <Gold.PLP.Chemscore.Internal.Correction>
0.0131

> <Gold.Rescore>
     Score         DG    S(hbond)    S(metal)    S(lipo)     H(rot)  DE(clash)    DE(int)     intcor
     15.61     -16.13       0.87        0.00      95.61       1.35       0.16       0.35       ----

> <Gold.Chemscore.Fitness>
15.6114

> <Gold.Chemscore.DG>
-16.1262

> <Gold.Chemscore.ZeroCoef>
-5.4800

> <Gold.Chemscore.Hbond>
0.8711

> <Gold.Chemscore.Metal>
0.0000

> <Gold.Chemscore.Lipo>
95.6068

> <Gold.Chemscore.Internal_Hbond>
0.0000

> <Gold.Chemscore.DEClash>
0.1608

> <Gold.Chemscore.DEInternal>
0.3540

> <Gold.Chemscore.Rot>
1.3474

> <Gold.Chemscore.Internal.Correction>
   9.000000E+99

> <Gold.Chemscore.Hbonds>
donor molecule, donor type, donor heavy atom, donor atom, acceptor molecule, acceptor atom, score
      P1  H  7989  7998       L1     1  0.32
      P1  H  7997  8008       L1     1  0.60

> <Gold.Chemscore.Hbond.Weighted>
-2.9096

> <Gold.Chemscore.Metal.Weighted>
-0.0000

> <Gold.Chemscore.Lipo.Weighted>
-11.1860

> <Gold.Chemscore.Internal_Hbond.Weighted>
0.0000

> <Gold.Chemscore.DEClash.Weighted>
0.1608

> <Gold.Chemscore.DEInternal.Weighted>
0.3540

> <Gold.Chemscore.Rot.Weighted>
3.4494

> <Gold.Chemscore.Internal.Correction.Weighted>
   9.000000E+99

> <Gold.Protein.RotatedTorsions>
[ 6907 6896 6895 6894 ] final  165.74 input  -60.11 | X-H torsion
[ 7974 7965 7964 7962 ] final  -38.99 input  175.53 | X-H torsion
[ 8008 7997 7996 7995 ] final  -21.69 input   59.86 | X-H torsion
[ 10167 10162 10161 10158 ] final  128.52 input  -65.29 | X-H torsion
[ 10718 10713 10712 10709 ] final  -63.44 input   66.30 | X-H torsion
[ 10763 10752 10751 10750 ] final -116.49 input  -60.55 | X-H torsion
[ 11005 11000 10999 10996 ] final  -16.54 input  -57.11 | X-H torsion

> <Gold.Protein.ActiveResidues>
 VAL166  LYS551  ARG553  GLY616  TRP617  ASP618  TYR619  PRO620  LYS621  CYS622 
 ASP623  PHE694  ASN695  SER759  ASP760  ASP761  ALA762  ILE779  LEU786  VAL792 
 PHE793  MET794  SER795  GLU796  ALA797  LYS798  CYS799  TRP800  GLU811  SER814 

> <Gold.Protein.RotatedAtoms>
  151.8897  133.3513  159.3793 H   0  0  0  0  0  0  0  0  0  0  0  0  # atno 6907 bound_to 6896
  150.7106  134.4936  159.5537 H   0  0  0  0  0  0  0  0  0  0  0  0  # atno 6908 bound_to 6896
  152.2504  134.8139  160.0498 H   0  0  0  0  0  0  0  0  0  0  0  0  # atno 6909 bound_to 6896
  146.0436  140.6575  142.9075 H   0  0  0  0  0  0  0  0  0  0  0  0  # atno 7974 bound_to 7965
  154.4690  140.2028  156.0043 H   0  0  0  0  0  0  0  0  0  0  0  0  # atno 8008 bound_to 7997
  156.0978  140.3248  155.7871 H   0  0  0  0  0  0  0  0  0  0  0  0  # atno 8009 bound_to 7997
  155.4849  140.0541  157.2952 H   0  0  0  0  0  0  0  0  0  0  0  0  # atno 8010 bound_to 7997
  139.5523  144.6822  151.4286 H   0  0  0  0  0  0  0  0  0  0  0  0  # atno 10167 bound_to 10162
  156.0791  130.4221  150.1278 H   0  0  0  0  0  0  0  0  0  0  0  0  # atno 10718 bound_to 10713
  154.8521  135.4344  154.1829 H   0  0  0  0  0  0  0  0  0  0  0  0  # atno 10763 bound_to 10752
  153.2915  135.6962  153.7294 H   0  0  0  0  0  0  0  0  0  0  0  0  # atno 10764 bound_to 10752
  153.6459  135.3460  155.3060 H   0  0  0  0  0  0  0  0  0  0  0  0  # atno 10765 bound_to 10752
  140.8078  133.8164  155.9533 H   0  0  0  0  0  0  0  0  0  0  0  0  # atno 11005 bound_to 11000
  144.7087  140.3954  143.7098 LP  0  0  0  0  0  0  0  0  0  0  0  0  # atno 17320 bound_to 7965
  145.6842  139.1625  143.2683 LP  0  0  0  0  0  0  0  0  0  0  0  0  # atno 17321 bound_to 7965
  140.6788  143.8128  150.7094 LP  0  0  0  0  0  0  0  0  0  0  0  0  # atno 17342 bound_to 10162
  140.1575  143.4304  152.2089 LP  0  0  0  0  0  0  0  0  0  0  0  0  # atno 17343 bound_to 10162
  156.9313  130.9715  151.3532 LP  0  0  0  0  0  0  0  0  0  0  0  0  # atno 17370 bound_to 10713
  157.5899  130.8436  149.8644 LP  0  0  0  0  0  0  0  0  0  0  0  0  # atno 17371 bound_to 10713
  140.9228  134.2120  157.4915 LP  0  0  0  0  0  0  0  0  0  0  0  0  # atno 17394 bound_to 11000
  139.8716  134.9800  156.5057 LP  0  0  0  0  0  0  0  0  0  0  0  0  # atno 17395 bound_to 11000

$$$$
