AV-unprocessed.smi:2893|AV-procd|sdf|11122|dock2
  -GOLD-   2272015593D 1   1.00000     0.00000
 Structure written by MMmdl.
 37 39  0  0  0  0  0  0  0  0  1 V2000
  156.7032  140.4276  167.6047 C   0  0  0  0  0  0  0  0  0  0  0  0
  156.9279  139.4088  166.4797 C   0  0  0  0  0  0  0  0  0  0  0  0
  156.2502  139.8090  165.2523 N   0  0  0  0  0  0  0  0  0  0  0  0
  156.2282  139.0990  164.1112 C   0  0  0  0  0  0  0  0  0  0  0  0
  156.8122  138.0229  163.9752 O   0  0  0  0  0  0  0  0  0  0  0  0
  155.4700  139.7166  162.9668 C   0  0  0  0  0  0  0  0  0  0  0  0
  155.0403  138.9146  161.8873 C   0  0  0  0  0  0  0  0  0  0  0  0
  154.3206  139.5363  160.8527 C   0  0  0  0  0  0  0  0  0  0  0  0
  154.0732  140.9175  160.9649 C   0  0  0  0  0  0  0  0  0  0  0  0
  153.3528  141.5607  159.9484 N   0  0  0  0  0  0  0  0  0  0  0  0
  153.2377  143.0144  159.8987 C   0  0  2  0  0  0  0  0  0  0  0  0
  152.5606  143.5856  161.1485 C   0  0  0  0  0  0  0  0  0  0  0  0
  151.4093  144.3991  160.5437 C   0  0  1  0  0  0  0  0  0  0  0  0
  151.9055  145.6340  159.7785 C   0  0  0  0  0  0  0  0  0  0  0  0
  152.4985  145.0037  158.5184 C   0  0  0  0  0  0  0  0  0  0  0  0
  152.2911  143.5073  158.7868 C   0  0  2  0  0  0  0  0  0  0  0  0
  151.0477  143.5517  159.4685 O   0  0  0  0  0  0  0  0  0  0  0  0
  154.5067  141.6356  162.0302 N   0  0  0  0  0  0  0  0  0  0  0  0
  155.1921  141.0444  163.0144 N   0  0  0  0  0  0  0  0  0  0  0  0
  157.2388  140.1327  168.5072 H   0  0  0  0  0  0  0  0  0  0  0  0
  155.6463  140.5107  167.8602 H   0  0  0  0  0  0  0  0  0  0  0  0
  157.0575  141.4177  167.3161 H   0  0  0  0  0  0  0  0  0  0  0  0
  157.9939  139.3249  166.2679 H   0  0  0  0  0  0  0  0  0  0  0  0
  156.5941  138.4180  166.7919 H   0  0  0  0  0  0  0  0  0  0  0  0
  155.7525  140.6877  165.2685 H   0  0  0  0  0  0  0  0  0  0  0  0
  155.2521  137.8559  161.8461 H   0  0  0  0  0  0  0  0  0  0  0  0
  153.9697  138.9684  160.0036 H   0  0  0  0  0  0  0  0  0  0  0  0
  153.0107  141.0231  159.1652 H   0  0  0  0  0  0  0  0  0  0  0  0
  154.2318  143.4470  159.7781 H   0  0  0  0  0  0  0  0  0  0  0  0
  152.1642  142.7964  161.7894 H   0  0  0  0  0  0  0  0  0  0  0  0
  153.2339  144.1994  161.7476 H   0  0  0  0  0  0  0  0  0  0  0  0
  150.5997  144.6065  161.2437 H   0  0  0  0  0  0  0  0  0  0  0  0
  151.0755  146.2930  159.5216 H   0  0  0  0  0  0  0  0  0  0  0  0
  152.6353  146.2080  160.3502 H   0  0  0  0  0  0  0  0  0  0  0  0
  151.9411  145.3182  157.6353 H   0  0  0  0  0  0  0  0  0  0  0  0
  153.5479  145.2595  158.3686 H   0  0  0  0  0  0  0  0  0  0  0  0
  152.2897  142.8996  157.8814 H   0  0  0  0  0  0  0  0  0  0  0  0
  1  2  1  0  0  0  0
  1 20  1  0  0  0  0
  1 21  1  0  0  0  0
  1 22  1  0  0  0  0
  2  3  1  0  0  0  0
  2 23  1  0  0  0  0
  2 24  1  0  0  0  0
  3  4  1  0  0  0  0
  3 25  1  0  0  0  0
  4  5  2  0  0  0  0
  4  6  1  0  0  0  0
  6 19  1  0  0  0  0
  6  7  2  0  0  0  0
  7  8  1  0  0  0  0
  7 26  1  0  0  0  0
  8  9  2  0  0  0  0
  8 27  1  0  0  0  0
  9 10  1  0  0  0  0
  9 18  1  0  0  0  0
 10 11  1  0  0  0  0
 10 28  1  0  0  0  0
 11 16  1  0  0  0  0
 11 12  1  0  0  0  0
 11 29  1  0  0  0  0
 12 13  1  0  0  0  0
 12 30  1  0  0  0  0
 12 31  1  0  0  0  0
 13 17  1  0  0  0  0
 13 14  1  0  0  0  0
 13 32  1  0  0  0  0
 14 15  1  0  0  0  0
 14 33  1  0  0  0  0
 14 34  1  0  0  0  0
 15 16  1  0  0  0  0
 15 35  1  0  0  0  0
 15 36  1  0  0  0  0
 16 17  1  0  0  0  0
 16 37  1  0  0  0  0
 18 19  2  0  0  0  0
M  END
> <s_m_source_file>
AV-unprocessed.smi

> <i_m_source_file_index>
2893

> <i_lp_mmshare_version>
43012

> <i_f3d_flags>
0

> <s_epik_input>
W0NIM11bQ0gyXVtOSF1DKD1PKWMxW2NIXVtjSF1jKG5uMSlbTkhdW0NASF0oW0NIMl1bQ0BASF0yMylbQ0BASF0oTzMpW0NIMl1bQ0gyXTI=

> <s_epik_cmdline>
J2VwaWtfcHl0aG9uJywgJy1waCcsICc3LjAnLCAnLXRuJywgJzgnLCAnLW1hJywgJzIwMCcsICctbWV0YWxfYmluZGluZycsICctaW1hZScsICc8aW5maWxlLm1hZT4nLCAnLW9tYWUnLCAnPG91dGZpbGUubWFlPic=

> <r_lp_tautomer_probability>
1

> <r_epik_Ionization_Penalty>
0.00432031

> <r_epik_Ionization_Penalty_Charging>
0

> <r_epik_Ionization_Penalty_Neutral>
0.00432031

> <r_epik_State_Penalty>
-0

> <r_epik_Charging_Adjusted_Penalty>
0

> <i_epik_Tot_Q>
0

> <i_epik_Tot_abs_Q>
0

> <r_epik_Metal_State_Penalty>
-0

> <b_epik_Metal_Only>
0

> <s_lp_Force_Field>
OPLS_2005

> <r_lp_Energy>
51.3486

> <b_lp_Chiralities_Consistent>
1

> <s_lp_Variant>
AV-unprocessed.smi:2893-1

> <Gold.Version>
5.8.1

> <Gold.Id.Protein>
6NUR|6NUR_protein|mol2

> <Gold.PLP.Fitness>
39.7318

> <Gold.PLP.PLP>
-40.1158

> <Gold.PLP.part.hbond>
-2.0000

> <Gold.PLP.part.metal>
0.0000

> <Gold.PLP.part.buried>
-5.5702

> <Gold.PLP.part.nonpolar>
-31.9259

> <Gold.PLP.part.repulsive>
0.1526

> <Gold.PLP.ligand.clash>
0.0000

> <Gold.PLP.ligand.torsion>
0.2059

> <Gold.PLP.Chemscore.Hbond>
0.0000

> <Gold.PLP.Chemscore.CHOScore>
0.0000

> <Gold.PLP.Chemscore.Metal>
0.0000

> <Gold.PLP.Chemscore.Internal.Correction>
0.0279

> <Gold.Rescore>
     Score         DG    S(hbond)    S(metal)    S(lipo)     H(rot)  DE(clash)    DE(int)     intcor
     12.81     -14.39       0.00        0.00     102.52       1.21       0.05       1.53       ----

> <Gold.Chemscore.Fitness>
12.8077

> <Gold.Chemscore.DG>
-14.3877

> <Gold.Chemscore.ZeroCoef>
-5.4800

> <Gold.Chemscore.Hbond>
0.0000

> <Gold.Chemscore.Metal>
0.0000

> <Gold.Chemscore.Lipo>
102.5240

> <Gold.Chemscore.Internal_Hbond>
0.0000

> <Gold.Chemscore.DEClash>
0.0509

> <Gold.Chemscore.DEInternal>
1.5291

> <Gold.Chemscore.Rot>
1.2061

> <Gold.Chemscore.Internal.Correction>
   9.000000E+99

> <Gold.Chemscore.Hbond.Weighted>
-0.0000

> <Gold.Chemscore.Metal.Weighted>
-0.0000

> <Gold.Chemscore.Lipo.Weighted>
-11.9953

> <Gold.Chemscore.Internal_Hbond.Weighted>
0.0000

> <Gold.Chemscore.DEClash.Weighted>
0.0509

> <Gold.Chemscore.DEInternal.Weighted>
1.5291

> <Gold.Chemscore.Rot.Weighted>
3.0876

> <Gold.Chemscore.Internal.Correction.Weighted>
   9.000000E+99

> <Gold.Protein.RotatedTorsions>
[ 6907 6896 6895 6894 ] final -179.93 input  -60.11 | X-H torsion
[ 7974 7965 7964 7962 ] final   -3.68 input  175.53 | X-H torsion
[ 8008 7997 7996 7995 ] final  129.91 input   59.86 | X-H torsion
[ 10167 10162 10161 10158 ] final -116.76 input  -65.29 | X-H torsion
[ 10718 10713 10712 10709 ] final -166.77 input   66.30 | X-H torsion
[ 10763 10752 10751 10750 ] final   -5.41 input  -60.55 | X-H torsion
[ 11005 11000 10999 10996 ] final   54.68 input  -57.11 | X-H torsion

> <Gold.Protein.ActiveResidues>
 VAL166  LYS551  ARG553  GLY616  TRP617  ASP618  TYR619  PRO620  LYS621  CYS622 
 ASP623  PHE694  ASN695  SER759  ASP760  ASP761  ALA762  ILE779  LEU786  VAL792 
 PHE793  MET794  SER795  GLU796  ALA797  LYS798  CYS799  TRP800  GLU811  SER814 

> <Gold.Protein.RotatedAtoms>
  151.6614  133.3317  159.3174 H   0  0  0  0  0  0  0  0  0  0  0  0  # atno 6907 bound_to 6896
  150.7912  134.6940  159.6522 H   0  0  0  0  0  0  0  0  0  0  0  0  # atno 6908 bound_to 6896
  152.3991  134.6319  160.0129 H   0  0  0  0  0  0  0  0  0  0  0  0  # atno 6909 bound_to 6896
  146.2385  140.1757  142.8332 H   0  0  0  0  0  0  0  0  0  0  0  0  # atno 7974 bound_to 7965
  156.2945  140.2609  156.2676 H   0  0  0  0  0  0  0  0  0  0  0  0  # atno 8008 bound_to 7997
  154.9727  140.0391  157.2260 H   0  0  0  0  0  0  0  0  0  0  0  0  # atno 8009 bound_to 7997
  154.7844  140.2801  155.6044 H   0  0  0  0  0  0  0  0  0  0  0  0  # atno 8010 bound_to 7997
  140.0757  143.4835  152.1954 H   0  0  0  0  0  0  0  0  0  0  0  0  # atno 10167 bound_to 10162
  156.6727  130.9090  151.3046 H   0  0  0  0  0  0  0  0  0  0  0  0  # atno 10718 bound_to 10713
  153.3981  135.7004  153.6446 H   0  0  0  0  0  0  0  0  0  0  0  0  # atno 10763 bound_to 10752
  153.4991  135.3656  155.2531 H   0  0  0  0  0  0  0  0  0  0  0  0  # atno 10764 bound_to 10752
  154.8708  135.4107  154.3311 H   0  0  0  0  0  0  0  0  0  0  0  0  # atno 10765 bound_to 10752
  140.0667  134.5526  155.9091 H   0  0  0  0  0  0  0  0  0  0  0  0  # atno 11005 bound_to 11000
  144.9975  140.8602  143.5302 LP  0  0  0  0  0  0  0  0  0  0  0  0  # atno 17320 bound_to 7965
  145.1772  139.2372  143.5311 LP  0  0  0  0  0  0  0  0  0  0  0  0  # atno 17321 bound_to 7965
  139.5809  144.7510  151.3642 LP  0  0  0  0  0  0  0  0  0  0  0  0  # atno 17342 bound_to 10162
  140.7103  143.7407  150.7555 LP  0  0  0  0  0  0  0  0  0  0  0  0  # atno 17343 bound_to 10162
  157.7071  130.9398  150.0968 LP  0  0  0  0  0  0  0  0  0  0  0  0  # atno 17370 bound_to 10713
  156.1927  130.3655  149.8889 LP  0  0  0  0  0  0  0  0  0  0  0  0  # atno 17371 bound_to 10713
  141.1995  133.6607  156.5850 LP  0  0  0  0  0  0  0  0  0  0  0  0  # atno 17394 bound_to 11000
  140.3688  134.7624  157.4584 LP  0  0  0  0  0  0  0  0  0  0  0  0  # atno 17395 bound_to 11000

$$$$
