#       Name:                AV-unprocessed.smi:3263
#       Creating user name   scv26
#       Creation time:       Fri Mar 27 18:39:31 2020


#       File generated by GOLD software.
#

@<TRIPOS>MOLECULE
AV-unprocessed.smi:3263
    44    46     1
SMALL
NO_CHARGES


@<TRIPOS>ATOM
      1 ****         0.0152   1.8341   0.9408 O.2            1 S1                 0.0000
      2 ****        -0.3818   0.7058   1.2331 C.2            1 S1                 0.0000
      3 ****        -1.8826   0.4008   1.2800 C.3            1 S1                 0.0000
      4 ****        -2.6345   0.8942   0.0233 C.3            1 S1                 0.0000
      5 ****        -2.2560   0.1811  -1.2947 C.3            1 S1                 0.0000
      6 ****        -3.6273  -0.2023  -1.8825 C.3            1 S1                 0.0000
      7 ****        -4.2047  -1.3836  -1.0819 C.3            1 S1                 0.0000
      8 ****        -4.6091  -0.7234   0.2488 C.3            1 S1                 0.0000
      9 ****        -4.1740   0.7437   0.0515 C.3            1 S1                 0.0000
     10 ****        -4.5117   0.9517  -1.4221 C.3            1 S1                 0.0000
     11 ****         0.4456  -0.3112   1.5200 N.am           1 S1                 0.0000
     12 ****         1.9011  -0.2299   1.5072 C.3            1 S1                 0.0000
     13 ****         2.4580  -0.3095   0.0756 C.3            1 S1                 0.0000
     14 ****         3.9702  -0.2085   0.0416 C.ar           1 S1                 0.0000
     15 ****         4.7988  -1.3442  -0.0880 C.ar           1 S1                 0.0000
     16 ****         6.1992  -1.1762  -0.1077 C.ar           1 S1                 0.0000
     17 ****         6.7408   0.1213   0.0039 C.ar           1 S1                 0.0000
     18 ****         5.8668   1.2199   0.1328 C.ar           1 S1                 0.0000
     19 ****         4.5307   1.0183   0.1472 N.pl3          1 S1                 1.0000
     20 ****        -2.0215  -0.6722   1.4136 H              1 S1                 0.0000
     21 ****        -2.2976   0.8812   2.1667 H              1 S1                 0.0000
     22 ****        -2.4263   1.9592  -0.0974 H              1 S1                 0.0000
     23 ****        -1.7213   0.8632  -1.9570 H              1 S1                 0.0000
     24 ****        -1.6233  -0.6943  -1.1415 H              1 S1                 0.0000
     25 ****        -3.6103  -0.3713  -2.9594 H              1 S1                 0.0000
     26 ****        -5.0784  -1.8041  -1.5813 H              1 S1                 0.0000
     27 ****        -3.4793  -2.1863  -0.9451 H              1 S1                 0.0000
     28 ****        -5.6903  -0.7815   0.3819 H              1 S1                 0.0000
     29 ****        -4.1546  -1.2015   1.1152 H              1 S1                 0.0000
     30 ****        -4.6660   1.4392   0.7322 H              1 S1                 0.0000
     31 ****        -4.1947   1.9213  -1.8105 H              1 S1                 0.0000
     32 ****        -5.5688   0.8044  -1.6510 H              1 S1                 0.0000
     33 ****         0.0376  -1.2050   1.7544 H              1 S1                 0.0000
     34 ****         2.2240   0.6910   1.9957 H              1 S1                 0.0000
     35 ****         2.2940  -1.0527   2.1053 H              1 S1                 0.0000
     36 ****         2.1493  -1.2450  -0.3931 H              1 S1                 0.0000
     37 ****         2.0437   0.4914  -0.5387 H              1 S1                 0.0000
     38 ****         4.3693  -2.3322  -0.1700 H              1 S1                 0.0000
     39 ****         6.8506  -2.0323  -0.2063 H              1 S1                 0.0000
     40 ****         7.8106   0.2710  -0.0090 H              1 S1                 0.0000
     41 ****         6.1930   2.2456   0.2245 H              1 S1                 0.0000
     42 ****         3.9161   1.8276   0.2418 H              1 S1                 0.0000
     43 ****        -0.6432   2.5574   0.7324 LP             1 S1                 0.0000
     44 ****         0.9959   2.0272   0.9118 LP             1 S1                 0.0000
@<TRIPOS>BOND
    1    1    2 2     
    2    2    3 1     
    3    2   11 am    
    4    3    4 1     
    5    3   20 1     
    6    3   21 1     
    7    4    9 1     
    8    4    5 1     
    9    4   22 1     
   10    5    6 1     
   11    5   23 1     
   12    5   24 1     
   13    6   10 1     
   14    6    7 1     
   15    6   25 1     
   16    7    8 1     
   17    7   26 1     
   18    7   27 1     
   19    8    9 1     
   20    8   28 1     
   21    8   29 1     
   22    9   10 1     
   23    9   30 1     
   24   10   31 1     
   25   10   32 1     
   26   11   12 1     
   27   11   33 1     
   28   12   13 1     
   29   12   34 1     
   30   12   35 1     
   31   13   14 1     
   32   13   36 1     
   33   13   37 1     
   34   14   19 ar    
   35   14   15 ar    
   36   15   16 ar    
   37   15   38 1     
   38   16   17 ar    
   39   16   39 1     
   40   17   18 ar    
   41   17   40 1     
   42   18   19 ar    
   43   18   41 1     
   44   19   42 1     
   45    1   43 1     
   46    1   44 1     
@<TRIPOS>SUBSTRUCTURE
      1 S1             1
@<TRIPOS>SET
LONE_PAIRS      STATIC     ATOMS    <user>   **** ""
2 43 44
DONOR_HYDROGENS      STATIC     ATOMS    <user>   **** ""
2 33 42
ATOM$BLUE        STATIC     ATOMS    COLORGROUP SYSTEM
2 43 44
ATOM$RED        STATIC     ATOMS    COLORGROUP SYSTEM
2 33 42
