AV-unprocessed.smi:3331|AV-procd|sdf|12817|dock10
  -GOLD-   2272019193D 1   1.00000     0.00000
 Structure written by MMmdl.
 47 48  0  0  0  0  0  0  0  0  2 V2000
  149.9754  141.8479  157.3992 C   0  0  0  0  0  0  0  0  0  0  0  0
  149.5376  140.8700  156.3000 C   0  0  2  0  0  0  0  0  0  0  0  0
  150.7559  140.2244  155.6008 C   0  0  0  0  0  0  0  0  0  0  0  0
  150.3619  139.3403  154.3960 C   0  0  1  0  0  0  0  0  0  0  0  0
  149.8058  137.9734  154.8342 C   0  0  0  0  0  0  0  0  0  0  0  0
  149.3946  140.1131  153.4725 C   0  0  0  0  0  0  0  0  0  0  0  0
  148.2301  140.5696  154.2456 N   0  0  0  0  0  0  0  0  0  0  0  0
  146.9603  140.1001  154.1428 C   0  0  0  0  0  0  0  0  0  0  0  0
  146.0447  140.5423  154.8395 O   0  0  0  0  0  0  0  0  0  0  0  0
  146.6277  138.9822  153.1341 C   0  0  2  0  0  0  0  0  0  0  0  0
  146.8158  139.4860  151.6910 C   0  0  0  0  0  0  0  0  0  0  0  0
  145.2467  138.4925  153.3481 N   0  3  0  0  0  0  0  0  0  0  0  0
  145.0028  137.0800  152.9850 C   0  0  0  0  0  0  0  0  0  0  0  0
  145.5836  136.7512  151.6007 C   0  0  0  0  0  0  0  0  0  0  0  0
  145.2484  135.4038  151.1748 N   0  0  0  0  0  0  0  0  0  0  0  0
  146.0786  134.3082  151.0636 C   0  0  0  0  0  0  0  0  0  0  0  0
  145.3131  133.2601  150.6396 C   0  0  0  0  0  0  0  0  0  0  0  0
  144.0107  133.8197  150.5161 C   0  0  0  0  0  0  0  0  0  0  0  0
  143.9748  135.1025  150.8396 N   0  0  0  0  0  0  0  0  0  0  0  0
  148.6252  141.5556  155.2611 C   0  0  0  0  0  0  0  0  0  0  0  0
  150.5543  142.6750  156.9871 H   0  0  0  0  0  0  0  0  0  0  0  0
  150.5930  141.3480  158.1458 H   0  0  0  0  0  0  0  0  0  0  0  0
  149.1128  142.2705  157.9153 H   0  0  0  0  0  0  0  0  0  0  0  0
  148.9623  140.0779  156.7818 H   0  0  0  0  0  0  0  0  0  0  0  0
  151.4133  141.0184  155.2434 H   0  0  0  0  0  0  0  0  0  0  0  0
  151.3443  139.6491  156.3167 H   0  0  0  0  0  0  0  0  0  0  0  0
  151.2705  139.1380  153.8276 H   0  0  0  0  0  0  0  0  0  0  0  0
  148.8868  138.0706  155.4120 H   0  0  0  0  0  0  0  0  0  0  0  0
  150.5273  137.4391  155.4525 H   0  0  0  0  0  0  0  0  0  0  0  0
  149.5895  137.3451  153.9701 H   0  0  0  0  0  0  0  0  0  0  0  0
  149.9052  140.9888  153.0684 H   0  0  0  0  0  0  0  0  0  0  0  0
  149.1442  139.5184  152.5965 H   0  0  0  0  0  0  0  0  0  0  0  0
  147.2805  138.1314  153.3211 H   0  0  0  0  0  0  0  0  0  0  0  0
  147.8163  139.8898  151.5326 H   0  0  0  0  0  0  0  0  0  0  0  0
  146.1022  140.2751  151.4501 H   0  0  0  0  0  0  0  0  0  0  0  0
  146.6791  138.6833  150.9665 H   0  0  0  0  0  0  0  0  0  0  0  0
  145.0498  138.5810  154.3356 H   0  0  0  0  0  0  0  0  0  0  0  0
  145.4569  136.4327  153.7352 H   0  0  0  0  0  0  0  0  0  0  0  0
  143.9316  136.8731  152.9898 H   0  0  0  0  0  0  0  0  0  0  0  0
  145.2305  137.4626  150.8523 H   0  0  0  0  0  0  0  0  0  0  0  0
  146.6705  136.8385  151.6257 H   0  0  0  0  0  0  0  0  0  0  0  0
  147.1323  134.3642  151.2944 H   0  0  0  0  0  0  0  0  0  0  0  0
  145.6345  132.2473  150.4458 H   0  0  0  0  0  0  0  0  0  0  0  0
  143.0967  133.3352  150.2050 H   0  0  0  0  0  0  0  0  0  0  0  0
  147.7704  142.0108  155.7631 H   0  0  0  0  0  0  0  0  0  0  0  0
  149.1531  142.3800  154.7797 H   0  0  0  0  0  0  0  0  0  0  0  0
  144.6025  139.0883  152.8478 H   0  0  0  0  0  0  0  0  0  0  0  0
  1  2  1  0  0  0  0
  1 21  1  0  0  0  0
  1 22  1  0  0  0  0
  1 23  1  0  0  0  0
  2 20  1  0  0  0  0
  2  3  1  0  0  0  0
  2 24  1  0  0  0  0
  3  4  1  0  0  0  0
  3 25  1  0  0  0  0
  3 26  1  0  0  0  0
  4  5  1  0  0  0  0
  4  6  1  0  0  0  0
  4 27  1  0  0  0  0
  5 28  1  0  0  0  0
  5 29  1  0  0  0  0
  5 30  1  0  0  0  0
  6  7  1  0  0  0  0
  6 31  1  0  0  0  0
  6 32  1  0  0  0  0
  7  8  1  0  0  0  0
  7 20  1  0  0  0  0
  8  9  2  0  0  0  0
  8 10  1  0  0  0  0
 10 11  1  0  0  0  0
 10 12  1  0  0  0  0
 10 33  1  0  0  0  0
 11 34  1  0  0  0  0
 11 35  1  0  0  0  0
 11 36  1  0  0  0  0
 12 13  1  0  0  0  0
 12 37  1  0  0  0  0
 12 47  1  0  0  0  0
 13 14  1  0  0  0  0
 13 38  1  0  0  0  0
 13 39  1  0  0  0  0
 14 15  1  0  0  0  0
 14 40  1  0  0  0  0
 14 41  1  0  0  0  0
 15 19  1  0  0  0  0
 15 16  1  0  0  0  0
 16 17  2  0  0  0  0
 16 42  1  0  0  0  0
 17 18  1  0  0  0  0
 17 43  1  0  0  0  0
 18 19  2  0  0  0  0
 18 44  1  0  0  0  0
 20 45  1  0  0  0  0
 20 46  1  0  0  0  0
M  CHG  1  12   1
M  END
> <s_m_source_file>
AV-unprocessed.smi

> <i_m_source_file_index>
3331

> <i_lp_mmshare_version>
43012

> <i_f3d_flags>
0

> <s_epik_input>
W0NIM11bQ0BASF0xW0NIMl1bQ0BASF0oW0NIM10pW0NIMl1OKFtDSDJdMSlDKD1PKVtDQEhdKFtDSDNdKVtOSF1bQ0gyXVtDSDJdbjJbY0hdW2NIXVtjSF1uMg==

> <s_epik_cmdline>
J2VwaWtfcHl0aG9uJywgJy1waCcsICc3LjAnLCAnLXRuJywgJzgnLCAnLW1hJywgJzIwMCcsICctbWV0YWxfYmluZGluZycsICctaW1hZScsICc8aW5maWxlLm1hZT4nLCAnLW9tYWUnLCAnPG91dGZpbGUubWFlPic=

> <r_lp_tautomer_probability>
1

> <r_epik_Ionization_Penalty>
0.189706

> <r_epik_Ionization_Penalty_Charging>
0.189703

> <r_epik_Ionization_Penalty_Neutral>
2.45875e-06

> <r_epik_State_Penalty>
0.179341

> <r_epik_Charging_Adjusted_Penalty>
0.369044

> <i_epik_Tot_Q>
1

> <i_epik_Tot_abs_Q>
1

> <r_epik_Metal_State_Penalty>
0.179578

> <b_epik_Metal_Only>
0

> <s_lp_Force_Field>
OPLS_2005

> <r_lp_Energy>
28.246

> <b_lp_Chiralities_Consistent>
1

> <s_lp_Variant>
AV-unprocessed.smi:3331-1

> <Gold.Version>
5.8.1

> <Gold.Id.Protein>
6NUR|6NUR_protein|mol2

> <Gold.PLP.Fitness>
41.4566

> <Gold.PLP.PLP>
-31.1882

> <Gold.PLP.part.hbond>
-1.0000

> <Gold.PLP.part.metal>
0.0000

> <Gold.PLP.part.buried>
6.2271

> <Gold.PLP.part.nonpolar>
-36.7610

> <Gold.PLP.part.repulsive>
0.3273

> <Gold.PLP.ligand.clash>
0.0000

> <Gold.PLP.ligand.torsion>
0.5970

> <Gold.PLP.Chemscore.Hbond>
2.0000

> <Gold.PLP.Chemscore.CHOScore>
1.8008

> <Gold.PLP.Chemscore.Metal>
0.0000

> <Gold.Chemscore.Hbonds>
donor molecule, donor type, donor heavy atom, donor atom, acceptor molecule, acceptor atom, score
      L1  H    12    47       P1 10175  2.00
      L1  C    16    42       P1  7948  0.81
      L1  C    18    44       P1 10186  0.94

> <Gold.PLP.Chemscore.Internal.Correction>
0.0598

> <Gold.Rescore>
     Score         DG    S(hbond)    S(metal)    S(lipo)     H(rot)  DE(clash)    DE(int)     intcor
     11.77     -14.14       0.94        0.00      84.80       1.73       1.63       0.74       ----

> <Gold.Chemscore.Fitness>
11.7749

> <Gold.Chemscore.DG>
-14.1385

> <Gold.Chemscore.ZeroCoef>
-5.4800

> <Gold.Chemscore.Hbond>
0.9442

> <Gold.Chemscore.Metal>
0.0000

> <Gold.Chemscore.Lipo>
84.8034

> <Gold.Chemscore.Internal_Hbond>
0.0000

> <Gold.Chemscore.DEClash>
1.6270

> <Gold.Chemscore.DEInternal>
0.7365

> <Gold.Chemscore.Rot>
1.7254

> <Gold.Chemscore.Internal.Correction>
   9.000000E+99

> <Gold.Chemscore.Hbonds>
donor molecule, donor type, donor heavy atom, donor atom, acceptor molecule, acceptor atom, score
      L1  H    12    47       P1 10175  1.00

> <Gold.Chemscore.Hbond.Weighted>
-3.1535

> <Gold.Chemscore.Metal.Weighted>
-0.0000

> <Gold.Chemscore.Lipo.Weighted>
-9.9220

> <Gold.Chemscore.Internal_Hbond.Weighted>
0.0000

> <Gold.Chemscore.DEClash.Weighted>
1.6270

> <Gold.Chemscore.DEInternal.Weighted>
0.7365

> <Gold.Chemscore.Rot.Weighted>
4.4170

> <Gold.Chemscore.Internal.Correction.Weighted>
   9.000000E+99

> <Gold.Protein.RotatedTorsions>
[ 6907 6896 6895 6894 ] final  -46.41 input  -60.11 | X-H torsion
[ 7974 7965 7964 7962 ] final -168.77 input  175.53 | X-H torsion
[ 8008 7997 7996 7995 ] final  169.35 input   59.86 | X-H torsion
[ 10167 10162 10161 10158 ] final   44.39 input  -65.29 | X-H torsion
[ 10718 10713 10712 10709 ] final  107.74 input   66.30 | X-H torsion
[ 10763 10752 10751 10750 ] final  -44.40 input  -60.55 | X-H torsion
[ 11005 11000 10999 10996 ] final  152.65 input  -57.11 | X-H torsion

> <Gold.Protein.ActiveResidues>
 VAL166  LYS551  ARG553  GLY616  TRP617  ASP618  TYR619  PRO620  LYS621  CYS622 
 ASP623  PHE694  ASN695  SER759  ASP760  ASP761  ALA762  ILE779  LEU786  VAL792 
 PHE793  MET794  SER795  GLU796  ALA797  LYS798  CYS799  TRP800  GLU811  SER814 

> <Gold.Protein.RotatedAtoms>
  150.9115  134.8532  159.7428 H   0  0  0  0  0  0  0  0  0  0  0  0  # atno 6907 bound_to 6896
  152.4947  134.4352  159.9535 H   0  0  0  0  0  0  0  0  0  0  0  0  # atno 6908 bound_to 6896
  151.4394  133.3608  159.2815 H   0  0  0  0  0  0  0  0  0  0  0  0  # atno 6909 bound_to 6896
  144.7197  140.2321  143.6303 H   0  0  0  0  0  0  0  0  0  0  0  0  # atno 7974 bound_to 7965
  156.1465  140.1566  156.8838 H   0  0  0  0  0  0  0  0  0  0  0  0  # atno 8008 bound_to 7997
  154.5033  140.0819  156.7880 H   0  0  0  0  0  0  0  0  0  0  0  0  # atno 8009 bound_to 7997
  155.3978  140.3413  155.4257 H   0  0  0  0  0  0  0  0  0  0  0  0  # atno 8010 bound_to 7997
  140.3348  144.2544  150.6163 H   0  0  0  0  0  0  0  0  0  0  0  0  # atno 10167 bound_to 10162
  157.6616  131.0879  150.6201 H   0  0  0  0  0  0  0  0  0  0  0  0  # atno 10718 bound_to 10713
  154.0114  135.6681  153.4765 H   0  0  0  0  0  0  0  0  0  0  0  0  # atno 10763 bound_to 10752
  153.0619  135.5023  154.8109 H   0  0  0  0  0  0  0  0  0  0  0  0  # atno 10764 bound_to 10752
  154.6993  135.3076  154.9329 H   0  0  0  0  0  0  0  0  0  0  0  0  # atno 10765 bound_to 10752
  140.1327  134.8791  157.2225 H   0  0  0  0  0  0  0  0  0  0  0  0  # atno 11005 bound_to 11000
  145.8401  139.2125  143.1832 LP  0  0  0  0  0  0  0  0  0  0  0  0  # atno 17320 bound_to 7965
  146.0354  140.8217  142.9855 LP  0  0  0  0  0  0  0  0  0  0  0  0  # atno 17321 bound_to 7965
  140.5364  143.2232  151.8156 LP  0  0  0  0  0  0  0  0  0  0  0  0  # atno 17342 bound_to 10162
  139.4850  144.4656  151.9488 LP  0  0  0  0  0  0  0  0  0  0  0  0  # atno 17343 bound_to 10162
  156.6503  130.4483  149.5721 LP  0  0  0  0  0  0  0  0  0  0  0  0  # atno 17370 bound_to 10713
  156.2142  130.6698  151.1302 LP  0  0  0  0  0  0  0  0  0  0  0  0  # atno 17371 bound_to 10713
  140.2821  134.3337  155.7340 LP  0  0  0  0  0  0  0  0  0  0  0  0  # atno 17394 bound_to 11000
  141.2173  133.7485  156.9380 LP  0  0  0  0  0  0  0  0  0  0  0  0  # atno 17395 bound_to 11000

$$$$
