AV-unprocessed.smi:3165|AV-procd|sdf|12089|dock6
  -GOLD-   2272017523D 1   1.00000     0.00000
 Structure written by MMmdl.
 37 38  0  0  0  0  0  0  0  0  1 V2000
  149.2624  141.4938  156.4355 C   0  0  0  0  0  0  0  0  0  0  0  0
  150.7326  141.8504  156.1648 C   0  0  2  0  0  0  0  0  0  0  0  0
  151.6830  140.6480  156.3967 C   0  0  0  0  0  0  0  0  0  0  0  0
  151.3852  139.4898  155.5687 N   0  0  0  0  0  0  0  0  0  0  0  0
  151.7999  138.1849  155.7361 C   0  0  0  0  0  0  0  0  0  0  0  0
  151.2648  137.4528  154.7154 C   0  0  0  0  0  0  0  0  0  0  0  0
  150.5234  138.4089  153.9669 C   0  0  0  0  0  0  0  0  0  0  0  0
  150.5923  139.6246  154.4831 N   0  0  0  0  0  0  0  0  0  0  0  0
  151.0972  143.0351  156.9500 N   0  0  0  0  0  0  0  0  0  0  0  0
  150.6181  143.0537  158.3316 C   0  0  0  0  0  0  0  0  0  0  0  0
  151.7745  143.2917  159.3126 C   0  0  2  0  0  0  0  0  0  0  0  0
  152.5541  141.9926  159.5944 C   0  0  0  0  0  0  0  0  0  0  0  0
  153.6419  142.2316  160.6477 C   0  0  0  0  0  0  0  0  0  0  0  0
  153.0226  142.8728  161.8941 C   0  0  0  0  0  0  0  0  0  0  0  0
  152.2095  144.1176  161.5058 C   0  0  0  0  0  0  0  0  0  0  0  0
  151.2238  143.7687  160.5393 O   0  0  0  0  0  0  0  0  0  0  0  0
  148.9603  140.6156  155.8645 H   0  0  0  0  0  0  0  0  0  0  0  0
  148.6025  142.3131  156.1489 H   0  0  0  0  0  0  0  0  0  0  0  0
  149.0849  141.2833  157.4905 H   0  0  0  0  0  0  0  0  0  0  0  0
  150.8018  142.1106  155.1079 H   0  0  0  0  0  0  0  0  0  0  0  0
  152.7063  140.9551  156.1779 H   0  0  0  0  0  0  0  0  0  0  0  0
  151.6937  140.3421  157.4431 H   0  0  0  0  0  0  0  0  0  0  0  0
  152.4367  137.8909  156.5575 H   0  0  0  0  0  0  0  0  0  0  0  0
  151.3843  136.3957  154.5315 H   0  0  0  0  0  0  0  0  0  0  0  0
  149.9387  138.2563  153.0717 H   0  0  0  0  0  0  0  0  0  0  0  0
  152.1044  143.1593  156.9361 H   0  0  0  0  0  0  0  0  0  0  0  0
  149.8586  143.8216  158.4767 H   0  0  0  0  0  0  0  0  0  0  0  0
  150.1471  142.0970  158.5601 H   0  0  0  0  0  0  0  0  0  0  0  0
  152.4546  144.0383  158.8975 H   0  0  0  0  0  0  0  0  0  0  0  0
  151.8676  141.2224  159.9488 H   0  0  0  0  0  0  0  0  0  0  0  0
  153.0028  141.6125  158.6762 H   0  0  0  0  0  0  0  0  0  0  0  0
  154.1343  141.2940  160.9070 H   0  0  0  0  0  0  0  0  0  0  0  0
  154.4108  142.8888  160.2392 H   0  0  0  0  0  0  0  0  0  0  0  0
  152.3706  142.1535  162.3909 H   0  0  0  0  0  0  0  0  0  0  0  0
  153.8011  143.1370  162.6100 H   0  0  0  0  0  0  0  0  0  0  0  0
  151.7109  144.5278  162.3841 H   0  0  0  0  0  0  0  0  0  0  0  0
  152.8585  144.9017  161.1131 H   0  0  0  0  0  0  0  0  0  0  0  0
  1  2  1  0  0  0  0
  1 17  1  0  0  0  0
  1 18  1  0  0  0  0
  1 19  1  0  0  0  0
  2  3  1  0  0  0  0
  2  9  1  0  0  0  0
  2 20  1  0  0  0  0
  3  4  1  0  0  0  0
  3 21  1  0  0  0  0
  3 22  1  0  0  0  0
  4  8  1  0  0  0  0
  4  5  1  0  0  0  0
  5  6  2  0  0  0  0
  5 23  1  0  0  0  0
  6  7  1  0  0  0  0
  6 24  1  0  0  0  0
  7  8  2  0  0  0  0
  7 25  1  0  0  0  0
  9 10  1  0  0  0  0
  9 26  1  0  0  0  0
 10 11  1  0  0  0  0
 10 27  1  0  0  0  0
 10 28  1  0  0  0  0
 11 16  1  0  0  0  0
 11 12  1  0  0  0  0
 11 29  1  0  0  0  0
 12 13  1  0  0  0  0
 12 30  1  0  0  0  0
 12 31  1  0  0  0  0
 13 14  1  0  0  0  0
 13 32  1  0  0  0  0
 13 33  1  0  0  0  0
 14 15  1  0  0  0  0
 14 34  1  0  0  0  0
 14 35  1  0  0  0  0
 15 16  1  0  0  0  0
 15 36  1  0  0  0  0
 15 37  1  0  0  0  0
M  END
> <s_m_source_file>
AV-unprocessed.smi

> <i_m_source_file_index>
3165

> <i_lp_mmshare_version>
43012

> <i_f3d_flags>
0

> <s_epik_input>
bjFbY0hdW2NIXVtjSF1uMVtDSDJdW0NAQEhdKFtDSDNdKVtOSF1bQ0gyXVtDQEBIXTJbQ0gyXVtDSDJdW0NIMl1bQ0gyXU8y

> <s_epik_cmdline>
J2VwaWtfcHl0aG9uJywgJy1waCcsICc3LjAnLCAnLXRuJywgJzgnLCAnLW1hJywgJzIwMCcsICctbWV0YWxfYmluZGluZycsICctaW1hZScsICc8aW5maWxlLm1hZT4nLCAnLW9tYWUnLCAnPG91dGZpbGUubWFlPic=

> <r_lp_tautomer_probability>
1

> <r_epik_Ionization_Penalty>
2.51982

> <r_epik_Ionization_Penalty_Charging>
0

> <r_epik_Ionization_Penalty_Neutral>
2.51982

> <r_epik_State_Penalty>
2.68614

> <r_epik_Charging_Adjusted_Penalty>
2.68614

> <i_epik_Tot_Q>
0

> <i_epik_Tot_abs_Q>
0

> <r_epik_Metal_State_Penalty>
2.6861

> <b_epik_Metal_Only>
0

> <s_lp_Force_Field>
OPLS_2005

> <r_lp_Energy>
14.3424

> <b_lp_Chiralities_Consistent>
1

> <s_lp_Variant>
AV-unprocessed.smi:3165-5

> <Gold.Version>
5.8.1

> <Gold.Id.Protein>
6NUR|6NUR_protein|mol2

> <Gold.PLP.Fitness>
47.3212

> <Gold.PLP.PLP>
-40.3562

> <Gold.PLP.part.hbond>
-2.5929

> <Gold.PLP.part.metal>
0.0000

> <Gold.PLP.part.buried>
-5.4930

> <Gold.PLP.part.nonpolar>
-32.5002

> <Gold.PLP.part.repulsive>
0.2354

> <Gold.PLP.ligand.clash>
0.0000

> <Gold.PLP.ligand.torsion>
0.9763

> <Gold.PLP.Chemscore.Hbond>
1.0000

> <Gold.PLP.Chemscore.CHOScore>
1.9538

> <Gold.PLP.Chemscore.Metal>
0.0000

> <Gold.Chemscore.Hbonds>
donor molecule, donor type, donor heavy atom, donor atom, acceptor molecule, acceptor atom, score
      P1  H  7989  7998       L1     8  1.00
      L1  C     7    25       P1  7948  1.00
      L1  C     7    25       P1  7957  0.72

> <Gold.PLP.Chemscore.Internal.Correction>
0.0560

> <Gold.Rescore>
     Score         DG    S(hbond)    S(metal)    S(lipo)     H(rot)  DE(clash)    DE(int)     intcor
     16.03     -16.97       0.98        0.00     104.59       1.57       0.09       0.85       ----

> <Gold.Chemscore.Fitness>
16.0302

> <Gold.Chemscore.DG>
-16.9677

> <Gold.Chemscore.ZeroCoef>
-5.4800

> <Gold.Chemscore.Hbond>
0.9814

> <Gold.Chemscore.Metal>
0.0000

> <Gold.Chemscore.Lipo>
104.5919

> <Gold.Chemscore.Internal_Hbond>
0.0000

> <Gold.Chemscore.DEClash>
0.0864

> <Gold.Chemscore.DEInternal>
0.8511

> <Gold.Chemscore.Rot>
1.5731

> <Gold.Chemscore.Internal.Correction>
   9.000000E+99

> <Gold.Chemscore.Hbonds>
donor molecule, donor type, donor heavy atom, donor atom, acceptor molecule, acceptor atom, score
      P1  H  7989  7998       L1     8  0.23

> <Gold.Chemscore.Hbond.Weighted>
-3.2777

> <Gold.Chemscore.Metal.Weighted>
-0.0000

> <Gold.Chemscore.Lipo.Weighted>
-12.2373

> <Gold.Chemscore.Internal_Hbond.Weighted>
0.0000

> <Gold.Chemscore.DEClash.Weighted>
0.0864

> <Gold.Chemscore.DEInternal.Weighted>
0.8511

> <Gold.Chemscore.Rot.Weighted>
4.0273

> <Gold.Chemscore.Internal.Correction.Weighted>
   9.000000E+99

> <Gold.Protein.RotatedTorsions>
[ 6907 6896 6895 6894 ] final -174.91 input  -60.11 | X-H torsion
[ 7974 7965 7964 7962 ] final   49.06 input  175.53 | X-H torsion
[ 8008 7997 7996 7995 ] final   20.24 input   59.86 | X-H torsion
[ 10167 10162 10161 10158 ] final -151.01 input  -65.29 | X-H torsion
[ 10718 10713 10712 10709 ] final  -35.71 input   66.30 | X-H torsion
[ 10763 10752 10751 10750 ] final   54.87 input  -60.55 | X-H torsion
[ 11005 11000 10999 10996 ] final  -82.64 input  -57.11 | X-H torsion

> <Gold.Protein.ActiveResidues>
 VAL166  LYS551  ARG553  GLY616  TRP617  ASP618  TYR619  PRO620  LYS621  CYS622 
 ASP623  PHE694  ASN695  SER759  ASP760  ASP761  ALA762  ILE779  LEU786  VAL792 
 PHE793  MET794  SER795  GLU796  ALA797  LYS798  CYS799  TRP800  GLU811  SER814 

> <Gold.Protein.RotatedAtoms>
  151.5801  133.3379  159.3006 H   0  0  0  0  0  0  0  0  0  0  0  0  # atno 6907 bound_to 6896
  150.8318  134.7578  159.6871 H   0  0  0  0  0  0  0  0  0  0  0  0  # atno 6908 bound_to 6896
  152.4401  134.5615  159.9947 H   0  0  0  0  0  0  0  0  0  0  0  0  # atno 6909 bound_to 6896
  146.0145  139.4580  142.9935 H   0  0  0  0  0  0  0  0  0  0  0  0  # atno 7974 bound_to 7965
  154.9327  140.3042  155.5160 H   0  0  0  0  0  0  0  0  0  0  0  0  # atno 8008 bound_to 7997
  156.3002  140.2351  156.4325 H   0  0  0  0  0  0  0  0  0  0  0  0  # atno 8009 bound_to 7997
  154.8222  140.0423  157.1407 H   0  0  0  0  0  0  0  0  0  0  0  0  # atno 8010 bound_to 7997
  139.7304  143.8817  152.2533 H   0  0  0  0  0  0  0  0  0  0  0  0  # atno 10167 bound_to 10162
  156.3354  130.4285  149.7835 H   0  0  0  0  0  0  0  0  0  0  0  0  # atno 10718 bound_to 10713
  152.9809  135.5730  154.4974 H   0  0  0  0  0  0  0  0  0  0  0  0  # atno 10763 bound_to 10752
  154.4499  135.2778  155.1791 H   0  0  0  0  0  0  0  0  0  0  0  0  # atno 10764 bound_to 10752
  154.3423  135.6227  153.5656 H   0  0  0  0  0  0  0  0  0  0  0  0  # atno 10765 bound_to 10752
  141.1662  133.7255  156.8602 H   0  0  0  0  0  0  0  0  0  0  0  0  # atno 11005 bound_to 11000
  145.7290  141.0049  143.1361 LP  0  0  0  0  0  0  0  0  0  0  0  0  # atno 17320 bound_to 7965
  144.6965  139.8962  143.7456 LP  0  0  0  0  0  0  0  0  0  0  0  0  # atno 17321 bound_to 7965
  139.8738  144.7054  150.8956 LP  0  0  0  0  0  0  0  0  0  0  0  0  # atno 17342 bound_to 10162
  140.7770  143.3716  151.1638 LP  0  0  0  0  0  0  0  0  0  0  0  0  # atno 17343 bound_to 10162
  156.5092  130.8164  151.3162 LP  0  0  0  0  0  0  0  0  0  0  0  0  # atno 17370 bound_to 10713
  157.7438  130.9919  150.2619 LP  0  0  0  0  0  0  0  0  0  0  0  0  # atno 17371 bound_to 10713
  140.1854  134.9004  157.2998 LP  0  0  0  0  0  0  0  0  0  0  0  0  # atno 17394 bound_to 11000
  140.2349  134.3865  155.7505 LP  0  0  0  0  0  0  0  0  0  0  0  0  # atno 17395 bound_to 11000

$$$$
