AV-unprocessed.smi:1794|AV-procd|sdf|7233|dock5
  -GOLD-   22720 8473D 1   1.00000     0.00000
 Structure written by MMmdl.
 55 57  0  0  0  0  0  0  0  0  2 V2000
  148.9773  133.6304  153.6728 C   0  0  0  0  0  0  0  0  0  0  0  0
  148.2876  132.2857  154.0162 C   0  0  0  0  0  0  0  0  0  0  0  0
  149.4273  131.3024  154.3834 C   0  0  0  0  0  0  0  0  0  0  0  0
  147.3310  132.4573  155.2351 C   0  0  0  0  0  0  0  0  0  0  0  0
  147.8390  133.3878  156.2429 N   0  0  0  0  0  0  0  0  0  0  0  0
  147.3413  133.5518  157.4771 C   0  0  0  0  0  0  0  0  0  0  0  0
  146.3936  132.9002  157.9131 O   0  0  0  0  0  0  0  0  0  0  0  0
  148.0093  134.5138  158.1367 N   0  0  0  0  0  0  0  0  0  0  0  0
  147.7980  135.0671  159.4358 C   0  0  0  0  0  0  0  0  0  0  0  0
  147.3333  134.3069  160.5398 C   0  0  0  0  0  0  0  0  0  0  0  0
  147.1090  134.9431  161.7728 C   0  0  0  0  0  0  0  0  0  0  0  0
  147.3506  136.3230  161.8647 C   0  0  0  0  0  0  0  0  0  0  0  0
  147.7958  137.0607  160.8292 N   0  0  0  0  0  0  0  0  0  0  0  0
  148.0299  136.4591  159.6373 C   0  0  0  0  0  0  0  0  0  0  0  0
  148.5177  137.2785  158.5938 N   0  0  0  0  0  0  0  0  0  0  0  0
  147.6599  138.2909  157.9855 C   0  0  0  0  0  0  0  0  0  0  0  0
  148.6140  139.2377  157.2628 C   0  0  0  0  0  0  0  0  0  0  0  0
  149.8256  139.2463  158.1890 C   0  0  0  0  0  0  0  0  0  0  0  0
  149.8661  137.8184  158.7431 C   0  0  0  0  0  0  0  0  0  0  0  0
  147.5482  131.7796  152.8036 N   0  3  0  0  0  0  0  0  0  0  0  0
  146.8846  130.4531  152.9515 C   0  0  0  0  0  0  0  0  0  0  0  0
  146.3366  129.9693  151.5985 C   0  0  0  0  0  0  0  0  0  0  0  0
  145.4279  130.9290  151.0786 O   0  0  0  0  0  0  0  0  0  0  0  0
  146.0616  132.1788  150.8462 C   0  0  0  0  0  0  0  0  0  0  0  0
  146.6004  132.7415  152.1721 C   0  0  0  0  0  0  0  0  0  0  0  0
  149.6964  133.9246  154.4379 H   0  0  0  0  0  0  0  0  0  0  0  0
  148.2663  134.4525  153.5948 H   0  0  0  0  0  0  0  0  0  0  0  0
  149.5250  133.5682  152.7317 H   0  0  0  0  0  0  0  0  0  0  0  0
  150.1031  131.7274  155.1264 H   0  0  0  0  0  0  0  0  0  0  0  0
  150.0314  131.0501  153.5110 H   0  0  0  0  0  0  0  0  0  0  0  0
  149.0527  130.3740  154.8139 H   0  0  0  0  0  0  0  0  0  0  0  0
  146.3375  132.7713  154.9137 H   0  0  0  0  0  0  0  0  0  0  0  0
  147.1898  131.5047  155.7445 H   0  0  0  0  0  0  0  0  0  0  0  0
  148.6217  133.9647  155.9709 H   0  0  0  0  0  0  0  0  0  0  0  0
  148.7696  134.9381  157.6257 H   0  0  0  0  0  0  0  0  0  0  0  0
  147.1323  133.2506  160.4797 H   0  0  0  0  0  0  0  0  0  0  0  0
  146.7525  134.3855  162.6263 H   0  0  0  0  0  0  0  0  0  0  0  0
  147.1838  136.8486  162.7932 H   0  0  0  0  0  0  0  0  0  0  0  0
  146.9412  137.8402  157.3007 H   0  0  0  0  0  0  0  0  0  0  0  0
  147.1081  138.8470  158.7441 H   0  0  0  0  0  0  0  0  0  0  0  0
  148.8890  138.8236  156.2918 H   0  0  0  0  0  0  0  0  0  0  0  0
  148.1896  140.2293  157.1032 H   0  0  0  0  0  0  0  0  0  0  0  0
  150.7483  139.5314  157.6832 H   0  0  0  0  0  0  0  0  0  0  0  0
  149.6570  139.9511  159.0042 H   0  0  0  0  0  0  0  0  0  0  0  0
  150.2053  137.8029  159.7798 H   0  0  0  0  0  0  0  0  0  0  0  0
  150.5535  137.2112  158.1539 H   0  0  0  0  0  0  0  0  0  0  0  0
  147.5759  129.6967  153.3175 H   0  0  0  0  0  0  0  0  0  0  0  0
  146.0664  130.5171  153.6689 H   0  0  0  0  0  0  0  0  0  0  0  0
  147.1476  129.7941  150.8895 H   0  0  0  0  0  0  0  0  0  0  0  0
  145.8135  129.0209  151.7231 H   0  0  0  0  0  0  0  0  0  0  0  0
  146.8640  132.0653  150.1152 H   0  0  0  0  0  0  0  0  0  0  0  0
  145.3345  132.8671  150.4149 H   0  0  0  0  0  0  0  0  0  0  0  0
  145.7642  132.9447  152.8412 H   0  0  0  0  0  0  0  0  0  0  0  0
  147.0787  133.6947  151.9563 H   0  0  0  0  0  0  0  0  0  0  0  0
  148.2704  131.6340  152.1126 H   0  0  0  0  0  0  0  0  0  0  0  0
  1  2  1  0  0  0  0
  1 26  1  0  0  0  0
  1 27  1  0  0  0  0
  1 28  1  0  0  0  0
  2  3  1  0  0  0  0
  2  4  1  0  0  0  0
  2 20  1  0  0  0  0
  3 29  1  0  0  0  0
  3 30  1  0  0  0  0
  3 31  1  0  0  0  0
  4  5  1  0  0  0  0
  4 32  1  0  0  0  0
  4 33  1  0  0  0  0
  5  6  1  0  0  0  0
  5 34  1  0  0  0  0
  6  7  2  0  0  0  0
  6  8  1  0  0  0  0
  8  9  1  0  0  0  0
  8 35  1  0  0  0  0
  9 14  1  0  0  0  0
  9 10  2  0  0  0  0
 10 11  1  0  0  0  0
 10 36  1  0  0  0  0
 11 12  2  0  0  0  0
 11 37  1  0  0  0  0
 12 13  1  0  0  0  0
 12 38  1  0  0  0  0
 13 14  2  0  0  0  0
 14 15  1  0  0  0  0
 15 19  1  0  0  0  0
 15 16  1  0  0  0  0
 16 17  1  0  0  0  0
 16 39  1  0  0  0  0
 16 40  1  0  0  0  0
 17 18  1  0  0  0  0
 17 41  1  0  0  0  0
 17 42  1  0  0  0  0
 18 19  1  0  0  0  0
 18 43  1  0  0  0  0
 18 44  1  0  0  0  0
 19 45  1  0  0  0  0
 19 46  1  0  0  0  0
 20 25  1  0  0  0  0
 20 21  1  0  0  0  0
 20 55  1  0  0  0  0
 21 22  1  0  0  0  0
 21 47  1  0  0  0  0
 21 48  1  0  0  0  0
 22 23  1  0  0  0  0
 22 49  1  0  0  0  0
 22 50  1  0  0  0  0
 23 24  1  0  0  0  0
 24 25  1  0  0  0  0
 24 51  1  0  0  0  0
 24 52  1  0  0  0  0
 25 53  1  0  0  0  0
 25 54  1  0  0  0  0
M  CHG  1  20   1
M  END
> <s_m_source_file>
AV-unprocessed.smi

> <i_m_source_file_index>
1794

> <i_lp_mmshare_version>
43012

> <i_f3d_flags>
0

> <s_epik_input>
W0NIMl0xW0NIMl1PW0NIMl1bQ0gyXU4xQyhbQ0gzXSkoW0NIM10pW0NIMl1bTkhdQyg9TylbTkhdYzJbY0hdW2NIXVtjSF1uYzJOM1tDSDJdW0NIMl1bQ0gyXVtDSDJdMw==

> <s_epik_cmdline>
J2VwaWtfcHl0aG9uJywgJy1waCcsICc3LjAnLCAnLXRuJywgJzgnLCAnLW1hJywgJzIwMCcsICctbWV0YWxfYmluZGluZycsICctaW1hZScsICc8aW5maWxlLm1hZT4nLCAnLW9tYWUnLCAnPG91dGZpbGUubWFlPic=

> <r_lp_tautomer_probability>
1

> <r_epik_Ionization_Penalty>
0.687101

> <r_epik_Ionization_Penalty_Charging>
0.602531

> <r_epik_Ionization_Penalty_Neutral>
0.0845706

> <r_epik_State_Penalty>
0.681137

> <r_epik_Charging_Adjusted_Penalty>
1.28367

> <i_epik_Tot_Q>
1

> <i_epik_Tot_abs_Q>
1

> <r_epik_Metal_State_Penalty>
0.680055

> <b_epik_Metal_Only>
0

> <s_lp_Force_Field>
OPLS_2005

> <r_lp_Energy>
53.5269

> <b_lp_Chiralities_Consistent>
1

> <s_lp_Variant>
AV-unprocessed.smi:1794-2

> <Gold.Version>
5.8.1

> <Gold.Id.Protein>
6NUR|6NUR_protein|mol2

> <Gold.PLP.Fitness>
40.6979

> <Gold.PLP.PLP>
-35.1435

> <Gold.PLP.part.hbond>
-2.9519

> <Gold.PLP.part.metal>
0.0000

> <Gold.PLP.part.buried>
-4.0000

> <Gold.PLP.part.nonpolar>
-28.4868

> <Gold.PLP.part.repulsive>
0.1650

> <Gold.PLP.ligand.clash>
0.0000

> <Gold.PLP.ligand.torsion>
0.8616

> <Gold.PLP.Chemscore.Hbond>
2.2886

> <Gold.PLP.Chemscore.CHOScore>
0.0000

> <Gold.PLP.Chemscore.Metal>
0.0000

> <Gold.Chemscore.Hbonds>
donor molecule, donor type, donor heavy atom, donor atom, acceptor molecule, acceptor atom, score
      L1  H    20    55       P1 10747  0.81
      P1  H  6931  6943       L1    13  0.78
      P1  H  6934  6947       L1    13  0.83

> <Gold.PLP.Chemscore.Internal.Correction>
0.4117

> <Gold.Rescore>
     Score         DG    S(hbond)    S(metal)    S(lipo)     H(rot)  DE(clash)    DE(int)     intcor
     15.71     -16.85       1.70        0.00      83.80       1.60       0.44       0.70       ----

> <Gold.Chemscore.Fitness>
15.7126

> <Gold.Chemscore.DG>
-16.8519

> <Gold.Chemscore.ZeroCoef>
-5.4800

> <Gold.Chemscore.Hbond>
1.6991

> <Gold.Chemscore.Metal>
0.0000

> <Gold.Chemscore.Lipo>
83.7962

> <Gold.Chemscore.Internal_Hbond>
0.0000

> <Gold.Chemscore.DEClash>
0.4415

> <Gold.Chemscore.DEInternal>
0.6978

> <Gold.Chemscore.Rot>
1.6044

> <Gold.Chemscore.Internal.Correction>
   9.000000E+99

> <Gold.Chemscore.Hbonds>
donor molecule, donor type, donor heavy atom, donor atom, acceptor molecule, acceptor atom, score
      L1  H    20    55       P1 10747  0.78
      P1  H  6931  6943       L1    13  0.12
      P1  H  6934  6947       L1    13  0.65

> <Gold.Chemscore.Hbond.Weighted>
-5.6750

> <Gold.Chemscore.Metal.Weighted>
-0.0000

> <Gold.Chemscore.Lipo.Weighted>
-9.8042

> <Gold.Chemscore.Internal_Hbond.Weighted>
0.0000

> <Gold.Chemscore.DEClash.Weighted>
0.4415

> <Gold.Chemscore.DEInternal.Weighted>
0.6978

> <Gold.Chemscore.Rot.Weighted>
4.1072

> <Gold.Chemscore.Internal.Correction.Weighted>
   9.000000E+99

> <Gold.Protein.RotatedTorsions>
[ 6907 6896 6895 6894 ] final   76.44 input  -60.11 | X-H torsion
[ 7974 7965 7964 7962 ] final  104.86 input  175.53 | X-H torsion
[ 8008 7997 7996 7995 ] final  149.80 input   59.86 | X-H torsion
[ 10167 10162 10161 10158 ] final  -95.97 input  -65.29 | X-H torsion
[ 10718 10713 10712 10709 ] final -120.03 input   66.30 | X-H torsion
[ 10763 10752 10751 10750 ] final  -49.90 input  -60.55 | X-H torsion
[ 11005 11000 10999 10996 ] final   76.37 input  -57.11 | X-H torsion

> <Gold.Protein.ActiveResidues>
 VAL166  LYS551  ARG553  GLY616  TRP617  ASP618  TYR619  PRO620  LYS621  CYS622 
 ASP623  PHE694  ASN695  SER759  ASP760  ASP761  ALA762  ILE779  LEU786  VAL792 
 PHE793  MET794  SER795  GLU796  ALA797  LYS798  CYS799  TRP800  GLU811  SER814 

> <Gold.Protein.RotatedAtoms>
  152.5073  134.3968  159.9402 H   0  0  0  0  0  0  0  0  0  0  0  0  # atno 6907 bound_to 6896
  151.3930  133.3776  159.2731 H   0  0  0  0  0  0  0  0  0  0  0  0  # atno 6908 bound_to 6896
  150.9418  134.8847  159.7676 H   0  0  0  0  0  0  0  0  0  0  0  0  # atno 6909 bound_to 6896
  145.3272  139.2496  143.3680 H   0  0  0  0  0  0  0  0  0  0  0  0  # atno 7974 bound_to 7965
  156.2741  140.2092  156.5915 H   0  0  0  0  0  0  0  0  0  0  0  0  # atno 8008 bound_to 7997
  154.6978  140.0524  157.0452 H   0  0  0  0  0  0  0  0  0  0  0  0  # atno 8009 bound_to 7997
  155.0776  140.3183  155.4614 H   0  0  0  0  0  0  0  0  0  0  0  0  # atno 8010 bound_to 7997
  140.2986  143.3176  152.0272 H   0  0  0  0  0  0  0  0  0  0  0  0  # atno 10167 bound_to 10162
  156.1226  130.6335  150.9490 H   0  0  0  0  0  0  0  0  0  0  0  0  # atno 10718 bound_to 10713
  154.1016  135.6562  153.4869 H   0  0  0  0  0  0  0  0  0  0  0  0  # atno 10763 bound_to 10752
  153.0287  135.5226  154.7281 H   0  0  0  0  0  0  0  0  0  0  0  0  # atno 10764 bound_to 10752
  154.6434  135.2991  155.0044 H   0  0  0  0  0  0  0  0  0  0  0  0  # atno 10765 bound_to 10752
  139.9301  134.7595  156.1388 H   0  0  0  0  0  0  0  0  0  0  0  0  # atno 11005 bound_to 11000
  146.3060  140.3842  142.8687 LP  0  0  0  0  0  0  0  0  0  0  0  0  # atno 17320 bound_to 7965
  144.8893  140.7502  143.5937 LP  0  0  0  0  0  0  0  0  0  0  0  0  # atno 17321 bound_to 7965
  139.4920  144.6472  151.6752 LP  0  0  0  0  0  0  0  0  0  0  0  0  # atno 17342 bound_to 10162
  140.5670  144.0172  150.6197 LP  0  0  0  0  0  0  0  0  0  0  0  0  # atno 17343 bound_to 10162
  157.6409  131.0910  150.8253 LP  0  0  0  0  0  0  0  0  0  0  0  0  # atno 17370 bound_to 10713
  156.8347  130.5028  149.5327 LP  0  0  0  0  0  0  0  0  0  0  0  0  # atno 17371 bound_to 10713
  141.0884  133.6724  156.2487 LP  0  0  0  0  0  0  0  0  0  0  0  0  # atno 17394 bound_to 11000
  140.6226  134.5346  157.5549 LP  0  0  0  0  0  0  0  0  0  0  0  0  # atno 17395 bound_to 11000

$$$$
