#       Name:                AV-unprocessed.smi:2990
#       Creating user name   scv26
#       Creation time:       Fri Mar 27 16:31:41 2020


#       File generated by GOLD software.
#

@<TRIPOS>MOLECULE
AV-unprocessed.smi:2990
    44    46     1
SMALL
NO_CHARGES


@<TRIPOS>ATOM
      1 ****        -1.2237   1.8953   2.3907 C.3            1 S1                 0.0000
      2 ****        -1.4143   2.4669   1.0216 C.2            1 S1                 0.0000
      3 ****        -1.8768   3.7016   0.8249 N.2            1 S1                 0.0000
      4 ****        -1.9014   3.7999  -0.5529 C.ar           1 S1                 0.0000
      5 ****        -2.2970   4.8673  -1.3906 C.ar           1 S1                 0.0000
      6 ****        -2.2354   4.7343  -2.7933 C.ar           1 S1                 0.0000
      7 ****        -1.7774   3.5356  -3.3774 C.ar           1 S1                 0.0000
      8 ****        -1.3766   2.4604  -2.5610 C.ar           1 S1                 0.0000
      9 ****        -1.4414   2.5974  -1.1614 C.ar           1 S1                 0.0000
     10 ****        -1.1304   1.7560  -0.0973 N.pl3          1 S1                 0.0000
     11 ****        -0.6143   0.3967  -0.1880 C.3            1 S1                 0.0000
     12 ****         0.9246   0.3353  -0.1056 C.3            1 S1                 0.0000
     13 ****         1.4941   1.0861  -1.1596 O.3            1 S1                 0.0000
     14 ****         1.4596  -1.1015  -0.1928 C.3            1 S1                 0.0000
     15 ****         1.0497  -1.8214   0.9626 O.3            1 S1                 0.0000
     16 ****         1.4123  -3.1472   1.0674 C.ar           1 S1                 0.0000
     17 ****         0.9632  -3.8457   2.2076 C.ar           1 S1                 0.0000
     18 ****         1.2877  -5.2030   2.3965 C.ar           1 S1                 0.0000
     19 ****         2.0696  -5.8786   1.4415 C.ar           1 S1                 0.0000
     20 ****         2.5249  -5.1943   0.2994 C.ar           1 S1                 0.0000
     21 ****         2.1997  -3.8368   0.1103 C.ar           1 S1                 0.0000
     22 ****        -1.4779   2.6343   3.1513 H              1 S1                 0.0000
     23 ****        -0.1864   1.5960   2.5381 H              1 S1                 0.0000
     24 ****        -1.8670   1.0263   2.5298 H              1 S1                 0.0000
     25 ****        -2.6493   5.7895  -0.9530 H              1 S1                 0.0000
     26 ****        -2.5415   5.5560  -3.4241 H              1 S1                 0.0000
     27 ****        -1.7339   3.4418  -4.4526 H              1 S1                 0.0000
     28 ****        -1.0226   1.5420  -3.0053 H              1 S1                 0.0000
     29 ****        -1.0621  -0.2012   0.6060 H              1 S1                 0.0000
     30 ****        -0.9592  -0.0433  -1.1245 H              1 S1                 0.0000
     31 ****         1.2624   0.7809   0.8304 H              1 S1                 0.0000
     32 ****         1.1858   1.9771  -1.0930 H              1 S1                 0.0000
     33 ****         1.0901  -1.5837  -1.0996 H              1 S1                 0.0000
     34 ****         2.5500  -1.0832  -0.2389 H              1 S1                 0.0000
     35 ****         0.3626  -3.3349   2.9458 H              1 S1                 0.0000
     36 ****         0.9370  -5.7253   3.2744 H              1 S1                 0.0000
     37 ****         2.3200  -6.9193   1.5848 H              1 S1                 0.0000
     38 ****         3.1260  -5.7111  -0.4340 H              1 S1                 0.0000
     39 ****         2.5685  -3.3467  -0.7778 H              1 S1                 0.0000
     40 ****        -2.1402   4.3859   1.5049 LP             1 S1                 0.0000
     41 ****         1.2170   0.6979  -2.0385 LP             1 S1                 0.0000
     42 ****         2.4913   1.0677  -1.0866 LP             1 S1                 0.0000
     43 ****         0.0510  -1.7837   0.9965 LP             1 S1                 0.0000
     44 ****         1.4283  -1.3469   1.7573 LP             1 S1                 0.0000
@<TRIPOS>BOND
    1    1    2 1     
    2    1   22 1     
    3    1   23 1     
    4    1   24 1     
    5    2   10 1     
    6    2    3 2     
    7    3    4 1     
    8    4    9 ar    
    9    4    5 ar    
   10    5    6 ar    
   11    5   25 1     
   12    6    7 ar    
   13    6   26 1     
   14    7    8 ar    
   15    7   27 1     
   16    8    9 ar    
   17    8   28 1     
   18    9   10 1     
   19   10   11 1     
   20   11   12 1     
   21   11   29 1     
   22   11   30 1     
   23   12   13 1     
   24   12   14 1     
   25   12   31 1     
   26   13   32 1     
   27   14   15 1     
   28   14   33 1     
   29   14   34 1     
   30   15   16 1     
   31   16   21 ar    
   32   16   17 ar    
   33   17   18 ar    
   34   17   35 1     
   35   18   19 ar    
   36   18   36 1     
   37   19   20 ar    
   38   19   37 1     
   39   20   21 ar    
   40   20   38 1     
   41   21   39 1     
   42    3   40 1     
   43   13   41 1     
   44   13   42 1     
   45   15   43 1     
   46   15   44 1     
@<TRIPOS>SUBSTRUCTURE
      1 S1             1
@<TRIPOS>SET
LONE_PAIRS      STATIC     ATOMS    <user>   **** ""
5 40 41 42 43 44
DONOR_HYDROGENS      STATIC     ATOMS    <user>   **** ""
1 32
ATOM$BLUE        STATIC     ATOMS    COLORGROUP SYSTEM
5 40 41 42 43 44
ATOM$RED        STATIC     ATOMS    COLORGROUP SYSTEM
1 32
