#       Name:                AV-unprocessed.smi:1125
#       Creating user name   scv26
#       Creation time:       Fri Mar 27 03:39:55 2020


#       File generated by GOLD software.
#

@<TRIPOS>MOLECULE
AV-unprocessed.smi:1125
    49    50     1
SMALL
NO_CHARGES


@<TRIPOS>ATOM
      1 ****        -1.3552  -3.9386   1.4513 C.3            1 S1                 0.0000
      2 ****        -1.8332  -3.0732   0.3519 N.4            1 S1                 1.0000
      3 ****        -1.1652  -3.3808  -0.9374 C.3            1 S1                 0.0000
      4 ****        -1.7679  -2.5528  -2.0867 C.3            1 S1                 0.0000
      5 ****        -1.7263  -1.0415  -1.7889 C.3            1 S1                 0.0000
      6 ****        -0.3588  -0.5303  -1.8121 N.am           1 S1                 0.0000
      7 ****         0.3250  -0.1452  -2.9013 C.2            1 S1                 0.0000
      8 ****        -0.1251  -0.2181  -4.0442 O.2            1 S1                 0.0000
      9 ****         1.7398   0.3929  -2.6636 C.3            1 S1                 0.0000
     10 ****         1.7095   1.5891  -1.7536 C.2            1 S1                 0.0000
     11 ****         1.7264   2.9093  -2.1262 C.2            1 S1                 0.0000
     12 ****         1.6472   3.9726  -0.7494 S.3            1 S1                 0.0000
     13 ****         1.5970   2.5618   0.3137 C.2            1 S1                 0.0000
     14 ****         1.4770   2.6109   1.8176 C.3            1 S1                 0.0000
     15 ****         0.1546   1.9500   2.2532 C.3            1 S1                 0.0000
     16 ****         1.4683   4.0664   2.3326 C.3            1 S1                 0.0000
     17 ****         2.6794   1.8956   2.4636 C.3            1 S1                 0.0000
     18 ****         1.6524   1.4119  -0.3669 N.2            1 S1                 0.0000
     19 ****        -2.3694  -0.7623  -0.4188 C.3            1 S1                 0.0000
     20 ****        -1.7531  -1.6310   0.6935 C.3            1 S1                 0.0000
     21 ****        -0.2958  -3.7706   1.6494 H              1 S1                 0.0000
     22 ****        -1.4940  -4.9907   1.2003 H              1 S1                 0.0000
     23 ****        -1.9110  -3.7398   2.3682 H              1 S1                 0.0000
     24 ****        -0.0949  -3.1868  -0.8510 H              1 S1                 0.0000
     25 ****        -1.2755  -4.4427  -1.1606 H              1 S1                 0.0000
     26 ****        -1.2486  -2.7736  -3.0200 H              1 S1                 0.0000
     27 ****        -2.8038  -2.8580  -2.2396 H              1 S1                 0.0000
     28 ****        -2.3033  -0.5128  -2.5499 H              1 S1                 0.0000
     29 ****         0.1004  -0.4229  -0.9188 H              1 S1                 0.0000
     30 ****         2.3529  -0.4022  -2.2374 H              1 S1                 0.0000
     31 ****         2.1938   0.6518  -3.6209 H              1 S1                 0.0000
     32 ****         1.7705   3.3196  -3.1243 H              1 S1                 0.0000
     33 ****         0.0300   1.9843   3.3362 H              1 S1                 0.0000
     34 ****         0.1142   0.9018   1.9549 H              1 S1                 0.0000
     35 ****        -0.7050   2.4509   1.8062 H              1 S1                 0.0000
     36 ****         0.6276   4.6323   1.9296 H              1 S1                 0.0000
     37 ****         2.3845   4.5936   2.0634 H              1 S1                 0.0000
     38 ****         1.3857   4.1010   3.4195 H              1 S1                 0.0000
     39 ****         2.6260   1.9315   3.5521 H              1 S1                 0.0000
     40 ****         3.6219   2.3555   2.1641 H              1 S1                 0.0000
     41 ****         2.7213   0.8444   2.1763 H              1 S1                 0.0000
     42 ****        -2.2738   0.2942  -0.1639 H              1 S1                 0.0000
     43 ****        -3.4398  -0.9639  -0.4773 H              1 S1                 0.0000
     44 ****        -2.2816  -1.4479   1.6299 H              1 S1                 0.0000
     45 ****        -0.7116  -1.3519   0.8610 H              1 S1                 0.0000
     46 ****        -2.8128  -3.2853   0.2265 H              1 S1                 0.0000
     47 ****        -1.0450  -0.5790  -4.1973 LP             1 S1                 0.0000
     48 ****         0.4291   0.0836  -4.8201 LP             1 S1                 0.0000
     49 ****         1.6530   0.5135   0.0722 LP             1 S1                 0.0000
@<TRIPOS>BOND
    1    1    2 1     
    2    1   21 1     
    3    1   22 1     
    4    1   23 1     
    5    2   20 1     
    6    2    3 1     
    7    2   46 1     
    8    3    4 1     
    9    3   24 1     
   10    3   25 1     
   11    4    5 1     
   12    4   26 1     
   13    4   27 1     
   14    5    6 1     
   15    5   19 1     
   16    5   28 1     
   17    6    7 am    
   18    6   29 1     
   19    7    8 2     
   20    7    9 1     
   21    9   10 1     
   22    9   30 1     
   23    9   31 1     
   24   10   18 1     
   25   10   11 2     
   26   11   12 1     
   27   11   32 1     
   28   12   13 1     
   29   13   14 1     
   30   13   18 2     
   31   14   15 1     
   32   14   16 1     
   33   14   17 1     
   34   15   33 1     
   35   15   34 1     
   36   15   35 1     
   37   16   36 1     
   38   16   37 1     
   39   16   38 1     
   40   17   39 1     
   41   17   40 1     
   42   17   41 1     
   43   19   20 1     
   44   19   42 1     
   45   19   43 1     
   46   20   44 1     
   47   20   45 1     
   48    8   47 1     
   49    8   48 1     
   50   18   49 1     
@<TRIPOS>SUBSTRUCTURE
      1 S1             1
@<TRIPOS>SET
LONE_PAIRS      STATIC     ATOMS    <user>   **** ""
3 47 48 49
DONOR_HYDROGENS      STATIC     ATOMS    <user>   **** ""
2 46 29
ATOM$BLUE        STATIC     ATOMS    COLORGROUP SYSTEM
3 47 48 49
ATOM$RED        STATIC     ATOMS    COLORGROUP SYSTEM
2 46 29
