#       Name:                AV-unprocessed.smi:433
#       Creating user name   scv26
#       Creation time:       Thu Mar 26 22:51:34 2020


#       File generated by GOLD software.
#

@<TRIPOS>MOLECULE
AV-unprocessed.smi:433
    44    45     1
SMALL
NO_CHARGES


@<TRIPOS>ATOM
      1 ****        -2.0463   4.9816  -1.7892 C.3            1 S1                 0.0000
      2 ****        -1.9151   3.8263  -0.9494 N.am           1 S1                 0.0000
      3 ****        -2.3505   3.8093   0.3613 C.2            1 S1                 0.0000
      4 ****        -2.2196   2.7298   1.1627 C.2            1 S1                 0.0000
      5 ****        -1.6021   1.5026   0.6722 C.2            1 S1                 0.0000
      6 ****        -1.4380   0.5057   1.3768 O.2            1 S1                 0.0000
      7 ****        -1.1852   1.5485  -0.6823 N.am           1 S1                 0.0000
      8 ****        -0.5393   0.3700  -1.2336 C.3            1 S1                 0.0000
      9 ****         0.9857   0.3465  -0.9824 C.3            1 S1                 0.0000
     10 ****         1.6472   0.7763  -2.1548 O.3            1 S1                 0.0000
     11 ****         1.4999  -1.0640  -0.6590 C.3            1 S1                 0.0000
     12 ****         0.9997  -1.4423   0.6165 O.3            1 S1                 0.0000
     13 ****         1.2931  -2.7029   1.0883 C.ar           1 S1                 0.0000
     14 ****         0.7344  -3.0649   2.3316 C.ar           1 S1                 0.0000
     15 ****         0.9801  -4.3339   2.8901 C.ar           1 S1                 0.0000
     16 ****         1.7924  -5.2575   2.2069 C.ar           1 S1                 0.0000
     17 ****         2.3576  -4.9090   0.9661 C.ar           1 S1                 0.0000
     18 ****         2.1115  -3.6395   0.4073 C.ar           1 S1                 0.0000
     19 ****        -1.3055   2.6854  -1.5151 C.2            1 S1                 0.0000
     20 ****        -0.8920   2.6913  -2.6781 O.2            1 S1                 0.0000
     21 ****        -2.5393   5.7639  -1.2111 H              1 S1                 0.0000
     22 ****        -2.6551   4.6968  -2.6489 H              1 S1                 0.0000
     23 ****        -1.0413   5.2927  -2.0797 H              1 S1                 0.0000
     24 ****        -2.8128   4.6967   0.7688 H              1 S1                 0.0000
     25 ****        -2.5733   2.7751   2.1822 H              1 S1                 0.0000
     26 ****        -1.0330  -0.4943  -0.7862 H              1 S1                 0.0000
     27 ****        -0.7975   0.2957  -2.2917 H              1 S1                 0.0000
     28 ****         1.2598   1.0180  -0.1674 H              1 S1                 0.0000
     29 ****         1.3348   1.6409  -2.3748 H              1 S1                 0.0000
     30 ****         1.1775  -1.7672  -1.4292 H              1 S1                 0.0000
     31 ****         2.5911  -1.0636  -0.6332 H              1 S1                 0.0000
     32 ****         0.1092  -2.3616   2.8621 H              1 S1                 0.0000
     33 ****         0.5450  -4.5980   3.8427 H              1 S1                 0.0000
     34 ****         1.9819  -6.2313   2.6340 H              1 S1                 0.0000
     35 ****         2.9823  -5.6167   0.4412 H              1 S1                 0.0000
     36 ****         2.5637  -3.4076  -0.5448 H              1 S1                 0.0000
     37 ****        -1.7336   0.5145   2.3321 LP             1 S1                 0.0000
     38 ****        -1.0092  -0.3123   0.9936 LP             1 S1                 0.0000
     39 ****         1.4493   0.1450  -2.9047 LP             1 S1                 0.0000
     40 ****         2.6338   0.8046  -1.9945 LP             1 S1                 0.0000
     41 ****         0.0034  -1.3656   0.5779 LP             1 S1                 0.0000
     42 ****         1.3588  -0.7870   1.2810 LP             1 S1                 0.0000
     43 ****        -0.9859   3.5146  -3.2380 LP             1 S1                 0.0000
     44 ****        -0.4631   1.8729  -3.0604 LP             1 S1                 0.0000
@<TRIPOS>BOND
    1    1    2 1     
    2    1   21 1     
    3    1   22 1     
    4    1   23 1     
    5    2   19 am    
    6    2    3 1     
    7    3    4 2     
    8    3   24 1     
    9    4    5 1     
   10    4   25 1     
   11    5    6 2     
   12    5    7 am    
   13    7    8 1     
   14    7   19 am    
   15    8    9 1     
   16    8   26 1     
   17    8   27 1     
   18    9   10 1     
   19    9   11 1     
   20    9   28 1     
   21   10   29 1     
   22   11   12 1     
   23   11   30 1     
   24   11   31 1     
   25   12   13 1     
   26   13   18 ar    
   27   13   14 ar    
   28   14   15 ar    
   29   14   32 1     
   30   15   16 ar    
   31   15   33 1     
   32   16   17 ar    
   33   16   34 1     
   34   17   18 ar    
   35   17   35 1     
   36   18   36 1     
   37   19   20 2     
   38    6   37 1     
   39    6   38 1     
   40   10   39 1     
   41   10   40 1     
   42   12   41 1     
   43   12   42 1     
   44   20   43 1     
   45   20   44 1     
@<TRIPOS>SUBSTRUCTURE
      1 S1             1
@<TRIPOS>SET
LONE_PAIRS      STATIC     ATOMS    <user>   **** ""
8 37 38 39 40 41 42 43 44
DONOR_HYDROGENS      STATIC     ATOMS    <user>   **** ""
1 29
ATOM$BLUE        STATIC     ATOMS    COLORGROUP SYSTEM
8 37 38 39 40 41 42 43 44
ATOM$RED        STATIC     ATOMS    COLORGROUP SYSTEM
1 29
