AV-unprocessed.smi:1999|AV-procd|sdf|8094|dock3
  -GOLD-   2272010313D 1   1.00000     0.00000
 Structure written by MMmdl.
 39 40  0  0  0  0  0  0  0  0  2 V2000
  145.1845  141.6343  155.2849 C   0  0  0  0  0  0  0  0  0  0  0  0
  145.7507  140.2555  155.2902 C   0  0  0  0  0  0  0  0  0  0  0  0
  145.8922  139.5390  156.4119 N   0  0  0  0  0  0  0  0  0  0  0  0
  146.4380  138.2860  156.1709 N   0  0  0  0  0  0  0  0  0  0  0  0
  146.6939  138.0946  154.8695 C   0  0  0  0  0  0  0  0  0  0  0  0
  147.2474  136.8975  154.3426 N   0  0  0  0  0  0  0  0  0  0  0  0
  147.4062  135.7134  154.9589 C   0  0  0  0  0  0  0  0  0  0  0  0
  147.1192  135.4772  156.1326 O   0  0  0  0  0  0  0  0  0  0  0  0
  147.9156  134.7948  154.1241 N   0  0  0  0  0  0  0  0  0  0  0  0
  148.2450  133.4098  154.4650 C   0  0  2  0  0  0  0  0  0  0  0  0
  149.2483  133.4089  155.6264 C   0  0  0  0  0  0  0  0  0  0  0  0
  148.8037  132.6412  153.2443 C   0  0  0  0  0  0  0  0  0  0  0  0
  147.7423  132.0873  152.3656 N   0  3  0  0  0  0  0  0  0  0  0  0
  147.0494  130.9190  152.9568 C   0  0  0  0  0  0  0  0  0  0  0  0
  146.0224  130.3510  151.9619 C   0  0  0  0  0  0  0  0  0  0  0  0
  145.1008  131.3690  151.5905 O   0  0  0  0  0  0  0  0  0  0  0  0
  145.7450  132.4638  150.9496 C   0  0  0  0  0  0  0  0  0  0  0  0
  146.7567  133.1006  151.9163 C   0  0  0  0  0  0  0  0  0  0  0  0
  146.2802  139.4414  153.8226 S   0  0  0  0  0  0  0  0  0  0  0  0
  145.6850  142.2494  156.0329 H   0  0  0  0  0  0  0  0  0  0  0  0
  144.1190  141.6009  155.5125 H   0  0  0  0  0  0  0  0  0  0  0  0
  145.3192  142.0967  154.3069 H   0  0  0  0  0  0  0  0  0  0  0  0
  147.5495  136.9484  153.3810 H   0  0  0  0  0  0  0  0  0  0  0  0
  148.1176  135.0830  153.1776 H   0  0  0  0  0  0  0  0  0  0  0  0
  147.3461  132.9092  154.8269 H   0  0  0  0  0  0  0  0  0  0  0  0
  149.4907  132.3912  155.9340 H   0  0  0  0  0  0  0  0  0  0  0  0
  148.8431  133.9260  156.4970 H   0  0  0  0  0  0  0  0  0  0  0  0
  150.1800  133.9030  155.3492 H   0  0  0  0  0  0  0  0  0  0  0  0
  149.4231  133.3292  152.6666 H   0  0  0  0  0  0  0  0  0  0  0  0
  149.4662  131.8356  153.5645 H   0  0  0  0  0  0  0  0  0  0  0  0
  147.7753  130.1463  153.2124 H   0  0  0  0  0  0  0  0  0  0  0  0
  146.5540  131.2160  153.8824 H   0  0  0  0  0  0  0  0  0  0  0  0
  146.5187  129.9529  151.0753 H   0  0  0  0  0  0  0  0  0  0  0  0
  145.4741  129.5263  152.4174 H   0  0  0  0  0  0  0  0  0  0  0  0
  146.2370  132.1299  150.0343 H   0  0  0  0  0  0  0  0  0  0  0  0
  144.9919  133.1958  150.6574 H   0  0  0  0  0  0  0  0  0  0  0  0
  146.2358  133.5165  152.7801 H   0  0  0  0  0  0  0  0  0  0  0  0
  147.2609  133.9283  151.4185 H   0  0  0  0  0  0  0  0  0  0  0  0
  148.2091  131.7474  151.5364 H   0  0  0  0  0  0  0  0  0  0  0  0
  1  2  1  0  0  0  0
  1 20  1  0  0  0  0
  1 21  1  0  0  0  0
  1 22  1  0  0  0  0
  2 19  1  0  0  0  0
  2  3  2  0  0  0  0
  3  4  1  0  0  0  0
  4  5  2  0  0  0  0
  5  6  1  0  0  0  0
  5 19  1  0  0  0  0
  6  7  1  0  0  0  0
  6 23  1  0  0  0  0
  7  8  2  0  0  0  0
  7  9  1  0  0  0  0
  9 10  1  0  0  0  0
  9 24  1  0  0  0  0
 10 11  1  0  0  0  0
 10 12  1  0  0  0  0
 10 25  1  0  0  0  0
 11 26  1  0  0  0  0
 11 27  1  0  0  0  0
 11 28  1  0  0  0  0
 12 13  1  0  0  0  0
 12 29  1  0  0  0  0
 12 30  1  0  0  0  0
 13 18  1  0  0  0  0
 13 14  1  0  0  0  0
 13 39  1  0  0  0  0
 14 15  1  0  0  0  0
 14 31  1  0  0  0  0
 14 32  1  0  0  0  0
 15 16  1  0  0  0  0
 15 33  1  0  0  0  0
 15 34  1  0  0  0  0
 16 17  1  0  0  0  0
 17 18  1  0  0  0  0
 17 35  1  0  0  0  0
 17 36  1  0  0  0  0
 18 37  1  0  0  0  0
 18 38  1  0  0  0  0
M  CHG  1  13   1
M  END
> <s_m_source_file>
AV-unprocessed.smi

> <i_m_source_file_index>
1999

> <i_lp_mmshare_version>
43012

> <i_f3d_flags>
0

> <s_epik_input>
W0NIM11jMW5uYyhzMSlbTkhdQyg9TylbTkhdW0NASF0oW0NIM10pW0NIMl1OMltDSDJdW0NIMl1PW0NIMl1bQ0gyXTI=

> <s_epik_cmdline>
J2VwaWtfcHl0aG9uJywgJy1waCcsICc3LjAnLCAnLXRuJywgJzgnLCAnLW1hJywgJzIwMCcsICctbWV0YWxfYmluZGluZycsICctaW1hZScsICc8aW5maWxlLm1hZT4nLCAnLW9tYWUnLCAnPG91dGZpbGUubWFlPic=

> <r_lp_tautomer_probability>
1

> <r_epik_Ionization_Penalty>
0.701298

> <r_epik_Ionization_Penalty_Charging>
0.695697

> <r_epik_Ionization_Penalty_Neutral>
0.00560124

> <r_epik_State_Penalty>
0.717972

> <r_epik_Charging_Adjusted_Penalty>
1.41367

> <i_epik_Tot_Q>
1

> <i_epik_Tot_abs_Q>
1

> <r_epik_Metal_State_Penalty>
1.07748

> <b_epik_Metal_Only>
0

> <s_lp_Force_Field>
OPLS_2005

> <r_lp_Energy>
20.3025

> <b_lp_Chiralities_Consistent>
1

> <s_lp_Variant>
AV-unprocessed.smi:1999-3

> <Gold.Version>
5.8.1

> <Gold.Id.Protein>
6NUR|6NUR_protein|mol2

> <Gold.PLP.Fitness>
34.2054

> <Gold.PLP.PLP>
-25.8902

> <Gold.PLP.part.hbond>
-3.0000

> <Gold.PLP.part.metal>
0.0000

> <Gold.PLP.part.buried>
-3.3275

> <Gold.PLP.part.nonpolar>
-20.2590

> <Gold.PLP.part.repulsive>
0.1962

> <Gold.PLP.ligand.clash>
0.0000

> <Gold.PLP.ligand.torsion>
0.3632

> <Gold.PLP.Chemscore.Hbond>
3.0000

> <Gold.PLP.Chemscore.CHOScore>
0.0000

> <Gold.PLP.Chemscore.Metal>
0.0000

> <Gold.Chemscore.Hbonds>
donor molecule, donor type, donor heavy atom, donor atom, acceptor molecule, acceptor atom, score
      L1  H     6    23       P1  7948  0.57
      L1  H     9    24       P1  7948  1.00
      L1  H    13    39       P1 10747  1.00

> <Gold.PLP.Chemscore.Internal.Correction>
0.0417

> <Gold.Rescore>
     Score         DG    S(hbond)    S(metal)    S(lipo)     H(rot)  DE(clash)    DE(int)     intcor
     16.31     -18.14       2.88        0.00      61.70       1.63       0.02       1.80       ----

> <Gold.Chemscore.Fitness>
16.3125

> <Gold.Chemscore.DG>
-18.1392

> <Gold.Chemscore.ZeroCoef>
-5.4800

> <Gold.Chemscore.Hbond>
2.8794

> <Gold.Chemscore.Metal>
0.0000

> <Gold.Chemscore.Lipo>
61.7025

> <Gold.Chemscore.Internal_Hbond>
0.0000

> <Gold.Chemscore.DEClash>
0.0234

> <Gold.Chemscore.DEInternal>
1.8032

> <Gold.Chemscore.Rot>
1.6317

> <Gold.Chemscore.Internal.Correction>
   9.000000E+99

> <Gold.Chemscore.Hbonds>
donor molecule, donor type, donor heavy atom, donor atom, acceptor molecule, acceptor atom, score
      L1  H     6    23       P1  7948  0.55
      L1  H     9    24       P1  7948  0.95
      L1  H    13    39       P1 10747  1.00

> <Gold.Chemscore.Hbond.Weighted>
-9.6173

> <Gold.Chemscore.Metal.Weighted>
-0.0000

> <Gold.Chemscore.Lipo.Weighted>
-7.2192

> <Gold.Chemscore.Internal_Hbond.Weighted>
0.0000

> <Gold.Chemscore.DEClash.Weighted>
0.0234

> <Gold.Chemscore.DEInternal.Weighted>
1.8032

> <Gold.Chemscore.Rot.Weighted>
4.1773

> <Gold.Chemscore.Internal.Correction.Weighted>
   9.000000E+99

> <Gold.Protein.RotatedTorsions>
[ 6907 6896 6895 6894 ] final  -71.30 input  -60.11 | X-H torsion
[ 7974 7965 7964 7962 ] final   13.38 input  175.53 | X-H torsion
[ 8008 7997 7996 7995 ] final  -51.02 input   59.86 | X-H torsion
[ 10167 10162 10161 10158 ] final -154.85 input  -65.29 | X-H torsion
[ 10718 10713 10712 10709 ] final  -17.41 input   66.30 | X-H torsion
[ 10763 10752 10751 10750 ] final  -95.29 input  -60.55 | X-H torsion
[ 11005 11000 10999 10996 ] final   89.24 input  -57.11 | X-H torsion

> <Gold.Protein.ActiveResidues>
 VAL166  LYS551  ARG553  GLY616  TRP617  ASP618  TYR619  PRO620  LYS621  CYS622 
 ASP623  PHE694  ASN695  SER759  ASP760  ASP761  ALA762  ILE779  LEU786  VAL792 
 PHE793  MET794  SER795  GLU796  ALA797  LYS798  CYS799  TRP800  GLU811  SER814 

> <Gold.Protein.RotatedAtoms>
  150.7218  134.5328  159.5708 H   0  0  0  0  0  0  0  0  0  0  0  0  # atno 6907 bound_to 6896
  152.2857  134.7775  160.0397 H   0  0  0  0  0  0  0  0  0  0  0  0  # atno 6908 bound_to 6896
  151.8406  133.3387  159.3678 H   0  0  0  0  0  0  0  0  0  0  0  0  # atno 6909 bound_to 6896
  146.2330  139.9196  142.8512 H   0  0  0  0  0  0  0  0  0  0  0  0  # atno 7974 bound_to 7965
  154.4074  140.1258  156.4761 H   0  0  0  0  0  0  0  0  0  0  0  0  # atno 8008 bound_to 7997
  155.7131  140.3493  155.4963 H   0  0  0  0  0  0  0  0  0  0  0  0  # atno 8009 bound_to 7997
  155.9282  140.1065  157.1143 H   0  0  0  0  0  0  0  0  0  0  0  0  # atno 8010 bound_to 7997
  139.6979  143.9311  152.2415 H   0  0  0  0  0  0  0  0  0  0  0  0  # atno 10167 bound_to 10162
  156.5739  130.4757  149.6350 H   0  0  0  0  0  0  0  0  0  0  0  0  # atno 10718 bound_to 10713
  154.7135  135.5126  153.8702 H   0  0  0  0  0  0  0  0  0  0  0  0  # atno 10763 bound_to 10752
  153.0800  135.6628  154.0073 H   0  0  0  0  0  0  0  0  0  0  0  0  # atno 10764 bound_to 10752
  153.9910  135.3020  155.3391 H   0  0  0  0  0  0  0  0  0  0  0  0  # atno 10765 bound_to 10752
  139.8879  134.8539  156.3114 H   0  0  0  0  0  0  0  0  0  0  0  0  # atno 11005 bound_to 11000
  145.2149  140.9911  143.4079 LP  0  0  0  0  0  0  0  0  0  0  0  0  # atno 17320 bound_to 7965
  144.9659  139.3930  143.6333 LP  0  0  0  0  0  0  0  0  0  0  0  0  # atno 17321 bound_to 7965
  139.9145  144.6836  150.8526 LP  0  0  0  0  0  0  0  0  0  0  0  0  # atno 17342 bound_to 10162
  140.7701  143.3419  151.2191 LP  0  0  0  0  0  0  0  0  0  0  0  0  # atno 17343 bound_to 10162
  156.2690  130.7006  151.1798 LP  0  0  0  0  0  0  0  0  0  0  0  0  # atno 17370 bound_to 10713
  157.7342  131.0584  150.5538 LP  0  0  0  0  0  0  0  0  0  0  0  0  # atno 17371 bound_to 10713
  140.9848  133.7245  156.0725 LP  0  0  0  0  0  0  0  0  0  0  0  0  # atno 17394 bound_to 11000
  140.7702  134.3841  157.5509 LP  0  0  0  0  0  0  0  0  0  0  0  0  # atno 17395 bound_to 11000

$$$$
