AV-unprocessed.smi:71|AV-procd|sdf|662|dock2
  -GOLD-   2262016563D 1   1.00000     0.00000
 Structure written by MMmdl.
 31 32  0  0  0  0  0  0  0  0  1 V2000
  150.0750  144.5680  158.7978 N   0  0  0  0  0  0  0  0  0  0  0  0
  150.6624  143.3311  158.5459 C   0  0  0  0  0  0  0  0  0  0  0  0
  151.5018  142.7370  159.5095 C   0  0  0  0  0  0  0  0  0  0  0  0
  152.0813  141.4886  159.2136 C   0  0  0  0  0  0  0  0  0  0  0  0
  151.7965  140.8848  157.9741 C   0  0  0  0  0  0  0  0  0  0  0  0
  150.9311  141.5524  157.0776 C   0  0  0  0  0  0  0  0  0  0  0  0
  150.6156  140.9581  155.7364 C   0  0  0  0  0  0  0  0  0  0  0  0
  151.5263  140.4694  155.0670 O   0  0  0  0  0  0  0  0  0  0  0  0
  149.3289  140.9946  155.3163 N   0  0  0  0  0  0  0  0  0  0  0  0
  148.2441  141.7417  155.9602 C   0  0  0  0  0  0  0  0  0  0  0  0
  147.0028  141.5198  155.0978 C   0  0  0  0  0  0  0  0  0  0  0  0
  147.5584  141.1556  153.7300 C   0  0  0  0  0  0  0  0  0  0  0  0
  148.8852  140.4454  154.0290 C   0  0  2  0  0  0  0  0  0  0  0  0
  148.7429  138.9107  154.1097 C   0  0  0  0  0  0  0  0  0  0  0  0
  148.2772  138.3953  152.8805 O   0  0  0  0  0  0  0  0  0  0  0  0
  150.3844  142.7581  157.3558 N   0  0  0  0  0  0  0  0  0  0  0  0
  149.4706  145.0143  158.1230 H   0  0  0  0  0  0  0  0  0  0  0  0
  150.2090  145.0425  159.6790 H   0  0  0  0  0  0  0  0  0  0  0  0
  151.7026  143.2254  160.4519 H   0  0  0  0  0  0  0  0  0  0  0  0
  152.7354  141.0046  159.9236 H   0  0  0  0  0  0  0  0  0  0  0  0
  152.2362  139.9317  157.7182 H   0  0  0  0  0  0  0  0  0  0  0  0
  148.0571  141.4125  156.9819 H   0  0  0  0  0  0  0  0  0  0  0  0
  148.5046  142.8012  155.9861 H   0  0  0  0  0  0  0  0  0  0  0  0
  146.4277  140.6810  155.4925 H   0  0  0  0  0  0  0  0  0  0  0  0
  146.3460  142.3898  155.0699 H   0  0  0  0  0  0  0  0  0  0  0  0
  146.8646  140.5554  153.1406 H   0  0  0  0  0  0  0  0  0  0  0  0
  147.7565  142.0696  153.1685 H   0  0  0  0  0  0  0  0  0  0  0  0
  149.6084  140.6978  153.2505 H   0  0  0  0  0  0  0  0  0  0  0  0
  149.7045  138.4424  154.3204 H   0  0  0  0  0  0  0  0  0  0  0  0
  148.0624  138.6197  154.9105 H   0  0  0  0  0  0  0  0  0  0  0  0
  148.6093  138.9378  152.1816 H   0  0  0  0  0  0  0  0  0  0  0  0
  1  2  1  0  0  0  0
  1 17  1  0  0  0  0
  1 18  1  0  0  0  0
  2 16  1  0  0  0  0
  2  3  2  0  0  0  0
  3  4  1  0  0  0  0
  3 19  1  0  0  0  0
  4  5  2  0  0  0  0
  4 20  1  0  0  0  0
  5  6  1  0  0  0  0
  5 21  1  0  0  0  0
  6  7  1  0  0  0  0
  6 16  2  0  0  0  0
  7  8  2  0  0  0  0
  7  9  1  0  0  0  0
  9 13  1  0  0  0  0
  9 10  1  0  0  0  0
 10 11  1  0  0  0  0
 10 22  1  0  0  0  0
 10 23  1  0  0  0  0
 11 12  1  0  0  0  0
 11 24  1  0  0  0  0
 11 25  1  0  0  0  0
 12 13  1  0  0  0  0
 12 26  1  0  0  0  0
 12 27  1  0  0  0  0
 13 14  1  0  0  0  0
 13 28  1  0  0  0  0
 14 15  1  0  0  0  0
 14 29  1  0  0  0  0
 14 30  1  0  0  0  0
 15 31  1  0  0  0  0
M  END
> <s_m_source_file>
AV-unprocessed.smi

> <i_m_source_file_index>
71

> <i_lp_mmshare_version>
43012

> <i_f3d_flags>
0

> <s_epik_input>
W05IMl1jMVtjSF1bY0hdW2NIXWMobjEpQyg9TylOMltDSDJdW0NIMl1bQ0gyXVtDQEhdMltDSDJdW09IXQ==

> <s_epik_cmdline>
J2VwaWtfcHl0aG9uJywgJy1waCcsICc3LjAnLCAnLXRuJywgJzgnLCAnLW1hJywgJzIwMCcsICctbWV0YWxfYmluZGluZycsICctaW1hZScsICc8aW5maWxlLm1hZT4nLCAnLW9tYWUnLCAnPG91dGZpbGUubWFlPic=

> <r_lp_tautomer_probability>
1

> <r_epik_Ionization_Penalty>
2.21614e-05

> <r_epik_Ionization_Penalty_Charging>
0

> <r_epik_Ionization_Penalty_Neutral>
2.21614e-05

> <r_epik_State_Penalty>
-0

> <r_epik_Charging_Adjusted_Penalty>
0

> <i_epik_Tot_Q>
0

> <i_epik_Tot_abs_Q>
0

> <r_epik_Metal_State_Penalty>
-0

> <b_epik_Metal_Only>
0

> <s_lp_Force_Field>
OPLS_2005

> <r_lp_Energy>
36.7339

> <b_lp_Chiralities_Consistent>
1

> <s_lp_Variant>
AV-unprocessed.smi:71-2

> <Gold.Version>
5.8.1

> <Gold.Id.Protein>
6NUR|6NUR_protein|mol2

> <Gold.PLP.Fitness>
35.9269

> <Gold.PLP.PLP>
-27.6601

> <Gold.PLP.part.hbond>
-3.9899

> <Gold.PLP.part.metal>
0.0000

> <Gold.PLP.part.buried>
-1.4299

> <Gold.PLP.part.nonpolar>
-23.7841

> <Gold.PLP.part.repulsive>
1.2251

> <Gold.PLP.ligand.clash>
0.0041

> <Gold.PLP.ligand.torsion>
0.7598

> <Gold.PLP.Chemscore.Hbond>
2.8697

> <Gold.PLP.Chemscore.CHOScore>
0.0000

> <Gold.PLP.Chemscore.Metal>
0.0000

> <Gold.Chemscore.Hbonds>
donor molecule, donor type, donor heavy atom, donor atom, acceptor molecule, acceptor atom, score
      L1  H     1    17       P1  8029  1.00
      L1  H    15    31       P1  7957  1.00
      P1  H  7989  7998       L1     8  0.88

> <Gold.PLP.Chemscore.Internal.Correction>
1.1814

> <Gold.Rescore>
     Score         DG    S(hbond)    S(metal)    S(lipo)     H(rot)  DE(clash)    DE(int)     intcor
     14.59     -17.05       2.62        0.00      56.72       1.50       0.37       2.09       ----

> <Gold.Chemscore.Fitness>
14.5864

> <Gold.Chemscore.DG>
-17.0499

> <Gold.Chemscore.ZeroCoef>
-5.4800

> <Gold.Chemscore.Hbond>
2.6238

> <Gold.Chemscore.Metal>
0.0000

> <Gold.Chemscore.Lipo>
56.7184

> <Gold.Chemscore.Internal_Hbond>
0.0000

> <Gold.Chemscore.DEClash>
0.3725

> <Gold.Chemscore.DEInternal>
2.0910

> <Gold.Chemscore.Rot>
1.4959

> <Gold.Chemscore.Internal.Correction>
   9.000000E+99

> <Gold.Chemscore.Hbonds>
donor molecule, donor type, donor heavy atom, donor atom, acceptor molecule, acceptor atom, score
      L1  H     1    17       P1  8029  0.25
      L1  H    15    31       P1  7957  0.98
      P1  H  7989  7998       L1     8  0.83

> <Gold.Chemscore.Hbond.Weighted>
-8.7633

> <Gold.Chemscore.Metal.Weighted>
-0.0000

> <Gold.Chemscore.Lipo.Weighted>
-6.6361

> <Gold.Chemscore.Internal_Hbond.Weighted>
0.0000

> <Gold.Chemscore.DEClash.Weighted>
0.3725

> <Gold.Chemscore.DEInternal.Weighted>
2.0910

> <Gold.Chemscore.Rot.Weighted>
3.8295

> <Gold.Chemscore.Internal.Correction.Weighted>
   9.000000E+99

> <Gold.Protein.RotatedTorsions>
[ 6907 6896 6895 6894 ] final  -36.90 input  -60.11 | X-H torsion
[ 7974 7965 7964 7962 ] final   99.56 input  175.53 | X-H torsion
[ 8008 7997 7996 7995 ] final  -94.72 input   59.86 | X-H torsion
[ 10167 10162 10161 10158 ] final -124.58 input  -65.29 | X-H torsion
[ 10718 10713 10712 10709 ] final  133.74 input   66.30 | X-H torsion
[ 10763 10752 10751 10750 ] final  177.97 input  -60.55 | X-H torsion
[ 11005 11000 10999 10996 ] final  117.62 input  -57.11 | X-H torsion

> <Gold.Protein.ActiveResidues>
 VAL166  LYS551  ARG553  GLY616  TRP617  ASP618  TYR619  PRO620  LYS621  CYS622 
 ASP623  PHE694  ASN695  SER759  ASP760  ASP761  ALA762  ILE779  LEU786  VAL792 
 PHE793  MET794  SER795  GLU796  ALA797  LYS798  CYS799  TRP800  GLU811  SER814 

> <Gold.Protein.RotatedAtoms>
  151.0214  134.9472  159.8061 H   0  0  0  0  0  0  0  0  0  0  0  0  # atno 6907 bound_to 6896
  152.5326  134.2899  159.9049 H   0  0  0  0  0  0  0  0  0  0  0  0  # atno 6908 bound_to 6896
  151.2906  133.4125  159.2667 H   0  0  0  0  0  0  0  0  0  0  0  0  # atno 6909 bound_to 6896
  145.3972  139.2353  143.3320 H   0  0  0  0  0  0  0  0  0  0  0  0  # atno 7974 bound_to 7965
  154.7521  140.0486  157.0902 H   0  0  0  0  0  0  0  0  0  0  0  0  # atno 8008 bound_to 7997
  155.0044  140.3128  155.4835 H   0  0  0  0  0  0  0  0  0  0  0  0  # atno 8009 bound_to 7997
  156.2887  140.2195  156.5156 H   0  0  0  0  0  0  0  0  0  0  0  0  # atno 8010 bound_to 7997
  139.9913  143.5638  152.2340 H   0  0  0  0  0  0  0  0  0  0  0  0  # atno 10167 bound_to 10162
  157.4743  131.1082  150.9763 H   0  0  0  0  0  0  0  0  0  0  0  0  # atno 10718 bound_to 10713
  154.5015  135.2784  155.1416 H   0  0  0  0  0  0  0  0  0  0  0  0  # atno 10763 bound_to 10752
  154.3048  135.6241  153.5443 H   0  0  0  0  0  0  0  0  0  0  0  0  # atno 10764 bound_to 10752
  152.9903  135.5705  154.5460 H   0  0  0  0  0  0  0  0  0  0  0  0  # atno 10765 bound_to 10752
  139.9080  134.9612  156.7378 H   0  0  0  0  0  0  0  0  0  0  0  0  # atno 11005 bound_to 11000
  146.2769  140.4664  142.8792 LP  0  0  0  0  0  0  0  0  0  0  0  0  # atno 17320 bound_to 7965
  144.8399  140.6841  143.6236 LP  0  0  0  0  0  0  0  0  0  0  0  0  # atno 17321 bound_to 7965
  139.6338  144.7647  151.2481 LP  0  0  0  0  0  0  0  0  0  0  0  0  # atno 17342 bound_to 10162
  140.7453  143.6434  150.8314 LP  0  0  0  0  0  0  0  0  0  0  0  0  # atno 17343 bound_to 10162
  157.0518  130.5790  149.5371 LP  0  0  0  0  0  0  0  0  0  0  0  0  # atno 17370 bound_to 10713
  156.0089  130.5178  150.7922 LP  0  0  0  0  0  0  0  0  0  0  0  0  # atno 17371 bound_to 10713
  140.6874  133.9420  155.7946 LP  0  0  0  0  0  0  0  0  0  0  0  0  # atno 17394 bound_to 11000
  141.0466  134.0544  157.3836 LP  0  0  0  0  0  0  0  0  0  0  0  0  # atno 17395 bound_to 11000

$$$$
