#       Name:                AV-unprocessed.smi:20
#       Creating user name   scv26
#       Creation time:       Thu Mar 26 15:27:50 2020


#       File generated by GOLD software.
#

@<TRIPOS>MOLECULE
AV-unprocessed.smi:20
    67    71     1
SMALL
NO_CHARGES


@<TRIPOS>ATOM
      1 ****        -4.0772   5.6629  -2.9822 O.2            1 S1                 0.0000
      2 ****        -4.0109   5.0384  -1.9262 C.2            1 S1                 0.0000
      3 ****        -3.0013   3.9350  -1.6601 C.3            1 S1                 0.0000
      4 ****        -3.0740   3.7433  -0.1258 C.3            1 S1                 0.0000
      5 ****        -1.9911   4.5792   0.6080 C.3            1 S1                 0.0000
      6 ****        -0.5820   3.9865   0.4327 C.3            1 S1                 0.0000
      7 ****        -0.5538   2.5040   0.8293 C.3            1 S1                 0.0000
      8 ****        -1.5857   1.7585   0.1118 N.3            1 S1                 0.0000
      9 ****        -1.4035   0.4135   0.0866 C.ar           1 S1                 0.0000
     10 ****        -2.3221  -0.4074   0.6635 N.ar           1 S1                 0.0000
     11 ****        -2.1477  -1.7321   0.6497 C.ar           1 S1                 0.0000
     12 ****        -1.1444  -2.4361   0.1230 N.ar           1 S1                 0.0000
     13 ****        -0.2212  -1.6200  -0.4613 C.ar           1 S1                 0.0000
     14 ****        -0.2734  -0.1988  -0.5260 C.ar           1 S1                 0.0000
     15 ****         0.8336   0.2832  -1.2145 N.2            1 S1                 0.0000
     16 ****         1.5070  -0.7898  -1.5275 C.2            1 S1                 0.0000
     17 ****         0.9567  -1.9758  -1.0961 N.pl3          1 S1                 0.0000
     18 ****         1.4869  -3.3113  -1.3186 C.3            1 S1                 0.0000
     19 ****         2.9103  -3.5362  -0.7390 C.3            1 S1                 0.0000
     20 ****         3.5434  -4.7881  -1.3912 C.3            1 S1                 0.0000
     21 ****         3.7844  -4.5798  -2.7680 O.3            1 S1                 0.0000
     22 ****         2.9250  -3.6588   0.8122 C.3            1 S1                 0.0000
     23 ****         2.4488  -2.4422   1.5894 C.3            1 S1                 0.0000
     24 ****         3.0325  -2.6871   2.9741 C.3            1 S1                 0.0000
     25 ****         4.2824  -3.3205   2.7441 O.3            1 S1                 0.0000
     26 ****         4.3251  -3.8385   1.4184 C.3            1 S1                 0.0000
     27 ****        -2.9492   2.2607   0.2940 C.3            1 S1                 0.0000
     28 ****        -4.4777   4.2979   0.2159 C.3            1 S1                 0.0000
     29 ****        -4.7910   5.2146  -0.8627 N.am           1 S1                 0.0000
     30 ****        -3.3205   3.0397  -2.1948 H              1 S1                 0.0000
     31 ****        -2.0112   4.2094  -2.0225 H              1 S1                 0.0000
     32 ****        -2.0034   5.6153   0.2671 H              1 S1                 0.0000
     33 ****        -2.2178   4.6088   1.6747 H              1 S1                 0.0000
     34 ****        -0.2518   4.0928  -0.6006 H              1 S1                 0.0000
     35 ****         0.1331   4.5446   1.0374 H              1 S1                 0.0000
     36 ****         0.4406   2.0997   0.6430 H              1 S1                 0.0000
     37 ****        -0.7339   2.4045   1.9007 H              1 S1                 0.0000
     38 ****        -2.9212  -2.3108   1.1325 H              1 S1                 0.0000
     39 ****         2.4322  -0.7448  -2.0837 H              1 S1                 0.0000
     40 ****         0.7948  -4.0471  -0.9077 H              1 S1                 0.0000
     41 ****         1.4820  -3.4656  -2.3977 H              1 S1                 0.0000
     42 ****         3.5371  -2.6855  -1.0099 H              1 S1                 0.0000
     43 ****         4.5042  -5.0314  -0.9396 H              1 S1                 0.0000
     44 ****         2.9009  -5.6597  -1.2625 H              1 S1                 0.0000
     45 ****         4.1790  -5.3606  -3.1262 H              1 S1                 0.0000
     46 ****         2.3110  -4.5108   1.1092 H              1 S1                 0.0000
     47 ****         2.8596  -1.5259   1.1634 H              1 S1                 0.0000
     48 ****         1.3646  -2.3516   1.6294 H              1 S1                 0.0000
     49 ****         3.1472  -1.7687   3.5501 H              1 S1                 0.0000
     50 ****         2.3948  -3.3673   3.5402 H              1 S1                 0.0000
     51 ****         4.6404  -4.8820   1.4264 H              1 S1                 0.0000
     52 ****         5.0674  -3.2675   0.8590 H              1 S1                 0.0000
     53 ****        -3.2246   2.1495   1.3439 H              1 S1                 0.0000
     54 ****        -3.6520   1.6571  -0.2827 H              1 S1                 0.0000
     55 ****        -5.2300   3.5076   0.2202 H              1 S1                 0.0000
     56 ****        -4.5173   4.7982   1.1841 H              1 S1                 0.0000
     57 ****        -5.5358   5.8942  -0.8071 H              1 S1                 0.0000
     58 ****        -4.7658   6.3789  -3.0973 LP             1 S1                 0.0000
     59 ****        -3.4425   5.4553  -3.7266 LP             1 S1                 0.0000
     60 ****        -1.4392   1.9809  -0.8521 LP             1 S1                 0.0000
     61 ****        -3.1325  -0.0172   1.1004 LP             1 S1                 0.0000
     62 ****        -1.0779  -3.4334   0.1528 LP             1 S1                 0.0000
     63 ****         1.0618   1.2344  -1.4224 LP             1 S1                 0.0000
     64 ****         4.4036  -3.8037  -2.8881 LP             1 S1                 0.0000
     65 ****         2.9211  -4.3930  -3.2368 LP             1 S1                 0.0000
     66 ****         4.4002  -4.0689   3.3967 LP             1 S1                 0.0000
     67 ****         5.0188  -2.6547   2.8641 LP             1 S1                 0.0000
@<TRIPOS>BOND
    1    1    2 2     
    2    2   29 am    
    3    2    3 1     
    4    3    4 1     
    5    3   30 1     
    6    3   31 1     
    7    4   27 1     
    8    4    5 1     
    9    4   28 1     
   10    5    6 1     
   11    5   32 1     
   12    5   33 1     
   13    6    7 1     
   14    6   34 1     
   15    6   35 1     
   16    7    8 1     
   17    7   36 1     
   18    7   37 1     
   19    8    9 1     
   20    8   27 1     
   21    9   14 ar    
   22    9   10 ar    
   23   10   11 ar    
   24   11   12 ar    
   25   11   38 1     
   26   12   13 ar    
   27   13   17 1     
   28   13   14 ar    
   29   14   15 1     
   30   15   16 2     
   31   16   17 1     
   32   16   39 1     
   33   17   18 1     
   34   18   19 1     
   35   18   40 1     
   36   18   41 1     
   37   19   20 1     
   38   19   22 1     
   39   19   42 1     
   40   20   21 1     
   41   20   43 1     
   42   20   44 1     
   43   21   45 1     
   44   22   26 1     
   45   22   23 1     
   46   22   46 1     
   47   23   24 1     
   48   23   47 1     
   49   23   48 1     
   50   24   25 1     
   51   24   49 1     
   52   24   50 1     
   53   25   26 1     
   54   26   51 1     
   55   26   52 1     
   56   27   53 1     
   57   27   54 1     
   58   28   29 1     
   59   28   55 1     
   60   28   56 1     
   61   29   57 1     
   62    1   58 1     
   63    1   59 1     
   64    8   60 1     
   65   10   61 1     
   66   12   62 1     
   67   15   63 1     
   68   21   64 1     
   69   21   65 1     
   70   25   66 1     
   71   25   67 1     
@<TRIPOS>SUBSTRUCTURE
      1 S1             1
@<TRIPOS>SET
LONE_PAIRS      STATIC     ATOMS    <user>   **** ""
10 58 59 60 61 62 63 64 65 66 67
DONOR_HYDROGENS      STATIC     ATOMS    <user>   **** ""
2 45 57
ATOM$BLUE        STATIC     ATOMS    COLORGROUP SYSTEM
10 58 59 60 61 62 63 64 65 66 67
ATOM$RED        STATIC     ATOMS    COLORGROUP SYSTEM
2 45 57
