#       Name:                AV-unprocessed.smi:370
#       Creating user name   scv26
#       Creation time:       Thu Mar 26 22:38:00 2020


#       File generated by GOLD software.
#

@<TRIPOS>MOLECULE
AV-unprocessed.smi:370
    50    51     1
SMALL
NO_CHARGES


@<TRIPOS>ATOM
      1 ****        -4.0164   5.4592   2.7515 C.3            1 S1                 0.0000
      2 ****        -3.8495   4.3760   1.7414 C.2            1 S1                 0.0000
      3 ****        -2.7601   3.8881   1.0774 C.2            1 S1                 0.0000
      4 ****        -3.3085   2.8562   0.2678 C.2            1 S1                 0.0000
      5 ****        -2.6260   2.0795  -0.5874 N.pl3          1 S1                -1.0000
      6 ****        -2.0040   0.9634  -0.1451 C.2            1 S1                 0.0000
      7 ****        -1.9893   0.5444   1.0146 O.2            1 S1                 0.0000
      8 ****        -1.3488   0.2983  -1.1075 N.am           1 S1                 0.0000
      9 ****        -0.5697  -0.9287  -0.9429 C.3            1 S1                 0.0000
     10 ****         0.9656  -0.6942  -0.7957 C.3            1 S1                 0.0000
     11 ****         1.4454   0.0799  -2.0524 C.3            1 S1                 0.0000
     12 ****         1.2777   0.1805   0.4436 C.3            1 S1                 0.0000
     13 ****         1.6426  -2.0397  -0.6935 N.4            1 S1                 1.0000
     14 ****         3.0954  -2.0788  -1.0285 C.3            1 S1                 0.0000
     15 ****         3.6176  -3.5266  -1.0345 C.3            1 S1                 0.0000
     16 ****         3.3622  -4.1464   0.2174 O.3            1 S1                 0.0000
     17 ****         1.9713  -4.2030   0.4976 C.3            1 S1                 0.0000
     18 ****         1.4135  -2.7743   0.5846 C.3            1 S1                 0.0000
     19 ****        -4.6175   2.7392   0.4150 N.2            1 S1                 0.0000
     20 ****        -4.9715   3.7061   1.3637 O.3            1 S1                 0.0000
     21 ****        -3.6993   6.4186   2.3428 H              1 S1                 0.0000
     22 ****        -3.4169   5.2541   3.6384 H              1 S1                 0.0000
     23 ****        -5.0575   5.5519   3.0615 H              1 S1                 0.0000
     24 ****        -1.7341   4.2141   1.1596 H              1 S1                 0.0000
     25 ****        -1.3947   0.6836  -2.0396 H              1 S1                 0.0000
     26 ****        -0.9798  -1.4898  -0.1050 H              1 S1                 0.0000
     27 ****        -0.7582  -1.5451  -1.8224 H              1 S1                 0.0000
     28 ****         0.8934   1.0089  -2.1967 H              1 S1                 0.0000
     29 ****         1.3210  -0.5127  -2.9595 H              1 S1                 0.0000
     30 ****         2.4919   0.3766  -1.9800 H              1 S1                 0.0000
     31 ****         0.9038   1.1970   0.3182 H              1 S1                 0.0000
     32 ****         2.3498   0.2611   0.6224 H              1 S1                 0.0000
     33 ****         0.8159  -0.2128   1.3493 H              1 S1                 0.0000
     34 ****         3.2915  -1.6720  -2.0189 H              1 S1                 0.0000
     35 ****         3.6599  -1.4806  -0.3123 H              1 S1                 0.0000
     36 ****         3.1543  -4.1019  -1.8378 H              1 S1                 0.0000
     37 ****         4.6920  -3.5364  -1.2186 H              1 S1                 0.0000
     38 ****         1.4503  -4.7821  -0.2666 H              1 S1                 0.0000
     39 ****         1.8253  -4.7212   1.4455 H              1 S1                 0.0000
     40 ****         1.9033  -2.2559   1.4097 H              1 S1                 0.0000
     41 ****         0.3565  -2.8358   0.8330 H              1 S1                 0.0000
     42 ****         1.2000  -2.5980  -1.4094 H              1 S1                 0.0000
     43 ****        -2.5772   2.3269  -1.5551 LP             1 S1                 0.0000
     44 ****        -2.4707   1.0457   1.7335 LP             1 S1                 0.0000
     45 ****        -1.4959  -0.2967   1.2361 LP             1 S1                 0.0000
     46 ****         3.8175  -3.6231   0.9377 LP             1 S1                 0.0000
     47 ****         3.7280  -5.0770   0.1996 LP             1 S1                 0.0000
     48 ****        -5.2252   2.0968  -0.0520 LP             1 S1                 0.0000
     49 ****        -5.6272   4.3463   0.9635 LP             1 S1                 0.0000
     50 ****        -5.3826   3.2620   2.1598 LP             1 S1                 0.0000
@<TRIPOS>BOND
    1    1    2 1     
    2    1   21 1     
    3    1   22 1     
    4    1   23 1     
    5    2   20 1     
    6    2    3 2     
    7    3    4 1     
    8    3   24 1     
    9    4    5 1     
   10    4   19 2     
   11    5    6 1     
   12    6    7 2     
   13    6    8 am    
   14    8    9 1     
   15    8   25 1     
   16    9   10 1     
   17    9   26 1     
   18    9   27 1     
   19   10   11 1     
   20   10   12 1     
   21   10   13 1     
   22   11   28 1     
   23   11   29 1     
   24   11   30 1     
   25   12   31 1     
   26   12   32 1     
   27   12   33 1     
   28   13   18 1     
   29   13   14 1     
   30   13   42 1     
   31   14   15 1     
   32   14   34 1     
   33   14   35 1     
   34   15   16 1     
   35   15   36 1     
   36   15   37 1     
   37   16   17 1     
   38   17   18 1     
   39   17   38 1     
   40   17   39 1     
   41   18   40 1     
   42   18   41 1     
   43   19   20 1     
   44    5   43 1     
   45    7   44 1     
   46    7   45 1     
   47   16   46 1     
   48   16   47 1     
   49   19   48 1     
   50   20   49 1     
   51   20   50 1     
@<TRIPOS>SUBSTRUCTURE
      1 S1             1
@<TRIPOS>SET
LONE_PAIRS      STATIC     ATOMS    <user>   **** ""
8 43 44 45 46 47 48 49 50
DONOR_HYDROGENS      STATIC     ATOMS    <user>   **** ""
2 25 42
ATOM$BLUE        STATIC     ATOMS    COLORGROUP SYSTEM
8 43 44 45 46 47 48 49 50
ATOM$RED        STATIC     ATOMS    COLORGROUP SYSTEM
2 25 42
