AV-unprocessed.smi:295|AV-procd|sdf|2257|dock4
  -GOLD-   2262022143D 1   1.00000     0.00000
 Structure written by MMmdl.
 35 36  0  0  0  0  0  0  0  0  1 V2000
  153.6399  141.8967  161.1333 C   0  0  0  0  0  0  0  0  0  0  0  0
  152.5460  142.4411  160.1962 C   0  0  1  0  0  0  0  0  0  0  0  0
  152.7899  143.9305  159.8800 C   0  0  0  0  0  0  0  0  0  0  0  0
  151.7040  144.5035  158.9564 C   0  0  0  0  0  0  0  0  0  0  0  0
  151.6008  143.6925  157.6574 C   0  0  0  0  0  0  0  0  0  0  0  0
  151.3442  142.2082  157.9553 C   0  0  0  0  0  0  0  0  0  0  0  0
  152.4233  141.6209  158.8878 C   0  0  2  0  0  0  0  0  0  0  0  0
  152.1035  140.2301  159.1955 N   0  0  0  0  0  0  0  0  0  0  0  0
  152.9149  139.1775  159.0059 C   0  0  0  0  0  0  0  0  0  0  0  0
  154.0253  139.2623  158.4827 O   0  0  0  0  0  0  0  0  0  0  0  0
  152.3931  137.8160  159.4735 C   0  0  0  0  0  0  0  0  0  0  0  0
  153.2694  137.2149  160.4646 N   0  0  0  0  0  0  0  0  0  0  0  0
  153.6950  137.6814  161.6432 C   0  0  0  0  0  0  0  0  0  0  0  0
  154.5166  136.8598  162.2841 N   0  0  0  0  0  0  0  0  0  0  0  0
  154.5461  135.8404  161.3773 C   0  0  0  0  0  0  0  0  0  0  0  0
  155.3367  134.6431  161.6065 C   0  0  0  0  0  0  0  0  0  0  0  0
  155.9663  133.6894  161.7892 N   0  0  0  0  0  0  0  0  0  0  0  0
  153.8211  135.9920  160.2710 N   0  0  0  0  0  0  0  0  0  0  0  0
  154.6167  141.9080  160.6485 H   0  0  0  0  0  0  0  0  0  0  0  0
  153.4346  140.8716  161.4428 H   0  0  0  0  0  0  0  0  0  0  0  0
  153.7127  142.4978  162.0398 H   0  0  0  0  0  0  0  0  0  0  0  0
  151.5965  142.3712  160.7299 H   0  0  0  0  0  0  0  0  0  0  0  0
  152.8209  144.5081  160.8044 H   0  0  0  0  0  0  0  0  0  0  0  0
  153.7666  144.0514  159.4090 H   0  0  0  0  0  0  0  0  0  0  0  0
  150.7425  144.4943  159.4714 H   0  0  0  0  0  0  0  0  0  0  0  0
  151.9225  145.5471  158.7279 H   0  0  0  0  0  0  0  0  0  0  0  0
  150.8013  144.0900  157.0315 H   0  0  0  0  0  0  0  0  0  0  0  0
  152.5233  143.7970  157.0848 H   0  0  0  0  0  0  0  0  0  0  0  0
  150.3604  142.0975  158.4136 H   0  0  0  0  0  0  0  0  0  0  0  0
  151.3125  141.6489  157.0194 H   0  0  0  0  0  0  0  0  0  0  0  0
  153.3857  141.6639  158.3737 H   0  0  0  0  0  0  0  0  0  0  0  0
  151.2065  140.0603  159.6263 H   0  0  0  0  0  0  0  0  0  0  0  0
  151.3988  137.9363  159.9052 H   0  0  0  0  0  0  0  0  0  0  0  0
  152.2975  137.1361  158.6255 H   0  0  0  0  0  0  0  0  0  0  0  0
  153.4036  138.6446  162.0356 H   0  0  0  0  0  0  0  0  0  0  0  0
  1  2  1  0  0  0  0
  1 19  1  0  0  0  0
  1 20  1  0  0  0  0
  1 21  1  0  0  0  0
  2  7  1  0  0  0  0
  2  3  1  0  0  0  0
  2 22  1  0  0  0  0
  3  4  1  0  0  0  0
  3 23  1  0  0  0  0
  3 24  1  0  0  0  0
  4  5  1  0  0  0  0
  4 25  1  0  0  0  0
  4 26  1  0  0  0  0
  5  6  1  0  0  0  0
  5 27  1  0  0  0  0
  5 28  1  0  0  0  0
  6  7  1  0  0  0  0
  6 29  1  0  0  0  0
  6 30  1  0  0  0  0
  7  8  1  0  0  0  0
  7 31  1  0  0  0  0
  8  9  1  0  0  0  0
  8 32  1  0  0  0  0
  9 10  2  0  0  0  0
  9 11  1  0  0  0  0
 11 12  1  0  0  0  0
 11 33  1  0  0  0  0
 11 34  1  0  0  0  0
 12 18  1  0  0  0  0
 12 13  1  0  0  0  0
 13 14  2  0  0  0  0
 13 35  1  0  0  0  0
 14 15  1  0  0  0  0
 15 16  1  0  0  0  0
 15 18  2  0  0  0  0
 16 17  3  0  0  0  0
M  END
> <s_m_source_file>
AV-unprocessed.smi

> <i_m_source_file_index>
295

> <i_lp_mmshare_version>
43012

> <i_f3d_flags>
0

> <s_epik_input>
W0NIM11bQ0BASF0xW0NIMl1bQ0gyXVtDSDJdW0NIMl1bQ0BIXTFbTkhdQyg9TylbQ0gyXW4yW2NIXW5jKG4yKUMjTg==

> <s_epik_cmdline>
J2VwaWtfcHl0aG9uJywgJy1waCcsICc3LjAnLCAnLXRuJywgJzgnLCAnLW1hJywgJzIwMCcsICctbWV0YWxfYmluZGluZycsICctaW1hZScsICc8aW5maWxlLm1hZT4nLCAnLW9tYWUnLCAnPG91dGZpbGUubWFlPic=

> <r_lp_tautomer_probability>
1

> <r_epik_Ionization_Penalty>
5.31112e-08

> <r_epik_Ionization_Penalty_Charging>
0

> <r_epik_Ionization_Penalty_Neutral>
5.31112e-08

> <r_epik_State_Penalty>
-0

> <r_epik_Charging_Adjusted_Penalty>
0

> <i_epik_Tot_Q>
0

> <i_epik_Tot_abs_Q>
0

> <r_epik_Metal_State_Penalty>
-0

> <b_epik_Metal_Only>
0

> <s_lp_Force_Field>
OPLS_2005

> <r_lp_Energy>
13.6203

> <b_lp_Chiralities_Consistent>
1

> <s_lp_Variant>
AV-unprocessed.smi:295-4

> <Gold.Version>
5.8.1

> <Gold.Id.Protein>
6NUR|6NUR_protein|mol2

> <Gold.PLP.Fitness>
42.1176

> <Gold.PLP.PLP>
-36.2207

> <Gold.PLP.part.hbond>
-2.0000

> <Gold.PLP.part.metal>
0.0000

> <Gold.PLP.part.buried>
-4.9703

> <Gold.PLP.part.nonpolar>
-29.3341

> <Gold.PLP.part.repulsive>
0.1419

> <Gold.PLP.ligand.clash>
0.0000

> <Gold.PLP.ligand.torsion>
0.0546

> <Gold.PLP.Chemscore.Hbond>
2.0000

> <Gold.PLP.Chemscore.CHOScore>
0.0000

> <Gold.PLP.Chemscore.Metal>
0.0000

> <Gold.Chemscore.Hbonds>
donor molecule, donor type, donor heavy atom, donor atom, acceptor molecule, acceptor atom, score
      P1  H  6896  6907       L1    18  1.00
      P1  H  7997  8009       L1    10  1.00

> <Gold.PLP.Chemscore.Internal.Correction>
0.0060

> <Gold.Rescore>
     Score         DG    S(hbond)    S(metal)    S(lipo)     H(rot)  DE(clash)    DE(int)     intcor
     16.55     -16.69       1.96        0.00      82.55       1.95       0.00       0.14       ----

> <Gold.Chemscore.Fitness>
16.5497

> <Gold.Chemscore.DG>
-16.6873

> <Gold.Chemscore.ZeroCoef>
-5.4800

> <Gold.Chemscore.Hbond>
1.9562

> <Gold.Chemscore.Metal>
0.0000

> <Gold.Chemscore.Lipo>
82.5532

> <Gold.Chemscore.Internal_Hbond>
0.0000

> <Gold.Chemscore.DEClash>
0.0004

> <Gold.Chemscore.DEInternal>
0.1372

> <Gold.Chemscore.Rot>
1.9474

> <Gold.Chemscore.Internal.Correction>
   9.000000E+99

> <Gold.Chemscore.Hbonds>
donor molecule, donor type, donor heavy atom, donor atom, acceptor molecule, acceptor atom, score
      P1  H  6896  6907       L1    18  0.74
      P1  H  7997  8009       L1    10  1.00

> <Gold.Chemscore.Hbond.Weighted>
-6.5338

> <Gold.Chemscore.Metal.Weighted>
-0.0000

> <Gold.Chemscore.Lipo.Weighted>
-9.6587

> <Gold.Chemscore.Internal_Hbond.Weighted>
0.0000

> <Gold.Chemscore.DEClash.Weighted>
0.0004

> <Gold.Chemscore.DEInternal.Weighted>
0.1372

> <Gold.Chemscore.Rot.Weighted>
4.9852

> <Gold.Chemscore.Internal.Correction.Weighted>
   9.000000E+99

> <Gold.Protein.RotatedTorsions>
[ 6907 6896 6895 6894 ] final   66.06 input  -60.11 | X-H torsion
[ 7974 7965 7964 7962 ] final  107.63 input  175.53 | X-H torsion
[ 8008 7997 7996 7995 ] final  127.00 input   59.86 | X-H torsion
[ 10167 10162 10161 10158 ] final  102.79 input  -65.29 | X-H torsion
[ 10718 10713 10712 10709 ] final -123.88 input   66.30 | X-H torsion
[ 10763 10752 10751 10750 ] final   58.92 input  -60.55 | X-H torsion
[ 11005 11000 10999 10996 ] final  119.72 input  -57.11 | X-H torsion

> <Gold.Protein.ActiveResidues>
 VAL166  LYS551  ARG553  GLY616  TRP617  ASP618  TYR619  PRO620  LYS621  CYS622 
 ASP623  PHE694  ASN695  SER759  ASP760  ASP761  ALA762  ILE779  LEU786  VAL792 
 PHE793  MET794  SER795  GLU796  ALA797  LYS798  CYS799  TRP800  GLU811  SER814 

> <Gold.Protein.RotatedAtoms>
  152.4454  134.5506  159.9865 H   0  0  0  0  0  0  0  0  0  0  0  0  # atno 6907 bound_to 6896
  151.5592  133.3400  159.2976 H   0  0  0  0  0  0  0  0  0  0  0  0  # atno 6908 bound_to 6896
  150.8369  134.7678  159.6963 H   0  0  0  0  0  0  0  0  0  0  0  0  # atno 6909 bound_to 6896
  145.2911  139.2600  143.3864 H   0  0  0  0  0  0  0  0  0  0  0  0  # atno 7974 bound_to 7965
  156.2879  140.2679  156.2203 H   0  0  0  0  0  0  0  0  0  0  0  0  # atno 8008 bound_to 7997
  155.0175  140.0387  157.2442 H   0  0  0  0  0  0  0  0  0  0  0  0  # atno 8009 bound_to 7997
  154.7464  140.2735  155.6334 H   0  0  0  0  0  0  0  0  0  0  0  0  # atno 8010 bound_to 7997
  139.7319  144.7034  151.0708 H   0  0  0  0  0  0  0  0  0  0  0  0  # atno 10167 bound_to 10162
  156.1540  130.6554  150.9954 H   0  0  0  0  0  0  0  0  0  0  0  0  # atno 10718 bound_to 10713
  152.9882  135.5589  154.5631 H   0  0  0  0  0  0  0  0  0  0  0  0  # atno 10763 bound_to 10752
  154.5046  135.2799  155.1395 H   0  0  0  0  0  0  0  0  0  0  0  0  # atno 10764 bound_to 10752
  154.2812  135.6344  153.5400 H   0  0  0  0  0  0  0  0  0  0  0  0  # atno 10765 bound_to 10752
  139.9157  134.9630  156.7698 H   0  0  0  0  0  0  0  0  0  0  0  0  # atno 11005 bound_to 11000
  146.3184  140.3403  142.8647 LP  0  0  0  0  0  0  0  0  0  0  0  0  # atno 17320 bound_to 7965
  144.9172  140.7826  143.5771 LP  0  0  0  0  0  0  0  0  0  0  0  0  # atno 17321 bound_to 7965
  140.7772  143.5032  150.9745 LP  0  0  0  0  0  0  0  0  0  0  0  0  # atno 17342 bound_to 10162
  139.8720  143.7180  152.3165 LP  0  0  0  0  0  0  0  0  0  0  0  0  # atno 17343 bound_to 10162
  157.6680  131.0867  150.7682 LP  0  0  0  0  0  0  0  0  0  0  0  0  # atno 17370 bound_to 10713
  156.7749  130.4840  149.5411 LP  0  0  0  0  0  0  0  0  0  0  0  0  # atno 17371 bound_to 10713
  140.6630  133.9628  155.7815 LP  0  0  0  0  0  0  0  0  0  0  0  0  # atno 17394 bound_to 11000
  141.0630  134.0318  157.3632 LP  0  0  0  0  0  0  0  0  0  0  0  0  # atno 17395 bound_to 11000

$$$$
