#       Name:                AV-unprocessed.smi:1290
#       Creating user name   scv26
#       Creation time:       Fri Mar 27 04:54:16 2020


#       File generated by GOLD software.
#

@<TRIPOS>MOLECULE
AV-unprocessed.smi:1290
    45    47     1
SMALL
NO_CHARGES


@<TRIPOS>ATOM
      1 ****        -2.3917   3.7662   0.4842 C.3            1 S1                 0.0000
      2 ****        -2.4985   2.2964   0.5495 N.am           1 S1                 0.0000
      3 ****        -1.3424   1.5611   0.5593 C.2            1 S1                 0.0000
      4 ****        -0.2070   2.0368   0.5189 O.2            1 S1                 0.0000
      5 ****        -1.5605   0.1110   0.6200 C.2            1 S1                 0.0000
      6 ****        -2.7949  -0.4486   0.6615 C.2            1 S1                 0.0000
      7 ****        -2.7181  -1.8365   0.7073 N.2            1 S1                 0.0000
      8 ****        -1.4015  -2.0447   0.6895 C.2            1 S1                 0.0000
      9 ****        -0.6375  -0.9351   0.6370 N.pl3          1 S1                 0.0000
     10 ****         0.8174  -0.8999   0.6034 C.3            1 S1                 0.0000
     11 ****         1.3856  -1.0510  -0.8228 C.3            1 S1                 0.0000
     12 ****         0.8604  -0.0502  -1.6733 O.3            1 S1                 0.0000
     13 ****         2.9060  -1.0487  -0.8141 C.ar           1 S1                 0.0000
     14 ****         3.6183   0.1536  -0.6092 C.ar           1 S1                 0.0000
     15 ****         5.0266   0.1516  -0.5978 C.ar           1 S1                 0.0000
     16 ****         5.7313  -1.0526  -0.7899 C.ar           1 S1                 0.0000
     17 ****         7.4568  -1.0557  -0.7767 Cl             1 S1                 0.0000
     18 ****         5.0258  -2.2549  -0.9915 C.ar           1 S1                 0.0000
     19 ****         3.6173  -2.2532  -1.0024 C.ar           1 S1                 0.0000
     20 ****        -3.9262   0.4078   0.6489 N.am           1 S1                 0.0000
     21 ****        -5.2675  -0.1811   0.6940 C.3            1 S1                 0.0000
     22 ****        -3.7786   1.7708   0.5867 C.2            1 S1                 0.0000
     23 ****        -4.7711   2.5046   0.5636 O.2            1 S1                 0.0000
     24 ****        -1.3732   4.1546   0.5167 H              1 S1                 0.0000
     25 ****        -2.9205   4.2274   1.3200 H              1 S1                 0.0000
     26 ****        -2.8383   4.1355  -0.4402 H              1 S1                 0.0000
     27 ****        -0.9778  -3.0381   0.7135 H              1 S1                 0.0000
     28 ****         1.1690   0.0177   1.0730 H              1 S1                 0.0000
     29 ****         1.1865  -1.7127   1.2306 H              1 S1                 0.0000
     30 ****         1.0477  -2.0055  -1.2288 H              1 S1                 0.0000
     31 ****         1.1547  -0.2215  -2.5548 H              1 S1                 0.0000
     32 ****         3.0853   1.0811  -0.4584 H              1 S1                 0.0000
     33 ****         5.5645   1.0751  -0.4411 H              1 S1                 0.0000
     34 ****         5.5640  -3.1799  -1.1378 H              1 S1                 0.0000
     35 ****         3.0865  -3.1812  -1.1561 H              1 S1                 0.0000
     36 ****        -5.8289   0.2060   1.5456 H              1 S1                 0.0000
     37 ****        -5.2500  -1.2667   0.7882 H              1 S1                 0.0000
     38 ****        -5.8194   0.0589  -0.2157 H              1 S1                 0.0000
     39 ****        -0.0814   3.0280   0.4752 LP             1 S1                 0.0000
     40 ****         0.5892   1.4319   0.5297 LP             1 S1                 0.0000
     41 ****        -3.4599  -2.5061   0.7441 LP             1 S1                 0.0000
     42 ****         1.1852   0.8483  -1.3778 LP             1 S1                 0.0000
     43 ****        -0.1389  -0.0705  -1.6413 LP             1 S1                 0.0000
     44 ****        -4.6581   3.4972   0.5172 LP             1 S1                 0.0000
     45 ****        -5.6880   2.1065   0.5912 LP             1 S1                 0.0000
@<TRIPOS>BOND
    1    1    2 1     
    2    1   24 1     
    3    1   25 1     
    4    1   26 1     
    5    2   22 am    
    6    2    3 am    
    7    3    4 2     
    8    3    5 1     
    9    5    9 1     
   10    5    6 2     
   11    6    7 1     
   12    6   20 1     
   13    7    8 2     
   14    8    9 1     
   15    8   27 1     
   16    9   10 1     
   17   10   11 1     
   18   10   28 1     
   19   10   29 1     
   20   11   12 1     
   21   11   13 1     
   22   11   30 1     
   23   12   31 1     
   24   13   19 ar    
   25   13   14 ar    
   26   14   15 ar    
   27   14   32 1     
   28   15   16 ar    
   29   15   33 1     
   30   16   17 1     
   31   16   18 ar    
   32   18   19 ar    
   33   18   34 1     
   34   19   35 1     
   35   20   21 1     
   36   20   22 am    
   37   21   36 1     
   38   21   37 1     
   39   21   38 1     
   40   22   23 2     
   41    4   39 1     
   42    4   40 1     
   43    7   41 1     
   44   12   42 1     
   45   12   43 1     
   46   23   44 1     
   47   23   45 1     
@<TRIPOS>SUBSTRUCTURE
      1 S1             1
@<TRIPOS>SET
LONE_PAIRS      STATIC     ATOMS    <user>   **** ""
7 39 40 41 42 43 44 45
DONOR_HYDROGENS      STATIC     ATOMS    <user>   **** ""
1 31
ATOM$BLUE        STATIC     ATOMS    COLORGROUP SYSTEM
7 39 40 41 42 43 44 45
ATOM$RED        STATIC     ATOMS    COLORGROUP SYSTEM
1 31
