AV-unprocessed.smi:3029|AV-procd|sdf|11531|dock3
  -GOLD-   2272016473D 1   1.00000     0.00000
 Structure written by MMmdl.
 41 42  0  0  0  0  0  0  0  0  3 V2000
  150.5996  141.0255  154.8171 O   0  0  0  0  0  0  0  0  0  0  0  0
  150.7220  139.8690  155.2209 C   0  0  0  0  0  0  0  0  0  0  0  0
  151.2044  138.7898  154.3531 C   0  0  0  0  0  0  0  0  0  0  0  0
  151.3570  137.5302  154.8070 C   0  0  0  0  0  0  0  0  0  0  0  0
  151.0461  137.2023  156.1851 C   0  0  0  0  0  0  0  0  0  0  0  0
  151.2256  135.8578  156.6877 N   0  3  0  0  0  0  0  0  0  0  0  0
  152.1302  135.1663  156.2295 O   0  0  0  0  0  0  0  0  0  0  0  0
  150.4649  135.4492  157.5592 O   0  5  0  0  0  0  0  0  0  0  0  0
  150.5925  138.1931  156.9777 C   0  0  0  0  0  0  0  0  0  0  0  0
  150.4199  139.5085  156.5052 N   0  0  0  0  0  0  0  0  0  0  0  0
  149.9245  140.5028  157.4656 C   0  0  0  0  0  0  0  0  0  0  0  0
  150.9732  141.5967  157.7176 C   0  0  0  0  0  0  0  0  0  0  0  0
  151.5760  141.4022  159.0271 N   0  0  0  0  0  0  0  0  0  0  0  0
  152.8352  142.1306  159.1607 C   0  0  2  0  0  0  0  0  0  0  0  0
  153.9141  141.1540  159.6751 C   0  0  0  0  0  0  0  0  0  0  0  0
  153.7335  140.7942  161.1605 C   0  0  0  0  0  0  0  0  0  0  0  0
  153.6428  142.0496  162.0379 C   0  0  0  0  0  0  0  0  0  0  0  0
  152.5241  142.9852  161.5561 C   0  0  0  0  0  0  0  0  0  0  0  0
  152.7114  143.3822  160.0757 C   0  0  2  0  0  0  0  0  0  0  0  0
  151.6820  144.4364  159.6061 C   0  0  0  0  0  0  0  0  0  0  0  0
  151.7268  145.5404  160.3524 F   0  0  0  0  0  0  0  0  0  0  0  0
  151.9368  144.7744  158.3418 F   0  0  0  0  0  0  0  0  0  0  0  0
  150.4512  143.9263  159.6530 F   0  0  0  0  0  0  0  0  0  0  0  0
  151.4420  139.0119  153.3228 H   0  0  0  0  0  0  0  0  0  0  0  0
  151.7138  136.7688  154.1292 H   0  0  0  0  0  0  0  0  0  0  0  0
  150.3392  138.0545  158.0192 H   0  0  0  0  0  0  0  0  0  0  0  0
  148.9944  140.9477  157.1063 H   0  0  0  0  0  0  0  0  0  0  0  0
  149.6609  140.0180  158.4072 H   0  0  0  0  0  0  0  0  0  0  0  0
  151.7475  141.5601  156.9503 H   0  0  0  0  0  0  0  0  0  0  0  0
  150.5073  142.5801  157.6641 H   0  0  0  0  0  0  0  0  0  0  0  0
  151.7399  140.4162  159.1723 H   0  0  0  0  0  0  0  0  0  0  0  0
  153.1566  142.4611  158.1714 H   0  0  0  0  0  0  0  0  0  0  0  0
  153.9305  140.2473  159.0685 H   0  0  0  0  0  0  0  0  0  0  0  0
  154.8937  141.6159  159.5460 H   0  0  0  0  0  0  0  0  0  0  0  0
  152.8303  140.1960  161.2871 H   0  0  0  0  0  0  0  0  0  0  0  0
  154.5627  140.1691  161.4929 H   0  0  0  0  0  0  0  0  0  0  0  0
  153.4660  141.7644  163.0754 H   0  0  0  0  0  0  0  0  0  0  0  0
  154.5967  142.5786  162.0209 H   0  0  0  0  0  0  0  0  0  0  0  0
  151.5563  142.5008  161.6908 H   0  0  0  0  0  0  0  0  0  0  0  0
  152.5092  143.8764  162.1838 H   0  0  0  0  0  0  0  0  0  0  0  0
  153.6806  143.8809  160.0188 H   0  0  0  0  0  0  0  0  0  0  0  0
  1  2  2  0  0  0  0
  2 10  1  0  0  0  0
  2  3  1  0  0  0  0
  3  4  2  0  0  0  0
  3 24  1  0  0  0  0
  4  5  1  0  0  0  0
  4 25  1  0  0  0  0
  5  6  1  0  0  0  0
  5  9  2  0  0  0  0
  6  7  2  0  0  0  0
  6  8  1  0  0  0  0
  9 10  1  0  0  0  0
  9 26  1  0  0  0  0
 10 11  1  0  0  0  0
 11 12  1  0  0  0  0
 11 27  1  0  0  0  0
 11 28  1  0  0  0  0
 12 13  1  0  0  0  0
 12 29  1  0  0  0  0
 12 30  1  0  0  0  0
 13 14  1  0  0  0  0
 13 31  1  0  0  0  0
 14 19  1  0  0  0  0
 14 15  1  0  0  0  0
 14 32  1  0  0  0  0
 15 16  1  0  0  0  0
 15 33  1  0  0  0  0
 15 34  1  0  0  0  0
 16 17  1  0  0  0  0
 16 35  1  0  0  0  0
 16 36  1  0  0  0  0
 17 18  1  0  0  0  0
 17 37  1  0  0  0  0
 17 38  1  0  0  0  0
 18 19  1  0  0  0  0
 18 39  1  0  0  0  0
 18 40  1  0  0  0  0
 19 20  1  0  0  0  0
 19 41  1  0  0  0  0
 20 21  1  0  0  0  0
 20 22  1  0  0  0  0
 20 23  1  0  0  0  0
M  CHG  1   6   1
M  CHG  1   8  -1
M  END
> <s_m_source_file>
AV-unprocessed.smi

> <i_m_source_file_index>
3029

> <i_lp_mmshare_version>
43012

> <i_f3d_flags>
0

> <s_epik_input>
Tz1jMVtjSF1bY0hdYyhbTitdKD1PKVtPLV0pW2NIXW4xW0NIMl1bQ0gyXVtOSF1bQ0BASF0yW0NIMl1bQ0gyXVtDSDJdW0NIMl1bQ0BIXTJDKEYpKEYpRg==

> <s_epik_cmdline>
J2VwaWtfcHl0aG9uJywgJy1waCcsICc3LjAnLCAnLXRuJywgJzgnLCAnLW1hJywgJzIwMCcsICctbWV0YWxfYmluZGluZycsICctaW1hZScsICc8aW5maWxlLm1hZT4nLCAnLW9tYWUnLCAnPG91dGZpbGUubWFlPic=

> <r_lp_tautomer_probability>
1

> <r_epik_Ionization_Penalty>
1.65565

> <r_epik_Ionization_Penalty_Charging>
3.32684e-10

> <r_epik_Ionization_Penalty_Neutral>
1.65565

> <r_epik_State_Penalty>
1.75811

> <r_epik_Charging_Adjusted_Penalty>
1.75811

> <i_epik_Tot_Q>
0

> <i_epik_Tot_abs_Q>
2

> <r_epik_Metal_State_Penalty>
1.75811

> <b_epik_Metal_Only>
0

> <s_lp_Force_Field>
OPLS_2005

> <r_lp_Energy>
35.9342

> <b_lp_Chiralities_Consistent>
1

> <s_lp_Variant>
AV-unprocessed.smi:3029-7

> <Gold.Version>
5.8.1

> <Gold.Id.Protein>
6NUR|6NUR_protein|mol2

> <Gold.PLP.Fitness>
56.6706

> <Gold.PLP.PLP>
-51.9024

> <Gold.PLP.part.hbond>
-2.8314

> <Gold.PLP.part.metal>
0.0000

> <Gold.PLP.part.buried>
-5.8283

> <Gold.PLP.part.nonpolar>
-43.6663

> <Gold.PLP.part.repulsive>
0.1018

> <Gold.PLP.ligand.clash>
0.0000

> <Gold.PLP.ligand.torsion>
1.5604

> <Gold.PLP.Chemscore.Hbond>
2.5680

> <Gold.PLP.Chemscore.CHOScore>
0.0000

> <Gold.PLP.Chemscore.Metal>
0.0000

> <Gold.Chemscore.Hbonds>
donor molecule, donor type, donor heavy atom, donor atom, acceptor molecule, acceptor atom, score
      P1  H  6896  6909       L1     8  0.38
      P1  H  7989  7998       L1     1  0.62
      P1  H 10752 10764       L1     7  1.00

> <Gold.PLP.Chemscore.Internal.Correction>
0.1851

> <Gold.Rescore>
     Score         DG    S(hbond)    S(metal)    S(lipo)     H(rot)  DE(clash)    DE(int)     intcor
     17.29     -21.39       2.41        0.00     107.97       1.86       0.07       4.03       ----

> <Gold.Chemscore.Fitness>
17.2925

> <Gold.Chemscore.DG>
-21.3900

> <Gold.Chemscore.ZeroCoef>
-5.4800

> <Gold.Chemscore.Hbond>
2.4058

> <Gold.Chemscore.Metal>
0.0000

> <Gold.Chemscore.Lipo>
107.9686

> <Gold.Chemscore.Internal_Hbond>
0.0000

> <Gold.Chemscore.DEClash>
0.0676

> <Gold.Chemscore.DEInternal>
4.0299

> <Gold.Chemscore.Rot>
1.8584

> <Gold.Chemscore.Internal.Correction>
   9.000000E+99

> <Gold.Chemscore.Hbonds>
donor molecule, donor type, donor heavy atom, donor atom, acceptor molecule, acceptor atom, score
      P1  H  6896  6909       L1     8  0.37
      P1  H  7989  7998       L1     1  0.12
      P1  H 10752 10764       L1     7  0.94

> <Gold.Chemscore.Hbond.Weighted>
-8.0352

> <Gold.Chemscore.Metal.Weighted>
-0.0000

> <Gold.Chemscore.Lipo.Weighted>
-12.6323

> <Gold.Chemscore.Internal_Hbond.Weighted>
0.0000

> <Gold.Chemscore.DEClash.Weighted>
0.0676

> <Gold.Chemscore.DEInternal.Weighted>
4.0299

> <Gold.Chemscore.Rot.Weighted>
4.7576

> <Gold.Chemscore.Internal.Correction.Weighted>
   9.000000E+99

> <Gold.Protein.RotatedTorsions>
[ 6907 6896 6895 6894 ] final   43.20 input  -60.11 | X-H torsion
[ 7974 7965 7964 7962 ] final  -37.31 input  175.53 | X-H torsion
[ 8008 7997 7996 7995 ] final   75.73 input   59.86 | X-H torsion
[ 10167 10162 10161 10158 ] final -151.72 input  -65.29 | X-H torsion
[ 10718 10713 10712 10709 ] final   50.34 input   66.30 | X-H torsion
[ 10763 10752 10751 10750 ] final  -25.84 input  -60.55 | X-H torsion
[ 11005 11000 10999 10996 ] final  -18.93 input  -57.11 | X-H torsion

> <Gold.Protein.ActiveResidues>
 VAL166  LYS551  ARG553  GLY616  TRP617  ASP618  TYR619  PRO620  LYS621  CYS622 
 ASP623  PHE694  ASN695  SER759  ASP760  ASP761  ALA762  ILE779  LEU786  VAL792 
 PHE793  MET794  SER795  GLU796  ALA797  LYS798  CYS799  TRP800  GLU811  SER814 

> <Gold.Protein.RotatedAtoms>
  152.2174  134.8445  160.0489 H   0  0  0  0  0  0  0  0  0  0  0  0  # atno 6907 bound_to 6896
  151.9241  133.3588  159.3916 H   0  0  0  0  0  0  0  0  0  0  0  0  # atno 6908 bound_to 6896
  150.6991  134.4529  159.5389 H   0  0  0  0  0  0  0  0  0  0  0  0  # atno 6909 bound_to 6896
  146.0586  140.6381  142.9008 H   0  0  0  0  0  0  0  0  0  0  0  0  # atno 7974 bound_to 7965
  155.8171  140.3471  155.5492 H   0  0  0  0  0  0  0  0  0  0  0  0  # atno 8008 bound_to 7997
  155.8380  140.0937  157.1772 H   0  0  0  0  0  0  0  0  0  0  0  0  # atno 8009 bound_to 7997
  154.4004  140.1399  156.3682 H   0  0  0  0  0  0  0  0  0  0  0  0  # atno 8010 bound_to 7997
  139.7243  143.8908  152.2514 H   0  0  0  0  0  0  0  0  0  0  0  0  # atno 10167 bound_to 10162
  157.4875  130.8355  149.8164 H   0  0  0  0  0  0  0  0  0  0  0  0  # atno 10718 bound_to 10713
  153.7063  135.6953  153.5049 H   0  0  0  0  0  0  0  0  0  0  0  0  # atno 10763 bound_to 10752
  153.2305  135.4339  155.0589 H   0  0  0  0  0  0  0  0  0  0  0  0  # atno 10764 bound_to 10752
  154.8329  135.3483  154.6601 H   0  0  0  0  0  0  0  0  0  0  0  0  # atno 10765 bound_to 10752
  140.8316  133.7992  155.9765 H   0  0  0  0  0  0  0  0  0  0  0  0  # atno 11005 bound_to 11000
  144.7162  140.4217  143.7043 LP  0  0  0  0  0  0  0  0  0  0  0  0  # atno 17320 bound_to 7965
  145.6600  139.1580  143.2813 LP  0  0  0  0  0  0  0  0  0  0  0  0  # atno 17321 bound_to 7965
  139.8813  144.7016  150.8874 LP  0  0  0  0  0  0  0  0  0  0  0  0  # atno 17342 bound_to 10162
  140.7759  143.3659  151.1740 LP  0  0  0  0  0  0  0  0  0  0  0  0  # atno 17343 bound_to 10162
  156.0155  130.3815  150.2125 LP  0  0  0  0  0  0  0  0  0  0  0  0  # atno 17370 bound_to 10713
  157.0313  131.0008  151.3311 LP  0  0  0  0  0  0  0  0  0  0  0  0  # atno 17371 bound_to 10713
  140.8991  134.2400  157.5051 LP  0  0  0  0  0  0  0  0  0  0  0  0  # atno 17394 bound_to 11000
  139.8705  134.9698  156.4679 LP  0  0  0  0  0  0  0  0  0  0  0  0  # atno 17395 bound_to 11000

$$$$
