AV-unprocessed.smi:2032|AV-procd|sdf|8243|dock3
  -GOLD-   2272010513D 1   1.00000     0.00000
 Structure written by MMmdl.
 43 44  0  0  0  0  0  0  0  0  2 V2000
  151.9627  138.1470  154.2892 C   0  0  0  0  0  0  0  0  0  0  0  0
  150.8698  138.9166  155.0395 C   0  0  2  0  0  0  0  0  0  0  0  0
  149.6032  139.1097  154.1850 C   0  0  0  0  0  0  0  0  0  0  0  0
  148.5764  139.9235  154.8953 N   0  3  2  0  0  0  0  0  0  0  0  0
  147.3146  140.1181  154.1023 C   0  0  1  0  0  0  0  0  0  0  0  0
  147.0501  138.9207  153.1559 C   0  0  0  0  0  0  0  0  0  0  0  0
  146.0820  140.3835  155.0125 C   0  0  0  0  0  0  0  0  0  0  0  0
  145.2244  141.4637  154.5286 N   0  0  0  0  0  0  0  0  0  0  0  0
  145.0418  142.6437  155.1401 C   0  0  0  0  0  0  0  0  0  0  0  0
  145.5705  142.9414  156.2116 O   0  0  0  0  0  0  0  0  0  0  0  0
  144.2111  143.4328  154.4368 N   0  0  0  0  0  0  0  0  0  0  0  0
  143.7665  144.7430  154.7549 C   0  0  0  0  0  0  0  0  0  0  0  0
  143.1062  145.5424  153.9088 N   0  0  0  0  0  0  0  0  0  0  0  0
  142.7902  146.7735  154.4893 C   0  0  0  0  0  0  0  0  0  0  0  0
  143.2224  146.8957  155.7866 C   0  0  0  0  0  0  0  0  0  0  0  0
  144.0477  145.4609  156.3343 S   0  0  0  0  0  0  0  0  0  0  0  0
  149.1935  141.1909  155.3796 C   0  0  0  0  0  0  0  0  0  0  0  0
  150.4787  140.9297  156.1878 C   0  0  2  0  0  0  0  0  0  0  0  0
  151.1672  142.2312  156.6141 C   0  0  0  0  0  0  0  0  0  0  0  0
  151.3906  140.1896  155.3906 O   0  0  0  0  0  0  0  0  0  0  0  0
  151.6196  137.1510  154.0082 H   0  0  0  0  0  0  0  0  0  0  0  0
  152.8510  138.0283  154.9100 H   0  0  0  0  0  0  0  0  0  0  0  0
  152.2608  138.6679  153.3789 H   0  0  0  0  0  0  0  0  0  0  0  0
  150.6213  138.3631  155.9472 H   0  0  0  0  0  0  0  0  0  0  0  0
  149.8566  139.5914  153.2392 H   0  0  0  0  0  0  0  0  0  0  0  0
  149.2215  138.1180  153.9506 H   0  0  0  0  0  0  0  0  0  0  0  0
  147.4555  141.0038  153.4805 H   0  0  0  0  0  0  0  0  0  0  0  0
  146.1222  139.0364  152.5976 H   0  0  0  0  0  0  0  0  0  0  0  0
  146.9841  137.9846  153.7108 H   0  0  0  0  0  0  0  0  0  0  0  0
  147.8177  138.8106  152.3920 H   0  0  0  0  0  0  0  0  0  0  0  0
  145.5138  139.4628  155.1568 H   0  0  0  0  0  0  0  0  0  0  0  0
  146.3959  140.7114  156.0025 H   0  0  0  0  0  0  0  0  0  0  0  0
  144.7451  141.3052  153.6541 H   0  0  0  0  0  0  0  0  0  0  0  0
  143.8536  143.0533  153.5727 H   0  0  0  0  0  0  0  0  0  0  0  0
  142.2540  147.5070  153.9054 H   0  0  0  0  0  0  0  0  0  0  0  0
  143.1054  147.7395  156.4503 H   0  0  0  0  0  0  0  0  0  0  0  0
  149.4064  141.8390  154.5276 H   0  0  0  0  0  0  0  0  0  0  0  0
  148.5118  141.7275  156.0372 H   0  0  0  0  0  0  0  0  0  0  0  0
  150.2389  140.3582  157.0863 H   0  0  0  0  0  0  0  0  0  0  0  0
  150.5139  142.8322  157.2470 H   0  0  0  0  0  0  0  0  0  0  0  0
  151.4429  142.8349  155.7488 H   0  0  0  0  0  0  0  0  0  0  0  0
  152.0767  142.0243  157.1789 H   0  0  0  0  0  0  0  0  0  0  0  0
  148.3178  139.4023  155.7213 H   0  0  0  0  0  0  0  0  0  0  0  0
  1  2  1  0  0  0  0
  1 21  1  0  0  0  0
  1 22  1  0  0  0  0
  1 23  1  0  0  0  0
  2 20  1  0  0  0  0
  2  3  1  0  0  0  0
  2 24  1  0  0  0  0
  3  4  1  0  0  0  0
  3 25  1  0  0  0  0
  3 26  1  0  0  0  0
  4  5  1  0  0  0  0
  4 17  1  0  0  0  0
  4 43  1  0  0  0  0
  5  6  1  0  0  0  0
  5  7  1  0  0  0  0
  5 27  1  0  0  0  0
  6 28  1  0  0  0  0
  6 29  1  0  0  0  0
  6 30  1  0  0  0  0
  7  8  1  0  0  0  0
  7 31  1  0  0  0  0
  7 32  1  0  0  0  0
  8  9  1  0  0  0  0
  8 33  1  0  0  0  0
  9 10  2  0  0  0  0
  9 11  1  0  0  0  0
 11 12  1  0  0  0  0
 11 34  1  0  0  0  0
 12 16  1  0  0  0  0
 12 13  2  0  0  0  0
 13 14  1  0  0  0  0
 14 15  2  0  0  0  0
 14 35  1  0  0  0  0
 15 16  1  0  0  0  0
 15 36  1  0  0  0  0
 17 18  1  0  0  0  0
 17 37  1  0  0  0  0
 17 38  1  0  0  0  0
 18 19  1  0  0  0  0
 18 20  1  0  0  0  0
 18 39  1  0  0  0  0
 19 40  1  0  0  0  0
 19 41  1  0  0  0  0
 19 42  1  0  0  0  0
M  CHG  1   4   1
M  END
> <s_m_source_file>
AV-unprocessed.smi

> <i_m_source_file_index>
2032

> <i_lp_mmshare_version>
43012

> <i_f3d_flags>
0

> <s_epik_input>
W0NIM11bQ0BASF0xW0NIMl1OKFtDSDJdW0NASF0oTzEpW0NIM10pW0NASF0oW0NIM10pW0NIMl1bTkhdQyg9TylbTkhdYzJuW2NIXVtjSF1zMg==

> <s_epik_cmdline>
J2VwaWtfcHl0aG9uJywgJy1waCcsICc3LjAnLCAnLXRuJywgJzgnLCAnLW1hJywgJzIwMCcsICctbWV0YWxfYmluZGluZycsICctaW1hZScsICc8aW5maWxlLm1hZT4nLCAnLW9tYWUnLCAnPG91dGZpbGUubWFlPic=

> <r_lp_tautomer_probability>
0.999

> <r_epik_Ionization_Penalty>
0.695838

> <r_epik_Ionization_Penalty_Charging>
0.695697

> <r_epik_Ionization_Penalty_Neutral>
0.000141198

> <r_epik_State_Penalty>
0.717972

> <r_epik_Charging_Adjusted_Penalty>
1.41367

> <i_epik_Tot_Q>
1

> <i_epik_Tot_abs_Q>
1

> <r_epik_Metal_State_Penalty>
0.756405

> <b_epik_Metal_Only>
0

> <s_lp_Force_Field>
OPLS_2005

> <r_lp_Energy>
18.3762

> <b_lp_Chiralities_Consistent>
1

> <s_lp_Variant>
AV-unprocessed.smi:2032-13

> <Gold.Version>
5.8.1

> <Gold.Id.Protein>
6NUR|6NUR_protein|mol2

> <Gold.PLP.Fitness>
40.0637

> <Gold.PLP.PLP>
-33.8045

> <Gold.PLP.part.hbond>
-4.0000

> <Gold.PLP.part.metal>
0.0000

> <Gold.PLP.part.buried>
-5.8628

> <Gold.PLP.part.nonpolar>
-25.0388

> <Gold.PLP.part.repulsive>
0.3214

> <Gold.PLP.ligand.clash>
0.0000

> <Gold.PLP.ligand.torsion>
1.1726

> <Gold.PLP.Chemscore.Hbond>
2.8500

> <Gold.PLP.Chemscore.CHOScore>
0.0000

> <Gold.PLP.Chemscore.Metal>
0.0000

> <Gold.Chemscore.Hbonds>
donor molecule, donor type, donor heavy atom, donor atom, acceptor molecule, acceptor atom, score
      L1  H     8    33       P1 10175  1.00
      L1  H    11    34       P1 10174  0.85
      P1  H  7989  7998       L1    20  0.85

> <Gold.PLP.Chemscore.Internal.Correction>
0.0545

> <Gold.Rescore>
     Score         DG    S(hbond)    S(metal)    S(lipo)     H(rot)  DE(clash)    DE(int)     intcor
     10.31     -13.08       0.72        0.00      79.63       1.61       0.45       2.32       ----

> <Gold.Chemscore.Fitness>
10.3078

> <Gold.Chemscore.DG>
-13.0800

> <Gold.Chemscore.ZeroCoef>
-5.4800

> <Gold.Chemscore.Hbond>
0.7208

> <Gold.Chemscore.Metal>
0.0000

> <Gold.Chemscore.Lipo>
79.6290

> <Gold.Chemscore.Internal_Hbond>
0.0000

> <Gold.Chemscore.DEClash>
0.4490

> <Gold.Chemscore.DEInternal>
2.3233

> <Gold.Chemscore.Rot>
1.6110

> <Gold.Chemscore.Internal.Correction>
   9.000000E+99

> <Gold.Chemscore.Hbonds>
donor molecule, donor type, donor heavy atom, donor atom, acceptor molecule, acceptor atom, score
      L1  H     8    33       P1 10175  0.30
      L1  H    11    34       P1 10174  0.15
      P1  H  7989  7998       L1    20  0.12

> <Gold.Chemscore.Hbond.Weighted>
-2.4076

> <Gold.Chemscore.Metal.Weighted>
-0.0000

> <Gold.Chemscore.Lipo.Weighted>
-9.3166

> <Gold.Chemscore.Internal_Hbond.Weighted>
0.0000

> <Gold.Chemscore.DEClash.Weighted>
0.4490

> <Gold.Chemscore.DEInternal.Weighted>
2.3233

> <Gold.Chemscore.Rot.Weighted>
4.1242

> <Gold.Chemscore.Internal.Correction.Weighted>
   9.000000E+99

> <Gold.Protein.RotatedTorsions>
[ 6907 6896 6895 6894 ] final  131.84 input  -60.11 | X-H torsion
[ 7974 7965 7964 7962 ] final -106.01 input  175.53 | X-H torsion
[ 8008 7997 7996 7995 ] final   75.27 input   59.86 | X-H torsion
[ 10167 10162 10161 10158 ] final  169.34 input  -65.29 | X-H torsion
[ 10718 10713 10712 10709 ] final -107.58 input   66.30 | X-H torsion
[ 10763 10752 10751 10750 ] final  -67.85 input  -60.55 | X-H torsion
[ 11005 11000 10999 10996 ] final  -84.19 input  -57.11 | X-H torsion

> <Gold.Protein.ActiveResidues>
 VAL166  LYS551  ARG553  GLY616  TRP617  ASP618  TYR619  PRO620  LYS621  CYS622 
 ASP623  PHE694  ASN695  SER759  ASP760  ASP761  ALA762  ILE779  LEU786  VAL792 
 PHE793  MET794  SER795  GLU796  ALA797  LYS798  CYS799  TRP800  GLU811  SER814 

> <Gold.Protein.RotatedAtoms>
  152.3385  133.6039  159.5859 H   0  0  0  0  0  0  0  0  0  0  0  0  # atno 6907 bound_to 6896
  150.7464  133.9759  159.3569 H   0  0  0  0  0  0  0  0  0  0  0  0  # atno 6908 bound_to 6896
  151.7626  135.0807  160.0399 H   0  0  0  0  0  0  0  0  0  0  0  0  # atno 6909 bound_to 6896
  145.2232  140.9142  143.3247 H   0  0  0  0  0  0  0  0  0  0  0  0  # atno 7974 bound_to 7965
  155.8105  140.3473  155.5455 H   0  0  0  0  0  0  0  0  0  0  0  0  # atno 8008 bound_to 7997
  155.8445  140.0946  157.1734 H   0  0  0  0  0  0  0  0  0  0  0  0  # atno 8009 bound_to 7997
  154.4006  140.1388  156.3757 H   0  0  0  0  0  0  0  0  0  0  0  0  # atno 8010 bound_to 7997
  139.4990  144.3717  151.9717 H   0  0  0  0  0  0  0  0  0  0  0  0  # atno 10167 bound_to 10162
  156.0443  130.5669  150.7841 H   0  0  0  0  0  0  0  0  0  0  0  0  # atno 10718 bound_to 10713
  154.3805  135.6075  153.5788 H   0  0  0  0  0  0  0  0  0  0  0  0  # atno 10763 bound_to 10752
  152.9788  135.5859  154.4416 H   0  0  0  0  0  0  0  0  0  0  0  0  # atno 10764 bound_to 10752
  154.4184  135.2845  155.1969 H   0  0  0  0  0  0  0  0  0  0  0  0  # atno 10765 bound_to 10752
  141.1652  133.7333  156.8832 H   0  0  0  0  0  0  0  0  0  0  0  0  # atno 11005 bound_to 11000
  144.9746  139.3845  143.6292 LP  0  0  0  0  0  0  0  0  0  0  0  0  # atno 17320 bound_to 7965
  146.3371  139.8859  142.8817 LP  0  0  0  0  0  0  0  0  0  0  0  0  # atno 17321 bound_to 7965
  140.3153  144.3491  150.6023 LP  0  0  0  0  0  0  0  0  0  0  0  0  # atno 17342 bound_to 10162
  140.5766  143.2176  151.7504 LP  0  0  0  0  0  0  0  0  0  0  0  0  # atno 17343 bound_to 10162
  157.5300  131.0936  150.9967 LP  0  0  0  0  0  0  0  0  0  0  0  0  # atno 17370 bound_to 10713
  157.0276  130.5698  149.5339 LP  0  0  0  0  0  0  0  0  0  0  0  0  # atno 17371 bound_to 10713
  140.1700  134.9106  157.2822 LP  0  0  0  0  0  0  0  0  0  0  0  0  # atno 17394 bound_to 11000
  140.2512  134.3680  155.7441 LP  0  0  0  0  0  0  0  0  0  0  0  0  # atno 17395 bound_to 11000

$$$$
