AV-unprocessed.smi:1586|AV-procd|sdf|6378|dock9
  -GOLD-   22720 7 13D 1   1.00000     0.00000
 Structure written by MMmdl.
 46 47  0  0  0  0  0  0  0  0  1 V2000
  152.2359  144.0633  158.2813 C   0  0  0  0  0  0  0  0  0  0  0  0
  151.8144  142.6712  158.7729 C   0  0  0  0  0  0  0  0  0  0  0  0
  151.7861  141.6361  157.7413 N   0  0  0  0  0  0  0  0  0  0  0  0
  151.4705  140.3335  158.3194 C   0  0  0  0  0  0  0  0  0  0  0  0
  151.4597  139.2247  157.2523 C   0  0  0  0  0  0  0  0  0  0  0  0
  150.4760  139.4792  156.1884 N   0  0  0  0  0  0  0  0  0  0  0  0
  150.4562  138.4096  155.1630 C   0  0  1  0  0  0  0  0  0  0  0  0
  151.7815  138.3277  154.3629 C   0  0  0  0  0  0  0  0  0  0  0  0
  150.1252  137.0074  155.7499 C   0  0  0  0  0  0  0  0  0  0  0  0
  149.5527  136.0930  154.7641 N   0  0  0  0  0  0  0  0  0  0  0  0
  149.2647  134.7994  154.9730 C   0  0  0  0  0  0  0  0  0  0  0  0
  149.4497  134.2226  156.0450 O   0  0  0  0  0  0  0  0  0  0  0  0
  148.7642  134.2282  153.8644 N   0  0  0  0  0  0  0  0  0  0  0  0
  148.3833  132.8738  153.6865 C   0  0  0  0  0  0  0  0  0  0  0  0
  147.2155  132.5362  152.9522 C   0  0  0  0  0  0  0  0  0  0  0  0
  147.2033  131.1707  153.0045 C   0  0  0  0  0  0  0  0  0  0  0  0
  146.2763  130.1427  152.4528 C   0  0  0  0  0  0  0  0  0  0  0  0
  148.2713  130.7140  153.7133 O   0  0  0  0  0  0  0  0  0  0  0  0
  149.0249  131.8110  154.1473 N   0  0  0  0  0  0  0  0  0  0  0  0
  150.7775  140.8053  155.6267 C   0  0  0  0  0  0  0  0  0  0  0  0
  150.7978  141.9107  156.6993 C   0  0  0  0  0  0  0  0  0  0  0  0
  152.3296  144.7527  159.1203 H   0  0  0  0  0  0  0  0  0  0  0  0
  151.5079  144.4907  157.5925 H   0  0  0  0  0  0  0  0  0  0  0  0
  153.2008  144.0258  157.7749 H   0  0  0  0  0  0  0  0  0  0  0  0
  152.5192  142.3731  159.5501 H   0  0  0  0  0  0  0  0  0  0  0  0
  150.8408  142.7363  159.2610 H   0  0  0  0  0  0  0  0  0  0  0  0
  152.2054  140.0822  159.0849 H   0  0  0  0  0  0  0  0  0  0  0  0
  150.5008  140.3691  158.8190 H   0  0  0  0  0  0  0  0  0  0  0  0
  152.4569  139.1144  156.8232 H   0  0  0  0  0  0  0  0  0  0  0  0
  151.2337  138.2952  157.7709 H   0  0  0  0  0  0  0  0  0  0  0  0
  149.6682  138.6475  154.4467 H   0  0  0  0  0  0  0  0  0  0  0  0
  151.7750  137.5260  153.6262 H   0  0  0  0  0  0  0  0  0  0  0  0
  152.6314  138.1579  155.0246 H   0  0  0  0  0  0  0  0  0  0  0  0
  151.9768  139.2300  153.7860 H   0  0  0  0  0  0  0  0  0  0  0  0
  151.0105  136.5803  156.2242 H   0  0  0  0  0  0  0  0  0  0  0  0
  149.3665  137.0757  156.5270 H   0  0  0  0  0  0  0  0  0  0  0  0
  149.3676  136.4770  153.8490 H   0  0  0  0  0  0  0  0  0  0  0  0
  148.6604  134.8220  153.0550 H   0  0  0  0  0  0  0  0  0  0  0  0
  146.5036  133.1858  152.4646 H   0  0  0  0  0  0  0  0  0  0  0  0
  145.5966  130.5826  151.7229 H   0  0  0  0  0  0  0  0  0  0  0  0
  145.6779  129.6969  153.2474 H   0  0  0  0  0  0  0  0  0  0  0  0
  146.8314  129.3452  151.9584 H   0  0  0  0  0  0  0  0  0  0  0  0
  151.7342  140.7820  155.1027 H   0  0  0  0  0  0  0  0  0  0  0  0
  150.0237  141.0948  154.8975 H   0  0  0  0  0  0  0  0  0  0  0  0
  149.8048  142.0109  157.1405 H   0  0  0  0  0  0  0  0  0  0  0  0
  151.0192  142.8596  156.2116 H   0  0  0  0  0  0  0  0  0  0  0  0
  1  2  1  0  0  0  0
  1 22  1  0  0  0  0
  1 23  1  0  0  0  0
  1 24  1  0  0  0  0
  2  3  1  0  0  0  0
  2 25  1  0  0  0  0
  2 26  1  0  0  0  0
  3 21  1  0  0  0  0
  3  4  1  0  0  0  0
  4  5  1  0  0  0  0
  4 27  1  0  0  0  0
  4 28  1  0  0  0  0
  5  6  1  0  0  0  0
  5 29  1  0  0  0  0
  5 30  1  0  0  0  0
  6  7  1  0  0  0  0
  6 20  1  0  0  0  0
  7  8  1  0  0  0  0
  7  9  1  0  0  0  0
  7 31  1  0  0  0  0
  8 32  1  0  0  0  0
  8 33  1  0  0  0  0
  8 34  1  0  0  0  0
  9 10  1  0  0  0  0
  9 35  1  0  0  0  0
  9 36  1  0  0  0  0
 10 11  1  0  0  0  0
 10 37  1  0  0  0  0
 11 12  2  0  0  0  0
 11 13  1  0  0  0  0
 13 14  1  0  0  0  0
 13 38  1  0  0  0  0
 14 19  2  0  0  0  0
 14 15  1  0  0  0  0
 15 16  2  0  0  0  0
 15 39  1  0  0  0  0
 16 17  1  0  0  0  0
 16 18  1  0  0  0  0
 17 40  1  0  0  0  0
 17 41  1  0  0  0  0
 17 42  1  0  0  0  0
 18 19  1  0  0  0  0
 20 21  1  0  0  0  0
 20 43  1  0  0  0  0
 20 44  1  0  0  0  0
 21 45  1  0  0  0  0
 21 46  1  0  0  0  0
M  END
> <s_m_source_file>
AV-unprocessed.smi

> <i_m_source_file_index>
1586

> <i_lp_mmshare_version>
43012

> <i_f3d_flags>
0

> <s_epik_input>
W0NIM11bQ0gyXU4xW0NIMl1bQ0gyXU4oW0NIMl1bQ0gyXTEpW0NASF0oW0NIM10pW0NIMl1bTkhdQyg9TylbTkhdYzJbY0hdYyhbQ0gzXSlvbjI=

> <s_epik_cmdline>
J2VwaWtfcHl0aG9uJywgJy1waCcsICc3LjAnLCAnLXRuJywgJzgnLCAnLW1hJywgJzIwMCcsICctbWV0YWxfYmluZGluZycsICctaW1hZScsICc8aW5maWxlLm1hZT4nLCAnLW9tYWUnLCAnPG91dGZpbGUubWFlPic=

> <r_epik_Ionization_Penalty>
2.42597

> <r_epik_Ionization_Penalty_Charging>
0

> <r_epik_Ionization_Penalty_Neutral>
2.42597

> <r_epik_State_Penalty>
1.76326

> <r_epik_Charging_Adjusted_Penalty>
1.76326

> <i_epik_Tot_Q>
0

> <i_epik_Tot_abs_Q>
0

> <r_epik_Metal_State_Penalty>
1.7742

> <b_epik_Metal_Only>
0

> <s_lp_Force_Field>
OPLS_2005

> <r_lp_Energy>
39.6445

> <b_lp_Chiralities_Consistent>
1

> <s_lp_Variant>
AV-unprocessed.smi:1586-6

> <Gold.Version>
5.8.1

> <Gold.Id.Protein>
6NUR|6NUR_protein|mol2

> <Gold.PLP.Fitness>
39.9836

> <Gold.PLP.PLP>
-35.0526

> <Gold.PLP.part.hbond>
-2.0000

> <Gold.PLP.part.metal>
0.0000

> <Gold.PLP.part.buried>
-3.1230

> <Gold.PLP.part.nonpolar>
-28.8168

> <Gold.PLP.part.repulsive>
0.2120

> <Gold.PLP.ligand.clash>
0.0000

> <Gold.PLP.ligand.torsion>
0.5577

> <Gold.PLP.Chemscore.Hbond>
2.0000

> <Gold.PLP.Chemscore.CHOScore>
0.0000

> <Gold.PLP.Chemscore.Metal>
0.0000

> <Gold.Chemscore.Hbonds>
donor molecule, donor type, donor heavy atom, donor atom, acceptor molecule, acceptor atom, score
      L1  H    10    37       P1  7948  1.00
      L1  H    13    38       P1  7948  1.00

> <Gold.PLP.Chemscore.Internal.Correction>
0.0463

> <Gold.Rescore>
     Score         DG    S(hbond)    S(metal)    S(lipo)     H(rot)  DE(clash)    DE(int)     intcor
     15.80     -16.42       1.73        0.00      81.71       1.72       0.04       0.58       ----

> <Gold.Chemscore.Fitness>
15.8021

> <Gold.Chemscore.DG>
-16.4246

> <Gold.Chemscore.ZeroCoef>
-5.4800

> <Gold.Chemscore.Hbond>
1.7313

> <Gold.Chemscore.Metal>
0.0000

> <Gold.Chemscore.Lipo>
81.7063

> <Gold.Chemscore.Internal_Hbond>
0.0000

> <Gold.Chemscore.DEClash>
0.0431

> <Gold.Chemscore.DEInternal>
0.5793

> <Gold.Chemscore.Rot>
1.7178

> <Gold.Chemscore.Internal.Correction>
   9.000000E+99

> <Gold.Chemscore.Hbonds>
donor molecule, donor type, donor heavy atom, donor atom, acceptor molecule, acceptor atom, score
      L1  H    10    37       P1  7948  0.79
      L1  H    13    38       P1  7948  0.35

> <Gold.Chemscore.Hbond.Weighted>
-5.7826

> <Gold.Chemscore.Metal.Weighted>
-0.0000

> <Gold.Chemscore.Lipo.Weighted>
-9.5596

> <Gold.Chemscore.Internal_Hbond.Weighted>
0.0000

> <Gold.Chemscore.DEClash.Weighted>
0.0431

> <Gold.Chemscore.DEInternal.Weighted>
0.5793

> <Gold.Chemscore.Rot.Weighted>
4.3976

> <Gold.Chemscore.Internal.Correction.Weighted>
   9.000000E+99

> <Gold.Protein.RotatedTorsions>
[ 6907 6896 6895 6894 ] final  -45.71 input  -60.11 | X-H torsion
[ 7974 7965 7964 7962 ] final   88.77 input  175.53 | X-H torsion
[ 8008 7997 7996 7995 ] final  -78.11 input   59.86 | X-H torsion
[ 10167 10162 10161 10158 ] final    5.76 input  -65.29 | X-H torsion
[ 10718 10713 10712 10709 ] final  128.82 input   66.30 | X-H torsion
[ 10763 10752 10751 10750 ] final -140.86 input  -60.55 | X-H torsion
[ 11005 11000 10999 10996 ] final    1.22 input  -57.11 | X-H torsion

> <Gold.Protein.ActiveResidues>
 VAL166  LYS551  ARG553  GLY616  TRP617  ASP618  TYR619  PRO620  LYS621  CYS622 
 ASP623  PHE694  ASN695  SER759  ASP760  ASP761  ALA762  ILE779  LEU786  VAL792 
 PHE793  MET794  SER795  GLU796  ALA797  LYS798  CYS799  TRP800  GLU811  SER814 

> <Gold.Protein.RotatedAtoms>
  150.9191  134.8608  159.7476 H   0  0  0  0  0  0  0  0  0  0  0  0  # atno 6907 bound_to 6896
  152.4983  134.4245  159.9501 H   0  0  0  0  0  0  0  0  0  0  0  0  # atno 6908 bound_to 6896
  151.4281  133.3639  159.2800 H   0  0  0  0  0  0  0  0  0  0  0  0  # atno 6909 bound_to 6896
  145.5413  139.2289  143.2564 H   0  0  0  0  0  0  0  0  0  0  0  0  # atno 7974 bound_to 7965
  154.5658  140.0699  156.8890 H   0  0  0  0  0  0  0  0  0  0  0  0  # atno 8008 bound_to 7997
  155.2725  140.3366  155.4246 H   0  0  0  0  0  0  0  0  0  0  0  0  # atno 8009 bound_to 7997
  156.2079  140.1747  156.7744 H   0  0  0  0  0  0  0  0  0  0  0  0  # atno 8010 bound_to 7997
  140.6464  143.7651  150.7506 H   0  0  0  0  0  0  0  0  0  0  0  0  # atno 10167 bound_to 10162
  157.5211  131.1098  150.9153 H   0  0  0  0  0  0  0  0  0  0  0  0  # atno 10718 bound_to 10713
  154.8564  135.3541  154.5775 H   0  0  0  0  0  0  0  0  0  0  0  0  # atno 10763 bound_to 10752
  153.6387  135.6999  153.5254 H   0  0  0  0  0  0  0  0  0  0  0  0  # atno 10764 bound_to 10752
  153.2989  135.4212  155.1194 H   0  0  0  0  0  0  0  0  0  0  0  0  # atno 10765 bound_to 10752
  140.6179  133.9688  155.8210 H   0  0  0  0  0  0  0  0  0  0  0  0  # atno 11005 bound_to 11000
  146.1979  140.6233  142.9115 LP  0  0  0  0  0  0  0  0  0  0  0  0  # atno 17320 bound_to 7965
  144.7576  140.5344  143.6758 LP  0  0  0  0  0  0  0  0  0  0  0  0  # atno 17321 bound_to 7965
  140.1293  143.4541  152.2264 LP  0  0  0  0  0  0  0  0  0  0  0  0  # atno 17342 bound_to 10162
  139.5675  144.7444  151.3981 LP  0  0  0  0  0  0  0  0  0  0  0  0  # atno 17343 bound_to 10162
  156.9763  130.5510  149.5293 LP  0  0  0  0  0  0  0  0  0  0  0  0  # atno 17370 bound_to 10713
  156.0354  130.5442  150.8639 LP  0  0  0  0  0  0  0  0  0  0  0  0  # atno 17371 bound_to 10713
  141.0763  134.0130  157.3453 LP  0  0  0  0  0  0  0  0  0  0  0  0  # atno 17394 bound_to 11000
  139.9165  135.0197  156.7901 LP  0  0  0  0  0  0  0  0  0  0  0  0  # atno 17395 bound_to 11000

$$$$
