AV-unprocessed.smi:152|AV-procd|sdf|1246|dock5
  -GOLD-   2262018473D 1   1.00000     0.00000
 Structure written by MMmdl.
 58 61  0  0  0  0  0  0  0  0  2 V2000
  153.3192  141.1226  160.0811 C   0  0  0  0  0  0  0  0  0  0  0  0
  153.4067  142.6154  159.7343 C   0  0  0  0  0  0  0  0  0  0  0  0
  152.4149  143.0346  158.7101 N   0  3  2  0  0  0  0  0  0  0  0  0
  152.5065  144.4786  158.3843 C   0  0  0  0  0  0  0  0  0  0  0  0
  151.2280  145.1204  158.9127 C   0  0  0  0  0  0  0  0  0  0  0  0
  150.2073  144.0100  158.7335 C   0  0  0  0  0  0  0  0  0  0  0  0
  150.9977  142.7313  159.0531 C   0  0  1  0  0  0  0  0  0  0  0  0
  150.4896  141.4923  158.2821 C   0  0  0  0  0  0  0  0  0  0  0  0
  150.5904  141.6309  156.8291 N   0  0  0  0  0  0  0  0  0  0  0  0
  151.9032  141.4261  156.2227 C   0  0  0  0  0  0  0  0  0  0  0  0
  149.4884  141.3815  156.0701 C   0  0  0  0  0  0  0  0  0  0  0  0
  149.6529  140.8786  154.8169 N   0  0  0  0  0  0  0  0  0  0  0  0
  148.5954  140.6000  154.0500 C   0  0  0  0  0  0  0  0  0  0  0  0
  147.3008  140.7483  154.3316 N   0  0  0  0  0  0  0  0  0  0  0  0
  147.1235  141.2645  155.5806 C   0  0  0  0  0  0  0  0  0  0  0  0
  148.1499  141.6071  156.5078 C   0  0  0  0  0  0  0  0  0  0  0  0
  147.5768  142.1138  157.6692 N   0  0  0  0  0  0  0  0  0  0  0  0
  146.2924  142.0651  157.4454 C   0  0  0  0  0  0  0  0  0  0  0  0
  145.9318  141.5738  156.2123 N   0  0  0  0  0  0  0  0  0  0  0  0
  144.5793  141.4174  155.6990 C   0  0  0  0  0  0  0  0  0  0  0  0
  143.7626  142.7331  155.6740 C   0  0  0  0  0  0  0  0  0  0  0  0
  142.4753  142.4304  155.1634 O   0  0  0  0  0  0  0  0  0  0  0  0
  143.5971  143.3580  157.0767 C   0  0  0  0  0  0  0  0  0  0  0  0
  142.9652  144.7601  157.0148 C   0  0  0  0  0  0  0  0  0  0  0  0
  143.7226  145.6019  156.1538 O   0  0  0  0  0  0  0  0  0  0  0  0
  143.7433  145.1385  154.8089 C   0  0  0  0  0  0  0  0  0  0  0  0
  144.4271  143.7618  154.7371 C   0  0  0  0  0  0  0  0  0  0  0  0
  154.1182  140.8416  160.7671 H   0  0  0  0  0  0  0  0  0  0  0  0
  153.4175  140.5025  159.1896 H   0  0  0  0  0  0  0  0  0  0  0  0
  152.3754  140.8743  160.5666 H   0  0  0  0  0  0  0  0  0  0  0  0
  153.2919  143.2213  160.6345 H   0  0  0  0  0  0  0  0  0  0  0  0
  154.4083  142.8146  159.3510 H   0  0  0  0  0  0  0  0  0  0  0  0
  153.4007  144.9613  158.7817 H   0  0  0  0  0  0  0  0  0  0  0  0
  152.5422  144.5739  157.2986 H   0  0  0  0  0  0  0  0  0  0  0  0
  151.3376  145.3597  159.9711 H   0  0  0  0  0  0  0  0  0  0  0  0
  150.9612  146.0348  158.3819 H   0  0  0  0  0  0  0  0  0  0  0  0
  149.3320  144.1369  159.3713 H   0  0  0  0  0  0  0  0  0  0  0  0
  149.8668  144.0012  157.6970 H   0  0  0  0  0  0  0  0  0  0  0  0
  150.9319  142.5556  160.1283 H   0  0  0  0  0  0  0  0  0  0  0  0
  150.9942  140.5980  158.6401 H   0  0  0  0  0  0  0  0  0  0  0  0
  149.4379  141.3258  158.5124 H   0  0  0  0  0  0  0  0  0  0  0  0
  151.9658  141.9258  155.2554 H   0  0  0  0  0  0  0  0  0  0  0  0
  152.1041  140.3641  156.0781 H   0  0  0  0  0  0  0  0  0  0  0  0
  152.6890  141.8357  156.8576 H   0  0  0  0  0  0  0  0  0  0  0  0
  148.8186  140.2006  153.0716 H   0  0  0  0  0  0  0  0  0  0  0  0
  145.5672  142.3962  158.1747 H   0  0  0  0  0  0  0  0  0  0  0  0
  144.6455  141.0004  154.6933 H   0  0  0  0  0  0  0  0  0  0  0  0
  144.0698  140.6660  156.3040 H   0  0  0  0  0  0  0  0  0  0  0  0
  142.5519  142.2648  154.2360 H   0  0  0  0  0  0  0  0  0  0  0  0
  142.9974  142.7152  157.7225 H   0  0  0  0  0  0  0  0  0  0  0  0
  144.5762  143.4401  157.5503 H   0  0  0  0  0  0  0  0  0  0  0  0
  141.9299  144.7104  156.6742 H   0  0  0  0  0  0  0  0  0  0  0  0
  142.9471  145.2036  158.0105 H   0  0  0  0  0  0  0  0  0  0  0  0
  142.7288  145.0965  154.4099 H   0  0  0  0  0  0  0  0  0  0  0  0
  144.2910  145.8578  154.1999 H   0  0  0  0  0  0  0  0  0  0  0  0
  145.4735  143.8832  155.0202 H   0  0  0  0  0  0  0  0  0  0  0  0
  144.4302  143.3981  153.7086 H   0  0  0  0  0  0  0  0  0  0  0  0
  152.6367  142.5361  157.8600 H   0  0  0  0  0  0  0  0  0  0  0  0
  1  2  1  0  0  0  0
  1 28  1  0  0  0  0
  1 29  1  0  0  0  0
  1 30  1  0  0  0  0
  2  3  1  0  0  0  0
  2 31  1  0  0  0  0
  2 32  1  0  0  0  0
  3  7  1  0  0  0  0
  3  4  1  0  0  0  0
  3 58  1  0  0  0  0
  4  5  1  0  0  0  0
  4 33  1  0  0  0  0
  4 34  1  0  0  0  0
  5  6  1  0  0  0  0
  5 35  1  0  0  0  0
  5 36  1  0  0  0  0
  6  7  1  0  0  0  0
  6 37  1  0  0  0  0
  6 38  1  0  0  0  0
  7  8  1  0  0  0  0
  7 39  1  0  0  0  0
  8  9  1  0  0  0  0
  8 40  1  0  0  0  0
  8 41  1  0  0  0  0
  9 10  1  0  0  0  0
  9 11  1  0  0  0  0
 10 42  1  0  0  0  0
 10 43  1  0  0  0  0
 10 44  1  0  0  0  0
 11 16  1  0  0  0  0
 11 12  2  0  0  0  0
 12 13  1  0  0  0  0
 13 14  2  0  0  0  0
 13 45  1  0  0  0  0
 14 15  1  0  0  0  0
 15 19  1  0  0  0  0
 15 16  2  0  0  0  0
 16 17  1  0  0  0  0
 17 18  2  0  0  0  0
 18 19  1  0  0  0  0
 18 46  1  0  0  0  0
 19 20  1  0  0  0  0
 20 21  1  0  0  0  0
 20 47  1  0  0  0  0
 20 48  1  0  0  0  0
 21 27  1  0  0  0  0
 21 22  1  0  0  0  0
 21 23  1  0  0  0  0
 22 49  1  0  0  0  0
 23 24  1  0  0  0  0
 23 50  1  0  0  0  0
 23 51  1  0  0  0  0
 24 25  1  0  0  0  0
 24 52  1  0  0  0  0
 24 53  1  0  0  0  0
 25 26  1  0  0  0  0
 26 27  1  0  0  0  0
 26 54  1  0  0  0  0
 26 55  1  0  0  0  0
 27 56  1  0  0  0  0
 27 57  1  0  0  0  0
M  CHG  1   3   1
M  END
> <s_m_source_file>
AV-unprocessed.smi

> <i_m_source_file_index>
152

> <i_lp_mmshare_version>
43012

> <i_f3d_flags>
0

> <s_epik_input>
W0NIM11bQ0gyXU4xW0NIMl1bQ0gyXVtDSDJdW0NASF0xW0NIMl1OKFtDSDNdKWMobltjSF1uMiljKGMyMyluW2NIXW4zW0NIMl1DNChbT0hdKVtDSDJdW0NIMl1PW0NIMl1bQ0gyXTQ=

> <s_epik_cmdline>
J2VwaWtfcHl0aG9uJywgJy1waCcsICc3LjAnLCAnLXRuJywgJzgnLCAnLW1hJywgJzIwMCcsICctbWV0YWxfYmluZGluZycsICctaW1hZScsICc8aW5maWxlLm1hZT4nLCAnLW9tYWUnLCAnPG91dGZpbGUubWFlPic=

> <r_lp_tautomer_probability>
1

> <r_epik_Ionization_Penalty>
0.00152183

> <r_epik_Ionization_Penalty_Charging>
0.00112577

> <r_epik_Ionization_Penalty_Neutral>
0.000396066

> <r_epik_State_Penalty>
-0

> <r_epik_Charging_Adjusted_Penalty>
0.00112577

> <i_epik_Tot_Q>
1

> <i_epik_Tot_abs_Q>
1

> <r_epik_Metal_State_Penalty>
-0

> <b_epik_Metal_Only>
0

> <s_lp_Force_Field>
OPLS_2005

> <r_lp_Energy>
43.1926

> <b_lp_Chiralities_Consistent>
1

> <s_lp_Variant>
AV-unprocessed.smi:152-1

> <Gold.Version>
5.8.1

> <Gold.Id.Protein>
6NUR|6NUR_protein|mol2

> <Gold.PLP.Fitness>
47.5730

> <Gold.PLP.PLP>
-41.4152

> <Gold.PLP.part.hbond>
-1.5640

> <Gold.PLP.part.metal>
0.0000

> <Gold.PLP.part.buried>
-6.2265

> <Gold.PLP.part.nonpolar>
-33.4397

> <Gold.PLP.part.repulsive>
0.5169

> <Gold.PLP.ligand.clash>
0.0000

> <Gold.PLP.ligand.torsion>
0.3823

> <Gold.PLP.Chemscore.Hbond>
1.1258

> <Gold.PLP.Chemscore.CHOScore>
1.0000

> <Gold.PLP.Chemscore.Metal>
0.0000

> <Gold.Chemscore.Hbonds>
donor molecule, donor type, donor heavy atom, donor atom, acceptor molecule, acceptor atom, score
      L1  H    22    49       P1 10174  0.81
      P1  H  7989  7998       L1    12  0.11
      L1  C    13    45       P1  7957  1.00

> <Gold.PLP.Chemscore.Internal.Correction>
0.5449

> <Gold.Rescore>
     Score         DG    S(hbond)    S(metal)    S(lipo)     H(rot)  DE(clash)    DE(int)     intcor
     11.33     -15.00       1.04        0.00     105.63       2.46       1.64       2.03       ----

> <Gold.Chemscore.Fitness>
11.3260

> <Gold.Chemscore.DG>
-14.9978

> <Gold.Chemscore.ZeroCoef>
-5.4800

> <Gold.Chemscore.Hbond>
1.0361

> <Gold.Chemscore.Metal>
0.0000

> <Gold.Chemscore.Lipo>
105.6278

> <Gold.Chemscore.Internal_Hbond>
0.0000

> <Gold.Chemscore.DEClash>
1.6377

> <Gold.Chemscore.DEInternal>
2.0341

> <Gold.Chemscore.Rot>
2.4614

> <Gold.Chemscore.Internal.Correction>
   9.000000E+99

> <Gold.Chemscore.Hbonds>
donor molecule, donor type, donor heavy atom, donor atom, acceptor molecule, acceptor atom, score
      L1  H    22    49       P1 10174  0.32
      P1  H  7989  7998       L1    12  0.08

> <Gold.Chemscore.Hbond.Weighted>
-3.4605

> <Gold.Chemscore.Metal.Weighted>
-0.0000

> <Gold.Chemscore.Lipo.Weighted>
-12.3585

> <Gold.Chemscore.Internal_Hbond.Weighted>
0.0000

> <Gold.Chemscore.DEClash.Weighted>
1.6377

> <Gold.Chemscore.DEInternal.Weighted>
2.0341

> <Gold.Chemscore.Rot.Weighted>
6.3012

> <Gold.Chemscore.Internal.Correction.Weighted>
   9.000000E+99

> <Gold.Protein.RotatedTorsions>
[ 6907 6896 6895 6894 ] final -107.61 input  -60.11 | X-H torsion
[ 7974 7965 7964 7962 ] final -141.87 input  175.53 | X-H torsion
[ 8008 7997 7996 7995 ] final   -1.11 input   59.86 | X-H torsion
[ 10167 10162 10161 10158 ] final  -98.36 input  -65.29 | X-H torsion
[ 10718 10713 10712 10709 ] final  -22.53 input   66.30 | X-H torsion
[ 10763 10752 10751 10750 ] final  140.48 input  -60.55 | X-H torsion
[ 11005 11000 10999 10996 ] final -153.68 input  -57.11 | X-H torsion

> <Gold.Protein.ActiveResidues>
 VAL166  LYS551  ARG553  GLY616  TRP617  ASP618  TYR619  PRO620  LYS621  CYS622 
 ASP623  PHE694  ASN695  SER759  ASP760  ASP761  ALA762  ILE779  LEU786  VAL792 
 PHE793  MET794  SER795  GLU796  ALA797  LYS798  CYS799  TRP800  GLU811  SER814 

> <Gold.Protein.RotatedAtoms>
  150.7454  133.9801  159.3573 H   0  0  0  0  0  0  0  0  0  0  0  0  # atno 6907 bound_to 6896
  151.7742  135.0776  160.0373 H   0  0  0  0  0  0  0  0  0  0  0  0  # atno 6908 bound_to 6896
  152.3318  133.5930  159.5851 H   0  0  0  0  0  0  0  0  0  0  0  0  # atno 6909 bound_to 6896
  144.8486  140.6027  143.5405 H   0  0  0  0  0  0  0  0  0  0  0  0  # atno 7974 bound_to 7965
  154.6504  140.2567  155.7220 H   0  0  0  0  0  0  0  0  0  0  0  0  # atno 8008 bound_to 7997
  156.2572  140.2869  156.0857 H   0  0  0  0  0  0  0  0  0  0  0  0  # atno 8009 bound_to 7997
  155.1459  140.0381  157.2800 H   0  0  0  0  0  0  0  0  0  0  0  0  # atno 8010 bound_to 7997
  140.2737  143.3327  152.0509 H   0  0  0  0  0  0  0  0  0  0  0  0  # atno 10167 bound_to 10162
  156.5032  130.4593  149.6689 H   0  0  0  0  0  0  0  0  0  0  0  0  # atno 10718 bound_to 10713
  153.9234  135.2998  155.3447 H   0  0  0  0  0  0  0  0  0  0  0  0  # atno 10763 bound_to 10752
  154.7563  135.4956  153.9385 H   0  0  0  0  0  0  0  0  0  0  0  0  # atno 10764 bound_to 10752
  153.1129  135.6763  153.9572 H   0  0  0  0  0  0  0  0  0  0  0  0  # atno 10765 bound_to 10752
  140.7055  134.3891  157.5204 H   0  0  0  0  0  0  0  0  0  0  0  0  # atno 11005 bound_to 11000
  145.4545  139.1519  143.3900 LP  0  0  0  0  0  0  0  0  0  0  0  0  # atno 17320 bound_to 7965
  146.2766  140.4672  142.8793 LP  0  0  0  0  0  0  0  0  0  0  0  0  # atno 17321 bound_to 7965
  139.4981  144.6639  151.6402 LP  0  0  0  0  0  0  0  0  0  0  0  0  # atno 17342 bound_to 10162
  140.5869  143.9849  150.6301 LP  0  0  0  0  0  0  0  0  0  0  0  0  # atno 17343 bound_to 10162
  156.3312  130.7332  151.2262 LP  0  0  0  0  0  0  0  0  0  0  0  0  # atno 17370 bound_to 10713
  157.7460  131.0429  150.4719 LP  0  0  0  0  0  0  0  0  0  0  0  0  # atno 17371 bound_to 10713
  139.8885  134.8854  156.2469 LP  0  0  0  0  0  0  0  0  0  0  0  0  # atno 17394 bound_to 11000
  141.0128  133.7085  156.1140 LP  0  0  0  0  0  0  0  0  0  0  0  0  # atno 17395 bound_to 11000

$$$$
