AV-unprocessed.smi:1419|AV-procd|sdf|5775|dock5
  -GOLD-   22720 5423D 1   1.00000     0.00000
 Structure written by MMmdl.
 42 43  0  0  0  0  0  0  0  0  2 V2000
  146.9456  139.0804  151.4020 C   0  0  0  0  0  0  0  0  0  0  0  0
  146.9149  138.9945  152.9337 C   0  0  1  0  0  0  0  0  0  0  0  0
  146.6132  137.5569  153.4093 C   0  0  0  0  0  0  0  0  0  0  0  0
  145.7177  136.8318  152.5008 N   0  0  0  0  0  0  0  0  0  0  0  0
  146.0354  135.7678  151.6963 C   0  0  0  0  0  0  0  0  0  0  0  0
  144.8919  135.4377  151.0154 C   0  0  0  0  0  0  0  0  0  0  0  0
  143.9241  136.3101  151.4362 N   0  3  0  0  0  0  0  0  0  0  0  0
  144.4264  137.1533  152.3438 C   0  0  0  0  0  0  0  0  0  0  0  0
  148.1981  139.4565  153.4610 N   0  0  0  0  0  0  0  0  0  0  0  0
  148.3899  140.5411  154.2330 C   0  0  0  0  0  0  0  0  0  0  0  0
  147.4750  141.3154  154.5174 O   0  0  0  0  0  0  0  0  0  0  0  0
  149.6630  140.7070  154.6675 N   0  0  0  0  0  0  0  0  0  0  0  0
  150.7728  139.7597  154.4978 C   0  0  0  0  0  0  0  0  0  0  0  0
  150.9843  139.0333  155.8416 C   0  0  1  0  0  0  0  0  0  0  0  0
  152.1568  138.0480  155.7905 C   0  0  0  0  0  0  0  0  0  0  0  0
  151.2577  139.9998  156.8564 O   0  0  0  0  0  0  0  0  0  0  0  0
  150.2340  140.9828  157.0158 C   0  0  1  0  0  0  0  0  0  0  0  0
  150.6587  141.9409  158.1335 C   0  0  0  0  0  0  0  0  0  0  0  0
  150.0200  141.7101  155.6725 C   0  0  0  0  0  0  0  0  0  0  0  0
  145.9929  138.7687  150.9726 H   0  0  0  0  0  0  0  0  0  0  0  0
  147.7235  138.4415  150.9824 H   0  0  0  0  0  0  0  0  0  0  0  0
  147.1365  140.1012  151.0693 H   0  0  0  0  0  0  0  0  0  0  0  0
  146.1146  139.6530  153.2762 H   0  0  0  0  0  0  0  0  0  0  0  0
  147.5363  136.9797  153.4770 H   0  0  0  0  0  0  0  0  0  0  0  0
  146.1700  137.5614  154.4067 H   0  0  0  0  0  0  0  0  0  0  0  0
  147.0279  135.3419  151.6627 H   0  0  0  0  0  0  0  0  0  0  0  0
  144.7003  134.6687  150.2811 H   0  0  0  0  0  0  0  0  0  0  0  0
  143.8957  137.9459  152.8411 H   0  0  0  0  0  0  0  0  0  0  0  0
  149.0037  138.8847  153.2526 H   0  0  0  0  0  0  0  0  0  0  0  0
  150.6157  139.0350  153.6987 H   0  0  0  0  0  0  0  0  0  0  0  0
  151.6744  140.3079  154.2197 H   0  0  0  0  0  0  0  0  0  0  0  0
  150.0795  138.4849  156.1097 H   0  0  0  0  0  0  0  0  0  0  0  0
  151.9900  137.2774  155.0374 H   0  0  0  0  0  0  0  0  0  0  0  0
  152.2895  137.5503  156.7514 H   0  0  0  0  0  0  0  0  0  0  0  0
  153.0897  138.5577  155.5478 H   0  0  0  0  0  0  0  0  0  0  0  0
  149.3100  140.4850  157.3160 H   0  0  0  0  0  0  0  0  0  0  0  0
  149.8993  142.7039  158.3061 H   0  0  0  0  0  0  0  0  0  0  0  0
  151.5924  142.4471  157.8858 H   0  0  0  0  0  0  0  0  0  0  0  0
  150.8091  141.4041  159.0705 H   0  0  0  0  0  0  0  0  0  0  0  0
  150.9327  142.2243  155.3671 H   0  0  0  0  0  0  0  0  0  0  0  0
  149.2609  142.4871  155.7774 H   0  0  0  0  0  0  0  0  0  0  0  0
  142.9661  136.3182  151.1085 H   0  0  0  0  0  0  0  0  0  0  0  0
  1  2  1  0  0  0  0
  1 20  1  0  0  0  0
  1 21  1  0  0  0  0
  1 22  1  0  0  0  0
  2  3  1  0  0  0  0
  2  9  1  0  0  0  0
  2 23  1  0  0  0  0
  3  4  1  0  0  0  0
  3 24  1  0  0  0  0
  3 25  1  0  0  0  0
  4  8  1  0  0  0  0
  4  5  1  0  0  0  0
  5  6  2  0  0  0  0
  5 26  1  0  0  0  0
  6  7  1  0  0  0  0
  6 27  1  0  0  0  0
  7  8  2  0  0  0  0
  7 42  1  0  0  0  0
  8 28  1  0  0  0  0
  9 10  1  0  0  0  0
  9 29  1  0  0  0  0
 10 11  2  0  0  0  0
 10 12  1  0  0  0  0
 12 19  1  0  0  0  0
 12 13  1  0  0  0  0
 13 14  1  0  0  0  0
 13 30  1  0  0  0  0
 13 31  1  0  0  0  0
 14 15  1  0  0  0  0
 14 16  1  0  0  0  0
 14 32  1  0  0  0  0
 15 33  1  0  0  0  0
 15 34  1  0  0  0  0
 15 35  1  0  0  0  0
 16 17  1  0  0  0  0
 17 18  1  0  0  0  0
 17 19  1  0  0  0  0
 17 36  1  0  0  0  0
 18 37  1  0  0  0  0
 18 38  1  0  0  0  0
 18 39  1  0  0  0  0
 19 40  1  0  0  0  0
 19 41  1  0  0  0  0
M  CHG  1   7   1
M  END
> <s_m_source_file>
AV-unprocessed.smi

> <i_m_source_file_index>
1419

> <i_lp_mmshare_version>
43012

> <i_f3d_flags>
0

> <s_epik_input>
W2NIXTFuW2NIXVtjSF1uMVtDSDJdW0NAQEhdKFtDSDNdKVtOSF1DKD1PKU4yW0NIMl1bQ0BASF0oW0NIM10pT1tDQEBIXShbQ0gzXSlbQ0gyXTI=

> <s_epik_cmdline>
J2VwaWtfcHl0aG9uJywgJy1waCcsICc3LjAnLCAnLXRuJywgJzgnLCAnLW1hJywgJzIwMCcsICctbWV0YWxfYmluZGluZycsICctaW1hZScsICc8aW5maWxlLm1hZT4nLCAnLW9tYWUnLCAnPG91dGZpbGUubWFlPic=

> <r_lp_tautomer_probability>
1

> <r_epik_Ionization_Penalty>
0.253607

> <r_epik_Ionization_Penalty_Charging>
0

> <r_epik_Ionization_Penalty_Neutral>
0.253607

> <r_epik_State_Penalty>
0.245018

> <r_epik_Charging_Adjusted_Penalty>
0.245018

> <i_epik_Tot_Q>
1

> <i_epik_Tot_abs_Q>
1

> <r_epik_Metal_State_Penalty>
0.535379

> <b_epik_Metal_Only>
0

> <s_lp_Force_Field>
OPLS_2005

> <r_lp_Energy>
29.1854

> <b_lp_Chiralities_Consistent>
1

> <s_lp_Variant>
AV-unprocessed.smi:1419-2

> <Gold.Version>
5.8.1

> <Gold.Id.Protein>
6NUR|6NUR_protein|mol2

> <Gold.PLP.Fitness>
36.2699

> <Gold.PLP.PLP>
-31.0379

> <Gold.PLP.part.hbond>
-2.0000

> <Gold.PLP.part.metal>
0.0000

> <Gold.PLP.part.buried>
3.7462

> <Gold.PLP.part.nonpolar>
-31.9528

> <Gold.PLP.part.repulsive>
0.2358

> <Gold.PLP.ligand.clash>
0.0000

> <Gold.PLP.ligand.torsion>
0.4181

> <Gold.PLP.Chemscore.Hbond>
0.0000

> <Gold.PLP.Chemscore.CHOScore>
1.9999

> <Gold.PLP.Chemscore.Metal>
0.0000

> <Gold.Chemscore.Hbonds>
donor molecule, donor type, donor heavy atom, donor atom, acceptor molecule, acceptor atom, score
      L1  C     5    26       P1  7948  1.00
      L1  C     8    28       P1 10175  1.00

> <Gold.PLP.Chemscore.Internal.Correction>
0.0685

> <Gold.Rescore>
     Score         DG    S(hbond)    S(metal)    S(lipo)     H(rot)  DE(clash)    DE(int)     intcor
      8.51      -9.22       0.00        0.00      67.53       1.63       0.15       0.56       ----

> <Gold.Chemscore.Fitness>
8.5100

> <Gold.Chemscore.DG>
-9.2155

> <Gold.Chemscore.ZeroCoef>
-5.4800

> <Gold.Chemscore.Hbond>
0.0000

> <Gold.Chemscore.Metal>
0.0000

> <Gold.Chemscore.Lipo>
67.5324

> <Gold.Chemscore.Internal_Hbond>
0.0000

> <Gold.Chemscore.DEClash>
0.1487

> <Gold.Chemscore.DEInternal>
0.5568

> <Gold.Chemscore.Rot>
1.6273

> <Gold.Chemscore.Internal.Correction>
   9.000000E+99

> <Gold.Chemscore.Hbond.Weighted>
-0.0000

> <Gold.Chemscore.Metal.Weighted>
-0.0000

> <Gold.Chemscore.Lipo.Weighted>
-7.9013

> <Gold.Chemscore.Internal_Hbond.Weighted>
0.0000

> <Gold.Chemscore.DEClash.Weighted>
0.1487

> <Gold.Chemscore.DEInternal.Weighted>
0.5568

> <Gold.Chemscore.Rot.Weighted>
4.1658

> <Gold.Chemscore.Internal.Correction.Weighted>
   9.000000E+99

> <Gold.Protein.RotatedTorsions>
[ 6907 6896 6895 6894 ] final   98.32 input  -60.11 | X-H torsion
[ 7974 7965 7964 7962 ] final -172.59 input  175.53 | X-H torsion
[ 8008 7997 7996 7995 ] final    4.15 input   59.86 | X-H torsion
[ 10167 10162 10161 10158 ] final   26.57 input  -65.29 | X-H torsion
[ 10718 10713 10712 10709 ] final -155.27 input   66.30 | X-H torsion
[ 10763 10752 10751 10750 ] final -176.20 input  -60.55 | X-H torsion
[ 11005 11000 10999 10996 ] final -105.54 input  -57.11 | X-H torsion

> <Gold.Protein.ActiveResidues>
 VAL166  LYS551  ARG553  GLY616  TRP617  ASP618  TYR619  PRO620  LYS621  CYS622 
 ASP623  PHE694  ASN695  SER759  ASP760  ASP761  ALA762  ILE779  LEU786  VAL792 
 PHE793  MET794  SER795  GLU796  ALA797  LYS798  CYS799  TRP800  GLU811  SER814 

> <Gold.Protein.RotatedAtoms>
  152.5411  134.0598  159.8146 H   0  0  0  0  0  0  0  0  0  0  0  0  # atno 6907 bound_to 6896
  151.0728  133.5445  159.2633 H   0  0  0  0  0  0  0  0  0  0  0  0  # atno 6908 bound_to 6896
  151.2302  135.0559  159.9038 H   0  0  0  0  0  0  0  0  0  0  0  0  # atno 6909 bound_to 6896
  144.7145  140.1749  143.6364 H   0  0  0  0  0  0  0  0  0  0  0  0  # atno 7974 bound_to 7965
  154.7124  140.2695  155.6616 H   0  0  0  0  0  0  0  0  0  0  0  0  # atno 8008 bound_to 7997
  156.2799  140.2750  156.1695 H   0  0  0  0  0  0  0  0  0  0  0  0  # atno 8009 bound_to 7997
  155.0616  140.0371  157.2569 H   0  0  0  0  0  0  0  0  0  0  0  0  # atno 8010 bound_to 7997
  140.5011  144.0313  150.6333 H   0  0  0  0  0  0  0  0  0  0  0  0  # atno 10167 bound_to 10162
  156.5105  130.8433  151.2644 H   0  0  0  0  0  0  0  0  0  0  0  0  # atno 10718 bound_to 10713
  154.5752  135.2831  155.0787 H   0  0  0  0  0  0  0  0  0  0  0  0  # atno 10763 bound_to 10752
  154.2144  135.6402  153.5129 H   0  0  0  0  0  0  0  0  0  0  0  0  # atno 10764 bound_to 10752
  153.0070  135.5499  154.6389 H   0  0  0  0  0  0  0  0  0  0  0  0  # atno 10765 bound_to 10752
  141.1048  133.8816  157.1746 H   0  0  0  0  0  0  0  0  0  0  0  0  # atno 11005 bound_to 11000
  145.8910  139.2376  143.1549 LP  0  0  0  0  0  0  0  0  0  0  0  0  # atno 17320 bound_to 7965
  145.9903  140.8608  143.0069 LP  0  0  0  0  0  0  0  0  0  0  0  0  # atno 17321 bound_to 7965
  140.3609  143.2908  152.0384 LP  0  0  0  0  0  0  0  0  0  0  0  0  # atno 17342 bound_to 10162
  139.4872  144.6303  151.7083 LP  0  0  0  0  0  0  0  0  0  0  0  0  # atno 17343 bound_to 10162
  157.7451  130.9951  150.2732 LP  0  0  0  0  0  0  0  0  0  0  0  0  # atno 17370 bound_to 10713
  156.3245  130.3791  149.7546 LP  0  0  0  0  0  0  0  0  0  0  0  0  # atno 17371 bound_to 10713
  139.9914  135.0063  156.9984 LP  0  0  0  0  0  0  0  0  0  0  0  0  # atno 17394 bound_to 11000
  140.4929  134.1175  155.7236 LP  0  0  0  0  0  0  0  0  0  0  0  0  # atno 17395 bound_to 11000

$$$$
