AV-unprocessed.smi:2945|AV-procd|sdf|11276|dock8
  -GOLD-   2272016173D 1   1.00000     0.00000
 Structure written by MMmdl.
 36 37  0  0  0  0  0  0  0  0  1 V2000
  155.5919  134.4561  160.5692 C   0  0  0  0  0  0  0  0  0  0  0  0
  154.8866  135.7401  160.2962 C   0  0  0  0  0  0  0  0  0  0  0  0
  155.0806  137.0195  160.7354 C   0  0  0  0  0  0  0  0  0  0  0  0
  154.0499  137.7428  160.0786 C   0  0  0  0  0  0  0  0  0  0  0  0
  153.9034  139.1396  160.2752 N   0  0  0  0  0  0  0  0  0  0  0  0
  152.9412  139.9401  159.7859 C   0  0  0  0  0  0  0  0  0  0  0  0
  152.0138  139.5726  159.0642 O   0  0  0  0  0  0  0  0  0  0  0  0
  153.1175  141.2083  160.1863 N   0  0  0  0  0  0  0  0  0  0  0  0
  152.2751  142.3489  159.8268 C   0  0  2  0  0  0  0  0  0  0  0  0
  152.2706  142.4927  158.2920 C   0  0  0  0  0  0  0  0  0  0  0  0
  151.4610  143.7148  157.8359 C   0  0  0  0  0  0  0  0  0  0  0  0
  151.9834  144.9956  158.4994 C   0  0  0  0  0  0  0  0  0  0  0  0
  151.9694  144.8668  160.0297 C   0  0  0  0  0  0  0  0  0  0  0  0
  152.7775  143.6452  160.5140 C   0  0  1  0  0  0  0  0  0  0  0  0
  152.7437  143.5550  162.0502 C   0  0  0  0  0  0  0  0  0  0  0  0
  153.2940  136.9745  159.3090 N   0  0  0  0  0  0  0  0  0  0  0  0
  153.8264  135.6868  159.4448 O   0  0  0  0  0  0  0  0  0  0  0  0
  156.4882  134.6233  161.1666 H   0  0  0  0  0  0  0  0  0  0  0  0
  155.8914  133.9737  159.6385 H   0  0  0  0  0  0  0  0  0  0  0  0
  154.9452  133.7686  161.1144 H   0  0  0  0  0  0  0  0  0  0  0  0
  155.8388  137.3771  161.4161 H   0  0  0  0  0  0  0  0  0  0  0  0
  154.6085  139.5766  160.8499 H   0  0  0  0  0  0  0  0  0  0  0  0
  153.9071  141.4066  160.7830 H   0  0  0  0  0  0  0  0  0  0  0  0
  151.2459  142.1710  160.1444 H   0  0  0  0  0  0  0  0  0  0  0  0
  153.2946  142.5843  157.9263 H   0  0  0  0  0  0  0  0  0  0  0  0
  151.8595  141.5922  157.8341 H   0  0  0  0  0  0  0  0  0  0  0  0
  151.5113  143.8111  156.7510 H   0  0  0  0  0  0  0  0  0  0  0  0
  150.4090  143.5730  158.0870 H   0  0  0  0  0  0  0  0  0  0  0  0
  152.9988  145.1991  158.1569 H   0  0  0  0  0  0  0  0  0  0  0  0
  151.3762  145.8477  158.1920 H   0  0  0  0  0  0  0  0  0  0  0  0
  152.3709  145.7789  160.4730 H   0  0  0  0  0  0  0  0  0  0  0  0
  150.9381  144.7859  160.3760 H   0  0  0  0  0  0  0  0  0  0  0  0
  153.8164  143.8023  160.2194 H   0  0  0  0  0  0  0  0  0  0  0  0
  151.7336  143.3595  162.4115 H   0  0  0  0  0  0  0  0  0  0  0  0
  153.0849  144.4852  162.5049 H   0  0  0  0  0  0  0  0  0  0  0  0
  153.3896  142.7601  162.4226 H   0  0  0  0  0  0  0  0  0  0  0  0
  1  2  1  0  0  0  0
  1 18  1  0  0  0  0
  1 19  1  0  0  0  0
  1 20  1  0  0  0  0
  2 17  1  0  0  0  0
  2  3  2  0  0  0  0
  3  4  1  0  0  0  0
  3 21  1  0  0  0  0
  4  5  1  0  0  0  0
  4 16  2  0  0  0  0
  5  6  1  0  0  0  0
  5 22  1  0  0  0  0
  6  7  2  0  0  0  0
  6  8  1  0  0  0  0
  8  9  1  0  0  0  0
  8 23  1  0  0  0  0
  9 14  1  0  0  0  0
  9 10  1  0  0  0  0
  9 24  1  0  0  0  0
 10 11  1  0  0  0  0
 10 25  1  0  0  0  0
 10 26  1  0  0  0  0
 11 12  1  0  0  0  0
 11 27  1  0  0  0  0
 11 28  1  0  0  0  0
 12 13  1  0  0  0  0
 12 29  1  0  0  0  0
 12 30  1  0  0  0  0
 13 14  1  0  0  0  0
 13 31  1  0  0  0  0
 13 32  1  0  0  0  0
 14 15  1  0  0  0  0
 14 33  1  0  0  0  0
 15 34  1  0  0  0  0
 15 35  1  0  0  0  0
 15 36  1  0  0  0  0
 16 17  1  0  0  0  0
M  END
> <s_m_source_file>
AV-unprocessed.smi

> <i_m_source_file_index>
2945

> <i_lp_mmshare_version>
43012

> <i_f3d_flags>
0

> <s_epik_input>
W0NIM11jMVtjSF1jKG5vMSlbTkhdQyg9TylbTkhdW0NAQEhdMltDSDJdW0NIMl1bQ0gyXVtDSDJdW0NASF0yW0NIM10=

> <s_epik_cmdline>
J2VwaWtfcHl0aG9uJywgJy1waCcsICc3LjAnLCAnLXRuJywgJzgnLCAnLW1hJywgJzIwMCcsICctbWV0YWxfYmluZGluZycsICctaW1hZScsICc8aW5maWxlLm1hZT4nLCAnLW9tYWUnLCAnPG91dGZpbGUubWFlPic=

> <r_lp_tautomer_probability>
1

> <r_epik_Ionization_Penalty>
2.357e-05

> <r_epik_Ionization_Penalty_Charging>
0

> <r_epik_Ionization_Penalty_Neutral>
2.357e-05

> <r_epik_State_Penalty>
-0

> <r_epik_Charging_Adjusted_Penalty>
0

> <i_epik_Tot_Q>
0

> <i_epik_Tot_abs_Q>
0

> <r_epik_Metal_State_Penalty>
-0

> <b_epik_Metal_Only>
0

> <s_lp_Force_Field>
OPLS_2005

> <r_lp_Energy>
8.52615

> <b_lp_Chiralities_Consistent>
1

> <s_lp_Variant>
AV-unprocessed.smi:2945-1

> <Gold.Version>
5.8.1

> <Gold.Id.Protein>
6NUR|6NUR_protein|mol2

> <Gold.PLP.Fitness>
36.1249

> <Gold.PLP.PLP>
-33.1320

> <Gold.PLP.part.hbond>
-1.0000

> <Gold.PLP.part.metal>
0.0000

> <Gold.PLP.part.buried>
-5.2708

> <Gold.PLP.part.nonpolar>
-26.9528

> <Gold.PLP.part.repulsive>
0.1512

> <Gold.PLP.ligand.clash>
0.0000

> <Gold.PLP.ligand.torsion>
0.0055

> <Gold.PLP.Chemscore.Hbond>
1.0000

> <Gold.PLP.Chemscore.CHOScore>
0.0000

> <Gold.PLP.Chemscore.Metal>
0.0000

> <Gold.Chemscore.Hbonds>
donor molecule, donor type, donor heavy atom, donor atom, acceptor molecule, acceptor atom, score
      P1  H  6896  6908       L1    17  1.00

> <Gold.PLP.Chemscore.Internal.Correction>
0.0040

> <Gold.Rescore>
     Score         DG    S(hbond)    S(metal)    S(lipo)     H(rot)  DE(clash)    DE(int)     intcor
     15.11     -17.69       0.91        0.00     100.09       1.00       0.04       2.54       ----

> <Gold.Chemscore.Fitness>
15.1063

> <Gold.Chemscore.DG>
-17.6867

> <Gold.Chemscore.ZeroCoef>
-5.4800

> <Gold.Chemscore.Hbond>
0.9150

> <Gold.Chemscore.Metal>
0.0000

> <Gold.Chemscore.Lipo>
100.0909

> <Gold.Chemscore.Internal_Hbond>
0.0000

> <Gold.Chemscore.DEClash>
0.0405

> <Gold.Chemscore.DEInternal>
2.5399

> <Gold.Chemscore.Rot>
1.0000

> <Gold.Chemscore.Internal.Correction>
   9.000000E+99

> <Gold.Chemscore.Hbonds>
donor molecule, donor type, donor heavy atom, donor atom, acceptor molecule, acceptor atom, score
      P1  H  6896  6908       L1    17  0.32

> <Gold.Chemscore.Hbond.Weighted>
-3.0561

> <Gold.Chemscore.Metal.Weighted>
-0.0000

> <Gold.Chemscore.Lipo.Weighted>
-11.7106

> <Gold.Chemscore.Internal_Hbond.Weighted>
0.0000

> <Gold.Chemscore.DEClash.Weighted>
0.0405

> <Gold.Chemscore.DEInternal.Weighted>
2.5399

> <Gold.Chemscore.Rot.Weighted>
2.5600

> <Gold.Chemscore.Internal.Correction.Weighted>
   9.000000E+99

> <Gold.Protein.RotatedTorsions>
[ 6907 6896 6895 6894 ] final  -66.87 input  -60.11 | X-H torsion
[ 7974 7965 7964 7962 ] final  -57.50 input  175.53 | X-H torsion
[ 8008 7997 7996 7995 ] final   49.05 input   59.86 | X-H torsion
[ 10167 10162 10161 10158 ] final  -11.26 input  -65.29 | X-H torsion
[ 10718 10713 10712 10709 ] final  111.84 input   66.30 | X-H torsion
[ 10763 10752 10751 10750 ] final -113.51 input  -60.55 | X-H torsion
[ 11005 11000 10999 10996 ] final   46.12 input  -57.11 | X-H torsion

> <Gold.Protein.ActiveResidues>
 VAL166  LYS551  ARG553  GLY616  TRP617  ASP618  TYR619  PRO620  LYS621  CYS622 
 ASP623  PHE694  ASN695  SER759  ASP760  ASP761  ALA762  ILE779  LEU786  VAL792 
 PHE793  MET794  SER795  GLU796  ALA797  LYS798  CYS799  TRP800  GLU811  SER814 

> <Gold.Protein.RotatedAtoms>
  150.7441  134.5961  159.6011 H   0  0  0  0  0  0  0  0  0  0  0  0  # atno 6907 bound_to 6896
  152.3335  134.7225  160.0292 H   0  0  0  0  0  0  0  0  0  0  0  0  # atno 6908 bound_to 6896
  151.7701  133.3304  159.3478 H   0  0  0  0  0  0  0  0  0  0  0  0  # atno 6909 bound_to 6896
  145.8503  140.8356  142.9989 H   0  0  0  0  0  0  0  0  0  0  0  0  # atno 7974 bound_to 7965
  155.3958  140.3435  155.4254 H   0  0  0  0  0  0  0  0  0  0  0  0  # atno 8008 bound_to 7997
  156.1532  140.1577  156.8769 H   0  0  0  0  0  0  0  0  0  0  0  0  # atno 8009 bound_to 7997
  154.5071  140.0799  156.7897 H   0  0  0  0  0  0  0  0  0  0  0  0  # atno 8010 bound_to 7997
  140.7134  143.5659  150.9145 H   0  0  0  0  0  0  0  0  0  0  0  0  # atno 10167 bound_to 10162
  157.6424  131.0957  150.6808 H   0  0  0  0  0  0  0  0  0  0  0  0  # atno 10718 bound_to 10713
  154.8399  135.4451  154.1361 H   0  0  0  0  0  0  0  0  0  0  0  0  # atno 10763 bound_to 10752
  153.2558  135.6931  153.7636 H   0  0  0  0  0  0  0  0  0  0  0  0  # atno 10764 bound_to 10752
  153.6932  135.3384  155.3182 H   0  0  0  0  0  0  0  0  0  0  0  0  # atno 10765 bound_to 10752
  140.1398  134.4598  155.8458 H   0  0  0  0  0  0  0  0  0  0  0  0  # atno 11005 bound_to 11000
  144.6729  140.0944  143.7463 LP  0  0  0  0  0  0  0  0  0  0  0  0  # atno 17320 bound_to 7965
  145.9365  139.2640  143.1294 LP  0  0  0  0  0  0  0  0  0  0  0  0  # atno 17321 bound_to 7965
  139.9384  143.6410  152.3059 LP  0  0  0  0  0  0  0  0  0  0  0  0  # atno 17342 bound_to 10162
  139.6886  144.7649  151.1478 LP  0  0  0  0  0  0  0  0  0  0  0  0  # atno 17343 bound_to 10162
  156.7129  130.4657  149.5542 LP  0  0  0  0  0  0  0  0  0  0  0  0  # atno 17370 bound_to 10713
  156.1717  130.6441  151.0845 LP  0  0  0  0  0  0  0  0  0  0  0  0  # atno 17371 bound_to 10713
  141.2184  133.6828  156.7225 LP  0  0  0  0  0  0  0  0  0  0  0  0  # atno 17394 bound_to 11000
  140.2737  134.8372  157.3870 LP  0  0  0  0  0  0  0  0  0  0  0  0  # atno 17395 bound_to 11000

$$$$
