AV-unprocessed.smi:1177|AV-procd|sdf|4954|dock3
  -GOLD-   22720 3543D 1   1.00000     0.00000
 Structure written by MMmdl.
 30 31  0  0  0  0  0  0  0  0  1 V2000
  150.3578  140.2426  154.8267 O   0  0  0  0  0  0  0  0  0  0  0  0
  150.0128  141.2344  155.4696 C   0  0  0  0  0  0  0  0  0  0  0  0
  150.6812  141.7111  156.5291 N   0  0  0  0  0  0  0  0  0  0  0  0
  151.9032  141.1328  157.0764 C   0  0  0  0  0  0  0  0  0  0  0  0
  151.9233  141.1958  158.6130 C   0  0  0  0  0  0  0  0  0  0  0  0
  151.9798  142.6215  159.1284 C   0  0  0  0  0  0  0  0  0  0  0  0
  152.2109  142.8846  160.4956 C   0  0  0  0  0  0  0  0  0  0  0  0
  152.2481  144.2258  160.9238 C   0  0  0  0  0  0  0  0  0  0  0  0
  152.0517  145.2468  159.9740 C   0  0  0  0  0  0  0  0  0  0  0  0
  151.8253  144.8794  158.6325 C   0  0  0  0  0  0  0  0  0  0  0  0
  151.7883  143.5967  158.2115 N   0  0  0  0  0  0  0  0  0  0  0  0
  148.9246  141.9675  155.1990 N   0  0  0  0  0  0  0  0  0  0  0  0
  148.0031  141.7187  154.1380 C   0  0  0  0  0  0  0  0  0  0  0  0
  146.7900  142.6178  154.0355 C   0  0  0  0  0  0  0  0  0  0  0  0
  146.6303  141.1988  154.5068 C   0  0  0  0  0  0  0  0  0  0  0  0
  150.3206  142.5339  156.9896 H   0  0  0  0  0  0  0  0  0  0  0  0
  152.0164  140.1032  156.7325 H   0  0  0  0  0  0  0  0  0  0  0  0
  152.7490  141.6897  156.6727 H   0  0  0  0  0  0  0  0  0  0  0  0
  151.0380  140.7035  159.0176 H   0  0  0  0  0  0  0  0  0  0  0  0
  152.7826  140.6481  159.0032 H   0  0  0  0  0  0  0  0  0  0  0  0
  152.3550  142.0795  161.2012 H   0  0  0  0  0  0  0  0  0  0  0  0
  152.4226  144.4670  161.9621 H   0  0  0  0  0  0  0  0  0  0  0  0
  152.0730  146.2863  160.2661 H   0  0  0  0  0  0  0  0  0  0  0  0
  151.6695  145.6358  157.8776 H   0  0  0  0  0  0  0  0  0  0  0  0
  148.7302  142.7624  155.7902 H   0  0  0  0  0  0  0  0  0  0  0  0
  148.4122  141.3587  153.1948 H   0  0  0  0  0  0  0  0  0  0  0  0
  146.6758  143.4074  154.7758 H   0  0  0  0  0  0  0  0  0  0  0  0
  146.4284  142.8595  153.0381 H   0  0  0  0  0  0  0  0  0  0  0  0
  146.1608  140.4931  153.8243 H   0  0  0  0  0  0  0  0  0  0  0  0
  146.4106  141.0422  155.5611 H   0  0  0  0  0  0  0  0  0  0  0  0
  1  2  2  0  0  0  0
  2  3  1  0  0  0  0
  2 12  1  0  0  0  0
  3  4  1  0  0  0  0
  3 16  1  0  0  0  0
  4  5  1  0  0  0  0
  4 17  1  0  0  0  0
  4 18  1  0  0  0  0
  5  6  1  0  0  0  0
  5 19  1  0  0  0  0
  5 20  1  0  0  0  0
  6 11  1  0  0  0  0
  6  7  2  0  0  0  0
  7  8  1  0  0  0  0
  7 21  1  0  0  0  0
  8  9  2  0  0  0  0
  8 22  1  0  0  0  0
  9 10  1  0  0  0  0
  9 23  1  0  0  0  0
 10 11  2  0  0  0  0
 10 24  1  0  0  0  0
 12 13  1  0  0  0  0
 12 25  1  0  0  0  0
 13 15  1  0  0  0  0
 13 14  1  0  0  0  0
 13 26  1  0  0  0  0
 14 15  1  0  0  0  0
 14 27  1  0  0  0  0
 14 28  1  0  0  0  0
 15 29  1  0  0  0  0
 15 30  1  0  0  0  0
M  END
> <s_m_source_file>
AV-unprocessed.smi

> <i_m_source_file_index>
1177

> <i_lp_mmshare_version>
43012

> <i_f3d_flags>
0

> <s_epik_input>
W0NIMl0xW0NIMl1bQ0hdMVtOSF1DKD1PKVtOSF1bQ0gyXVtDSDJdYzJbY0hdW2NIXVtjSF1bY0hdbjI=

> <s_epik_cmdline>
J2VwaWtfcHl0aG9uJywgJy1waCcsICc3LjAnLCAnLXRuJywgJzgnLCAnLW1hJywgJzIwMCcsICctbWV0YWxfYmluZGluZycsICctaW1hZScsICc8aW5maWxlLm1hZT4nLCAnLW9tYWUnLCAnPG91dGZpbGUubWFlPic=

> <r_epik_Ionization_Penalty>
0.0440342

> <r_epik_Ionization_Penalty_Charging>
0

> <r_epik_Ionization_Penalty_Neutral>
0.0440342

> <r_epik_State_Penalty>
0.0372351

> <r_epik_Charging_Adjusted_Penalty>
0.0372351

> <i_epik_Tot_Q>
0

> <i_epik_Tot_abs_Q>
0

> <r_epik_Metal_State_Penalty>
0.0346506

> <b_epik_Metal_Only>
0

> <s_lp_Force_Field>
OPLS_2005

> <r_lp_Energy>
12.265

> <b_lp_Chiralities_Consistent>
1

> <s_lp_Variant>
AV-unprocessed.smi:1177-1

> <Gold.Version>
5.8.1

> <Gold.Id.Protein>
6NUR|6NUR_protein|mol2

> <Gold.PLP.Fitness>
41.6964

> <Gold.PLP.PLP>
-37.0847

> <Gold.PLP.part.hbond>
-2.0000

> <Gold.PLP.part.metal>
0.0000

> <Gold.PLP.part.buried>
-7.1515

> <Gold.PLP.part.nonpolar>
-27.5435

> <Gold.PLP.part.repulsive>
0.4021

> <Gold.PLP.ligand.clash>
0.0000

> <Gold.PLP.ligand.torsion>
0.3207

> <Gold.PLP.Chemscore.Hbond>
1.7360

> <Gold.PLP.Chemscore.CHOScore>
0.0000

> <Gold.PLP.Chemscore.Metal>
0.0000

> <Gold.Chemscore.Hbonds>
donor molecule, donor type, donor heavy atom, donor atom, acceptor molecule, acceptor atom, score
      L1  H    12    25       P1  8028  0.74
      P1  H  7989  7998       L1     1  1.00

> <Gold.PLP.Chemscore.Internal.Correction>
0.0450

> <Gold.Rescore>
     Score         DG    S(hbond)    S(metal)    S(lipo)     H(rot)  DE(clash)    DE(int)     intcor
     15.03     -16.88       1.40        0.00      92.88       1.61       0.10       1.75       ----

> <Gold.Chemscore.Fitness>
15.0274

> <Gold.Chemscore.DG>
-16.8832

> <Gold.Chemscore.ZeroCoef>
-5.4800

> <Gold.Chemscore.Hbond>
1.3982

> <Gold.Chemscore.Metal>
0.0000

> <Gold.Chemscore.Lipo>
92.8767

> <Gold.Chemscore.Internal_Hbond>
0.0000

> <Gold.Chemscore.DEClash>
0.1019

> <Gold.Chemscore.DEInternal>
1.7538

> <Gold.Chemscore.Rot>
1.6147

> <Gold.Chemscore.Internal.Correction>
   9.000000E+99

> <Gold.Chemscore.Hbonds>
donor molecule, donor type, donor heavy atom, donor atom, acceptor molecule, acceptor atom, score
      L1  H    12    25       P1  8028  0.73
      P1  H  7989  7998       L1     1  0.54

> <Gold.Chemscore.Hbond.Weighted>
-4.6701

> <Gold.Chemscore.Metal.Weighted>
-0.0000

> <Gold.Chemscore.Lipo.Weighted>
-10.8666

> <Gold.Chemscore.Internal_Hbond.Weighted>
0.0000

> <Gold.Chemscore.DEClash.Weighted>
0.1019

> <Gold.Chemscore.DEInternal.Weighted>
1.7538

> <Gold.Chemscore.Rot.Weighted>
4.1336

> <Gold.Chemscore.Internal.Correction.Weighted>
   9.000000E+99

> <Gold.Protein.RotatedTorsions>
[ 6907 6896 6895 6894 ] final   48.55 input  -60.11 | X-H torsion
[ 7974 7965 7964 7962 ] final   23.44 input  175.53 | X-H torsion
[ 8008 7997 7996 7995 ] final   40.30 input   59.86 | X-H torsion
[ 10167 10162 10161 10158 ] final    6.51 input  -65.29 | X-H torsion
[ 10718 10713 10712 10709 ] final  120.25 input   66.30 | X-H torsion
[ 10763 10752 10751 10750 ] final  -90.73 input  -60.55 | X-H torsion
[ 11005 11000 10999 10996 ] final  -24.02 input  -57.11 | X-H torsion

> <Gold.Protein.ActiveResidues>
 VAL166  LYS551  ARG553  GLY616  TRP617  ASP618  TYR619  PRO620  LYS621  CYS622 
 ASP623  PHE694  ASN695  SER759  ASP760  ASP761  ALA762  ILE779  LEU786  VAL792 
 PHE793  MET794  SER795  GLU796  ALA797  LYS798  CYS799  TRP800  GLU811  SER814 

> <Gold.Protein.RotatedAtoms>
  152.2808  134.7830  160.0396 H   0  0  0  0  0  0  0  0  0  0  0  0  # atno 6907 bound_to 6896
  151.8410  133.3418  159.3651 H   0  0  0  0  0  0  0  0  0  0  0  0  # atno 6908 bound_to 6896
  150.7189  134.5319  159.5749 H   0  0  0  0  0  0  0  0  0  0  0  0  # atno 6909 bound_to 6896
  146.1984  139.7744  142.8780 H   0  0  0  0  0  0  0  0  0  0  0  0  # atno 7974 bound_to 7965
  155.2508  140.3352  155.4282 H   0  0  0  0  0  0  0  0  0  0  0  0  # atno 8008 bound_to 7997
  156.2216  140.1811  156.7506 H   0  0  0  0  0  0  0  0  0  0  0  0  # atno 8009 bound_to 7997
  154.5834  140.0650  156.9122 H   0  0  0  0  0  0  0  0  0  0  0  0  # atno 8010 bound_to 7997
  140.6424  143.7743  150.7447 H   0  0  0  0  0  0  0  0  0  0  0  0  # atno 10167 bound_to 10162
  157.5904  131.1065  150.8009 H   0  0  0  0  0  0  0  0  0  0  0  0  # atno 10718 bound_to 10713
  154.6687  135.5294  153.8111 H   0  0  0  0  0  0  0  0  0  0  0  0  # atno 10763 bound_to 10752
  153.0488  135.6524  154.0758 H   0  0  0  0  0  0  0  0  0  0  0  0  # atno 10764 bound_to 10752
  154.0659  135.2958  155.3296 H   0  0  0  0  0  0  0  0  0  0  0  0  # atno 10765 bound_to 10752
  140.8806  133.7657  156.0297 H   0  0  0  0  0  0  0  0  0  0  0  0  # atno 11005 bound_to 11000
  145.3567  141.0318  143.3308 LP  0  0  0  0  0  0  0  0  0  0  0  0  # atno 17320 bound_to 7965
  144.8629  139.5150  143.6803 LP  0  0  0  0  0  0  0  0  0  0  0  0  # atno 17321 bound_to 7965
  140.1377  143.4469  152.2214 LP  0  0  0  0  0  0  0  0  0  0  0  0  # atno 17342 bound_to 10162
  139.5633  144.7419  151.4093 LP  0  0  0  0  0  0  0  0  0  0  0  0  # atno 17343 bound_to 10162
  156.8432  130.5055  149.5319 LP  0  0  0  0  0  0  0  0  0  0  0  0  # atno 17370 bound_to 10713
  156.0958  130.5931  150.9812 LP  0  0  0  0  0  0  0  0  0  0  0  0  # atno 17371 bound_to 10713
  140.8466  134.3004  157.5292 LP  0  0  0  0  0  0  0  0  0  0  0  0  # atno 17394 bound_to 11000
  139.8719  134.9445  156.3883 LP  0  0  0  0  0  0  0  0  0  0  0  0  # atno 17395 bound_to 11000

$$$$
