AV-unprocessed.smi:1041|AV-procd|sdf|4528|dock2
  -GOLD-   22720 2543D 1   1.00000     0.00000
 Structure written by MMmdl.
 53 54  0  0  0  0  0  0  0  0  2 V2000
  143.3147  132.6587  151.0771 C   0  0  0  0  0  0  0  0  0  0  0  0
  143.7948  131.6423  150.2137 O   0  0  0  0  0  0  0  0  0  0  0  0
  145.2107  131.5707  150.1941 C   0  0  0  0  0  0  0  0  0  0  0  0
  145.6896  130.7944  151.4311 C   0  0  0  0  0  0  0  0  0  0  0  0
  146.9240  131.3677  152.0264 N   0  3  2  0  0  0  0  0  0  0  0  0
  147.1548  130.8806  153.4107 C   0  0  0  0  0  0  0  0  0  0  0  0
  148.5024  131.3753  153.9625 C   0  0  0  0  0  0  0  0  0  0  0  0
  148.6008  132.9132  153.9128 C   0  0  1  0  0  0  0  0  0  0  0  0
  149.9566  133.4392  154.4202 C   0  0  0  0  0  0  0  0  0  0  0  0
  150.1028  134.8615  154.1462 N   0  0  0  0  0  0  0  0  0  0  0  0
  150.8941  135.6996  154.8299 C   0  0  0  0  0  0  0  0  0  0  0  0
  151.6287  135.3419  155.7498 O   0  0  0  0  0  0  0  0  0  0  0  0
  150.8406  137.1692  154.4107 C   0  0  0  0  0  0  0  0  0  0  0  0
  151.3935  138.1579  155.4364 C   0  0  0  0  0  0  0  0  0  0  0  0
  152.5786  138.8150  155.2697 C   0  0  0  0  0  0  0  0  0  0  0  0
  153.4568  138.6308  154.0443 C   0  0  0  0  0  0  0  0  0  0  0  0
  153.0623  139.7124  156.2318 N   0  0  0  0  0  0  0  0  0  0  0  0
  152.3620  139.9185  157.2982 C   0  0  0  0  0  0  0  0  0  0  0  0
  152.7714  140.8632  158.4083 C   0  0  0  0  0  0  0  0  0  0  0  0
  151.1462  139.2781  157.5309 N   0  0  0  0  0  0  0  0  0  0  0  0
  150.6082  138.3914  156.6642 C   0  0  0  0  0  0  0  0  0  0  0  0
  149.5452  137.8315  156.9279 O   0  0  0  0  0  0  0  0  0  0  0  0
  148.3241  133.3840  152.4751 C   0  0  0  0  0  0  0  0  0  0  0  0
  146.9775  132.8522  151.9578 C   0  0  0  0  0  0  0  0  0  0  0  0
  150.6447  139.4756  158.3845 H   0  0  0  0  0  0  0  0  0  0  0  0
  142.2249  132.6710  151.0594 H   0  0  0  0  0  0  0  0  0  0  0  0
  143.6674  133.6420  150.7630 H   0  0  0  0  0  0  0  0  0  0  0  0
  143.6317  132.4855  152.1064 H   0  0  0  0  0  0  0  0  0  0  0  0
  145.5614  131.1123  149.2694 H   0  0  0  0  0  0  0  0  0  0  0  0
  145.6234  132.5803  150.2228 H   0  0  0  0  0  0  0  0  0  0  0  0
  144.9028  130.7583  152.1860 H   0  0  0  0  0  0  0  0  0  0  0  0
  145.8710  129.7617  151.1295 H   0  0  0  0  0  0  0  0  0  0  0  0
  146.3396  131.2131  154.0553 H   0  0  0  0  0  0  0  0  0  0  0  0
  147.1450  129.7899  153.4239 H   0  0  0  0  0  0  0  0  0  0  0  0
  148.6211  131.0176  154.9859 H   0  0  0  0  0  0  0  0  0  0  0  0
  149.3170  130.9334  153.3869 H   0  0  0  0  0  0  0  0  0  0  0  0
  147.8205  133.3242  154.5557 H   0  0  0  0  0  0  0  0  0  0  0  0
  150.0501  133.2559  155.4922 H   0  0  0  0  0  0  0  0  0  0  0  0
  150.7741  132.9061  153.9330 H   0  0  0  0  0  0  0  0  0  0  0  0
  149.5431  135.2447  153.3977 H   0  0  0  0  0  0  0  0  0  0  0  0
  151.3901  137.2823  153.4758 H   0  0  0  0  0  0  0  0  0  0  0  0
  149.8106  137.4205  154.1549 H   0  0  0  0  0  0  0  0  0  0  0  0
  152.9410  138.9797  153.1495 H   0  0  0  0  0  0  0  0  0  0  0  0
  153.7170  137.5809  153.9088 H   0  0  0  0  0  0  0  0  0  0  0  0
  154.3859  139.1948  154.1343 H   0  0  0  0  0  0  0  0  0  0  0  0
  153.7106  140.5343  158.8533 H   0  0  0  0  0  0  0  0  0  0  0  0
  152.0179  140.9108  159.1957 H   0  0  0  0  0  0  0  0  0  0  0  0
  152.9134  141.8687  158.0115 H   0  0  0  0  0  0  0  0  0  0  0  0
  148.3244  134.4738  152.4341 H   0  0  0  0  0  0  0  0  0  0  0  0
  149.1258  133.0503  151.8144 H   0  0  0  0  0  0  0  0  0  0  0  0
  146.8391  133.1923  150.9325 H   0  0  0  0  0  0  0  0  0  0  0  0
  146.1591  133.2749  152.5430 H   0  0  0  0  0  0  0  0  0  0  0  0
  147.6939  131.0174  151.4736 H   0  0  0  0  0  0  0  0  0  0  0  0
  1  2  1  0  0  0  0
  1 26  1  0  0  0  0
  1 27  1  0  0  0  0
  1 28  1  0  0  0  0
  2  3  1  0  0  0  0
  3  4  1  0  0  0  0
  3 29  1  0  0  0  0
  3 30  1  0  0  0  0
  4  5  1  0  0  0  0
  4 31  1  0  0  0  0
  4 32  1  0  0  0  0
  5 24  1  0  0  0  0
  5  6  1  0  0  0  0
  5 53  1  0  0  0  0
  6  7  1  0  0  0  0
  6 33  1  0  0  0  0
  6 34  1  0  0  0  0
  7  8  1  0  0  0  0
  7 35  1  0  0  0  0
  7 36  1  0  0  0  0
  8  9  1  0  0  0  0
  8 23  1  0  0  0  0
  8 37  1  0  0  0  0
  9 10  1  0  0  0  0
  9 38  1  0  0  0  0
  9 39  1  0  0  0  0
 10 11  1  0  0  0  0
 10 40  1  0  0  0  0
 11 12  2  0  0  0  0
 11 13  1  0  0  0  0
 13 14  1  0  0  0  0
 13 41  1  0  0  0  0
 13 42  1  0  0  0  0
 14 21  1  0  0  0  0
 14 15  2  0  0  0  0
 15 16  1  0  0  0  0
 15 17  1  0  0  0  0
 16 43  1  0  0  0  0
 16 44  1  0  0  0  0
 16 45  1  0  0  0  0
 17 18  2  0  0  0  0
 18 19  1  0  0  0  0
 18 20  1  0  0  0  0
 19 46  1  0  0  0  0
 19 47  1  0  0  0  0
 19 48  1  0  0  0  0
 20 25  1  0  0  0  0
 20 21  1  0  0  0  0
 21 22  2  0  0  0  0
 23 24  1  0  0  0  0
 23 49  1  0  0  0  0
 23 50  1  0  0  0  0
 24 51  1  0  0  0  0
 24 52  1  0  0  0  0
M  CHG  1   5   1
M  END
> <s_m_source_file>
AV-unprocessed.smi

> <i_m_source_file_index>
1041

> <i_lp_mmshare_version>
43012

> <i_f3d_flags>
0

> <s_epik_input>
W0NIM11PW0NIMl1bQ0gyXU4xW0NIMl1bQ0gyXVtDSF0oW0NIMl1bQ0gyXTEpW0NIMl1bTkhdQyg9TylbQ0gyXWMyYyhbQ0gzXSluYyhbQ0gzXSlbbkhdYzI9Tw==

> <s_epik_cmdline>
J2VwaWtfcHl0aG9uJywgJy1waCcsICc3LjAnLCAnLXRuJywgJzgnLCAnLW1hJywgJzIwMCcsICctbWV0YWxfYmluZGluZycsICctaW1hZScsICc8aW5maWxlLm1hZT4nLCAnLW9tYWUnLCAnPG91dGZpbGUubWFlPic=

> <r_lp_tautomer_probability>
0.839158

> <r_epik_Ionization_Penalty>
0.00964357

> <r_epik_Ionization_Penalty_Charging>
0.00961423

> <r_epik_Ionization_Penalty_Neutral>
2.93415e-05

> <r_epik_State_Penalty>
0.0972512

> <r_epik_Charging_Adjusted_Penalty>
0.106865

> <i_epik_Tot_Q>
1

> <i_epik_Tot_abs_Q>
1

> <r_epik_Metal_State_Penalty>
0.270886

> <b_epik_Metal_Only>
0

> <s_lp_Force_Field>
OPLS_2005

> <r_lp_Energy>
21.4676

> <b_lp_Chiralities_Consistent>
1

> <s_lp_Variant>
AV-unprocessed.smi:1041-1

> <Gold.Version>
5.8.1

> <Gold.Id.Protein>
6NUR|6NUR_protein|mol2

> <Gold.PLP.Fitness>
50.9980

> <Gold.PLP.PLP>
-39.8327

> <Gold.PLP.part.hbond>
-5.1095

> <Gold.PLP.part.metal>
0.0000

> <Gold.PLP.part.buried>
-3.8148

> <Gold.PLP.part.nonpolar>
-30.6873

> <Gold.PLP.part.repulsive>
0.2968

> <Gold.PLP.ligand.clash>
0.0000

> <Gold.PLP.ligand.torsion>
1.1640

> <Gold.PLP.Chemscore.Hbond>
4.3898

> <Gold.PLP.Chemscore.CHOScore>
0.0000

> <Gold.PLP.Chemscore.Metal>
0.0000

> <Gold.Chemscore.Hbonds>
donor molecule, donor type, donor heavy atom, donor atom, acceptor molecule, acceptor atom, score
      L1  H     5    53       P1 10747  1.00
      L1  H    10    40       P1  7948  0.55
      P1  H  7997  8008       L1    17  0.52
      P1  H 10752 10764       L1    12  0.94
      P1  H 10785 10796       L1     2  0.52

> <Gold.PLP.Chemscore.Internal.Correction>
0.3239

> <Gold.Rescore>
     Score         DG    S(hbond)    S(metal)    S(lipo)     H(rot)  DE(clash)    DE(int)     intcor
     18.99     -20.32       2.71        0.00     102.75       2.43       0.24       1.09       ----

> <Gold.Chemscore.Fitness>
18.9935

> <Gold.Chemscore.DG>
-20.3233

> <Gold.Chemscore.ZeroCoef>
-5.4800

> <Gold.Chemscore.Hbond>
2.7065

> <Gold.Chemscore.Metal>
0.0000

> <Gold.Chemscore.Lipo>
102.7536

> <Gold.Chemscore.Internal_Hbond>
0.0000

> <Gold.Chemscore.DEClash>
0.2427

> <Gold.Chemscore.DEInternal>
1.0870

> <Gold.Chemscore.Rot>
2.4291

> <Gold.Chemscore.Internal.Correction>
   9.000000E+99

> <Gold.Chemscore.Hbonds>
donor molecule, donor type, donor heavy atom, donor atom, acceptor molecule, acceptor atom, score
      L1  H     5    53       P1 10747  1.00
      L1  H    10    40       P1  7948  0.03
      P1  H  7997  8008       L1    17  0.44
      P1  H 10752 10764       L1    12  0.45
      P1  H 10785 10796       L1     2  0.20

> <Gold.Chemscore.Hbond.Weighted>
-9.0397

> <Gold.Chemscore.Metal.Weighted>
-0.0000

> <Gold.Chemscore.Lipo.Weighted>
-12.0222

> <Gold.Chemscore.Internal_Hbond.Weighted>
0.0000

> <Gold.Chemscore.DEClash.Weighted>
0.2427

> <Gold.Chemscore.DEInternal.Weighted>
1.0870

> <Gold.Chemscore.Rot.Weighted>
6.2186

> <Gold.Chemscore.Internal.Correction.Weighted>
   9.000000E+99

> <Gold.Protein.RotatedTorsions>
[ 6907 6896 6895 6894 ] final  -36.23 input  -60.11 | X-H torsion
[ 7974 7965 7964 7962 ] final   10.93 input  175.53 | X-H torsion
[ 8008 7997 7996 7995 ] final  -43.93 input   59.86 | X-H torsion
[ 10167 10162 10161 10158 ] final  -32.44 input  -65.29 | X-H torsion
[ 10718 10713 10712 10709 ] final -161.23 input   66.30 | X-H torsion
[ 10763 10752 10751 10750 ] final  -23.22 input  -60.55 | X-H torsion
[ 11005 11000 10999 10996 ] final  179.61 input  -57.11 | X-H torsion

> <Gold.Protein.ActiveResidues>
 VAL166  LYS551  ARG553  GLY616  TRP617  ASP618  TYR619  PRO620  LYS621  CYS622 
 ASP623  PHE694  ASN695  SER759  ASP760  ASP761  ALA762  ILE779  LEU786  VAL792 
 PHE793  MET794  SER795  GLU796  ALA797  LYS798  CYS799  TRP800  GLU811  SER814 

> <Gold.Protein.RotatedAtoms>
  151.0298  134.9530  159.8104 H   0  0  0  0  0  0  0  0  0  0  0  0  # atno 6907 bound_to 6896
  152.5343  134.2795  159.9012 H   0  0  0  0  0  0  0  0  0  0  0  0  # atno 6908 bound_to 6896
  151.2805  133.4170  159.2660 H   0  0  0  0  0  0  0  0  0  0  0  0  # atno 6909 bound_to 6896
  146.2380  139.9561  142.8464 H   0  0  0  0  0  0  0  0  0  0  0  0  # atno 7974 bound_to 7965
  154.3997  140.1435  156.3599 H   0  0  0  0  0  0  0  0  0  0  0  0  # atno 8008 bound_to 7997
  155.8190  140.3470  155.5482 H   0  0  0  0  0  0  0  0  0  0  0  0  # atno 8009 bound_to 7997
  155.8307  140.0912  157.1784 H   0  0  0  0  0  0  0  0  0  0  0  0  # atno 8010 bound_to 7997
  140.7221  143.3695  151.1806 H   0  0  0  0  0  0  0  0  0  0  0  0  # atno 10167 bound_to 10162
  156.5933  130.8779  151.2895 H   0  0  0  0  0  0  0  0  0  0  0  0  # atno 10718 bound_to 10713
  153.6644  135.6975  153.5167 H   0  0  0  0  0  0  0  0  0  0  0  0  # atno 10763 bound_to 10752
  153.2606  135.4246  155.0890 H   0  0  0  0  0  0  0  0  0  0  0  0  # atno 10764 bound_to 10752
  154.8443  135.3554  154.6188 H   0  0  0  0  0  0  0  0  0  0  0  0  # atno 10765 bound_to 10752
  140.4080  134.6717  157.4599 H   0  0  0  0  0  0  0  0  0  0  0  0  # atno 11005 bound_to 11000
  145.1815  140.9769  143.4263 LP  0  0  0  0  0  0  0  0  0  0  0  0  # atno 17320 bound_to 7965
  144.9938  139.3664  143.6202 LP  0  0  0  0  0  0  0  0  0  0  0  0  # atno 17321 bound_to 7965
  139.7263  143.9143  152.3004 LP  0  0  0  0  0  0  0  0  0  0  0  0  # atno 17342 bound_to 10162
  139.8917  144.6961  150.8763 LP  0  0  0  0  0  0  0  0  0  0  0  0  # atno 17343 bound_to 10162
  157.7298  130.9676  150.1804 LP  0  0  0  0  0  0  0  0  0  0  0  0  # atno 17370 bound_to 10713
  156.2531  130.3702  149.8211 LP  0  0  0  0  0  0  0  0  0  0  0  0  # atno 17371 bound_to 10713
  140.0288  134.6437  155.9136 LP  0  0  0  0  0  0  0  0  0  0  0  0  # atno 17394 bound_to 11000
  141.1832  133.6550  156.5106 LP  0  0  0  0  0  0  0  0  0  0  0  0  # atno 17395 bound_to 11000

$$$$
