#       Name:                AV-unprocessed.smi:2838
#       Creating user name   scv26
#       Creation time:       Fri Mar 27 15:37:46 2020


#       File generated by GOLD software.
#

@<TRIPOS>MOLECULE
AV-unprocessed.smi:2838
    54    55     1
SMALL
NO_CHARGES


@<TRIPOS>ATOM
      1 ****        -3.4403  -2.3770   1.9797 C.3            1 S1                 0.0000
      2 ****        -3.0340  -1.6062   0.7117 C.3            1 S1                 0.0000
      3 ****        -1.5754  -1.4826   0.7057 N.am           1 S1                 0.0000
      4 ****        -0.8813  -0.3354   0.6625 C.2            1 S1                 0.0000
      5 ****        -1.4040   0.7778   0.6239 O.2            1 S1                 0.0000
      6 ****         0.4417  -0.5710   0.6786 N.am           1 S1                 0.0000
      7 ****         1.5078   0.3671   0.6276 C.ar           1 S1                 0.0000
      8 ****         2.8017  -0.0495   0.9989 C.ar           1 S1                 0.0000
      9 ****         3.8609   0.7857   0.9610 N.ar           1 S1                 0.0000
     10 ****         3.6545   2.0317   0.5147 C.ar           1 S1                 0.0000
     11 ****         4.8305   3.0192   0.6146 C.3            1 S1                 0.0000
     12 ****         4.7361   4.1084  -0.4797 C.3            1 S1                 0.0000
     13 ****         6.1825   2.3023   0.3880 C.3            1 S1                 0.0000
     14 ****         4.8284   3.6811   2.0048 C.3            1 S1                 0.0000
     15 ****         2.4633   2.5361   0.1666 N.ar           1 S1                 0.0000
     16 ****         1.3944   1.7121   0.2018 C.ar           1 S1                 0.0000
     17 ****        -3.5336  -2.2728  -0.5983 C.3            1 S1                 0.0000
     18 ****        -3.0337  -1.5463  -1.8660 C.3            1 S1                 0.0000
     19 ****        -3.6120  -2.1805  -3.1410 C.3            1 S1                 0.0000
     20 ****        -5.0327  -2.1700  -3.0875 O.3            1 S1                 0.0000
     21 ****        -5.5444  -2.9402  -2.0074 C.3            1 S1                 0.0000
     22 ****        -5.0724  -2.3515  -0.6681 C.3            1 S1                 0.0000
     23 ****        -4.5212  -2.3902   2.1171 H              1 S1                 0.0000
     24 ****        -3.0158  -1.9132   2.8710 H              1 S1                 0.0000
     25 ****        -3.0934  -3.4102   1.9463 H              1 S1                 0.0000
     26 ****        -3.4854  -0.6149   0.7778 H              1 S1                 0.0000
     27 ****        -1.0527  -2.3455   0.7364 H              1 S1                 0.0000
     28 ****         0.7196  -1.5362   0.7792 H              1 S1                 0.0000
     29 ****         2.9899  -1.0578   1.3381 H              1 S1                 0.0000
     30 ****         5.5911   4.7842  -0.4419 H              1 S1                 0.0000
     31 ****         3.8437   4.7252  -0.3674 H              1 S1                 0.0000
     32 ****         4.7105   3.6681  -1.4773 H              1 S1                 0.0000
     33 ****         6.2092   1.7995  -0.5796 H              1 S1                 0.0000
     34 ****         6.3820   1.5538   1.1556 H              1 S1                 0.0000
     35 ****         7.0144   3.0071   0.4138 H              1 S1                 0.0000
     36 ****         5.6498   4.3907   2.1091 H              1 S1                 0.0000
     37 ****         4.9322   2.9383   2.7965 H              1 S1                 0.0000
     38 ****         3.8996   4.2241   2.1836 H              1 S1                 0.0000
     39 ****         0.4640   2.1472  -0.1266 H              1 S1                 0.0000
     40 ****        -3.1452  -3.2922  -0.6277 H              1 S1                 0.0000
     41 ****        -3.3188  -0.4942  -1.8240 H              1 S1                 0.0000
     42 ****        -1.9455  -1.5711  -1.9249 H              1 S1                 0.0000
     43 ****        -3.2894  -1.6178  -4.0170 H              1 S1                 0.0000
     44 ****        -3.2485  -3.2013  -3.2684 H              1 S1                 0.0000
     45 ****        -6.6334  -2.9307  -2.0557 H              1 S1                 0.0000
     46 ****        -5.2311  -3.9806  -2.1069 H              1 S1                 0.0000
     47 ****        -5.4663  -2.9661   0.1406 H              1 S1                 0.0000
     48 ****        -5.4994  -1.3557  -0.5408 H              1 S1                 0.0000
     49 ****        -2.4004   0.8626   0.6236 LP             1 S1                 0.0000
     50 ****        -0.8324   1.5978   0.5928 LP             1 S1                 0.0000
     51 ****         4.7680   0.4851   1.2557 LP             1 S1                 0.0000
     52 ****         2.3689   3.4923  -0.1104 LP             1 S1                 0.0000
     53 ****        -5.3883  -2.5437  -3.9442 LP             1 S1                 0.0000
     54 ****        -5.3423  -1.2250  -2.9821 LP             1 S1                 0.0000
@<TRIPOS>BOND
    1    1    2 1     
    2    1   23 1     
    3    1   24 1     
    4    1   25 1     
    5    2    3 1     
    6    2   17 1     
    7    2   26 1     
    8    3    4 am    
    9    3   27 1     
   10    4    5 2     
   11    4    6 am    
   12    6    7 1     
   13    6   28 1     
   14    7   16 ar    
   15    7    8 ar    
   16    8    9 ar    
   17    8   29 1     
   18    9   10 ar    
   19   10   11 1     
   20   10   15 ar    
   21   11   12 1     
   22   11   13 1     
   23   11   14 1     
   24   12   30 1     
   25   12   31 1     
   26   12   32 1     
   27   13   33 1     
   28   13   34 1     
   29   13   35 1     
   30   14   36 1     
   31   14   37 1     
   32   14   38 1     
   33   15   16 ar    
   34   16   39 1     
   35   17   22 1     
   36   17   18 1     
   37   17   40 1     
   38   18   19 1     
   39   18   41 1     
   40   18   42 1     
   41   19   20 1     
   42   19   43 1     
   43   19   44 1     
   44   20   21 1     
   45   21   22 1     
   46   21   45 1     
   47   21   46 1     
   48   22   47 1     
   49   22   48 1     
   50    5   49 1     
   51    5   50 1     
   52    9   51 1     
   53   15   52 1     
   54   20   53 1     
   55   20   54 1     
@<TRIPOS>SUBSTRUCTURE
      1 S1             1
@<TRIPOS>SET
LONE_PAIRS      STATIC     ATOMS    <user>   **** ""
6 49 50 51 52 53 54
DONOR_HYDROGENS      STATIC     ATOMS    <user>   **** ""
2 27 28
ATOM$BLUE        STATIC     ATOMS    COLORGROUP SYSTEM
6 49 50 51 52 53 54
ATOM$RED        STATIC     ATOMS    COLORGROUP SYSTEM
2 27 28
