AV-unprocessed.smi:689|AV-procd|sdf|3359|dock10
  -GOLD-   22720 0333D 1   1.00000     0.00000
 Structure written by MMmdl.
 34 35  0  0  0  0  0  0  0  0  1 V2000
  151.0973  145.5215  160.3500 C   0  0  0  0  0  0  0  0  0  0  0  0
  151.9164  144.2673  160.4557 C   0  0  0  0  0  0  0  0  0  0  0  0
  152.3569  143.8711  161.6378 N   0  0  0  0  0  0  0  0  0  0  0  0
  153.0641  142.6877  161.4062 O   0  0  0  0  0  0  0  0  0  0  0  0
  153.0202  142.4134  160.0780 C   0  0  0  0  0  0  0  0  0  0  0  0
  153.7158  141.1709  159.6350 C   0  0  0  0  0  0  0  0  0  0  0  0
  152.3098  143.3774  159.4153 C   0  0  0  0  0  0  0  0  0  0  0  0
  151.9949  143.4789  157.9451 C   0  0  0  0  0  0  0  0  0  0  0  0
  151.0631  142.3334  157.5567 C   0  0  0  0  0  0  0  0  0  0  0  0
  150.6602  141.5228  158.3896 O   0  0  0  0  0  0  0  0  0  0  0  0
  150.7556  142.2516  156.1958 N   0  0  0  0  0  0  0  0  0  0  0  0
  150.0924  140.8686  155.3989 S   0  0  0  0  0  0  0  0  0  0  0  0
  148.9012  140.4335  156.1450 O   0  0  0  0  0  0  0  0  0  0  0  0
  149.9834  141.2224  153.9756 O   0  0  0  0  0  0  0  0  0  0  0  0
  151.4422  139.6133  155.5665 C   0  0  0  0  0  0  0  0  0  0  0  0
  152.0786  139.2364  154.2413 C   0  0  0  0  0  0  0  0  0  0  0  0
  152.4663  137.8048  153.9477 C   0  0  0  0  0  0  0  0  0  0  0  0
  153.5370  138.8445  154.1596 C   0  0  0  0  0  0  0  0  0  0  0  0
  150.0600  145.2885  160.1083 H   0  0  0  0  0  0  0  0  0  0  0  0
  151.4819  146.1736  159.5660 H   0  0  0  0  0  0  0  0  0  0  0  0
  151.1033  146.0889  161.2815 H   0  0  0  0  0  0  0  0  0  0  0  0
  153.5798  141.0016  158.5671 H   0  0  0  0  0  0  0  0  0  0  0  0
  153.3258  140.3017  160.1650 H   0  0  0  0  0  0  0  0  0  0  0  0
  154.7856  141.2367  159.8324 H   0  0  0  0  0  0  0  0  0  0  0  0
  151.5058  144.4231  157.7036 H   0  0  0  0  0  0  0  0  0  0  0  0
  152.9012  143.4438  157.3391 H   0  0  0  0  0  0  0  0  0  0  0  0
  151.1099  142.9460  155.5389 H   0  0  0  0  0  0  0  0  0  0  0  0
  152.2041  140.0471  156.2146 H   0  0  0  0  0  0  0  0  0  0  0  0
  151.0508  138.7279  156.0669 H   0  0  0  0  0  0  0  0  0  0  0  0
  151.6956  139.8040  153.3960 H   0  0  0  0  0  0  0  0  0  0  0  0
  152.3237  137.0656  154.7334 H   0  0  0  0  0  0  0  0  0  0  0  0
  152.3124  137.4418  152.9336 H   0  0  0  0  0  0  0  0  0  0  0  0
  154.0962  139.1800  153.2884 H   0  0  0  0  0  0  0  0  0  0  0  0
  154.1040  138.7968  155.0874 H   0  0  0  0  0  0  0  0  0  0  0  0
  1  2  1  0  0  0  0
  1 19  1  0  0  0  0
  1 20  1  0  0  0  0
  1 21  1  0  0  0  0
  2  7  1  0  0  0  0
  2  3  2  0  0  0  0
  3  4  1  0  0  0  0
  4  5  1  0  0  0  0
  5  6  1  0  0  0  0
  5  7  2  0  0  0  0
  6 22  1  0  0  0  0
  6 23  1  0  0  0  0
  6 24  1  0  0  0  0
  7  8  1  0  0  0  0
  8  9  1  0  0  0  0
  8 25  1  0  0  0  0
  8 26  1  0  0  0  0
  9 10  2  0  0  0  0
  9 11  1  0  0  0  0
 11 12  1  0  0  0  0
 11 27  1  0  0  0  0
 12 13  2  0  0  0  0
 12 14  2  0  0  0  0
 12 15  1  0  0  0  0
 15 16  1  0  0  0  0
 15 28  1  0  0  0  0
 15 29  1  0  0  0  0
 16 18  1  0  0  0  0
 16 17  1  0  0  0  0
 16 30  1  0  0  0  0
 17 18  1  0  0  0  0
 17 31  1  0  0  0  0
 17 32  1  0  0  0  0
 18 33  1  0  0  0  0
 18 34  1  0  0  0  0
M  END
> <s_m_source_file>
AV-unprocessed.smi

> <i_m_source_file_index>
689

> <i_lp_mmshare_version>
43012

> <i_f3d_flags>
0

> <s_epik_input>
W0NIM11jMW5vYyhbQ0gzXSljMVtDSDJdQyg9TylbTkhdUyg9TykoPU8pW0NIMl1bQ0hdMltDSDJdW0NIMl0y

> <s_epik_cmdline>
J2VwaWtfcHl0aG9uJywgJy1waCcsICc3LjAnLCAnLXRuJywgJzgnLCAnLW1hJywgJzIwMCcsICctbWV0YWxfYmluZGluZycsICctaW1hZScsICc8aW5maWxlLm1hZT4nLCAnLW9tYWUnLCAnPG91dGZpbGUubWFlPic=

> <r_epik_Ionization_Penalty>
2.32728

> <r_epik_Ionization_Penalty_Charging>
0

> <r_epik_Ionization_Penalty_Neutral>
2.32728

> <r_epik_State_Penalty>
2.47991

> <r_epik_Charging_Adjusted_Penalty>
2.47991

> <i_epik_Tot_Q>
0

> <i_epik_Tot_abs_Q>
0

> <r_epik_Metal_State_Penalty>
2.4915

> <b_epik_Metal_Only>
0

> <s_lp_Force_Field>
OPLS_2005

> <r_lp_Energy>
-0.069028

> <b_lp_Chiralities_Consistent>
1

> <s_lp_Variant>
AV-unprocessed.smi:689-2

> <Gold.Version>
5.8.1

> <Gold.Id.Protein>
6NUR|6NUR_protein|mol2

> <Gold.PLP.Fitness>
42.9607

> <Gold.PLP.PLP>
-41.2519

> <Gold.PLP.part.hbond>
-3.0000

> <Gold.PLP.part.metal>
0.0000

> <Gold.PLP.part.buried>
-3.4595

> <Gold.PLP.part.nonpolar>
-34.4916

> <Gold.PLP.part.repulsive>
0.6251

> <Gold.PLP.ligand.clash>
0.0000

> <Gold.PLP.ligand.torsion>
1.1607

> <Gold.PLP.Chemscore.Hbond>
0.7958

> <Gold.PLP.Chemscore.CHOScore>
0.0000

> <Gold.PLP.Chemscore.Metal>
0.0000

> <Gold.Chemscore.Hbonds>
donor molecule, donor type, donor heavy atom, donor atom, acceptor molecule, acceptor atom, score
      P1  H  7989  7998       L1    14  0.34
      P1  H  8011  8017       L1    14  0.73

> <Gold.PLP.Chemscore.Internal.Correction>
1.6429

> <Gold.Rescore>
     Score         DG    S(hbond)    S(metal)    S(lipo)     H(rot)  DE(clash)    DE(int)     intcor
     13.73     -15.76       0.88        0.00      98.80       1.65       0.72       1.31       ----

> <Gold.Chemscore.Fitness>
13.7268

> <Gold.Chemscore.DG>
-15.7568

> <Gold.Chemscore.ZeroCoef>
-5.4800

> <Gold.Chemscore.Hbond>
0.8822

> <Gold.Chemscore.Metal>
0.0000

> <Gold.Chemscore.Lipo>
98.7957

> <Gold.Chemscore.Internal_Hbond>
0.0000

> <Gold.Chemscore.DEClash>
0.7198

> <Gold.Chemscore.DEInternal>
1.3102

> <Gold.Chemscore.Rot>
1.6519

> <Gold.Chemscore.Internal.Correction>
   9.000000E+99

> <Gold.Chemscore.Hbonds>
donor molecule, donor type, donor heavy atom, donor atom, acceptor molecule, acceptor atom, score
      P1  H  7989  7998       L1    14  0.09
      P1  H  8011  8017       L1    14  0.68

> <Gold.Chemscore.Hbond.Weighted>
-2.9467

> <Gold.Chemscore.Metal.Weighted>
-0.0000

> <Gold.Chemscore.Lipo.Weighted>
-11.5591

> <Gold.Chemscore.Internal_Hbond.Weighted>
0.0000

> <Gold.Chemscore.DEClash.Weighted>
0.7198

> <Gold.Chemscore.DEInternal.Weighted>
1.3102

> <Gold.Chemscore.Rot.Weighted>
4.2290

> <Gold.Chemscore.Internal.Correction.Weighted>
   9.000000E+99

> <Gold.Protein.RotatedTorsions>
[ 6907 6896 6895 6894 ] final -129.34 input  -60.11 | X-H torsion
[ 7974 7965 7964 7962 ] final   -6.71 input  175.53 | X-H torsion
[ 8008 7997 7996 7995 ] final -157.39 input   59.86 | X-H torsion
[ 10167 10162 10161 10158 ] final    8.13 input  -65.29 | X-H torsion
[ 10718 10713 10712 10709 ] final  -72.00 input   66.30 | X-H torsion
[ 10763 10752 10751 10750 ] final   82.79 input  -60.55 | X-H torsion
[ 11005 11000 10999 10996 ] final -156.10 input  -57.11 | X-H torsion

> <Gold.Protein.ActiveResidues>
 VAL166  LYS551  ARG553  GLY616  TRP617  ASP618  TYR619  PRO620  LYS621  CYS622 
 ASP623  PHE694  ASN695  SER759  ASP760  ASP761  ALA762  ILE779  LEU786  VAL792 
 PHE793  MET794  SER795  GLU796  ALA797  LYS798  CYS799  TRP800  GLU811  SER814 

> <Gold.Protein.RotatedAtoms>
  150.9277  133.6804  159.2817 H   0  0  0  0  0  0  0  0  0  0  0  0  # atno 6907 bound_to 6896
  151.4237  135.1000  159.9631 H   0  0  0  0  0  0  0  0  0  0  0  0  # atno 6908 bound_to 6896
  152.5011  133.8723  159.7359 H   0  0  0  0  0  0  0  0  0  0  0  0  # atno 6909 bound_to 6896
  146.2324  140.2211  142.8337 H   0  0  0  0  0  0  0  0  0  0  0  0  # atno 7974 bound_to 7965
  155.7318  140.0803  157.2285 H   0  0  0  0  0  0  0  0  0  0  0  0  # atno 8008 bound_to 7997
  154.4032  140.1594  156.2571 H   0  0  0  0  0  0  0  0  0  0  0  0  # atno 8009 bound_to 7997
  155.9102  140.3404  155.6096 H   0  0  0  0  0  0  0  0  0  0  0  0  # atno 8010 bound_to 7997
  140.6332  143.7946  150.7323 H   0  0  0  0  0  0  0  0  0  0  0  0  # atno 10167 bound_to 10162
  156.0339  130.4363  150.2527 H   0  0  0  0  0  0  0  0  0  0  0  0  # atno 10718 bound_to 10713
  153.1233  135.4715  154.9232 H   0  0  0  0  0  0  0  0  0  0  0  0  # atno 10763 bound_to 10752
  154.7597  135.3128  154.8405 H   0  0  0  0  0  0  0  0  0  0  0  0  # atno 10764 bound_to 10752
  153.8964  135.6879  153.4811 H   0  0  0  0  0  0  0  0  0  0  0  0  # atno 10765 bound_to 10752
  140.6792  134.4163  157.5227 H   0  0  0  0  0  0  0  0  0  0  0  0  # atno 11005 bound_to 11000
  144.9631  140.8295  143.5501 LP  0  0  0  0  0  0  0  0  0  0  0  0  # atno 17320 bound_to 7965
  145.2184  139.2171  143.5106 LP  0  0  0  0  0  0  0  0  0  0  0  0  # atno 17321 bound_to 7965
  140.1562  143.4315  152.2098 LP  0  0  0  0  0  0  0  0  0  0  0  0  # atno 17342 bound_to 10162
  139.5544  144.7362  151.4338 LP  0  0  0  0  0  0  0  0  0  0  0  0  # atno 17343 bound_to 10162
  157.0628  131.0094  151.3217 LP  0  0  0  0  0  0  0  0  0  0  0  0  # atno 17370 bound_to 10713
  157.5058  130.7908  149.7652 LP  0  0  0  0  0  0  0  0  0  0  0  0  # atno 17371 bound_to 10713
  139.8957  134.8677  156.2120 LP  0  0  0  0  0  0  0  0  0  0  0  0  # atno 17394 bound_to 11000
  141.0331  133.6978  156.1464 LP  0  0  0  0  0  0  0  0  0  0  0  0  # atno 17395 bound_to 11000

$$$$
