AV-unprocessed.smi:299|AV-procd|sdf|2265|dock2
  -GOLD-   2262022153D 1   1.00000     0.00000
 Structure written by MMmdl.
 42 43  0  0  0  0  0  0  0  0  2 V2000
  143.3811  134.7222  152.8056 C   0  0  0  0  0  0  0  0  0  0  0  0
  144.3923  133.7014  152.2435 C   0  0  2  0  0  0  0  0  0  0  0  0
  143.6586  132.7926  151.2321 C   0  0  0  0  0  0  0  0  0  0  0  0
  144.5908  131.7486  150.6141 C   0  0  0  0  0  0  0  0  0  0  0  0
  145.2494  130.9370  151.7286 C   0  0  0  0  0  0  0  0  0  0  0  0
  145.9783  131.8620  152.7134 C   0  0  0  0  0  0  0  0  0  0  0  0
  145.0658  132.8834  153.3067 N   0  3  1  0  0  0  0  0  0  0  0  0
  145.7468  133.6978  154.3564 C   0  0  0  0  0  0  0  0  0  0  0  0
  146.9475  134.5078  153.8290 C   0  0  0  0  0  0  0  0  0  0  0  0
  148.1292  134.5081  154.8132 C   0  0  0  0  0  0  0  0  0  0  0  0
  149.1438  135.4829  154.4299 N   0  0  0  0  0  0  0  0  0  0  0  0
  149.9135  136.1723  155.2880 C   0  0  0  0  0  0  0  0  0  0  0  0
  149.8284  136.0593  156.5106 O   0  0  0  0  0  0  0  0  0  0  0  0
  150.9215  137.1522  154.6819 C   0  0  0  0  0  0  0  0  0  0  0  0
  151.7852  137.7348  155.6930 N   0  0  0  0  0  0  0  0  0  0  0  0
  152.0855  139.0070  155.9618 C   0  0  0  0  0  0  0  0  0  0  0  0
  152.9290  139.1066  156.9775 N   0  0  0  0  0  0  0  0  0  0  0  0
  153.1423  137.7871  157.3397 N   0  0  0  0  0  0  0  0  0  0  0  0
  152.4655  136.9685  156.5817 N   0  0  0  0  0  0  0  0  0  0  0  0
  142.7920  135.1686  152.0038 H   0  0  0  0  0  0  0  0  0  0  0  0
  143.8677  135.5529  153.3158 H   0  0  0  0  0  0  0  0  0  0  0  0
  142.6842  134.2512  153.4998 H   0  0  0  0  0  0  0  0  0  0  0  0
  145.1653  134.2539  151.7063 H   0  0  0  0  0  0  0  0  0  0  0  0
  142.8263  132.2884  151.7258 H   0  0  0  0  0  0  0  0  0  0  0  0
  143.2213  133.3957  150.4352 H   0  0  0  0  0  0  0  0  0  0  0  0
  144.0325  131.0910  149.9471 H   0  0  0  0  0  0  0  0  0  0  0  0
  145.3529  132.2397  150.0077 H   0  0  0  0  0  0  0  0  0  0  0  0
  144.4948  130.3541  152.2588 H   0  0  0  0  0  0  0  0  0  0  0  0
  145.9512  130.2202  151.3012 H   0  0  0  0  0  0  0  0  0  0  0  0
  146.4120  131.2323  153.4877 H   0  0  0  0  0  0  0  0  0  0  0  0
  146.8088  132.3625  152.2129 H   0  0  0  0  0  0  0  0  0  0  0  0
  145.0247  134.3573  154.8401 H   0  0  0  0  0  0  0  0  0  0  0  0
  146.1415  133.0486  155.1342 H   0  0  0  0  0  0  0  0  0  0  0  0
  147.2759  134.0954  152.8740 H   0  0  0  0  0  0  0  0  0  0  0  0
  146.6561  135.5407  153.6424 H   0  0  0  0  0  0  0  0  0  0  0  0
  147.7826  134.7050  155.8294 H   0  0  0  0  0  0  0  0  0  0  0  0
  148.5994  133.5246  154.8324 H   0  0  0  0  0  0  0  0  0  0  0  0
  149.2775  135.6379  153.4412 H   0  0  0  0  0  0  0  0  0  0  0  0
  151.5370  136.6343  153.9454 H   0  0  0  0  0  0  0  0  0  0  0  0
  150.3996  137.9547  154.1584 H   0  0  0  0  0  0  0  0  0  0  0  0
  151.6914  139.8520  155.4166 H   0  0  0  0  0  0  0  0  0  0  0  0
  144.3295  132.3749  153.7751 H   0  0  0  0  0  0  0  0  0  0  0  0
  1  2  1  0  0  0  0
  1 20  1  0  0  0  0
  1 21  1  0  0  0  0
  1 22  1  0  0  0  0
  2  7  1  0  0  0  0
  2  3  1  0  0  0  0
  2 23  1  0  0  0  0
  3  4  1  0  0  0  0
  3 24  1  0  0  0  0
  3 25  1  0  0  0  0
  4  5  1  0  0  0  0
  4 26  1  0  0  0  0
  4 27  1  0  0  0  0
  5  6  1  0  0  0  0
  5 28  1  0  0  0  0
  5 29  1  0  0  0  0
  6  7  1  0  0  0  0
  6 30  1  0  0  0  0
  6 31  1  0  0  0  0
  7  8  1  0  0  0  0
  7 42  1  0  0  0  0
  8  9  1  0  0  0  0
  8 32  1  0  0  0  0
  8 33  1  0  0  0  0
  9 10  1  0  0  0  0
  9 34  1  0  0  0  0
  9 35  1  0  0  0  0
 10 11  1  0  0  0  0
 10 36  1  0  0  0  0
 10 37  1  0  0  0  0
 11 12  1  0  0  0  0
 11 38  1  0  0  0  0
 12 13  2  0  0  0  0
 12 14  1  0  0  0  0
 14 15  1  0  0  0  0
 14 39  1  0  0  0  0
 14 40  1  0  0  0  0
 15 19  1  0  0  0  0
 15 16  1  0  0  0  0
 16 17  2  0  0  0  0
 16 41  1  0  0  0  0
 17 18  1  0  0  0  0
 18 19  2  0  0  0  0
M  CHG  1   7   1
M  END
> <s_m_source_file>
AV-unprocessed.smi

> <i_m_source_file_index>
299

> <i_lp_mmshare_version>
43012

> <i_f3d_flags>
0

> <s_epik_input>
W0NIM11bQ0BASF0xW0NIMl1bQ0gyXVtDSDJdW0NIMl1OMVtDSDJdW0NIMl1bQ0gyXVtOSF1DKD1PKVtDSDJdbjJbY0hdbm5uMg==

> <s_epik_cmdline>
J2VwaWtfcHl0aG9uJywgJy1waCcsICc3LjAnLCAnLXRuJywgJzgnLCAnLW1hJywgJzIwMCcsICctbWV0YWxfYmluZGluZycsICctaW1hZScsICc8aW5maWxlLm1hZT4nLCAnLW9tYWUnLCAnPG91dGZpbGUubWFlPic=

> <r_lp_tautomer_probability>
1

> <r_epik_Ionization_Penalty>
0.000544863

> <r_epik_Ionization_Penalty_Charging>
0.000543475

> <r_epik_Ionization_Penalty_Neutral>
1.38784e-06

> <r_epik_State_Penalty>
0.000340025

> <r_epik_Charging_Adjusted_Penalty>
0.0008835

> <i_epik_Tot_Q>
1

> <i_epik_Tot_abs_Q>
1

> <r_epik_Metal_State_Penalty>
-0

> <b_epik_Metal_Only>
0

> <s_lp_Force_Field>
OPLS_2005

> <r_lp_Energy>
24.2757

> <b_lp_Chiralities_Consistent>
1

> <s_lp_Variant>
AV-unprocessed.smi:299-1

> <Gold.Version>
5.8.1

> <Gold.Id.Protein>
6NUR|6NUR_protein|mol2

> <Gold.PLP.Fitness>
41.9264

> <Gold.PLP.PLP>
-28.1059

> <Gold.PLP.part.hbond>
-4.0000

> <Gold.PLP.part.metal>
0.0000

> <Gold.PLP.part.buried>
-4.0140

> <Gold.PLP.part.nonpolar>
-20.7942

> <Gold.PLP.part.repulsive>
0.0309

> <Gold.PLP.ligand.clash>
0.0000

> <Gold.PLP.ligand.torsion>
0.6107

> <Gold.PLP.Chemscore.Hbond>
4.9920

> <Gold.PLP.Chemscore.CHOScore>
0.0000

> <Gold.PLP.Chemscore.Metal>
0.0000

> <Gold.Chemscore.Hbonds>
donor molecule, donor type, donor heavy atom, donor atom, acceptor molecule, acceptor atom, score
      L1  H     7    42       P1 10957  2.00
      L1  H    11    38       P1  7948  1.00
      P1  H  7997  8009       L1    17  1.00
      P1  H 10752 10765       L1    19  0.48

> <Gold.PLP.Chemscore.Internal.Correction>
0.0659

> <Gold.Rescore>
     Score         DG    S(hbond)    S(metal)    S(lipo)     H(rot)  DE(clash)    DE(int)     intcor
     14.13     -15.95       3.70        0.00      48.89       2.97       0.03       1.80       ----

> <Gold.Chemscore.Fitness>
14.1276

> <Gold.Chemscore.DG>
-15.9536

> <Gold.Chemscore.ZeroCoef>
-5.4800

> <Gold.Chemscore.Hbond>
3.6981

> <Gold.Chemscore.Metal>
0.0000

> <Gold.Chemscore.Lipo>
48.8886

> <Gold.Chemscore.Internal_Hbond>
0.0000

> <Gold.Chemscore.DEClash>
0.0308

> <Gold.Chemscore.DEInternal>
1.7952

> <Gold.Chemscore.Rot>
2.9680

> <Gold.Chemscore.Internal.Correction>
   9.000000E+99

> <Gold.Chemscore.Hbonds>
donor molecule, donor type, donor heavy atom, donor atom, acceptor molecule, acceptor atom, score
      L1  H     7    42       P1 10957  0.24
      L1  H    11    38       P1  7948  0.45
      P1  H  7997  8009       L1    17  0.84
      P1  H 10752 10765       L1    19  0.09

> <Gold.Chemscore.Hbond.Weighted>
-12.3516

> <Gold.Chemscore.Metal.Weighted>
-0.0000

> <Gold.Chemscore.Lipo.Weighted>
-5.7200

> <Gold.Chemscore.Internal_Hbond.Weighted>
0.0000

> <Gold.Chemscore.DEClash.Weighted>
0.0308

> <Gold.Chemscore.DEInternal.Weighted>
1.7952

> <Gold.Chemscore.Rot.Weighted>
7.5980

> <Gold.Chemscore.Internal.Correction.Weighted>
   9.000000E+99

> <Gold.Protein.RotatedTorsions>
[ 6907 6896 6895 6894 ] final -163.46 input  -60.11 | X-H torsion
[ 7974 7965 7964 7962 ] final    4.46 input  175.53 | X-H torsion
[ 8008 7997 7996 7995 ] final  167.09 input   59.86 | X-H torsion
[ 10167 10162 10161 10158 ] final  122.59 input  -65.29 | X-H torsion
[ 10718 10713 10712 10709 ] final  -86.17 input   66.30 | X-H torsion
[ 10763 10752 10751 10750 ] final -141.63 input  -60.55 | X-H torsion
[ 11005 11000 10999 10996 ] final  -34.02 input  -57.11 | X-H torsion

> <Gold.Protein.ActiveResidues>
 VAL166  LYS551  ARG553  GLY616  TRP617  ASP618  TYR619  PRO620  LYS621  CYS622 
 ASP623  PHE694  ASN695  SER759  ASP760  ASP761  ALA762  ILE779  LEU786  VAL792 
 PHE793  MET794  SER795  GLU796  ALA797  LYS798  CYS799  TRP800  GLU811  SER814 

> <Gold.Protein.RotatedAtoms>
  151.3963  133.3772  159.2726 H   0  0  0  0  0  0  0  0  0  0  0  0  # atno 6907 bound_to 6896
  150.9467  134.8872  159.7657 H   0  0  0  0  0  0  0  0  0  0  0  0  # atno 6908 bound_to 6896
  152.5094  134.3917  159.9438 H   0  0  0  0  0  0  0  0  0  0  0  0  # atno 6909 bound_to 6896
  146.2444  140.0531  142.8373 H   0  0  0  0  0  0  0  0  0  0  0  0  # atno 7974 bound_to 7965
  156.1663  140.1626  156.8525 H   0  0  0  0  0  0  0  0  0  0  0  0  # atno 8008 bound_to 7997
  154.5211  140.0778  156.8208 H   0  0  0  0  0  0  0  0  0  0  0  0  # atno 8009 bound_to 7997
  155.3604  140.3395  155.4243 H   0  0  0  0  0  0  0  0  0  0  0  0  # atno 8010 bound_to 7997
  139.5850  144.7002  151.3433 H   0  0  0  0  0  0  0  0  0  0  0  0  # atno 10167 bound_to 10162
  155.9991  130.4756  150.4674 H   0  0  0  0  0  0  0  0  0  0  0  0  # atno 10718 bound_to 10713
  154.8538  135.3519  154.5898 H   0  0  0  0  0  0  0  0  0  0  0  0  # atno 10763 bound_to 10752
  153.6508  135.6994  153.5214 H   0  0  0  0  0  0  0  0  0  0  0  0  # atno 10764 bound_to 10752
  153.2895  135.4239  155.1112 H   0  0  0  0  0  0  0  0  0  0  0  0  # atno 10765 bound_to 10752
  140.9682  133.7124  156.1481 H   0  0  0  0  0  0  0  0  0  0  0  0  # atno 11005 bound_to 11000
  145.0966  140.9319  143.4737 LP  0  0  0  0  0  0  0  0  0  0  0  0  # atno 17320 bound_to 7965
  145.0715  139.3028  143.5829 LP  0  0  0  0  0  0  0  0  0  0  0  0  # atno 17321 bound_to 7965
  140.7123  143.7359  150.7589 LP  0  0  0  0  0  0  0  0  0  0  0  0  # atno 17342 bound_to 10162
  140.0901  143.4886  152.2483 LP  0  0  0  0  0  0  0  0  0  0  0  0  # atno 17343 bound_to 10162
  157.2692  131.0583  151.2270 LP  0  0  0  0  0  0  0  0  0  0  0  0  # atno 17370 bound_to 10713
  157.3357  130.7007  149.6351 LP  0  0  0  0  0  0  0  0  0  0  0  0  # atno 17371 bound_to 10713
  140.7367  134.4195  157.5560 LP  0  0  0  0  0  0  0  0  0  0  0  0  # atno 17394 bound_to 11000
  139.8902  134.8810  156.2380 LP  0  0  0  0  0  0  0  0  0  0  0  0  # atno 17395 bound_to 11000

$$$$
