#       Name:                AV-unprocessed.smi:2497
#       Creating user name   scv26
#       Creation time:       Fri Mar 27 13:46:01 2020


#       File generated by GOLD software.
#

@<TRIPOS>MOLECULE
AV-unprocessed.smi:2497
    52    53     1
SMALL
NO_CHARGES


@<TRIPOS>ATOM
      1 ****        -2.3638   5.9942   0.2127 C.3            1 S1                 0.0000
      2 ****        -2.8096   5.2859  -1.0780 C.3            1 S1                 0.0000
      3 ****        -4.3409   5.3111  -1.1990 C.3            1 S1                 0.0000
      4 ****        -2.2804   3.8406  -1.1665 C.3            1 S1                 0.0000
      5 ****        -0.7562   3.7404  -1.3503 C.3            1 S1                 0.0000
      6 ****        -0.3282   2.3603  -1.4643 N.pl3          1 S1                 0.0000
      7 ****        -0.0984   1.6242  -2.6089 C.2            1 S1                 0.0000
      8 ****         0.2724   0.3681  -2.2211 C.2            1 S1                 0.0000
      9 ****         0.2295   0.4413  -0.7964 C.2            1 S1                 0.0000
     10 ****         0.5453  -0.6094   0.1019 N.am           1 S1                 0.0000
     11 ****         0.6950  -1.9166  -0.1682 C.2            1 S1                 0.0000
     12 ****         0.5513  -2.4305  -1.2771 O.2            1 S1                 0.0000
     13 ****         1.0135  -2.6007   0.9438 N.am           1 S1                 0.0000
     14 ****         1.2570  -4.0433   1.0945 C.3            1 S1                 0.0000
     15 ****        -0.0325  -4.8263   0.7668 C.3            1 S1                 0.0000
     16 ****         2.4331  -4.5269   0.2107 C.3            1 S1                 0.0000
     17 ****         3.7759  -3.9230   0.6583 C.3            1 S1                 0.0000
     18 ****         4.0215  -4.2521   2.0204 O.3            1 S1                 0.0000
     19 ****         3.0393  -3.7236   2.9034 C.3            1 S1                 0.0000
     20 ****         1.6530  -4.3044   2.5641 C.3            1 S1                 0.0000
     21 ****        -0.1176   1.6340  -0.3456 N.2            1 S1                 0.0000
     22 ****        -2.7080   5.4582   1.0978 H              1 S1                 0.0000
     23 ****        -2.7663   7.0064   0.2621 H              1 S1                 0.0000
     24 ****        -1.2792   6.0782   0.2742 H              1 S1                 0.0000
     25 ****        -2.4095   5.8456  -1.9244 H              1 S1                 0.0000
     26 ****        -4.8117   4.7595  -0.3845 H              1 S1                 0.0000
     27 ****        -4.6696   4.8642  -2.1376 H              1 S1                 0.0000
     28 ****        -4.7213   6.3326  -1.1723 H              1 S1                 0.0000
     29 ****        -2.5844   3.2854  -0.2777 H              1 S1                 0.0000
     30 ****        -2.7573   3.3402  -2.0107 H              1 S1                 0.0000
     31 ****        -0.4453   4.2747  -2.2488 H              1 S1                 0.0000
     32 ****        -0.2280   4.1949  -0.5120 H              1 S1                 0.0000
     33 ****        -0.2176   2.0510  -3.5939 H              1 S1                 0.0000
     34 ****         0.5311  -0.4590  -2.8650 H              1 S1                 0.0000
     35 ****         0.6372  -0.3366   1.0693 H              1 S1                 0.0000
     36 ****         1.0987  -2.0607   1.7925 H              1 S1                 0.0000
     37 ****         0.0911  -5.8915   0.9650 H              1 S1                 0.0000
     38 ****        -0.3151  -4.7284  -0.2814 H              1 S1                 0.0000
     39 ****        -0.8719  -4.4777   1.3696 H              1 S1                 0.0000
     40 ****         2.5075  -5.6132   0.2756 H              1 S1                 0.0000
     41 ****         2.2590  -4.3093  -0.8427 H              1 S1                 0.0000
     42 ****         4.5862  -4.3251   0.0502 H              1 S1                 0.0000
     43 ****         3.7879  -2.8405   0.5234 H              1 S1                 0.0000
     44 ****         3.3130  -3.9862   3.9254 H              1 S1                 0.0000
     45 ****         3.0358  -2.6339   2.8493 H              1 S1                 0.0000
     46 ****         0.9024  -3.8949   3.2416 H              1 S1                 0.0000
     47 ****         1.6753  -5.3790   2.7517 H              1 S1                 0.0000
     48 ****         0.3040  -1.8634  -2.0627 LP             1 S1                 0.0000
     49 ****         0.6819  -3.4152  -1.3925 LP             1 S1                 0.0000
     50 ****         4.9149  -3.8860   2.2811 LP             1 S1                 0.0000
     51 ****         4.0298  -5.2479   2.1116 LP             1 S1                 0.0000
     52 ****        -0.2043   1.9306   0.6055 LP             1 S1                 0.0000
@<TRIPOS>BOND
    1    1    2 1     
    2    1   22 1     
    3    1   23 1     
    4    1   24 1     
    5    2    3 1     
    6    2    4 1     
    7    2   25 1     
    8    3   26 1     
    9    3   27 1     
   10    3   28 1     
   11    4    5 1     
   12    4   29 1     
   13    4   30 1     
   14    5    6 1     
   15    5   31 1     
   16    5   32 1     
   17    6   21 1     
   18    6    7 1     
   19    7    8 2     
   20    7   33 1     
   21    8    9 1     
   22    8   34 1     
   23    9   10 1     
   24    9   21 2     
   25   10   11 am    
   26   10   35 1     
   27   11   12 2     
   28   11   13 am    
   29   13   14 1     
   30   13   36 1     
   31   14   20 1     
   32   14   15 1     
   33   14   16 1     
   34   15   37 1     
   35   15   38 1     
   36   15   39 1     
   37   16   17 1     
   38   16   40 1     
   39   16   41 1     
   40   17   18 1     
   41   17   42 1     
   42   17   43 1     
   43   18   19 1     
   44   19   20 1     
   45   19   44 1     
   46   19   45 1     
   47   20   46 1     
   48   20   47 1     
   49   12   48 1     
   50   12   49 1     
   51   18   50 1     
   52   18   51 1     
   53   21   52 1     
@<TRIPOS>SUBSTRUCTURE
      1 S1             1
@<TRIPOS>SET
LONE_PAIRS      STATIC     ATOMS    <user>   **** ""
5 48 49 50 51 52
DONOR_HYDROGENS      STATIC     ATOMS    <user>   **** ""
2 35 36
ATOM$BLUE        STATIC     ATOMS    COLORGROUP SYSTEM
5 48 49 50 51 52
ATOM$RED        STATIC     ATOMS    COLORGROUP SYSTEM
2 35 36
