AV-unprocessed.smi:956|AV-procd|sdf|4264|dock8
  -GOLD-   22720 2173D 1   1.00000     0.00000
 Structure written by MMmdl.
 42 43  0  0  0  0  0  0  0  0  1 V2000
  148.2393  135.4695  158.3951 C   0  0  0  0  0  0  0  0  0  0  0  0
  148.2072  137.2695  158.8399 S   0  0  1  0  0  0  0  0  0  0  0  0
  147.8349  137.3636  160.3207 O   0  0  0  0  0  0  0  0  0  0  0  0
  150.0237  137.4642  158.8169 C   0  0  0  0  0  0  0  0  0  0  0  0
  150.8136  137.2036  159.8629 N   0  0  0  0  0  0  0  0  0  0  0  0
  152.0933  137.4811  159.4206 N   0  0  0  0  0  0  0  0  0  0  0  0
  151.9364  137.8804  158.1567 C   0  0  0  0  0  0  0  0  0  0  0  0
  150.6685  137.8906  157.7149 N   0  0  0  0  0  0  0  0  0  0  0  0
  150.1646  138.2759  156.4086 C   0  0  0  0  0  0  0  0  0  0  0  0
  150.6390  139.6805  156.0375 C   0  0  0  0  0  0  0  0  0  0  0  0
  151.0407  139.9125  154.8978 O   0  0  0  0  0  0  0  0  0  0  0  0
  150.5966  140.6039  157.0087 N   0  0  0  0  0  0  0  0  0  0  0  0
  151.0306  141.9842  156.8505 C   0  0  0  0  0  0  0  0  0  0  0  0
  150.4740  142.8575  157.9865 C   0  0  0  0  0  0  0  0  0  0  0  0
  151.5119  143.2157  159.0703 C   0  0  0  0  0  0  0  0  0  0  0  0
  152.0808  141.9388  159.7243 C   0  0  0  0  0  0  0  0  0  0  0  0
  153.1252  142.2635  160.8047 C   0  0  0  0  0  0  0  0  0  0  0  0
  152.5445  143.1983  161.8757 C   0  0  0  0  0  0  0  0  0  0  0  0
  151.9810  144.4778  161.2400 C   0  0  0  0  0  0  0  0  0  0  0  0
  150.9386  144.1527  160.1572 C   0  0  0  0  0  0  0  0  0  0  0  0
  149.0609  135.2506  157.7126 H   0  0  0  0  0  0  0  0  0  0  0  0
  147.3057  135.1884  157.9089 H   0  0  0  0  0  0  0  0  0  0  0  0
  148.3602  134.8608  159.2913 H   0  0  0  0  0  0  0  0  0  0  0  0
  152.7701  138.1760  157.5368 H   0  0  0  0  0  0  0  0  0  0  0  0
  150.5227  137.5594  155.6680 H   0  0  0  0  0  0  0  0  0  0  0  0
  149.0755  138.2204  156.4039 H   0  0  0  0  0  0  0  0  0  0  0  0
  150.2566  140.3301  157.9192 H   0  0  0  0  0  0  0  0  0  0  0  0
  152.1210  142.0195  156.8490 H   0  0  0  0  0  0  0  0  0  0  0  0
  150.6915  142.3503  155.8811 H   0  0  0  0  0  0  0  0  0  0  0  0
  150.0450  143.7712  157.5729 H   0  0  0  0  0  0  0  0  0  0  0  0
  149.6470  142.3221  158.4559 H   0  0  0  0  0  0  0  0  0  0  0  0
  152.3404  143.7311  158.5816 H   0  0  0  0  0  0  0  0  0  0  0  0
  151.2697  141.3597  160.1678 H   0  0  0  0  0  0  0  0  0  0  0  0
  152.5343  141.3002  158.9654 H   0  0  0  0  0  0  0  0  0  0  0  0
  153.4787  141.3423  161.2684 H   0  0  0  0  0  0  0  0  0  0  0  0
  153.9961  142.7312  160.3434 H   0  0  0  0  0  0  0  0  0  0  0  0
  151.7544  142.6826  162.4230 H   0  0  0  0  0  0  0  0  0  0  0  0
  153.3135  143.4518  162.6059 H   0  0  0  0  0  0  0  0  0  0  0  0
  151.5334  145.1081  162.0088 H   0  0  0  0  0  0  0  0  0  0  0  0
  152.7947  145.0569  160.8015 H   0  0  0  0  0  0  0  0  0  0  0  0
  150.5932  145.0868  159.7150 H   0  0  0  0  0  0  0  0  0  0  0  0
  150.0663  143.6898  160.6204 H   0  0  0  0  0  0  0  0  0  0  0  0
  1  2  1  0  0  0  0
  1 21  1  0  0  0  0
  1 22  1  0  0  0  0
  1 23  1  0  0  0  0
  2  3  2  0  0  0  0
  2  4  1  0  0  0  0
  4  8  1  0  0  0  0
  4  5  2  0  0  0  0
  5  6  1  0  0  0  0
  6  7  2  0  0  0  0
  7  8  1  0  0  0  0
  7 24  1  0  0  0  0
  8  9  1  0  0  0  0
  9 10  1  0  0  0  0
  9 25  1  0  0  0  0
  9 26  1  0  0  0  0
 10 11  2  0  0  0  0
 10 12  1  0  0  0  0
 12 13  1  0  0  0  0
 12 27  1  0  0  0  0
 13 14  1  0  0  0  0
 13 28  1  0  0  0  0
 13 29  1  0  0  0  0
 14 15  1  0  0  0  0
 14 30  1  0  0  0  0
 14 31  1  0  0  0  0
 15 20  1  0  0  0  0
 15 16  1  0  0  0  0
 15 32  1  0  0  0  0
 16 17  1  0  0  0  0
 16 33  1  0  0  0  0
 16 34  1  0  0  0  0
 17 18  1  0  0  0  0
 17 35  1  0  0  0  0
 17 36  1  0  0  0  0
 18 19  1  0  0  0  0
 18 37  1  0  0  0  0
 18 38  1  0  0  0  0
 19 20  1  0  0  0  0
 19 39  1  0  0  0  0
 19 40  1  0  0  0  0
 20 41  1  0  0  0  0
 20 42  1  0  0  0  0
M  END
> <s_m_source_file>
AV-unprocessed.smi

> <i_m_source_file_index>
956

> <i_lp_mmshare_version>
43012

> <i_f3d_flags>
0

> <s_epik_input>
W0NIM11bU0BdKD1PKWMxbm5bY0hdbjFbQ0gyXUMoPU8pW05IXVtDSDJdW0NIMl1bQ0hdMltDSDJdW0NIMl1bQ0gyXVtDSDJdW0NIMl0y

> <s_epik_cmdline>
J2VwaWtfcHl0aG9uJywgJy1waCcsICc3LjAnLCAnLXRuJywgJzgnLCAnLW1hJywgJzIwMCcsICctbWV0YWxfYmluZGluZycsICctaW1hZScsICc8aW5maWxlLm1hZT4nLCAnLW9tYWUnLCAnPG91dGZpbGUubWFlPic=

> <r_lp_tautomer_probability>
1

> <r_epik_Ionization_Penalty>
7.32521e-08

> <r_epik_Ionization_Penalty_Charging>
0

> <r_epik_Ionization_Penalty_Neutral>
7.32521e-08

> <r_epik_State_Penalty>
-0

> <r_epik_Charging_Adjusted_Penalty>
0

> <i_epik_Tot_Q>
0

> <i_epik_Tot_abs_Q>
0

> <r_epik_Metal_State_Penalty>
-0

> <b_epik_Metal_Only>
0

> <s_lp_Force_Field>
OPLS_2005

> <r_lp_Energy>
10.1233

> <b_lp_Chiralities_Consistent>
1

> <s_lp_Variant>
AV-unprocessed.smi:956-2

> <Gold.Version>
5.8.1

> <Gold.Id.Protein>
6NUR|6NUR_protein|mol2

> <Gold.PLP.Fitness>
44.6934

> <Gold.PLP.PLP>
-36.6503

> <Gold.PLP.part.hbond>
-4.0000

> <Gold.PLP.part.metal>
0.0000

> <Gold.PLP.part.buried>
-6.7591

> <Gold.PLP.part.nonpolar>
-25.6119

> <Gold.PLP.part.repulsive>
0.0993

> <Gold.PLP.ligand.clash>
0.0000

> <Gold.PLP.ligand.torsion>
1.5490

> <Gold.PLP.Chemscore.Hbond>
3.3561

> <Gold.PLP.Chemscore.CHOScore>
0.0000

> <Gold.PLP.Chemscore.Metal>
0.0000

> <Gold.Chemscore.Hbonds>
donor molecule, donor type, donor heavy atom, donor atom, acceptor molecule, acceptor atom, score
      P1  H  6896  6907       L1     5  0.46
      P1  H  6931  6943       L1     3  0.42
      P1  H  6934  6947       L1     3  0.80
      P1  H  7989  7998       L1    11  1.00

> <Gold.PLP.Chemscore.Internal.Correction>
1.0730

> <Gold.Rescore>
     Score         DG    S(hbond)    S(metal)    S(lipo)     H(rot)  DE(clash)    DE(int)     intcor
     16.06     -17.66       2.37        0.00      85.68       2.26       0.00       1.59       ----

> <Gold.Chemscore.Fitness>
16.0592

> <Gold.Chemscore.DG>
-17.6565

> <Gold.Chemscore.ZeroCoef>
-5.4800

> <Gold.Chemscore.Hbond>
2.3731

> <Gold.Chemscore.Metal>
0.0000

> <Gold.Chemscore.Lipo>
85.6758

> <Gold.Chemscore.Internal_Hbond>
0.0000

> <Gold.Chemscore.DEClash>
0.0047

> <Gold.Chemscore.DEInternal>
1.5926

> <Gold.Chemscore.Rot>
2.2554

> <Gold.Chemscore.Internal.Correction>
   9.000000E+99

> <Gold.Chemscore.Hbonds>
donor molecule, donor type, donor heavy atom, donor atom, acceptor molecule, acceptor atom, score
      P1  H  6896  6907       L1     5  0.02
      P1  H  6931  6943       L1     3  0.43
      P1  H  6934  6947       L1     3  0.74
      P1  H  7989  7998       L1    11  1.00

> <Gold.Chemscore.Hbond.Weighted>
-7.9262

> <Gold.Chemscore.Metal.Weighted>
-0.0000

> <Gold.Chemscore.Lipo.Weighted>
-10.0241

> <Gold.Chemscore.Internal_Hbond.Weighted>
0.0000

> <Gold.Chemscore.DEClash.Weighted>
0.0047

> <Gold.Chemscore.DEInternal.Weighted>
1.5926

> <Gold.Chemscore.Rot.Weighted>
5.7738

> <Gold.Chemscore.Internal.Correction.Weighted>
   9.000000E+99

> <Gold.Protein.RotatedTorsions>
[ 6907 6896 6895 6894 ] final  -23.34 input  -60.11 | X-H torsion
[ 7974 7965 7964 7962 ] final  109.54 input  175.53 | X-H torsion
[ 8008 7997 7996 7995 ] final  -21.04 input   59.86 | X-H torsion
[ 10167 10162 10161 10158 ] final  -64.55 input  -65.29 | X-H torsion
[ 10718 10713 10712 10709 ] final  -75.03 input   66.30 | X-H torsion
[ 10763 10752 10751 10750 ] final  149.01 input  -60.55 | X-H torsion
[ 11005 11000 10999 10996 ] final  154.71 input  -57.11 | X-H torsion

> <Gold.Protein.ActiveResidues>
 VAL166  LYS551  ARG553  GLY616  TRP617  ASP618  TYR619  PRO620  LYS621  CYS622 
 ASP623  PHE694  ASN695  SER759  ASP760  ASP761  ALA762  ILE779  LEU786  VAL792 
 PHE793  MET794  SER795  GLU796  ALA797  LYS798  CYS799  TRP800  GLU811  SER814 

> <Gold.Protein.RotatedAtoms>
  151.2054  135.0459  159.8888 H   0  0  0  0  0  0  0  0  0  0  0  0  # atno 6907 bound_to 6896
  152.5429  134.0804  159.8243 H   0  0  0  0  0  0  0  0  0  0  0  0  # atno 6908 bound_to 6896
  151.0950  133.5239  159.2645 H   0  0  0  0  0  0  0  0  0  0  0  0  # atno 6909 bound_to 6896
  145.2665  139.2683  143.3989 H   0  0  0  0  0  0  0  0  0  0  0  0  # atno 7974 bound_to 7965
  154.4731  140.2045  155.9946 H   0  0  0  0  0  0  0  0  0  0  0  0  # atno 8008 bound_to 7997
  156.1043  140.3239  155.7955 H   0  0  0  0  0  0  0  0  0  0  0  0  # atno 8009 bound_to 7997
  155.4743  140.0533  157.2966 H   0  0  0  0  0  0  0  0  0  0  0  0  # atno 8010 bound_to 7997
  140.5792  143.2325  151.6377 H   0  0  0  0  0  0  0  0  0  0  0  0  # atno 10167 bound_to 10162
  156.0222  130.4431  150.2981 H   0  0  0  0  0  0  0  0  0  0  0  0  # atno 10718 bound_to 10713
  154.0641  135.2872  155.3319 H   0  0  0  0  0  0  0  0  0  0  0  0  # atno 10763 bound_to 10752
  154.6789  135.5271  153.8240 H   0  0  0  0  0  0  0  0  0  0  0  0  # atno 10764 bound_to 10752
  153.0511  135.6576  154.0828 H   0  0  0  0  0  0  0  0  0  0  0  0  # atno 10765 bound_to 10752
  140.1514  134.8672  157.2459 H   0  0  0  0  0  0  0  0  0  0  0  0  # atno 11005 bound_to 11000
  146.3259  140.3096  142.8626 LP  0  0  0  0  0  0  0  0  0  0  0  0  # atno 17320 bound_to 7965
  144.9372  140.8040  143.5652 LP  0  0  0  0  0  0  0  0  0  0  0  0  # atno 17321 bound_to 7965
  139.5160  144.3360  152.0783 LP  0  0  0  0  0  0  0  0  0  0  0  0  # atno 17342 bound_to 10162
  140.2508  144.4171  150.6223 LP  0  0  0  0  0  0  0  0  0  0  0  0  # atno 17343 bound_to 10162
  157.1084  131.0215  151.3058 LP  0  0  0  0  0  0  0  0  0  0  0  0  # atno 17370 bound_to 10713
  157.4724  130.7716  149.7336 LP  0  0  0  0  0  0  0  0  0  0  0  0  # atno 17371 bound_to 10713
  140.2600  134.3582  155.7410 LP  0  0  0  0  0  0  0  0  0  0  0  0  # atno 17394 bound_to 11000
  141.2199  133.7364  156.9066 LP  0  0  0  0  0  0  0  0  0  0  0  0  # atno 17395 bound_to 11000

$$$$
