#       Name:                AV-unprocessed.smi:1519
#       Creating user name   scv26
#       Creation time:       Fri Mar 27 06:27:04 2020


#       File generated by GOLD software.
#

@<TRIPOS>MOLECULE
AV-unprocessed.smi:1519
    45    46     1
SMALL
NO_CHARGES


@<TRIPOS>ATOM
      1 ****        -6.6703   0.2785   2.3650 C.3            1 S1                 0.0000
      2 ****        -5.6642   0.9767   1.5155 C.2            1 S1                 0.0000
      3 ****        -4.4099   0.5486   1.3525 N.2            1 S1                 0.0000
      4 ****        -3.6627   1.3767   0.5090 C.2            1 S1                 0.0000
      5 ****        -2.2327   1.0424   0.2103 C.3            1 S1                 0.0000
      6 ****        -2.1059  -0.0632  -0.8508 C.3            1 S1                 0.0000
      7 ****        -0.7108  -0.3735  -1.1422 N.am           1 S1                 0.0000
      8 ****         0.0775  -1.1705  -0.4006 C.2            1 S1                 0.0000
      9 ****        -0.3322  -1.7302   0.6175 O.2            1 S1                 0.0000
     10 ****         1.3327  -1.3408  -0.8879 N.am           1 S1                 0.0000
     11 ****         1.9787  -0.5288  -1.9329 C.3            1 S1                 0.0000
     12 ****         3.0219   0.3919  -1.2735 C.3            1 S1                 0.0000
     13 ****         4.0624  -0.4183  -0.4689 C.3            1 S1                 0.0000
     14 ****         5.0440   0.5125   0.2662 C.3            1 S1                 0.0000
     15 ****         6.1144  -0.2236   0.8197 O.3            1 S1                 0.0000
     16 ****         3.3554  -1.4023   0.4920 C.3            1 S1                 0.0000
     17 ****         2.2979  -2.2422  -0.2468 C.3            1 S1                 0.0000
     18 ****        -4.3772   2.4467   0.0301 C.2            1 S1                 0.0000
     19 ****        -6.0153   2.4522   0.6238 S.3            1 S1                 0.0000
     20 ****        -6.2316  -0.6011   2.8374 H              1 S1                 0.0000
     21 ****        -7.5168  -0.0377   1.7554 H              1 S1                 0.0000
     22 ****        -7.0302   0.9502   3.1443 H              1 S1                 0.0000
     23 ****        -1.7061   1.9344  -0.1311 H              1 S1                 0.0000
     24 ****        -1.7299   0.7328   1.1273 H              1 S1                 0.0000
     25 ****        -2.6296  -0.9654  -0.5297 H              1 S1                 0.0000
     26 ****        -2.5818   0.2570  -1.7781 H              1 S1                 0.0000
     27 ****        -0.3152   0.0396  -1.9740 H              1 S1                 0.0000
     28 ****         2.4670  -1.1914  -2.6490 H              1 S1                 0.0000
     29 ****         1.2841   0.0693  -2.5221 H              1 S1                 0.0000
     30 ****         3.5231   0.9868  -2.0376 H              1 S1                 0.0000
     31 ****         2.5145   1.0989  -0.6155 H              1 S1                 0.0000
     32 ****         4.6341  -1.0085  -1.1872 H              1 S1                 0.0000
     33 ****         5.4596   1.2477  -0.4237 H              1 S1                 0.0000
     34 ****         4.5376   1.0651   1.0583 H              1 S1                 0.0000
     35 ****         6.6958   0.3766   1.2616 H              1 S1                 0.0000
     36 ****         4.0851  -2.0645   0.9588 H              1 S1                 0.0000
     37 ****         2.8769  -0.8504   1.3024 H              1 S1                 0.0000
     38 ****         1.8257  -2.9402   0.4459 H              1 S1                 0.0000
     39 ****         2.7748  -2.8618  -1.0075 H              1 S1                 0.0000
     40 ****        -4.0410   3.2284  -0.6350 H              1 S1                 0.0000
     41 ****        -4.0445  -0.2748   1.7866 LP             1 S1                 0.0000
     42 ****        -1.2777  -1.5977   0.9148 LP             1 S1                 0.0000
     43 ****         0.2808  -2.3169   1.1466 LP             1 S1                 0.0000
     44 ****         6.6094  -0.6978   0.0916 LP             1 S1                 0.0000
     45 ****         5.7608  -0.8929   1.4731 LP             1 S1                 0.0000
@<TRIPOS>BOND
    1    1    2 1     
    2    1   20 1     
    3    1   21 1     
    4    1   22 1     
    5    2   19 1     
    6    2    3 2     
    7    3    4 1     
    8    4    5 1     
    9    4   18 2     
   10    5    6 1     
   11    5   23 1     
   12    5   24 1     
   13    6    7 1     
   14    6   25 1     
   15    6   26 1     
   16    7    8 am    
   17    7   27 1     
   18    8    9 2     
   19    8   10 am    
   20   10   17 1     
   21   10   11 1     
   22   11   12 1     
   23   11   28 1     
   24   11   29 1     
   25   12   13 1     
   26   12   30 1     
   27   12   31 1     
   28   13   14 1     
   29   13   16 1     
   30   13   32 1     
   31   14   15 1     
   32   14   33 1     
   33   14   34 1     
   34   15   35 1     
   35   16   17 1     
   36   16   36 1     
   37   16   37 1     
   38   17   38 1     
   39   17   39 1     
   40   18   19 1     
   41   18   40 1     
   42    3   41 1     
   43    9   42 1     
   44    9   43 1     
   45   15   44 1     
   46   15   45 1     
@<TRIPOS>SUBSTRUCTURE
      1 S1             1
@<TRIPOS>SET
LONE_PAIRS      STATIC     ATOMS    <user>   **** ""
5 41 42 43 44 45
DONOR_HYDROGENS      STATIC     ATOMS    <user>   **** ""
2 27 35
ATOM$BLUE        STATIC     ATOMS    COLORGROUP SYSTEM
5 41 42 43 44 45
ATOM$RED        STATIC     ATOMS    COLORGROUP SYSTEM
2 27 35
