#       Name:                AV-unprocessed.smi:438
#       Creating user name   scv26
#       Creation time:       Thu Mar 26 22:53:41 2020


#       File generated by GOLD software.
#

@<TRIPOS>MOLECULE
AV-unprocessed.smi:438
    55    56     1
SMALL
NO_CHARGES


@<TRIPOS>ATOM
      1 ****        -1.3148  -2.3685   0.1642 C.3            1 S1                 0.0000
      2 ****        -1.2158  -1.1306   1.0383 C.2            1 S1                 0.0000
      3 ****         0.0637  -0.8332   1.5222 N.2            1 S1                 0.0000
      4 ****         0.2511   0.2053   2.2726 C.2            1 S1                 0.0000
      5 ****         1.7895   0.8358   3.0109 S.3            1 S1                 0.0000
      6 ****         3.0606  -0.1658   2.1801 C.3            1 S1                 0.0000
      7 ****         3.4388   0.3983   0.8110 C.2            1 S1                 0.0000
      8 ****         4.4681   1.0600   0.6813 O.2            1 S1                 0.0000
      9 ****         2.5819   0.1500  -0.1915 N.am           1 S1                 0.0000
     10 ****         2.6619   0.6706  -1.5562 C.3            1 S1                 0.0000
     11 ****         2.4900  -0.4820  -2.5653 C.3            1 S1                 0.0000
     12 ****         1.0565  -1.0395  -2.5706 C.3            1 S1                 0.0000
     13 ****         0.0278   0.0714  -2.8267 C.3            1 S1                 0.0000
     14 ****         0.1770   1.2194  -1.8162 C.3            1 S1                 0.0000
     15 ****         1.6121   1.7861  -1.8026 C.3            1 S1                 0.0000
     16 ****         1.7381   2.9638  -0.8210 C.3            1 S1                 0.0000
     17 ****        -0.8184   1.0347   2.6093 N.am           1 S1                 0.0000
     18 ****        -2.0859   0.8454   2.1808 C.2            1 S1                 0.0000
     19 ****        -2.9727   1.6362   2.4980 O.2            1 S1                 0.0000
     20 ****        -2.2884  -0.3455   1.3378 C.2            1 S1                 0.0000
     21 ****        -3.6953  -0.6228   0.8091 C.3            1 S1                 0.0000
     22 ****        -4.5062  -1.5764   1.7042 C.3            1 S1                 0.0000
     23 ****        -4.7967  -0.9840   2.9521 O.3            1 S1                 0.0000
     24 ****        -2.0798  -3.0489   0.5367 H              1 S1                 0.0000
     25 ****        -0.3701  -2.9131   0.1429 H              1 S1                 0.0000
     26 ****        -1.5647  -2.0920  -0.8602 H              1 S1                 0.0000
     27 ****         2.7367  -1.2033   2.0920 H              1 S1                 0.0000
     28 ****         3.9495  -0.1726   2.8116 H              1 S1                 0.0000
     29 ****         1.7683  -0.4085   0.0237 H              1 S1                 0.0000
     30 ****         3.6532   1.0969  -1.7192 H              1 S1                 0.0000
     31 ****         2.7354  -0.1215  -3.5651 H              1 S1                 0.0000
     32 ****         3.2003  -1.2813  -2.3496 H              1 S1                 0.0000
     33 ****         0.9622  -1.8142  -3.3318 H              1 S1                 0.0000
     34 ****         0.8467  -1.5213  -1.6158 H              1 S1                 0.0000
     35 ****         0.1541   0.4585  -3.8385 H              1 S1                 0.0000
     36 ****        -0.9816  -0.3380  -2.7763 H              1 S1                 0.0000
     37 ****        -0.5325   2.0105  -2.0604 H              1 S1                 0.0000
     38 ****        -0.0940   0.8676  -0.8211 H              1 S1                 0.0000
     39 ****         1.8071   2.1886  -2.7977 H              1 S1                 0.0000
     40 ****         1.4814   2.6704   0.1973 H              1 S1                 0.0000
     41 ****         1.0721   3.7796  -1.1029 H              1 S1                 0.0000
     42 ****         2.7546   3.3576  -0.8092 H              1 S1                 0.0000
     43 ****        -0.6391   1.8377   3.1943 H              1 S1                 0.0000
     44 ****        -3.6203  -1.0555  -0.1883 H              1 S1                 0.0000
     45 ****        -4.2394   0.3116   0.6658 H              1 S1                 0.0000
     46 ****        -5.4479  -1.8317   1.2179 H              1 S1                 0.0000
     47 ****        -3.9689  -2.5101   1.8698 H              1 S1                 0.0000
     48 ****        -5.3044  -1.5946   3.4643 H              1 S1                 0.0000
     49 ****         0.8352  -1.4246   1.2876 LP             1 S1                 0.0000
     50 ****         5.0570   1.2286   1.4717 LP             1 S1                 0.0000
     51 ****         4.7156   1.4291  -0.2145 LP             1 S1                 0.0000
     52 ****        -2.7574   2.4236   3.0755 LP             1 S1                 0.0000
     53 ****        -3.9092   1.4918   2.1783 LP             1 S1                 0.0000
     54 ****        -5.3208  -0.1439   2.8124 LP             1 S1                 0.0000
     55 ****        -3.9448  -0.7699   3.4300 LP             1 S1                 0.0000
@<TRIPOS>BOND
    1    1   24 1     
    2    1   25 1     
    3    1   26 1     
    4    1    2 1     
    5    2   20 2     
    6    2    3 1     
    7    3    4 2     
    8    4    5 1     
    9    4   17 1     
   10    5    6 1     
   11    6    7 1     
   12    6   27 1     
   13    6   28 1     
   14    7    8 2     
   15    7    9 am    
   16    9   10 1     
   17    9   29 1     
   18   10   15 1     
   19   10   11 1     
   20   10   30 1     
   21   11   12 1     
   22   11   31 1     
   23   11   32 1     
   24   12   13 1     
   25   12   33 1     
   26   12   34 1     
   27   13   14 1     
   28   13   35 1     
   29   13   36 1     
   30   14   15 1     
   31   14   37 1     
   32   14   38 1     
   33   15   16 1     
   34   15   39 1     
   35   16   40 1     
   36   16   41 1     
   37   16   42 1     
   38   17   43 1     
   39   17   18 am    
   40   18   19 2     
   41   18   20 1     
   42   20   21 1     
   43   21   22 1     
   44   21   44 1     
   45   21   45 1     
   46   22   23 1     
   47   22   46 1     
   48   22   47 1     
   49   23   48 1     
   50    3   49 1     
   51    8   50 1     
   52    8   51 1     
   53   19   52 1     
   54   19   53 1     
   55   23   54 1     
   56   23   55 1     
@<TRIPOS>SUBSTRUCTURE
      1 S1             1
@<TRIPOS>SET
LONE_PAIRS      STATIC     ATOMS    <user>   **** ""
7 49 50 51 52 53 54 55
DONOR_HYDROGENS      STATIC     ATOMS    <user>   **** ""
3 29 43 48
ATOM$BLUE        STATIC     ATOMS    COLORGROUP SYSTEM
7 49 50 51 52 53 54 55
ATOM$RED        STATIC     ATOMS    COLORGROUP SYSTEM
3 29 43 48
