AV-unprocessed.smi:2406|AV-procd|sdf|9516|dock7
  -GOLD-   2272013143D 1   1.00000     0.00000
 Structure written by MMmdl.
 36 37  0  0  0  0  0  0  0  0  1 V2000
  145.5534  129.2834  151.5457 C   0  0  0  0  0  0  0  0  0  0  0  0
  146.3080  130.4865  151.4521 O   0  0  0  0  0  0  0  0  0  0  0  0
  145.6221  131.6789  151.3489 C   0  0  0  0  0  0  0  0  0  0  0  0
  146.2915  132.8876  151.6298 C   0  0  0  0  0  0  0  0  0  0  0  0
  145.5542  134.0866  151.5068 C   0  0  0  0  0  0  0  0  0  0  0  0
  146.2682  135.2810  151.7898 N   0  0  0  0  0  0  0  0  0  0  0  0
  145.7848  136.4463  152.2548 C   0  0  0  0  0  0  0  0  0  0  0  0
  144.6073  136.6626  152.5433 O   0  0  0  0  0  0  0  0  0  0  0  0
  146.7598  137.3606  152.3741 N   0  0  0  0  0  0  0  0  0  0  0  0
  146.5915  138.7385  152.8348 C   0  0  2  0  0  0  0  0  0  0  0  0
  146.7735  139.6902  151.6446 C   0  0  0  0  0  0  0  0  0  0  0  0
  147.5776  139.0650  153.9742 C   0  0  0  0  0  0  0  0  0  0  0  0
  147.2638  140.3620  154.6993 C   0  0  0  0  0  0  0  0  0  0  0  0
  146.9699  141.6284  153.9318 C   0  0  0  0  0  0  0  0  0  0  0  0
  148.2559  141.5002  154.7155 C   0  0  0  0  0  0  0  0  0  0  0  0
  144.2509  134.0442  151.1343 N   0  0  0  0  0  0  0  0  0  0  0  0
  143.7084  132.8493  150.8923 C   0  0  0  0  0  0  0  0  0  0  0  0
  144.3190  131.6669  150.9774 N   0  0  0  0  0  0  0  0  0  0  0  0
  146.2340  128.4352  151.6170 H   0  0  0  0  0  0  0  0  0  0  0  0
  144.9305  129.1347  150.6625 H   0  0  0  0  0  0  0  0  0  0  0  0
  144.9214  129.2758  152.4349 H   0  0  0  0  0  0  0  0  0  0  0  0
  147.3309  132.8889  151.9243 H   0  0  0  0  0  0  0  0  0  0  0  0
  147.2596  135.2482  151.6045 H   0  0  0  0  0  0  0  0  0  0  0  0
  147.6964  137.0861  152.1166 H   0  0  0  0  0  0  0  0  0  0  0  0
  145.5774  138.8846  153.2111 H   0  0  0  0  0  0  0  0  0  0  0  0
  146.6309  140.7278  151.9474 H   0  0  0  0  0  0  0  0  0  0  0  0
  146.0505  139.4765  150.8568 H   0  0  0  0  0  0  0  0  0  0  0  0
  147.7719  139.6035  151.2144 H   0  0  0  0  0  0  0  0  0  0  0  0
  147.5910  138.2556  154.7051 H   0  0  0  0  0  0  0  0  0  0  0  0
  148.5883  139.1290  153.5688 H   0  0  0  0  0  0  0  0  0  0  0  0
  146.6968  140.2251  155.6181 H   0  0  0  0  0  0  0  0  0  0  0  0
  147.0363  141.5895  152.8461 H   0  0  0  0  0  0  0  0  0  0  0  0
  146.1987  142.2852  154.3288 H   0  0  0  0  0  0  0  0  0  0  0  0
  148.3445  142.0764  155.6342 H   0  0  0  0  0  0  0  0  0  0  0  0
  149.1776  141.3809  154.1494 H   0  0  0  0  0  0  0  0  0  0  0  0
  142.6702  132.8388  150.5959 H   0  0  0  0  0  0  0  0  0  0  0  0
  1  2  1  0  0  0  0
  1 19  1  0  0  0  0
  1 20  1  0  0  0  0
  1 21  1  0  0  0  0
  2  3  1  0  0  0  0
  3 18  1  0  0  0  0
  3  4  2  0  0  0  0
  4  5  1  0  0  0  0
  4 22  1  0  0  0  0
  5  6  1  0  0  0  0
  5 16  2  0  0  0  0
  6  7  1  0  0  0  0
  6 23  1  0  0  0  0
  7  8  2  0  0  0  0
  7  9  1  0  0  0  0
  9 10  1  0  0  0  0
  9 24  1  0  0  0  0
 10 11  1  0  0  0  0
 10 12  1  0  0  0  0
 10 25  1  0  0  0  0
 11 26  1  0  0  0  0
 11 27  1  0  0  0  0
 11 28  1  0  0  0  0
 12 13  1  0  0  0  0
 12 29  1  0  0  0  0
 12 30  1  0  0  0  0
 13 15  1  0  0  0  0
 13 14  1  0  0  0  0
 13 31  1  0  0  0  0
 14 15  1  0  0  0  0
 14 32  1  0  0  0  0
 14 33  1  0  0  0  0
 15 34  1  0  0  0  0
 15 35  1  0  0  0  0
 16 17  1  0  0  0  0
 17 18  2  0  0  0  0
 17 36  1  0  0  0  0
M  END
> <s_m_source_file>
AV-unprocessed.smi

> <i_m_source_file_index>
2406

> <i_lp_mmshare_version>
43012

> <i_f3d_flags>
0

> <s_epik_input>
W0NIM11PYzFbY0hdYyhuW2NIXW4xKVtOSF1DKD1PKVtOSF1bQ0BIXShbQ0gzXSlbQ0gyXVtDSF0yW0NIMl1bQ0gyXTI=

> <s_epik_cmdline>
J2VwaWtfcHl0aG9uJywgJy1waCcsICc3LjAnLCAnLXRuJywgJzgnLCAnLW1hJywgJzIwMCcsICctbWV0YWxfYmluZGluZycsICctaW1hZScsICc8aW5maWxlLm1hZT4nLCAnLW9tYWUnLCAnPG91dGZpbGUubWFlPic=

> <r_lp_tautomer_probability>
1

> <r_epik_Ionization_Penalty>
2.82876e-05

> <r_epik_Ionization_Penalty_Charging>
0

> <r_epik_Ionization_Penalty_Neutral>
2.82876e-05

> <r_epik_State_Penalty>
-0

> <r_epik_Charging_Adjusted_Penalty>
0

> <i_epik_Tot_Q>
0

> <i_epik_Tot_abs_Q>
0

> <r_epik_Metal_State_Penalty>
-0

> <b_epik_Metal_Only>
0

> <s_lp_Force_Field>
OPLS_2005

> <r_lp_Energy>
11.282

> <b_lp_Chiralities_Consistent>
1

> <s_lp_Variant>
AV-unprocessed.smi:2406-1

> <Gold.Version>
5.8.1

> <Gold.Id.Protein>
6NUR|6NUR_protein|mol2

> <Gold.PLP.Fitness>
38.2436

> <Gold.PLP.PLP>
-30.8786

> <Gold.PLP.part.hbond>
-1.9522

> <Gold.PLP.part.metal>
0.0000

> <Gold.PLP.part.buried>
-4.6392

> <Gold.PLP.part.nonpolar>
-25.7162

> <Gold.PLP.part.repulsive>
1.2955

> <Gold.PLP.ligand.clash>
0.0000

> <Gold.PLP.ligand.torsion>
0.9729

> <Gold.PLP.Chemscore.Hbond>
1.9120

> <Gold.PLP.Chemscore.CHOScore>
1.0000

> <Gold.PLP.Chemscore.Metal>
0.0000

> <Gold.Chemscore.Hbonds>
donor molecule, donor type, donor heavy atom, donor atom, acceptor molecule, acceptor atom, score
      L1  H     6    23       P1  7948  0.90
      L1  H     9    24       P1  7948  0.99
      L1  C    17    36       P1 10186  1.00

> <Gold.PLP.Chemscore.Internal.Correction>
0.5749

> <Gold.Rescore>
     Score         DG    S(hbond)    S(metal)    S(lipo)     H(rot)  DE(clash)    DE(int)     intcor
     11.44     -14.17       1.89        0.00      60.65       1.85       0.70       2.02       ----

> <Gold.Chemscore.Fitness>
11.4445

> <Gold.Chemscore.DG>
-14.1674

> <Gold.Chemscore.ZeroCoef>
-5.4800

> <Gold.Chemscore.Hbond>
1.8913

> <Gold.Chemscore.Metal>
0.0000

> <Gold.Chemscore.Lipo>
60.6466

> <Gold.Chemscore.Internal_Hbond>
0.0000

> <Gold.Chemscore.DEClash>
0.6983

> <Gold.Chemscore.DEInternal>
2.0246

> <Gold.Chemscore.Rot>
1.8458

> <Gold.Chemscore.Internal.Correction>
   9.000000E+99

> <Gold.Chemscore.Hbonds>
donor molecule, donor type, donor heavy atom, donor atom, acceptor molecule, acceptor atom, score
      L1  H     6    23       P1  7948  0.81
      L1  H     9    24       P1  7948  0.92

> <Gold.Chemscore.Hbond.Weighted>
-6.3171

> <Gold.Chemscore.Metal.Weighted>
-0.0000

> <Gold.Chemscore.Lipo.Weighted>
-7.0956

> <Gold.Chemscore.Internal_Hbond.Weighted>
0.0000

> <Gold.Chemscore.DEClash.Weighted>
0.6983

> <Gold.Chemscore.DEInternal.Weighted>
2.0246

> <Gold.Chemscore.Rot.Weighted>
4.7254

> <Gold.Chemscore.Internal.Correction.Weighted>
   9.000000E+99

> <Gold.Protein.RotatedTorsions>
[ 6907 6896 6895 6894 ] final  -63.11 input  -60.11 | X-H torsion
[ 7974 7965 7964 7962 ] final  174.28 input  175.53 | X-H torsion
[ 8008 7997 7996 7995 ] final  -38.17 input   59.86 | X-H torsion
[ 10167 10162 10161 10158 ] final   46.21 input  -65.29 | X-H torsion
[ 10718 10713 10712 10709 ] final -138.28 input   66.30 | X-H torsion
[ 10763 10752 10751 10750 ] final -126.39 input  -60.55 | X-H torsion
[ 11005 11000 10999 10996 ] final  -17.66 input  -57.11 | X-H torsion

> <Gold.Protein.ActiveResidues>
 VAL166  LYS551  ARG553  GLY616  TRP617  ASP618  TYR619  PRO620  LYS621  CYS622 
 ASP623  PHE694  ASN695  SER759  ASP760  ASP761  ALA762  ILE779  LEU786  VAL792 
 PHE793  MET794  SER795  GLU796  ALA797  LYS798  CYS799  TRP800  GLU811  SER814 

> <Gold.Protein.RotatedAtoms>
  150.7671  134.6479  159.6272 H   0  0  0  0  0  0  0  0  0  0  0  0  # atno 6907 bound_to 6896
  152.3707  134.6735  160.0186 H   0  0  0  0  0  0  0  0  0  0  0  0  # atno 6908 bound_to 6896
  151.7096  133.3276  159.3323 H   0  0  0  0  0  0  0  0  0  0  0  0  # atno 6909 bound_to 6896
  144.7225  139.9773  143.6438 H   0  0  0  0  0  0  0  0  0  0  0  0  # atno 7974 bound_to 7965
  154.4041  140.1585  156.2656 H   0  0  0  0  0  0  0  0  0  0  0  0  # atno 8008 bound_to 7997
  155.8998  140.3434  155.5996 H   0  0  0  0  0  0  0  0  0  0  0  0  # atno 8009 bound_to 7997
  155.7461  140.0799  157.2214 H   0  0  0  0  0  0  0  0  0  0  0  0  # atno 8010 bound_to 7997
  140.3162  144.2760  150.6190 H   0  0  0  0  0  0  0  0  0  0  0  0  # atno 10167 bound_to 10162
  156.2975  130.7410  151.1453 H   0  0  0  0  0  0  0  0  0  0  0  0  # atno 10718 bound_to 10713
  154.8745  135.3997  154.3423 H   0  0  0  0  0  0  0  0  0  0  0  0  # atno 10763 bound_to 10752
  153.4220  135.7023  153.6293 H   0  0  0  0  0  0  0  0  0  0  0  0  # atno 10764 bound_to 10752
  153.4951  135.3740  155.2481 H   0  0  0  0  0  0  0  0  0  0  0  0  # atno 10765 bound_to 10752
  140.8190  133.8082  155.9640 H   0  0  0  0  0  0  0  0  0  0  0  0  # atno 11005 bound_to 11000
  146.0515  139.3516  143.0636 LP  0  0  0  0  0  0  0  0  0  0  0  0  # atno 17320 bound_to 7965
  145.8208  140.9680  143.0900 LP  0  0  0  0  0  0  0  0  0  0  0  0  # atno 17321 bound_to 7965
  140.5524  143.2204  151.7905 LP  0  0  0  0  0  0  0  0  0  0  0  0  # atno 17342 bound_to 10162
  139.4883  144.4459  151.9711 LP  0  0  0  0  0  0  0  0  0  0  0  0  # atno 17343 bound_to 10162
  157.7359  131.0567  150.5442 LP  0  0  0  0  0  0  0  0  0  0  0  0  # atno 17370 bound_to 10713
  156.5566  130.4245  149.6082 LP  0  0  0  0  0  0  0  0  0  0  0  0  # atno 17371 bound_to 10713
  140.9118  134.2250  157.4981 LP  0  0  0  0  0  0  0  0  0  0  0  0  # atno 17394 bound_to 11000
  139.8709  134.9754  156.4880 LP  0  0  0  0  0  0  0  0  0  0  0  0  # atno 17395 bound_to 11000

$$$$
