AV-unprocessed.smi:2353|AV-procd|sdf|9382|dock5
  -GOLD-   2272013 13D 1   1.00000     0.00000
 Structure written by MMmdl.
 46 48  0  0  0  0  0  0  0  0  2 V2000
  151.3364  144.9740  158.5837 C   0  0  0  0  0  0  0  0  0  0  0  0
  151.9174  143.6789  159.1128 C   0  0  0  0  0  0  0  0  0  0  0  0
  152.4076  143.6055  160.4309 C   0  0  0  0  0  0  0  0  0  0  0  0
  152.9402  142.3974  160.9154 C   0  0  0  0  0  0  0  0  0  0  0  0
  152.9875  141.2572  160.0868 C   0  0  0  0  0  0  0  0  0  0  0  0
  153.5679  139.9630  160.6256 C   0  0  0  0  0  0  0  0  0  0  0  0
  152.5010  141.3176  158.7602 C   0  0  0  0  0  0  0  0  0  0  0  0
  152.5791  140.1670  158.0026 O   0  0  0  0  0  0  0  0  0  0  0  0
  151.8394  140.0982  156.7910 C   0  0  0  0  0  0  0  0  0  0  0  0
  152.2776  138.8441  156.0163 C   0  0  2  0  0  0  0  0  0  0  0  0
  151.9135  139.0392  154.6629 O   0  0  0  0  0  0  0  0  0  0  0  0
  151.5560  137.5746  156.5209 C   0  0  0  0  0  0  0  0  0  0  0  0
  150.1146  137.7937  156.6908 N   0  0  0  0  0  0  0  0  0  0  0  0
  149.5210  138.4675  155.6382 N   0  0  0  0  0  0  0  0  0  0  0  0
  148.2507  138.7156  155.6402 C   0  0  0  0  0  0  0  0  0  0  0  0
  147.5767  139.4100  154.5559 N   0  0  0  0  0  0  0  0  0  0  0  0
  148.0968  140.0860  153.4782 C   0  0  0  0  0  0  0  0  0  0  0  0
  147.0224  140.5527  152.7646 C   0  0  0  0  0  0  0  0  0  0  0  0
  145.8987  140.1440  153.4334 N   0  3  0  0  0  0  0  0  0  0  0  0
  146.2348  139.4482  154.5252 C   0  0  0  0  0  0  0  0  0  0  0  0
  147.4327  138.2916  156.7661 C   0  0  0  0  0  0  0  0  0  0  0  0
  148.0213  137.6347  157.7888 C   0  0  0  0  0  0  0  0  0  0  0  0
  149.4528  137.3380  157.7953 C   0  0  0  0  0  0  0  0  0  0  0  0
  150.0112  136.7296  158.7076 O   0  0  0  0  0  0  0  0  0  0  0  0
  151.9638  142.5405  158.2830 C   0  0  0  0  0  0  0  0  0  0  0  0
  151.5286  145.8036  159.2650 H   0  0  0  0  0  0  0  0  0  0  0  0
  150.2579  144.8784  158.4575 H   0  0  0  0  0  0  0  0  0  0  0  0
  151.7752  145.2209  157.6167 H   0  0  0  0  0  0  0  0  0  0  0  0
  152.3765  144.4724  161.0747 H   0  0  0  0  0  0  0  0  0  0  0  0
  153.3133  142.3500  161.9281 H   0  0  0  0  0  0  0  0  0  0  0  0
  154.4522  139.6800  160.0539 H   0  0  0  0  0  0  0  0  0  0  0  0
  152.8365  139.1580  160.5488 H   0  0  0  0  0  0  0  0  0  0  0  0
  153.8566  140.0593  161.6726 H   0  0  0  0  0  0  0  0  0  0  0  0
  150.7810  140.0168  157.0433 H   0  0  0  0  0  0  0  0  0  0  0  0
  151.9712  140.9961  156.1842 H   0  0  0  0  0  0  0  0  0  0  0  0
  153.3589  138.7264  156.0989 H   0  0  0  0  0  0  0  0  0  0  0  0
  151.6975  138.2000  154.2863 H   0  0  0  0  0  0  0  0  0  0  0  0
  151.7016  136.7574  155.8120 H   0  0  0  0  0  0  0  0  0  0  0  0
  152.0078  137.2188  157.4491 H   0  0  0  0  0  0  0  0  0  0  0  0
  149.1544  140.1915  153.2888 H   0  0  0  0  0  0  0  0  0  0  0  0
  146.9749  141.1309  151.8532 H   0  0  0  0  0  0  0  0  0  0  0  0
  145.5486  139.0123  155.2304 H   0  0  0  0  0  0  0  0  0  0  0  0
  146.3729  138.4889  156.8009 H   0  0  0  0  0  0  0  0  0  0  0  0
  147.4188  137.3169  158.6272 H   0  0  0  0  0  0  0  0  0  0  0  0
  151.5775  142.6301  157.2790 H   0  0  0  0  0  0  0  0  0  0  0  0
  144.9481  140.3402  153.1452 H   0  0  0  0  0  0  0  0  0  0  0  0
  1  2  1  0  0  0  0
  1 26  1  0  0  0  0
  1 27  1  0  0  0  0
  1 28  1  0  0  0  0
  2 25  1  0  0  0  0
  2  3  2  0  0  0  0
  3  4  1  0  0  0  0
  3 29  1  0  0  0  0
  4  5  2  0  0  0  0
  4 30  1  0  0  0  0
  5  6  1  0  0  0  0
  5  7  1  0  0  0  0
  6 31  1  0  0  0  0
  6 32  1  0  0  0  0
  6 33  1  0  0  0  0
  7  8  1  0  0  0  0
  7 25  2  0  0  0  0
  8  9  1  0  0  0  0
  9 10  1  0  0  0  0
  9 34  1  0  0  0  0
  9 35  1  0  0  0  0
 10 11  1  0  0  0  0
 10 12  1  0  0  0  0
 10 36  1  0  0  0  0
 11 37  1  0  0  0  0
 12 13  1  0  0  0  0
 12 38  1  0  0  0  0
 12 39  1  0  0  0  0
 13 23  1  0  0  0  0
 13 14  1  0  0  0  0
 14 15  2  0  0  0  0
 15 16  1  0  0  0  0
 15 21  1  0  0  0  0
 16 20  1  0  0  0  0
 16 17  1  0  0  0  0
 17 18  2  0  0  0  0
 17 40  1  0  0  0  0
 18 19  1  0  0  0  0
 18 41  1  0  0  0  0
 19 20  2  0  0  0  0
 19 46  1  0  0  0  0
 20 42  1  0  0  0  0
 21 22  2  0  0  0  0
 21 43  1  0  0  0  0
 22 23  1  0  0  0  0
 22 44  1  0  0  0  0
 23 24  2  0  0  0  0
 25 45  1  0  0  0  0
M  CHG  1  19   1
M  END
> <s_m_source_file>
AV-unprocessed.smi

> <i_m_source_file_index>
2353

> <i_lp_mmshare_version>
43012

> <i_f3d_flags>
0

> <s_epik_input>
W0NIM11jMVtjSF1bY0hdYyhbQ0gzXSljKFtjSF0xKU9bQ0gyXVtDQEhdKFtPSF0pW0NIMl1uMm5jKFtjSF1bY0hdYzI9TyktbjNbY0hdW2NIXW5bY0hdMw==

> <s_epik_cmdline>
J2VwaWtfcHl0aG9uJywgJy1waCcsICc3LjAnLCAnLXRuJywgJzgnLCAnLW1hJywgJzIwMCcsICctbWV0YWxfYmluZGluZycsICctaW1hZScsICc8aW5maWxlLm1hZT4nLCAnLW9tYWUnLCAnPG91dGZpbGUubWFlPic=

> <r_lp_tautomer_probability>
1

> <r_epik_Ionization_Penalty>
1.66053

> <r_epik_Ionization_Penalty_Charging>
2.43903e-09

> <r_epik_Ionization_Penalty_Neutral>
1.66053

> <r_epik_State_Penalty>
1.76336

> <r_epik_Charging_Adjusted_Penalty>
1.76336

> <i_epik_Tot_Q>
1

> <i_epik_Tot_abs_Q>
1

> <r_epik_Metal_State_Penalty>
1.79856

> <b_epik_Metal_Only>
0

> <s_lp_Force_Field>
OPLS_2005

> <r_lp_Energy>
37.6947

> <b_lp_Chiralities_Consistent>
1

> <s_lp_Variant>
AV-unprocessed.smi:2353-3

> <Gold.Version>
5.8.1

> <Gold.Id.Protein>
6NUR|6NUR_protein|mol2

> <Gold.PLP.Fitness>
54.1758

> <Gold.PLP.PLP>
-40.1807

> <Gold.PLP.part.hbond>
-4.0000

> <Gold.PLP.part.metal>
0.0000

> <Gold.PLP.part.buried>
-2.7982

> <Gold.PLP.part.nonpolar>
-33.0933

> <Gold.PLP.part.repulsive>
0.0205

> <Gold.PLP.ligand.clash>
0.0000

> <Gold.PLP.ligand.torsion>
0.7355

> <Gold.PLP.Chemscore.Hbond>
4.4582

> <Gold.PLP.Chemscore.CHOScore>
0.6738

> <Gold.PLP.Chemscore.Metal>
0.0000

> <Gold.Chemscore.Hbonds>
donor molecule, donor type, donor heavy atom, donor atom, acceptor molecule, acceptor atom, score
      L1  H    19    46       P1 10175  1.53
      P1  H  6896  6909       L1    24  0.37
      P1  H  7989  7998       L1    11  0.62
      P1  H  7997  8009       L1     8  0.33
      L1  C    17    40       P1  7957  0.63

> <Gold.PLP.Chemscore.Internal.Correction>
0.0700

> <Gold.Rescore>
     Score         DG    S(hbond)    S(metal)    S(lipo)     H(rot)  DE(clash)    DE(int)     intcor
     18.13     -20.66       2.42        0.00     118.74       2.65       0.10       2.43       ----

> <Gold.Chemscore.Fitness>
18.1329

> <Gold.Chemscore.DG>
-20.6573

> <Gold.Chemscore.ZeroCoef>
-5.4800

> <Gold.Chemscore.Hbond>
2.4188

> <Gold.Chemscore.Metal>
0.0000

> <Gold.Chemscore.Lipo>
118.7366

> <Gold.Chemscore.Internal_Hbond>
0.0000

> <Gold.Chemscore.DEClash>
0.0972

> <Gold.Chemscore.DEInternal>
2.4272

> <Gold.Chemscore.Rot>
2.6537

> <Gold.Chemscore.Internal.Correction>
   9.000000E+99

> <Gold.Chemscore.Hbonds>
donor molecule, donor type, donor heavy atom, donor atom, acceptor molecule, acceptor atom, score
      L1  H    19    46       P1 10175  0.76
      P1  H  6896  6909       L1    24  0.36
      P1  H  7989  7998       L1    11  0.58
      P1  H  7997  8009       L1     8  0.04

> <Gold.Chemscore.Hbond.Weighted>
-8.0787

> <Gold.Chemscore.Metal.Weighted>
-0.0000

> <Gold.Chemscore.Lipo.Weighted>
-13.8922

> <Gold.Chemscore.Internal_Hbond.Weighted>
0.0000

> <Gold.Chemscore.DEClash.Weighted>
0.0972

> <Gold.Chemscore.DEInternal.Weighted>
2.4272

> <Gold.Chemscore.Rot.Weighted>
6.7935

> <Gold.Chemscore.Internal.Correction.Weighted>
   9.000000E+99

> <Gold.Protein.RotatedTorsions>
[ 6907 6896 6895 6894 ] final   90.82 input  -60.11 | X-H torsion
[ 7974 7965 7964 7962 ] final -147.04 input  175.53 | X-H torsion
[ 8008 7997 7996 7995 ] final  150.53 input   59.86 | X-H torsion
[ 10167 10162 10161 10158 ] final  -78.39 input  -65.29 | X-H torsion
[ 10718 10713 10712 10709 ] final  -62.89 input   66.30 | X-H torsion
[ 10763 10752 10751 10750 ] final  -55.71 input  -60.55 | X-H torsion
[ 11005 11000 10999 10996 ] final -152.58 input  -57.11 | X-H torsion

> <Gold.Protein.ActiveResidues>
 VAL166  LYS551  ARG553  GLY616  TRP617  ASP618  TYR619  PRO620  LYS621  CYS622 
 ASP623  PHE694  ASN695  SER759  ASP760  ASP761  ALA762  ILE779  LEU786  VAL792 
 PHE793  MET794  SER795  GLU796  ALA797  LYS798  CYS799  TRP800  GLU811  SER814 

> <Gold.Protein.RotatedAtoms>
  152.5447  134.1752  159.8612 H   0  0  0  0  0  0  0  0  0  0  0  0  # atno 6907 bound_to 6896
  151.1759  133.4748  159.2601 H   0  0  0  0  0  0  0  0  0  0  0  0  # atno 6908 bound_to 6896
  151.1227  135.0100  159.8601 H   0  0  0  0  0  0  0  0  0  0  0  0  # atno 6909 bound_to 6896
  144.8119  140.5379  143.5636 H   0  0  0  0  0  0  0  0  0  0  0  0  # atno 7974 bound_to 7965
  156.2712  140.2072  156.6032 H   0  0  0  0  0  0  0  0  0  0  0  0  # atno 8008 bound_to 7997
  154.6890  140.0532  157.0367 H   0  0  0  0  0  0  0  0  0  0  0  0  # atno 8009 bound_to 7997
  155.0893  140.3195  155.4581 H   0  0  0  0  0  0  0  0  0  0  0  0  # atno 8010 bound_to 7997
  140.4686  143.2433  151.8239 H   0  0  0  0  0  0  0  0  0  0  0  0  # atno 10167 bound_to 10162
  156.0826  130.4214  150.1199 H   0  0  0  0  0  0  0  0  0  0  0  0  # atno 10718 bound_to 10713
  154.1951  135.6420  153.5071 H   0  0  0  0  0  0  0  0  0  0  0  0  # atno 10763 bound_to 10752
  153.0025  135.5438  154.6375 H   0  0  0  0  0  0  0  0  0  0  0  0  # atno 10764 bound_to 10752
  154.5773  135.2922  155.0741 H   0  0  0  0  0  0  0  0  0  0  0  0  # atno 10765 bound_to 10752
  140.7174  134.3766  157.5189 H   0  0  0  0  0  0  0  0  0  0  0  0  # atno 11005 bound_to 11000
  145.5303  139.1475  143.3503 LP  0  0  0  0  0  0  0  0  0  0  0  0  # atno 17320 bound_to 7965
  146.2419  140.5443  142.8930 LP  0  0  0  0  0  0  0  0  0  0  0  0  # atno 17321 bound_to 7965
  139.4815  144.4919  151.9173 LP  0  0  0  0  0  0  0  0  0  0  0  0  # atno 17342 bound_to 10162
  140.4005  144.2500  150.5893 LP  0  0  0  0  0  0  0  0  0  0  0  0  # atno 17343 bound_to 10162
  156.9227  130.9688  151.3546 LP  0  0  0  0  0  0  0  0  0  0  0  0  # atno 17370 bound_to 10713
  157.5949  130.8470  149.8714 LP  0  0  0  0  0  0  0  0  0  0  0  0  # atno 17371 bound_to 10713
  139.8856  134.8931  156.2630 LP  0  0  0  0  0  0  0  0  0  0  0  0  # atno 17394 bound_to 11000
  141.0033  133.7138  156.0995 LP  0  0  0  0  0  0  0  0  0  0  0  0  # atno 17395 bound_to 11000

$$$$
