AV-unprocessed.smi:1514|AV-procd|sdf|6114|dock5
  -GOLD-   22720 6243D 1   1.00000     0.00000
 Structure written by MMmdl.
 48 49  0  0  0  0  0  0  0  0  2 V2000
  145.4298  131.0254  151.6101 C   0  0  0  0  0  0  0  0  0  0  0  0
  145.8932  132.3711  151.0331 C   0  0  0  0  0  0  0  0  0  0  0  0
  145.1157  133.5200  151.5614 N   0  3  0  0  0  0  0  0  0  0  0  0
  145.3117  134.7770  150.7960 C   0  0  0  0  0  0  0  0  0  0  0  0
  144.4251  135.9044  151.3672 C   0  0  0  0  0  0  0  0  0  0  0  0
  144.6913  136.1522  152.7861 N   0  0  0  0  0  0  0  0  0  0  0  0
  145.9882  136.8015  153.0049 C   0  0  0  0  0  0  0  0  0  0  0  0
  146.1921  138.0507  152.1283 C   0  0  0  0  0  0  0  0  0  0  0  0
  147.4766  138.6839  152.3990 N   0  0  0  0  0  0  0  0  0  0  0  0
  147.8599  139.1306  153.6023 C   0  0  0  0  0  0  0  0  0  0  0  0
  147.1561  139.0464  154.6089 O   0  0  0  0  0  0  0  0  0  0  0  0
  149.0900  139.6706  153.5505 N   0  0  0  0  0  0  0  0  0  0  0  0
  149.8202  140.2199  154.5570 C   0  0  0  0  0  0  0  0  0  0  0  0
  149.6111  141.3908  155.2330 C   0  0  0  0  0  0  0  0  0  0  0  0
  150.6964  141.4176  156.1565 C   0  0  0  0  0  0  0  0  0  0  0  0
  151.0102  142.4669  157.1818 C   0  0  0  0  0  0  0  0  0  0  0  0
  151.4889  140.3570  156.0475 N   0  0  0  0  0  0  0  0  0  0  0  0
  150.9495  139.6119  155.0583 N   0  0  0  0  0  0  0  0  0  0  0  0
  151.5720  138.3619  154.6679 C   0  0  0  0  0  0  0  0  0  0  0  0
  144.4839  134.9051  153.5303 C   0  0  0  0  0  0  0  0  0  0  0  0
  145.3704  133.7573  153.0031 C   0  0  0  0  0  0  0  0  0  0  0  0
  146.0853  130.2206  151.2765 H   0  0  0  0  0  0  0  0  0  0  0  0
  144.4197  130.7688  151.2920 H   0  0  0  0  0  0  0  0  0  0  0  0
  145.4494  131.0346  152.7001 H   0  0  0  0  0  0  0  0  0  0  0  0
  146.9431  132.5031  151.2983 H   0  0  0  0  0  0  0  0  0  0  0  0
  145.8484  132.3580  149.9432 H   0  0  0  0  0  0  0  0  0  0  0  0
  146.3645  135.0622  150.8051 H   0  0  0  0  0  0  0  0  0  0  0  0
  145.0424  134.6226  149.7519 H   0  0  0  0  0  0  0  0  0  0  0  0
  144.5679  136.8247  150.7991 H   0  0  0  0  0  0  0  0  0  0  0  0
  143.3742  135.6349  151.2522 H   0  0  0  0  0  0  0  0  0  0  0  0
  146.1246  137.0635  154.0533 H   0  0  0  0  0  0  0  0  0  0  0  0
  146.7775  136.0873  152.7655 H   0  0  0  0  0  0  0  0  0  0  0  0
  146.1092  137.8109  151.0681 H   0  0  0  0  0  0  0  0  0  0  0  0
  145.3979  138.7675  152.3422 H   0  0  0  0  0  0  0  0  0  0  0  0
  148.1076  138.7938  151.6186 H   0  0  0  0  0  0  0  0  0  0  0  0
  149.5389  139.6682  152.6467 H   0  0  0  0  0  0  0  0  0  0  0  0
  148.8238  142.1184  155.1057 H   0  0  0  0  0  0  0  0  0  0  0  0
  150.3513  143.3291  157.0774 H   0  0  0  0  0  0  0  0  0  0  0  0
  152.0366  142.8213  157.0819 H   0  0  0  0  0  0  0  0  0  0  0  0
  150.8881  142.0761  158.1922 H   0  0  0  0  0  0  0  0  0  0  0  0
  151.9629  138.4497  153.6541 H   0  0  0  0  0  0  0  0  0  0  0  0
  150.8346  137.5594  154.6977 H   0  0  0  0  0  0  0  0  0  0  0  0
  152.3913  138.1126  155.3438 H   0  0  0  0  0  0  0  0  0  0  0  0
  144.6540  135.0596  154.5951 H   0  0  0  0  0  0  0  0  0  0  0  0
  143.4347  134.6210  153.4373 H   0  0  0  0  0  0  0  0  0  0  0  0
  145.1421  132.8500  153.5637 H   0  0  0  0  0  0  0  0  0  0  0  0
  146.4279  133.9659  153.1699 H   0  0  0  0  0  0  0  0  0  0  0  0
  144.1392  133.2740  151.4827 H   0  0  0  0  0  0  0  0  0  0  0  0
  1  2  1  0  0  0  0
  1 22  1  0  0  0  0
  1 23  1  0  0  0  0
  1 24  1  0  0  0  0
  2  3  1  0  0  0  0
  2 25  1  0  0  0  0
  2 26  1  0  0  0  0
  3 21  1  0  0  0  0
  3  4  1  0  0  0  0
  3 48  1  0  0  0  0
  4  5  1  0  0  0  0
  4 27  1  0  0  0  0
  4 28  1  0  0  0  0
  5  6  1  0  0  0  0
  5 29  1  0  0  0  0
  5 30  1  0  0  0  0
  6  7  1  0  0  0  0
  6 20  1  0  0  0  0
  7  8  1  0  0  0  0
  7 31  1  0  0  0  0
  7 32  1  0  0  0  0
  8  9  1  0  0  0  0
  8 33  1  0  0  0  0
  8 34  1  0  0  0  0
  9 10  1  0  0  0  0
  9 35  1  0  0  0  0
 10 11  2  0  0  0  0
 10 12  1  0  0  0  0
 12 13  1  0  0  0  0
 12 36  1  0  0  0  0
 13 18  1  0  0  0  0
 13 14  2  0  0  0  0
 14 15  1  0  0  0  0
 14 37  1  0  0  0  0
 15 16  1  0  0  0  0
 15 17  2  0  0  0  0
 16 38  1  0  0  0  0
 16 39  1  0  0  0  0
 16 40  1  0  0  0  0
 17 18  1  0  0  0  0
 18 19  1  0  0  0  0
 19 41  1  0  0  0  0
 19 42  1  0  0  0  0
 19 43  1  0  0  0  0
 20 21  1  0  0  0  0
 20 44  1  0  0  0  0
 20 45  1  0  0  0  0
 21 46  1  0  0  0  0
 21 47  1  0  0  0  0
M  CHG  1   3   1
M  END
> <s_m_source_file>
AV-unprocessed.smi

> <i_m_source_file_index>
1514

> <i_lp_mmshare_version>
43012

> <i_f3d_flags>
0

> <s_epik_input>
W0NIM11bQ0gyXU4xW0NIMl1bQ0gyXU4oW0NIMl1bQ0gyXTEpW0NIMl1bQ0gyXVtOSF1DKD1PKVtOSF1jMltjSF1jKFtDSDNdKW5uMltDSDNd

> <s_epik_cmdline>
J2VwaWtfcHl0aG9uJywgJy1waCcsICc3LjAnLCAnLXRuJywgJzgnLCAnLW1hJywgJzIwMCcsICctbWV0YWxfYmluZGluZycsICctaW1hZScsICc8aW5maWxlLm1hZT4nLCAnLW9tYWUnLCAnPG91dGZpbGUubWFlPic=

> <r_lp_tautomer_probability>
1

> <r_epik_Ionization_Penalty>
0.0527919

> <r_epik_Ionization_Penalty_Charging>
0.052373

> <r_epik_Ionization_Penalty_Neutral>
0.000418955

> <r_epik_State_Penalty>
0.130843

> <r_epik_Charging_Adjusted_Penalty>
0.183216

> <i_epik_Tot_Q>
1

> <i_epik_Tot_abs_Q>
1

> <r_epik_Metal_State_Penalty>
0.130841

> <b_epik_Metal_Only>
0

> <s_lp_Force_Field>
OPLS_2005

> <r_lp_Energy>
24.8956

> <b_lp_Chiralities_Consistent>
1

> <s_lp_Variant>
AV-unprocessed.smi:1514-1

> <Gold.Version>
5.8.1

> <Gold.Id.Protein>
6NUR|6NUR_protein|mol2

> <Gold.PLP.Fitness>
41.7467

> <Gold.PLP.PLP>
-37.9580

> <Gold.PLP.part.hbond>
-2.8179

> <Gold.PLP.part.metal>
0.0000

> <Gold.PLP.part.buried>
-2.4492

> <Gold.PLP.part.nonpolar>
-32.5144

> <Gold.PLP.part.repulsive>
0.4224

> <Gold.PLP.ligand.clash>
0.0000

> <Gold.PLP.ligand.torsion>
0.7538

> <Gold.PLP.Chemscore.Hbond>
1.7520

> <Gold.PLP.Chemscore.CHOScore>
0.0000

> <Gold.PLP.Chemscore.Metal>
0.0000

> <Gold.Chemscore.Hbonds>
donor molecule, donor type, donor heavy atom, donor atom, acceptor molecule, acceptor atom, score
      L1  H     9    35       P1  7957  0.74
      L1  H    12    36       P1  7957  1.00

> <Gold.PLP.Chemscore.Internal.Correction>
0.0403

> <Gold.Rescore>
     Score         DG    S(hbond)    S(metal)    S(lipo)     H(rot)  DE(clash)    DE(int)     intcor
     14.37     -16.41       1.88        0.00      76.61       1.69       0.28       1.75       ----

> <Gold.Chemscore.Fitness>
14.3744

> <Gold.Chemscore.DG>
-16.4076

> <Gold.Chemscore.ZeroCoef>
-5.4800

> <Gold.Chemscore.Hbond>
1.8844

> <Gold.Chemscore.Metal>
0.0000

> <Gold.Chemscore.Lipo>
76.6117

> <Gold.Chemscore.Internal_Hbond>
0.0000

> <Gold.Chemscore.DEClash>
0.2800

> <Gold.Chemscore.DEInternal>
1.7531

> <Gold.Chemscore.Rot>
1.6914

> <Gold.Chemscore.Internal.Correction>
   9.000000E+99

> <Gold.Chemscore.Hbonds>
donor molecule, donor type, donor heavy atom, donor atom, acceptor molecule, acceptor atom, score
      L1  H     9    35       P1  7957  0.51
      L1  H    12    36       P1  7957  0.91

> <Gold.Chemscore.Hbond.Weighted>
-6.2940

> <Gold.Chemscore.Metal.Weighted>
-0.0000

> <Gold.Chemscore.Lipo.Weighted>
-8.9636

> <Gold.Chemscore.Internal_Hbond.Weighted>
0.0000

> <Gold.Chemscore.DEClash.Weighted>
0.2800

> <Gold.Chemscore.DEInternal.Weighted>
1.7531

> <Gold.Chemscore.Rot.Weighted>
4.3299

> <Gold.Chemscore.Internal.Correction.Weighted>
   9.000000E+99

> <Gold.Protein.RotatedTorsions>
[ 6907 6896 6895 6894 ] final  -37.70 input  -60.11 | X-H torsion
[ 7974 7965 7964 7962 ] final  -64.63 input  175.53 | X-H torsion
[ 8008 7997 7996 7995 ] final -143.27 input   59.86 | X-H torsion
[ 10167 10162 10161 10158 ] final   50.19 input  -65.29 | X-H torsion
[ 10718 10713 10712 10709 ] final   72.27 input   66.30 | X-H torsion
[ 10763 10752 10751 10750 ] final  112.57 input  -60.55 | X-H torsion
[ 11005 11000 10999 10996 ] final  123.64 input  -57.11 | X-H torsion

> <Gold.Protein.ActiveResidues>
 VAL166  LYS551  ARG553  GLY616  TRP617  ASP618  TYR619  PRO620  LYS621  CYS622 
 ASP623  PHE694  ASN695  SER759  ASP760  ASP761  ALA762  ILE779  LEU786  VAL792 
 PHE793  MET794  SER795  GLU796  ALA797  LYS798  CYS799  TRP800  GLU811  SER814 

> <Gold.Protein.RotatedAtoms>
  151.0115  134.9400  159.8009 H   0  0  0  0  0  0  0  0  0  0  0  0  # atno 6907 bound_to 6896
  152.5303  134.3022  159.9092 H   0  0  0  0  0  0  0  0  0  0  0  0  # atno 6908 bound_to 6896
  151.3028  133.4073  159.2675 H   0  0  0  0  0  0  0  0  0  0  0  0  # atno 6909 bound_to 6896
  145.7643  140.8845  143.0413 H   0  0  0  0  0  0  0  0  0  0  0  0  # atno 7974 bound_to 7965
  155.5079  140.0581  157.2928 H   0  0  0  0  0  0  0  0  0  0  0  0  # atno 8008 bound_to 7997
  154.4562  140.1974  156.0320 H   0  0  0  0  0  0  0  0  0  0  0  0  # atno 8009 bound_to 7997
  156.0804  140.3248  155.7691 H   0  0  0  0  0  0  0  0  0  0  0  0  # atno 8010 bound_to 7997
  140.2750  144.3222  150.6279 H   0  0  0  0  0  0  0  0  0  0  0  0  # atno 10167 bound_to 10162
  157.6492  130.9570  150.0905 H   0  0  0  0  0  0  0  0  0  0  0  0  # atno 10718 bound_to 10713
  153.4798  135.3682  155.2436 H   0  0  0  0  0  0  0  0  0  0  0  0  # atno 10763 bound_to 10752
  154.8755  135.3951  154.3713 H   0  0  0  0  0  0  0  0  0  0  0  0  # atno 10764 bound_to 10752
  153.4315  135.7082  153.6293 H   0  0  0  0  0  0  0  0  0  0  0  0  # atno 10765 bound_to 10752
  139.9322  134.9641  156.8290 H   0  0  0  0  0  0  0  0  0  0  0  0  # atno 11005 bound_to 11000
  144.6824  139.9767  143.7483 LP  0  0  0  0  0  0  0  0  0  0  0  0  # atno 17320 bound_to 7965
  146.0233  139.3270  143.0800 LP  0  0  0  0  0  0  0  0  0  0  0  0  # atno 17321 bound_to 7965
  140.5859  143.2170  151.7343 LP  0  0  0  0  0  0  0  0  0  0  0  0  # atno 17342 bound_to 10162
  139.4978  144.4012  152.0179 LP  0  0  0  0  0  0  0  0  0  0  0  0  # atno 17343 bound_to 10162
  156.1855  130.3652  149.8978 LP  0  0  0  0  0  0  0  0  0  0  0  0  # atno 17370 bound_to 10713
  156.6920  130.8899  151.3589 LP  0  0  0  0  0  0  0  0  0  0  0  0  # atno 17371 bound_to 10713
  140.6171  134.0028  155.7602 LP  0  0  0  0  0  0  0  0  0  0  0  0  # atno 17394 bound_to 11000
  141.0917  133.9907  157.3227 LP  0  0  0  0  0  0  0  0  0  0  0  0  # atno 17395 bound_to 11000

$$$$
