AV-unprocessed.smi:1473|AV-procd|sdf|5972|dock5
  -GOLD-   22720 6 63D 1   1.00000     0.00000
 Structure written by MMmdl.
 33 34  0  0  0  0  0  0  0  0  4 V2000
  154.2147  136.2852  157.2769 N   0  5  0  0  0  0  0  0  0  0  0  0
  153.6027  137.2948  158.3852 S   0  0  0  0  0  0  0  0  0  0  0  0
  152.4168  136.6848  159.0044 O   0  0  0  0  0  0  0  0  0  0  0  0
  154.6415  137.7482  159.3270 O   0  0  0  0  0  0  0  0  0  0  0  0
  153.1413  138.4545  157.3311 N   0  5  0  0  0  0  0  0  0  0  0  0
  151.8744  138.4096  156.6022 C   0  0  0  0  0  0  0  0  0  0  0  0
  151.2131  139.7773  156.4958 C   0  0  0  0  0  0  0  0  0  0  0  0
  150.3956  140.1013  155.3869 C   0  0  0  0  0  0  0  0  0  0  0  0
  149.8411  141.3934  155.2963 C   0  0  0  0  0  0  0  0  0  0  0  0
  150.0960  142.3059  156.2587 N   0  3  0  0  0  0  0  0  0  0  0  0
  150.8671  142.0449  157.3371 C   0  0  0  0  0  0  0  0  0  0  0  0
  151.0844  143.0918  158.2415 N   0  0  0  0  0  0  0  0  0  0  0  0
  151.9285  144.1587  157.7186 C   0  0  0  0  0  0  0  0  0  0  0  0
  152.1869  145.2058  158.8153 C   0  0  0  0  0  0  0  0  0  0  0  0
  150.9426  145.6965  159.3063 O   0  0  0  0  0  0  0  0  0  0  0  0
  150.1446  144.6628  159.8767 C   0  0  0  0  0  0  0  0  0  0  0  0
  149.8411  143.5953  158.8112 C   0  0  0  0  0  0  0  0  0  0  0  0
  151.4370  140.7609  157.4878 C   0  0  0  0  0  0  0  0  0  0  0  0
  155.0710  135.8662  157.6583 H   0  0  0  0  0  0  0  0  0  0  0  0
  152.0197  138.0364  155.5877 H   0  0  0  0  0  0  0  0  0  0  0  0
  151.1666  137.7161  157.0580 H   0  0  0  0  0  0  0  0  0  0  0  0
  150.2049  139.3851  154.5991 H   0  0  0  0  0  0  0  0  0  0  0  0
  149.2174  141.7260  154.4797 H   0  0  0  0  0  0  0  0  0  0  0  0
  152.8731  143.7425  157.3662 H   0  0  0  0  0  0  0  0  0  0  0  0
  151.4453  144.6352  156.8649 H   0  0  0  0  0  0  0  0  0  0  0  0
  152.7700  144.7789  159.6330 H   0  0  0  0  0  0  0  0  0  0  0  0
  152.7636  146.0385  158.4124 H   0  0  0  0  0  0  0  0  0  0  0  0
  150.6594  144.2226  160.7322 H   0  0  0  0  0  0  0  0  0  0  0  0
  149.2164  145.0950  160.2509 H   0  0  0  0  0  0  0  0  0  0  0  0
  149.2207  144.0236  158.0222 H   0  0  0  0  0  0  0  0  0  0  0  0
  149.2761  142.7738  159.2537 H   0  0  0  0  0  0  0  0  0  0  0  0
  152.0725  140.5542  158.3385 H   0  0  0  0  0  0  0  0  0  0  0  0
  149.6971  143.2394  156.1610 H   0  0  0  0  0  0  0  0  0  0  0  0
  1  2  1  0  0  0  0
  1 19  1  0  0  0  0
  2  3  2  0  0  0  0
  2  4  2  0  0  0  0
  2  5  1  0  0  0  0
  5  6  1  0  0  0  0
  6  7  1  0  0  0  0
  6 20  1  0  0  0  0
  6 21  1  0  0  0  0
  7 18  1  0  0  0  0
  7  8  2  0  0  0  0
  8  9  1  0  0  0  0
  8 22  1  0  0  0  0
  9 10  2  0  0  0  0
  9 23  1  0  0  0  0
 10 11  1  0  0  0  0
 10 33  1  0  0  0  0
 11 12  1  0  0  0  0
 11 18  2  0  0  0  0
 12 17  1  0  0  0  0
 12 13  1  0  0  0  0
 13 14  1  0  0  0  0
 13 24  1  0  0  0  0
 13 25  1  0  0  0  0
 14 15  1  0  0  0  0
 14 26  1  0  0  0  0
 14 27  1  0  0  0  0
 15 16  1  0  0  0  0
 16 17  1  0  0  0  0
 16 28  1  0  0  0  0
 16 29  1  0  0  0  0
 17 30  1  0  0  0  0
 17 31  1  0  0  0  0
 18 32  1  0  0  0  0
M  CHG  1   1  -1
M  CHG  1   5  -1
M  CHG  1  10   1
M  END
> <s_m_source_file>
AV-unprocessed.smi

> <i_m_source_file_index>
1473

> <i_lp_mmshare_version>
43012

> <i_f3d_flags>
0

> <s_epik_input>
W05IMl1TKD1PKSg9TylbTkhdW0NIMl1jMVtjSF1bY0hdbmMoW2NIXTEpTjJbQ0gyXVtDSDJdT1tDSDJdW0NIMl0y

> <s_epik_cmdline>
J2VwaWtfcHl0aG9uJywgJy1waCcsICc3LjAnLCAnLXRuJywgJzgnLCAnLW1hJywgJzIwMCcsICctbWV0YWxfYmluZGluZycsICctaW1hZScsICc8aW5maWxlLm1hZT4nLCAnLW9tYWUnLCAnPG91dGZpbGUubWFlPic=

> <r_epik_Ionization_Penalty>
8.27174

> <r_epik_Ionization_Penalty_Charging>
8.27174

> <r_epik_Ionization_Penalty_Neutral>
3.18726e-12

> <r_epik_State_Penalty>
4.90783

> <r_epik_Charging_Adjusted_Penalty>
13.1796

> <i_epik_Tot_Q>
-1

> <i_epik_Tot_abs_Q>
3

> <r_epik_Metal_State_Penalty>
1.75942

> <b_epik_Metal_Only>
1

> <s_lp_Force_Field>
OPLS_2005

> <r_lp_Energy>
13.3583

> <b_lp_Chiralities_Consistent>
1

> <s_lp_Variant>
AV-unprocessed.smi:1473-7

> <Gold.Version>
5.8.1

> <Gold.Id.Protein>
6NUR|6NUR_protein|mol2

> <Gold.PLP.Fitness>
50.9678

> <Gold.PLP.PLP>
-31.7691

> <Gold.PLP.part.hbond>
-5.3822

> <Gold.PLP.part.metal>
0.0000

> <Gold.PLP.part.buried>
-4.5909

> <Gold.PLP.part.nonpolar>
-23.3161

> <Gold.PLP.part.repulsive>
0.3755

> <Gold.PLP.ligand.clash>
0.0000

> <Gold.PLP.ligand.torsion>
1.1252

> <Gold.PLP.Chemscore.Hbond>
6.7800

> <Gold.PLP.Chemscore.CHOScore>
0.0000

> <Gold.PLP.Chemscore.Metal>
0.0000

> <Gold.Chemscore.Hbonds>
donor molecule, donor type, donor heavy atom, donor atom, acceptor molecule, acceptor atom, score
      L1  H    10    33       P1  8028  2.00
      P1  H  6896  6909       L1     3  0.86
      P1  H  7997  8008       L1     5  1.43
      P1  H 10752 10765       L1     1  1.26

> <Gold.PLP.Chemscore.Internal.Correction>
1.1092

> <Gold.Rescore>
     Score         DG    S(hbond)    S(metal)    S(lipo)     H(rot)  DE(clash)    DE(int)     intcor
     18.60     -19.70       3.21        0.00      71.37       1.89       0.00       1.10       ----

> <Gold.Chemscore.Fitness>
18.5954

> <Gold.Chemscore.DG>
-19.6962

> <Gold.Chemscore.ZeroCoef>
-5.4800

> <Gold.Chemscore.Hbond>
3.2064

> <Gold.Chemscore.Metal>
0.0000

> <Gold.Chemscore.Lipo>
71.3746

> <Gold.Chemscore.Internal_Hbond>
0.0000

> <Gold.Chemscore.DEClash>
0.0004

> <Gold.Chemscore.DEInternal>
1.1004

> <Gold.Chemscore.Rot>
1.8922

> <Gold.Chemscore.Internal.Correction>
   9.000000E+99

> <Gold.Chemscore.Hbonds>
donor molecule, donor type, donor heavy atom, donor atom, acceptor molecule, acceptor atom, score
      L1  H    10    33       P1  8028  1.00
      P1  H  6896  6909       L1     3  0.86
      P1  H  7997  8008       L1     5  0.57
      P1  H 10752 10765       L1     1  0.12

> <Gold.Chemscore.Hbond.Weighted>
-10.7095

> <Gold.Chemscore.Metal.Weighted>
-0.0000

> <Gold.Chemscore.Lipo.Weighted>
-8.3508

> <Gold.Chemscore.Internal_Hbond.Weighted>
0.0000

> <Gold.Chemscore.DEClash.Weighted>
0.0004

> <Gold.Chemscore.DEInternal.Weighted>
1.1004

> <Gold.Chemscore.Rot.Weighted>
4.8441

> <Gold.Chemscore.Internal.Correction.Weighted>
   9.000000E+99

> <Gold.Protein.RotatedTorsions>
[ 6907 6896 6895 6894 ] final  140.04 input  -60.11 | X-H torsion
[ 7974 7965 7964 7962 ] final   98.92 input  175.53 | X-H torsion
[ 8008 7997 7996 7995 ] final  -60.68 input   59.86 | X-H torsion
[ 10167 10162 10161 10158 ] final  120.23 input  -65.29 | X-H torsion
[ 10718 10713 10712 10709 ] final -104.06 input   66.30 | X-H torsion
[ 10763 10752 10751 10750 ] final  -81.20 input  -60.55 | X-H torsion
[ 11005 11000 10999 10996 ] final   50.53 input  -57.11 | X-H torsion

> <Gold.Protein.ActiveResidues>
 VAL166  LYS551  ARG553  GLY616  TRP617  ASP618  TYR619  PRO620  LYS621  CYS622 
 ASP623  PHE694  ASN695  SER759  ASP760  ASP761  ALA762  ILE779  LEU786  VAL792 
 PHE793  MET794  SER795  GLU796  ALA797  LYS798  CYS799  TRP800  GLU811  SER814 

> <Gold.Protein.RotatedAtoms>
  152.2478  133.5189  159.5307 H   0  0  0  0  0  0  0  0  0  0  0  0  # atno 6907 bound_to 6896
  150.7084  134.1001  159.3972 H   0  0  0  0  0  0  0  0  0  0  0  0  # atno 6908 bound_to 6896
  151.8921  135.0412  160.0549 H   0  0  0  0  0  0  0  0  0  0  0  0  # atno 6909 bound_to 6896
  145.4058  139.2341  143.3275 H   0  0  0  0  0  0  0  0  0  0  0  0  # atno 7974 bound_to 7965
  154.4411  140.1034  156.6312 H   0  0  0  0  0  0  0  0  0  0  0  0  # atno 8008 bound_to 7997
  155.5602  140.3487  155.4471 H   0  0  0  0  0  0  0  0  0  0  0  0  # atno 8009 bound_to 7997
  156.0465  140.1294  157.0087 H   0  0  0  0  0  0  0  0  0  0  0  0  # atno 8010 bound_to 7997
  139.5995  144.7052  151.3096 H   0  0  0  0  0  0  0  0  0  0  0  0  # atno 10167 bound_to 10162
  156.0289  130.5497  150.7342 H   0  0  0  0  0  0  0  0  0  0  0  0  # atno 10718 bound_to 10713
  154.5607  135.5634  153.7004 H   0  0  0  0  0  0  0  0  0  0  0  0  # atno 10763 bound_to 10752
  153.0017  135.6273  154.2249 H   0  0  0  0  0  0  0  0  0  0  0  0  # atno 10764 bound_to 10752
  154.2186  135.2870  155.2912 H   0  0  0  0  0  0  0  0  0  0  0  0  # atno 10765 bound_to 10752
  140.1010  134.5082  155.8763 H   0  0  0  0  0  0  0  0  0  0  0  0  # atno 11005 bound_to 11000
  146.2729  140.4762  142.8807 LP  0  0  0  0  0  0  0  0  0  0  0  0  # atno 17320 bound_to 7965
  144.8343  140.6756  143.6271 LP  0  0  0  0  0  0  0  0  0  0  0  0  # atno 17321 bound_to 7965
  140.7239  143.7060  150.7807 LP  0  0  0  0  0  0  0  0  0  0  0  0  # atno 17342 bound_to 10162
  140.0633  143.5133  152.2617 LP  0  0  0  0  0  0  0  0  0  0  0  0  # atno 17343 bound_to 10162
  157.4927  131.0912  151.0408 LP  0  0  0  0  0  0  0  0  0  0  0  0  # atno 17370 bound_to 10713
  157.0810  130.5903  149.5420 LP  0  0  0  0  0  0  0  0  0  0  0  0  # atno 17371 bound_to 10713
  141.2105  133.6696  156.6517 LP  0  0  0  0  0  0  0  0  0  0  0  0  # atno 17394 bound_to 11000
  140.3220  134.7999  157.4260 LP  0  0  0  0  0  0  0  0  0  0  0  0  # atno 17395 bound_to 11000

$$$$
