#       Name:                AV-unprocessed.smi:2698
#       Creating user name   scv26
#       Creation time:       Fri Mar 27 14:45:43 2020


#       File generated by GOLD software.
#

@<TRIPOS>MOLECULE
AV-unprocessed.smi:2698
    40    40     1
SMALL
NO_CHARGES


@<TRIPOS>ATOM
      1 ****        -1.7696   0.8807   2.1930 C.3            1 S1                 0.0000
      2 ****        -2.1990  -0.0047   1.0084 C.3            1 S1                 0.0000
      3 ****        -3.7300  -0.1113   0.9447 C.3            1 S1                 0.0000
      4 ****        -1.5589  -1.4119   1.0330 C.3            1 S1                 0.0000
      5 ****        -0.0352  -1.3841   0.8956 C.2            1 S1                 0.0000
      6 ****         0.6735  -1.3299   1.9006 O.2            1 S1                 0.0000
      7 ****         0.4457  -1.4163  -0.3564 N.am           1 S1                 0.0000
      8 ****         1.8556  -1.3755  -0.7427 C.3            1 S1                 0.0000
      9 ****         2.0806  -0.2018  -1.7218 C.3            1 S1                 0.0000
     10 ****         1.8515   1.1787  -1.1480 C.2            1 S1                 0.0000
     11 ****         1.7295   1.6390   0.1468 C.2            1 S1                 0.0000
     12 ****         1.5365   3.0226   0.1449 N.2            1 S1                 0.0000
     13 ****         1.5620   3.3495  -1.1415 C.2            1 S1                 0.0000
     14 ****         1.7511   2.3028  -1.9492 N.pl3          1 S1                 0.0000
     15 ****         2.2375  -2.7080  -1.4015 C.2            1 S1                 0.0000
     16 ****         1.5648  -3.0813  -2.3889 O.co2          1 S1                 0.0000
     17 ****         3.1997  -3.3333  -0.9048 O.co2          1 S1                -1.0000
     18 ****         1.8042   2.3252  -2.9576 H              1 S1                 0.0000
     19 ****        -2.0229   0.4161   3.1464 H              1 S1                 0.0000
     20 ****        -2.2647   1.8514   2.1546 H              1 S1                 0.0000
     21 ****        -0.6965   1.0710   2.1888 H              1 S1                 0.0000
     22 ****        -1.8760   0.4956   0.0939 H              1 S1                 0.0000
     23 ****        -4.1295  -0.6043   1.8315 H              1 S1                 0.0000
     24 ****        -4.0487  -0.6838   0.0731 H              1 S1                 0.0000
     25 ****        -4.1913   0.8742   0.8752 H              1 S1                 0.0000
     26 ****        -1.8198  -1.9255   1.9595 H              1 S1                 0.0000
     27 ****        -1.9675  -2.0209   0.2251 H              1 S1                 0.0000
     28 ****        -0.2179  -1.4828  -1.1143 H              1 S1                 0.0000
     29 ****         2.4960  -1.2332   0.1300 H              1 S1                 0.0000
     30 ****         3.1023  -0.2296  -2.1033 H              1 S1                 0.0000
     31 ****         1.4284  -0.3157  -2.5895 H              1 S1                 0.0000
     32 ****         1.7649   1.0869   1.0743 H              1 S1                 0.0000
     33 ****         1.4440   4.3617  -1.4991 H              1 S1                 0.0000
     34 ****         0.2535  -1.3040   2.8077 LP             1 S1                 0.0000
     35 ****         1.6692  -1.3118   1.8099 LP             1 S1                 0.0000
     36 ****         1.4086   3.6272   0.9311 LP             1 S1                 0.0000
     37 ****         1.7831  -3.9439  -2.8454 LP             1 S1                 0.0000
     38 ****         0.8091  -2.5171  -2.7212 LP             1 S1                 0.0000
     39 ****         3.4859  -4.2064  -1.2997 LP             1 S1                 0.0000
     40 ****         3.6829  -2.9604  -0.1127 LP             1 S1                 0.0000
@<TRIPOS>BOND
    1    1    2 1     
    2    1   19 1     
    3    1   20 1     
    4    1   21 1     
    5    2    3 1     
    6    2    4 1     
    7    2   22 1     
    8    3   23 1     
    9    3   24 1     
   10    3   25 1     
   11    4    5 1     
   12    4   26 1     
   13    4   27 1     
   14    5    6 2     
   15    5    7 am    
   16    7    8 1     
   17    7   28 1     
   18    8    9 1     
   19    8   15 1     
   20    8   29 1     
   21    9   30 1     
   22    9   31 1     
   23    9   10 1     
   24   10   11 2     
   25   10   14 1     
   26   11   32 1     
   27   11   12 1     
   28   12   13 2     
   29   13   14 1     
   30   13   33 1     
   31   14   18 1     
   32   15   16 ar    
   33   15   17 ar    
   34    6   34 1     
   35    6   35 1     
   36   12   36 1     
   37   16   37 1     
   38   16   38 1     
   39   17   39 1     
   40   17   40 1     
@<TRIPOS>SUBSTRUCTURE
      1 S1             1
@<TRIPOS>SET
LONE_PAIRS      STATIC     ATOMS    <user>   **** ""
7 34 35 36 37 38 39 40
DONOR_HYDROGENS      STATIC     ATOMS    <user>   **** ""
2 28 18
ATOM$BLUE        STATIC     ATOMS    COLORGROUP SYSTEM
7 34 35 36 37 38 39 40
ATOM$RED        STATIC     ATOMS    COLORGROUP SYSTEM
2 28 18
