#       Name:                AV-unprocessed.smi:828
#       Creating user name   scv26
#       Creation time:       Fri Mar 27 01:31:30 2020


#       File generated by GOLD software.
#

@<TRIPOS>MOLECULE
AV-unprocessed.smi:828
    39    40     1
SMALL
NO_CHARGES


@<TRIPOS>ATOM
      1 ****        -5.6101   3.6036  -0.4197 C.3            1 S1                 0.0000
      2 ****        -4.4388   3.0926   0.3469 C.2            1 S1                 0.0000
      3 ****        -3.9211   3.7429   1.3918 N.2            1 S1                 0.0000
      4 ****        -2.8400   3.0703   1.9427 N.2            1 S1                 0.0000
      5 ****        -2.5506   1.9277   1.3044 C.2            1 S1                 0.0000
      6 ****        -1.5415   1.1266   1.6848 N.pl3          1 S1                -1.0000
      7 ****        -0.3540   1.1846   1.0428 C.2            1 S1                 0.0000
      8 ****        -0.0710   1.9126   0.0889 O.2            1 S1                 0.0000
      9 ****         0.5591   0.3332   1.5292 N.am           1 S1                 0.0000
     10 ****         1.9076   0.1277   1.0075 C.3            1 S1                 0.0000
     11 ****         1.9104  -0.6174  -0.3478 C.3            1 S1                 0.0000
     12 ****         3.2956  -0.9479  -0.9014 C.3            1 S1                 0.0000
     13 ****         3.0230  -2.0340  -1.9466 C.3            1 S1                 0.0000
     14 ****         1.6087  -2.5587  -1.6434 C.3            1 S1                 0.0000
     15 ****         1.1614  -1.8979  -0.3965 N.4            1 S1                 1.0000
     16 ****         1.3177  -2.7802   0.7869 C.3            1 S1                 0.0000
     17 ****        -3.6322   1.5832  -0.0454 S.3            1 S1                 0.0000
     18 ****        -5.4768   4.6607  -0.6509 H              1 S1                 0.0000
     19 ****        -6.5205   3.4831   0.1675 H              1 S1                 0.0000
     20 ****        -5.7202   3.0539  -1.3544 H              1 S1                 0.0000
     21 ****         0.2868  -0.2272   2.3238 H              1 S1                 0.0000
     22 ****         2.4098   1.0910   0.9060 H              1 S1                 0.0000
     23 ****         2.4768  -0.4297   1.7517 H              1 S1                 0.0000
     24 ****         1.4272   0.0286  -1.0829 H              1 S1                 0.0000
     25 ****         3.7958  -0.0755  -1.3231 H              1 S1                 0.0000
     26 ****         3.9328  -1.3468  -0.1110 H              1 S1                 0.0000
     27 ****         3.0641  -1.6226  -2.9558 H              1 S1                 0.0000
     28 ****         3.7681  -2.8278  -1.8851 H              1 S1                 0.0000
     29 ****         0.9311  -2.2600  -2.4444 H              1 S1                 0.0000
     30 ****         1.5735  -3.6475  -1.5838 H              1 S1                 0.0000
     31 ****         2.3654  -3.0241   0.9654 H              1 S1                 0.0000
     32 ****         0.7744  -3.7136   0.6362 H              1 S1                 0.0000
     33 ****         0.9119  -2.3238   1.6888 H              1 S1                 0.0000
     34 ****         0.1764  -1.6863  -0.4733 H              1 S1                 0.0000
     35 ****        -4.2718   4.6134   1.7371 LP             1 S1                 0.0000
     36 ****        -2.3290   3.4037   2.7349 LP             1 S1                 0.0000
     37 ****        -1.6692   0.4873   2.4431 LP             1 S1                 0.0000
     38 ****        -0.7559   2.5398  -0.2818 LP             1 S1                 0.0000
     39 ****         0.8434   1.8758  -0.3141 LP             1 S1                 0.0000
@<TRIPOS>BOND
    1    1    2 1     
    2    1   18 1     
    3    1   19 1     
    4    1   20 1     
    5    2   17 1     
    6    2    3 2     
    7    3    4 1     
    8    4    5 2     
    9    5    6 1     
   10    5   17 1     
   11    6    7 1     
   12    7    8 2     
   13    7    9 am    
   14    9   10 1     
   15    9   21 1     
   16   10   11 1     
   17   10   22 1     
   18   10   23 1     
   19   11   15 1     
   20   11   12 1     
   21   11   24 1     
   22   12   13 1     
   23   12   25 1     
   24   12   26 1     
   25   13   14 1     
   26   13   27 1     
   27   13   28 1     
   28   14   15 1     
   29   14   29 1     
   30   14   30 1     
   31   15   16 1     
   32   15   34 1     
   33   16   31 1     
   34   16   32 1     
   35   16   33 1     
   36    3   35 1     
   37    4   36 1     
   38    6   37 1     
   39    8   38 1     
   40    8   39 1     
@<TRIPOS>SUBSTRUCTURE
      1 S1             1
@<TRIPOS>SET
LONE_PAIRS      STATIC     ATOMS    <user>   **** ""
5 35 36 37 38 39
DONOR_HYDROGENS      STATIC     ATOMS    <user>   **** ""
2 21 34
ATOM$BLUE        STATIC     ATOMS    COLORGROUP SYSTEM
5 35 36 37 38 39
ATOM$RED        STATIC     ATOMS    COLORGROUP SYSTEM
2 21 34
