AV-unprocessed.smi:1492|AV-procd|sdf|6044|dock5
  -GOLD-   22720 6153D 1   1.00000     0.00000
 Structure written by MMmdl.
 51 52  0  0  0  0  0  0  0  0  2 V2000
  146.8497  139.2773  153.1120 C   0  0  0  0  0  0  0  0  0  0  0  0
  148.2064  139.0536  153.8014 C   0  0  0  0  0  0  0  0  0  0  0  0
  148.6627  140.1926  154.7730 C   0  0  1  0  0  0  0  0  0  0  0  0
  148.7234  141.4922  153.9269 C   0  0  0  0  0  0  0  0  0  0  0  0
  147.5668  140.3822  155.8765 C   0  0  0  0  0  0  0  0  0  0  0  0
  147.2266  139.1567  156.5941 N   0  0  0  0  0  0  0  0  0  0  0  0
  146.4296  139.0519  157.6679 C   0  0  0  0  0  0  0  0  0  0  0  0
  145.9718  140.0175  158.2785 O   0  0  0  0  0  0  0  0  0  0  0  0
  146.0679  137.6278  158.0912 C   0  0  0  0  0  0  0  0  0  0  0  0
  146.5796  137.2259  159.4755 C   0  0  0  0  0  0  0  0  0  0  0  0
  147.9030  137.2017  159.8037 C   0  0  0  0  0  0  0  0  0  0  0  0
  149.0049  137.5495  158.8184 C   0  0  0  0  0  0  0  0  0  0  0  0
  148.3247  136.8570  161.0991 N   0  0  0  0  0  0  0  0  0  0  0  0
  147.4531  136.5690  161.9889 C   0  0  0  0  0  0  0  0  0  0  0  0
  147.9113  136.2031  163.3843 C   0  0  0  0  0  0  0  0  0  0  0  0
  146.0950  136.5676  161.7625 N   0  5  0  0  0  0  0  0  0  0  0  0
  145.6070  136.8878  160.5308 C   0  0  0  0  0  0  0  0  0  0  0  0
  144.4001  136.9145  160.2931 O   0  0  0  0  0  0  0  0  0  0  0  0
  149.9790  139.8728  155.4043 N   0  0  0  0  0  0  0  0  0  0  0  0
  150.9918  139.3127  154.4989 C   0  0  0  0  0  0  0  0  0  0  0  0
  152.2701  138.8930  155.2436 C   0  0  0  0  0  0  0  0  0  0  0  0
  152.8018  140.0073  155.9484 O   0  0  0  0  0  0  0  0  0  0  0  0
  151.8763  140.5425  156.8856 C   0  0  0  0  0  0  0  0  0  0  0  0
  150.5903  140.9743  156.1601 C   0  0  0  0  0  0  0  0  0  0  0  0
  146.5974  138.4240  152.4825 H   0  0  0  0  0  0  0  0  0  0  0  0
  146.8625  140.1580  152.4702 H   0  0  0  0  0  0  0  0  0  0  0  0
  146.0449  139.3998  153.8368 H   0  0  0  0  0  0  0  0  0  0  0  0
  148.1837  138.0952  154.3185 H   0  0  0  0  0  0  0  0  0  0  0  0
  148.9551  138.8917  153.0253 H   0  0  0  0  0  0  0  0  0  0  0  0
  147.7777  141.6847  153.4203 H   0  0  0  0  0  0  0  0  0  0  0  0
  149.4781  141.4413  153.1431 H   0  0  0  0  0  0  0  0  0  0  0  0
  148.9362  142.3696  154.5370 H   0  0  0  0  0  0  0  0  0  0  0  0
  147.9078  141.1041  156.6192 H   0  0  0  0  0  0  0  0  0  0  0  0
  146.6531  140.8027  155.4558 H   0  0  0  0  0  0  0  0  0  0  0  0
  147.5533  138.2951  156.1796 H   0  0  0  0  0  0  0  0  0  0  0  0
  144.9861  137.5069  158.0256 H   0  0  0  0  0  0  0  0  0  0  0  0
  146.4701  136.9342  157.3526 H   0  0  0  0  0  0  0  0  0  0  0  0
  149.0197  136.8351  157.9954 H   0  0  0  0  0  0  0  0  0  0  0  0
  149.9840  137.5290  159.2982 H   0  0  0  0  0  0  0  0  0  0  0  0
  148.8559  138.5487  158.4094 H   0  0  0  0  0  0  0  0  0  0  0  0
  147.6526  135.1675  163.6069 H   0  0  0  0  0  0  0  0  0  0  0  0
  147.4302  136.8464  164.1217 H   0  0  0  0  0  0  0  0  0  0  0  0
  148.9914  136.3167  163.4863 H   0  0  0  0  0  0  0  0  0  0  0  0
  150.6162  138.4303  153.9857 H   0  0  0  0  0  0  0  0  0  0  0  0
  151.2582  140.0393  153.7314 H   0  0  0  0  0  0  0  0  0  0  0  0
  152.0619  138.0774  155.9381 H   0  0  0  0  0  0  0  0  0  0  0  0
  153.0170  138.5297  154.5378 H   0  0  0  0  0  0  0  0  0  0  0  0
  151.6552  139.8006  157.6544 H   0  0  0  0  0  0  0  0  0  0  0  0
  152.3323  141.3962  157.3870 H   0  0  0  0  0  0  0  0  0  0  0  0
  150.8243  141.8044  155.4935 H   0  0  0  0  0  0  0  0  0  0  0  0
  149.9093  141.3572  156.9171 H   0  0  0  0  0  0  0  0  0  0  0  0
  1  2  1  0  0  0  0
  1 25  1  0  0  0  0
  1 26  1  0  0  0  0
  1 27  1  0  0  0  0
  2  3  1  0  0  0  0
  2 28  1  0  0  0  0
  2 29  1  0  0  0  0
  3  4  1  0  0  0  0
  3  5  1  0  0  0  0
  3 19  1  0  0  0  0
  4 30  1  0  0  0  0
  4 31  1  0  0  0  0
  4 32  1  0  0  0  0
  5  6  1  0  0  0  0
  5 33  1  0  0  0  0
  5 34  1  0  0  0  0
  6  7  1  0  0  0  0
  6 35  1  0  0  0  0
  7  8  2  0  0  0  0
  7  9  1  0  0  0  0
  9 10  1  0  0  0  0
  9 36  1  0  0  0  0
  9 37  1  0  0  0  0
 10 17  1  0  0  0  0
 10 11  2  0  0  0  0
 11 12  1  0  0  0  0
 11 13  1  0  0  0  0
 12 38  1  0  0  0  0
 12 39  1  0  0  0  0
 12 40  1  0  0  0  0
 13 14  2  0  0  0  0
 14 15  1  0  0  0  0
 14 16  1  0  0  0  0
 15 41  1  0  0  0  0
 15 42  1  0  0  0  0
 15 43  1  0  0  0  0
 16 17  1  0  0  0  0
 17 18  2  0  0  0  0
 19 24  1  0  0  0  0
 19 20  1  0  0  0  0
 20 21  1  0  0  0  0
 20 44  1  0  0  0  0
 20 45  1  0  0  0  0
 21 22  1  0  0  0  0
 21 46  1  0  0  0  0
 21 47  1  0  0  0  0
 22 23  1  0  0  0  0
 23 24  1  0  0  0  0
 23 48  1  0  0  0  0
 23 49  1  0  0  0  0
 24 50  1  0  0  0  0
 24 51  1  0  0  0  0
M  CHG  1  16  -1
M  END
> <s_m_source_file>
AV-unprocessed.smi

> <i_m_source_file_index>
1492

> <i_lp_mmshare_version>
43012

> <i_f3d_flags>
0

> <s_epik_input>
W0NIMl0xW0NIMl1PW0NIMl1bQ0gyXU4xW0NAQF0oW0NIM10pKFtDSDJdW0NIM10pW0NIMl1bTkhdQyg9TylbQ0gyXWMyYyhbQ0gzXSluYyhbQ0gzXSlbbkhdYzI9Tw==

> <s_epik_cmdline>
J2VwaWtfcHl0aG9uJywgJy1waCcsICc3LjAnLCAnLXRuJywgJzgnLCAnLW1hJywgJzIwMCcsICctbWV0YWxfYmluZGluZycsICctaW1hZScsICc8aW5maWxlLm1hZT4nLCAnLW9tYWUnLCAnPG91dGZpbGUubWFlPic=

> <r_lp_tautomer_probability>
0.839158

> <r_epik_Ionization_Penalty>
6.88574

> <r_epik_Ionization_Penalty_Charging>
6.74373e-08

> <r_epik_Ionization_Penalty_Neutral>
6.88574

> <r_epik_State_Penalty>
4.79448

> <r_epik_Charging_Adjusted_Penalty>
4.79448

> <i_epik_Tot_Q>
-1

> <i_epik_Tot_abs_Q>
1

> <r_epik_Metal_State_Penalty>
1.16421

> <b_epik_Metal_Only>
1

> <s_lp_Force_Field>
OPLS_2005

> <r_lp_Energy>
44.9842

> <b_lp_Chiralities_Consistent>
1

> <s_lp_Variant>
AV-unprocessed.smi:1492-9

> <Gold.Version>
5.8.1

> <Gold.Id.Protein>
6NUR|6NUR_protein|mol2

> <Gold.PLP.Fitness>
37.1046

> <Gold.PLP.PLP>
-31.6869

> <Gold.PLP.part.hbond>
-2.8537

> <Gold.PLP.part.metal>
0.0000

> <Gold.PLP.part.buried>
-1.3702

> <Gold.PLP.part.nonpolar>
-27.6559

> <Gold.PLP.part.repulsive>
0.0599

> <Gold.PLP.ligand.clash>
0.0000

> <Gold.PLP.ligand.torsion>
0.3583

> <Gold.PLP.Chemscore.Hbond>
2.0000

> <Gold.PLP.Chemscore.CHOScore>
0.0000

> <Gold.PLP.Chemscore.Metal>
0.0000

> <Gold.Chemscore.Hbonds>
donor molecule, donor type, donor heavy atom, donor atom, acceptor molecule, acceptor atom, score
      P1  H  6931  6943       L1    13  0.90
      P1  H  7997  8008       L1    22  1.00

> <Gold.PLP.Chemscore.Internal.Correction>
0.1343

> <Gold.Rescore>
     Score         DG    S(hbond)    S(metal)    S(lipo)     H(rot)  DE(clash)    DE(int)     intcor
     12.64     -12.94       1.20        0.00      74.22       2.05       0.17       0.13       ----

> <Gold.Chemscore.Fitness>
12.6374

> <Gold.Chemscore.DG>
-12.9397

> <Gold.Chemscore.ZeroCoef>
-5.4800

> <Gold.Chemscore.Hbond>
1.2017

> <Gold.Chemscore.Metal>
0.0000

> <Gold.Chemscore.Lipo>
74.2218

> <Gold.Chemscore.Internal_Hbond>
0.0000

> <Gold.Chemscore.DEClash>
0.1724

> <Gold.Chemscore.DEInternal>
0.1298

> <Gold.Chemscore.Rot>
2.0461

> <Gold.Chemscore.Internal.Correction>
   9.000000E+99

> <Gold.Chemscore.Hbonds>
donor molecule, donor type, donor heavy atom, donor atom, acceptor molecule, acceptor atom, score
      P1  H  6931  6943       L1    13  0.13
      P1  H  7997  8008       L1    22  0.95

> <Gold.Chemscore.Hbond.Weighted>
-4.0138

> <Gold.Chemscore.Metal.Weighted>
-0.0000

> <Gold.Chemscore.Lipo.Weighted>
-8.6840

> <Gold.Chemscore.Internal_Hbond.Weighted>
0.0000

> <Gold.Chemscore.DEClash.Weighted>
0.1724

> <Gold.Chemscore.DEInternal.Weighted>
0.1298

> <Gold.Chemscore.Rot.Weighted>
5.2381

> <Gold.Chemscore.Internal.Correction.Weighted>
   9.000000E+99

> <Gold.Protein.RotatedTorsions>
[ 6907 6896 6895 6894 ] final -150.85 input  -60.11 | X-H torsion
[ 7974 7965 7964 7962 ] final  170.36 input  175.53 | X-H torsion
[ 8008 7997 7996 7995 ] final  -26.01 input   59.86 | X-H torsion
[ 10167 10162 10161 10158 ] final -145.03 input  -65.29 | X-H torsion
[ 10718 10713 10712 10709 ] final  -90.32 input   66.30 | X-H torsion
[ 10763 10752 10751 10750 ] final  -53.57 input  -60.55 | X-H torsion
[ 11005 11000 10999 10996 ] final -179.83 input  -57.11 | X-H torsion

> <Gold.Protein.ActiveResidues>
 VAL166  LYS551  ARG553  GLY616  TRP617  ASP618  TYR619  PRO620  LYS621  CYS622 
 ASP623  PHE694  ASN695  SER759  ASP760  ASP761  ALA762  ILE779  LEU786  VAL792 
 PHE793  MET794  SER795  GLU796  ALA797  LYS798  CYS799  TRP800  GLU811  SER814 

> <Gold.Protein.RotatedAtoms>
  151.2045  133.4591  159.2596 H   0  0  0  0  0  0  0  0  0  0  0  0  # atno 6907 bound_to 6896
  151.1037  134.9987  159.8471 H   0  0  0  0  0  0  0  0  0  0  0  0  # atno 6908 bound_to 6896
  152.5445  134.1970  159.8749 H   0  0  0  0  0  0  0  0  0  0  0  0  # atno 6909 bound_to 6896
  144.7326  139.9190  143.6419 H   0  0  0  0  0  0  0  0  0  0  0  0  # atno 7974 bound_to 7965
  154.4447  140.1911  156.0708 H   0  0  0  0  0  0  0  0  0  0  0  0  # atno 8008 bound_to 7997
  156.0512  140.3308  155.7327 H   0  0  0  0  0  0  0  0  0  0  0  0  # atno 8009 bound_to 7997
  155.5554  140.0599  157.2831 H   0  0  0  0  0  0  0  0  0  0  0  0  # atno 8010 bound_to 7997
  139.7844  143.8055  152.2643 H   0  0  0  0  0  0  0  0  0  0  0  0  # atno 10167 bound_to 10162
  155.9987  130.4905  150.5305 H   0  0  0  0  0  0  0  0  0  0  0  0  # atno 10718 bound_to 10713
  154.1610  135.6475  153.4986 H   0  0  0  0  0  0  0  0  0  0  0  0  # atno 10763 bound_to 10752
  153.0110  135.5360  154.6711 H   0  0  0  0  0  0  0  0  0  0  0  0  # atno 10764 bound_to 10752
  154.6024  135.2945  155.0492 H   0  0  0  0  0  0  0  0  0  0  0  0  # atno 10765 bound_to 10752
  140.4143  134.6663  157.4630 H   0  0  0  0  0  0  0  0  0  0  0  0  # atno 11005 bound_to 11000
  146.0944  139.3935  143.0386 LP  0  0  0  0  0  0  0  0  0  0  0  0  # atno 17320 bound_to 7965
  145.7666  140.9913  143.1171 LP  0  0  0  0  0  0  0  0  0  0  0  0  # atno 17321 bound_to 7965
  139.8128  144.7329  150.9675 LP  0  0  0  0  0  0  0  0  0  0  0  0  # atno 17342 bound_to 10162
  140.7819  143.4234  151.0805 LP  0  0  0  0  0  0  0  0  0  0  0  0  # atno 17343 bound_to 10162
  157.3255  131.0690  151.1900 LP  0  0  0  0  0  0  0  0  0  0  0  0  # atno 17370 bound_to 10713
  157.2799  130.6745  149.6060 LP  0  0  0  0  0  0  0  0  0  0  0  0  # atno 17371 bound_to 10713
  140.0245  134.6497  155.9192 LP  0  0  0  0  0  0  0  0  0  0  0  0  # atno 17394 bound_to 11000
  141.1809  133.6546  156.5016 LP  0  0  0  0  0  0  0  0  0  0  0  0  # atno 17395 bound_to 11000

$$$$
