AV-unprocessed.smi:605|AV-procd|sdf|3040|dock9
  -GOLD-   2262023563D 1   1.00000     0.00000
 Structure written by MMmdl.
 34 35  0  0  0  0  0  0  0  0  2 V2000
  148.4431  141.2741  156.3277 C   0  0  0  0  0  0  0  0  0  0  0  0
  149.0006  141.0983  154.9078 C   0  0  0  0  0  0  0  0  0  0  0  0
  147.9074  141.0697  153.8298 C   0  0  0  0  0  0  0  0  0  0  0  0
  149.9225  139.9237  154.8051 C   0  0  0  0  0  0  0  0  0  0  0  0
  151.2538  140.0401  154.7759 N   0  0  0  0  0  0  0  0  0  0  0  0
  151.8863  138.8096  154.6823 N   0  0  0  0  0  0  0  0  0  0  0  0
  151.0297  137.7792  154.6534 C   0  0  0  0  0  0  0  0  0  0  0  0
  151.4395  136.4995  154.5759 N   0  5  0  0  0  0  0  0  0  0  0  0
  150.7024  135.4649  155.0599 C   0  0  0  0  0  0  0  0  0  0  0  0
  150.9379  134.9134  156.1343 O   0  0  0  0  0  0  0  0  0  0  0  0
  149.6640  135.0314  154.3188 N   0  0  0  0  0  0  0  0  0  0  0  0
  148.7584  133.9360  154.6562 C   0  0  0  0  0  0  0  0  0  0  0  0
  149.5269  132.6027  154.7372 C   0  0  0  0  0  0  0  0  0  0  0  0
  148.7356  131.6029  153.8918 C   0  0  0  0  0  0  0  0  0  0  0  0
  148.0537  132.4605  152.8309 C   0  0  0  0  0  0  0  0  0  0  0  0
  147.6788  133.7433  153.5728 C   0  0  0  0  0  0  0  0  0  0  0  0
  149.3378  138.2699  154.7144 S   0  0  0  0  0  0  0  0  0  0  0  0
  149.2489  141.3736  157.0558 H   0  0  0  0  0  0  0  0  0  0  0  0
  147.8320  140.4204  156.6218 H   0  0  0  0  0  0  0  0  0  0  0  0
  147.8218  142.1673  156.3989 H   0  0  0  0  0  0  0  0  0  0  0  0
  149.6066  141.9823  154.7054 H   0  0  0  0  0  0  0  0  0  0  0  0
  148.3432  141.0284  152.8310 H   0  0  0  0  0  0  0  0  0  0  0  0
  147.2815  141.9609  153.8810 H   0  0  0  0  0  0  0  0  0  0  0  0
  147.2584  140.2012  153.9462 H   0  0  0  0  0  0  0  0  0  0  0  0
  149.4884  135.5087  153.4469 H   0  0  0  0  0  0  0  0  0  0  0  0
  148.2808  134.1383  155.6166 H   0  0  0  0  0  0  0  0  0  0  0  0
  150.5280  132.7089  154.3158 H   0  0  0  0  0  0  0  0  0  0  0  0
  149.6475  132.2596  155.7651 H   0  0  0  0  0  0  0  0  0  0  0  0
  149.3667  130.8248  153.4617 H   0  0  0  0  0  0  0  0  0  0  0  0
  147.9801  131.1161  154.5098 H   0  0  0  0  0  0  0  0  0  0  0  0
  148.7617  132.6917  152.0337 H   0  0  0  0  0  0  0  0  0  0  0  0
  147.1912  131.9682  152.3807 H   0  0  0  0  0  0  0  0  0  0  0  0
  146.7092  133.6099  154.0546 H   0  0  0  0  0  0  0  0  0  0  0  0
  147.5840  134.5936  152.8963 H   0  0  0  0  0  0  0  0  0  0  0  0
  1  2  1  0  0  0  0
  1 18  1  0  0  0  0
  1 19  1  0  0  0  0
  1 20  1  0  0  0  0
  2  3  1  0  0  0  0
  2  4  1  0  0  0  0
  2 21  1  0  0  0  0
  3 22  1  0  0  0  0
  3 23  1  0  0  0  0
  3 24  1  0  0  0  0
  4 17  1  0  0  0  0
  4  5  2  0  0  0  0
  5  6  1  0  0  0  0
  6  7  2  0  0  0  0
  7  8  1  0  0  0  0
  7 17  1  0  0  0  0
  8  9  1  0  0  0  0
  9 10  2  0  0  0  0
  9 11  1  0  0  0  0
 11 12  1  0  0  0  0
 11 25  1  0  0  0  0
 12 16  1  0  0  0  0
 12 13  1  0  0  0  0
 12 26  1  0  0  0  0
 13 14  1  0  0  0  0
 13 27  1  0  0  0  0
 13 28  1  0  0  0  0
 14 15  1  0  0  0  0
 14 29  1  0  0  0  0
 14 30  1  0  0  0  0
 15 16  1  0  0  0  0
 15 31  1  0  0  0  0
 15 32  1  0  0  0  0
 16 33  1  0  0  0  0
 16 34  1  0  0  0  0
M  CHG  1   8  -1
M  END
> <s_m_source_file>
AV-unprocessed.smi

> <i_m_source_file_index>
605

> <i_lp_mmshare_version>
43012

> <i_f3d_flags>
0

> <s_epik_input>
W0NIM11bQ0hdKFtDSDNdKWMxbm5jKHMxKVtOSF1DKD1PKVtOSF1bQ0hdMltDSDJdW0NIMl1bQ0gyXVtDSDJdMg==

> <s_epik_cmdline>
J2VwaWtfcHl0aG9uJywgJy1waCcsICc3LjAnLCAnLXRuJywgJzgnLCAnLW1hJywgJzIwMCcsICctbWV0YWxfYmluZGluZycsICctaW1hZScsICc8aW5maWxlLm1hZT4nLCAnLW9tYWUnLCAnPG91dGZpbGUubWFlPic=

> <r_lp_tautomer_probability>
1

> <r_epik_Ionization_Penalty>
4.57432

> <r_epik_Ionization_Penalty_Charging>
4.40687

> <r_epik_Ionization_Penalty_Neutral>
0.167446

> <r_epik_State_Penalty>
4.40652

> <r_epik_Charging_Adjusted_Penalty>
8.8134

> <i_epik_Tot_Q>
-1

> <i_epik_Tot_abs_Q>
1

> <r_epik_Metal_State_Penalty>
0.774635

> <b_epik_Metal_Only>
1

> <s_lp_Force_Field>
OPLS_2005

> <r_lp_Energy>
11.4858

> <b_lp_Chiralities_Consistent>
1

> <s_lp_Variant>
AV-unprocessed.smi:605-2

> <Gold.Version>
5.8.1

> <Gold.Id.Protein>
6NUR|6NUR_protein|mol2

> <Gold.PLP.Fitness>
39.2987

> <Gold.PLP.PLP>
-29.7640

> <Gold.PLP.part.hbond>
-3.0777

> <Gold.PLP.part.metal>
0.0000

> <Gold.PLP.part.buried>
-4.1310

> <Gold.PLP.part.nonpolar>
-24.1779

> <Gold.PLP.part.repulsive>
0.3485

> <Gold.PLP.ligand.clash>
0.0000

> <Gold.PLP.ligand.torsion>
1.1974

> <Gold.PLP.Chemscore.Hbond>
3.9500

> <Gold.PLP.Chemscore.CHOScore>
0.0000

> <Gold.PLP.Chemscore.Metal>
0.0000

> <Gold.Chemscore.Hbonds>
donor molecule, donor type, donor heavy atom, donor atom, acceptor molecule, acceptor atom, score
      L1  H    11    25       P1  7948  0.85
      P1  H  7989  7998       L1     5  1.00
      P1  H 10752 10763       L1     8  1.60

> <Gold.PLP.Chemscore.Internal.Correction>
0.0795

> <Gold.Rescore>
     Score         DG    S(hbond)    S(metal)    S(lipo)     H(rot)  DE(clash)    DE(int)     intcor
     15.02     -16.68       2.59        0.00      47.82       1.18       0.11       1.55       ----

> <Gold.Chemscore.Fitness>
15.0232

> <Gold.Chemscore.DG>
-16.6836

> <Gold.Chemscore.ZeroCoef>
-5.4800

> <Gold.Chemscore.Hbond>
2.5863

> <Gold.Chemscore.Metal>
0.0000

> <Gold.Chemscore.Lipo>
47.8181

> <Gold.Chemscore.Internal_Hbond>
0.0000

> <Gold.Chemscore.DEClash>
0.1103

> <Gold.Chemscore.DEInternal>
1.5501

> <Gold.Chemscore.Rot>
1.1833

> <Gold.Chemscore.Internal.Correction>
   9.000000E+99

> <Gold.Chemscore.Hbonds>
donor molecule, donor type, donor heavy atom, donor atom, acceptor molecule, acceptor atom, score
      L1  H    11    25       P1  7948  0.15
      P1  H  7989  7998       L1     5  0.38
      P1  H 10752 10763       L1     8  0.12

> <Gold.Chemscore.Hbond.Weighted>
-8.6382

> <Gold.Chemscore.Metal.Weighted>
-0.0000

> <Gold.Chemscore.Lipo.Weighted>
-5.5947

> <Gold.Chemscore.Internal_Hbond.Weighted>
0.0000

> <Gold.Chemscore.DEClash.Weighted>
0.1103

> <Gold.Chemscore.DEInternal.Weighted>
1.5501

> <Gold.Chemscore.Rot.Weighted>
3.0293

> <Gold.Chemscore.Internal.Correction.Weighted>
   9.000000E+99

> <Gold.Protein.RotatedTorsions>
[ 6907 6896 6895 6894 ] final  149.33 input  -60.11 | X-H torsion
[ 7974 7965 7964 7962 ] final  -57.26 input  175.53 | X-H torsion
[ 8008 7997 7996 7995 ] final   91.53 input   59.86 | X-H torsion
[ 10167 10162 10161 10158 ] final  174.70 input  -65.29 | X-H torsion
[ 10718 10713 10712 10709 ] final   21.10 input   66.30 | X-H torsion
[ 10763 10752 10751 10750 ] final   51.23 input  -60.55 | X-H torsion
[ 11005 11000 10999 10996 ] final  173.56 input  -57.11 | X-H torsion

> <Gold.Protein.ActiveResidues>
 VAL166  LYS551  ARG553  GLY616  TRP617  ASP618  TYR619  PRO620  LYS621  CYS622 
 ASP623  PHE694  ASN695  SER759  ASP760  ASP761  ALA762  ILE779  LEU786  VAL792 
 PHE793  MET794  SER795  GLU796  ALA797  LYS798  CYS799  TRP800  GLU811  SER814 

> <Gold.Protein.RotatedAtoms>
  152.1295  133.4399  159.4713 H   0  0  0  0  0  0  0  0  0  0  0  0  # atno 6907 bound_to 6896
  150.6877  134.2438  159.4492 H   0  0  0  0  0  0  0  0  0  0  0  0  # atno 6908 bound_to 6896
  152.0321  134.9761  160.0623 H   0  0  0  0  0  0  0  0  0  0  0  0  # atno 6909 bound_to 6896
  145.8531  140.8338  142.9975 H   0  0  0  0  0  0  0  0  0  0  0  0  # atno 7974 bound_to 7965
  156.0248  140.3336  155.7077 H   0  0  0  0  0  0  0  0  0  0  0  0  # atno 8008 bound_to 7997
  155.5970  140.0652  157.2761 H   0  0  0  0  0  0  0  0  0  0  0  0  # atno 8009 bound_to 7997
  154.4330  140.1817  156.1121 H   0  0  0  0  0  0  0  0  0  0  0  0  # atno 8010 bound_to 7997
  139.5151  144.3116  152.0286 H   0  0  0  0  0  0  0  0  0  0  0  0  # atno 10167 bound_to 10162
  157.1337  130.6602  149.5959 H   0  0  0  0  0  0  0  0  0  0  0  0  # atno 10718 bound_to 10713
  152.9785  135.5853  154.4381 H   0  0  0  0  0  0  0  0  0  0  0  0  # atno 10763 bound_to 10752
  154.3985  135.2768  155.2113 H   0  0  0  0  0  0  0  0  0  0  0  0  # atno 10764 bound_to 10752
  154.3954  135.6116  153.5921 H   0  0  0  0  0  0  0  0  0  0  0  0  # atno 10765 bound_to 10752
  140.3418  134.7270  157.4207 H   0  0  0  0  0  0  0  0  0  0  0  0  # atno 11005 bound_to 11000
  144.6728  140.0983  143.7462 LP  0  0  0  0  0  0  0  0  0  0  0  0  # atno 17320 bound_to 7965
  145.9335  139.2621  143.1311 LP  0  0  0  0  0  0  0  0  0  0  0  0  # atno 17321 bound_to 7965
  140.2561  144.4117  150.6203 LP  0  0  0  0  0  0  0  0  0  0  0  0  # atno 17342 bound_to 10162
  140.6190  143.2174  151.6732 LP  0  0  0  0  0  0  0  0  0  0  0  0  # atno 17343 bound_to 10162
  155.9802  130.4802  150.6762 LP  0  0  0  0  0  0  0  0  0  0  0  0  # atno 17370 bound_to 10713
  157.4369  131.0856  151.0983 LP  0  0  0  0  0  0  0  0  0  0  0  0  # atno 17371 bound_to 10713
  140.0775  134.5777  155.8576 LP  0  0  0  0  0  0  0  0  0  0  0  0  # atno 17394 bound_to 11000
  141.2036  133.6633  156.6074 LP  0  0  0  0  0  0  0  0  0  0  0  0  # atno 17395 bound_to 11000

$$$$
