AV-unprocessed.smi:2190|AV-procd|sdf|8889|dock7
  -GOLD-   2272012 93D 1   1.00000     0.00000
 Structure written by MMmdl.
 46 48  0  0  0  0  0  0  0  0  1 V2000
  151.5069  145.4648  160.0283 C   0  0  0  0  0  0  0  0  0  0  0  0
  151.7253  143.9980  159.7182 C   0  0  0  0  0  0  0  0  0  0  0  0
  152.6705  143.2502  160.4466 C   0  0  0  0  0  0  0  0  0  0  0  0
  152.8686  141.8895  160.1508 C   0  0  0  0  0  0  0  0  0  0  0  0
  152.1257  141.2688  159.1253 C   0  0  0  0  0  0  0  0  0  0  0  0
  152.3511  139.7998  158.8193 C   0  0  0  0  0  0  0  0  0  0  0  0
  151.1752  142.0087  158.3844 C   0  0  0  0  0  0  0  0  0  0  0  0
  150.4875  141.3414  157.3924 O   0  0  0  0  0  0  0  0  0  0  0  0
  149.4526  142.0267  156.6986 C   0  0  0  0  0  0  0  0  0  0  0  0
  149.0258  141.2135  155.4651 C   0  0  1  0  0  0  0  0  0  0  0  0
  148.5197  142.0928  154.4804 O   0  0  0  0  0  0  0  0  0  0  0  0
  150.1426  140.3105  154.9013 C   0  0  0  0  0  0  0  0  0  0  0  0
  149.7913  138.8973  154.9446 N   0  0  0  0  0  0  0  0  0  0  0  0
  148.6634  138.2941  154.4898 C   0  0  0  0  0  0  0  0  0  0  0  0
  147.5632  139.0793  153.8324 C   0  0  0  0  0  0  0  0  0  0  0  0
  147.2887  138.6829  152.5037 O   0  0  0  0  0  0  0  0  0  0  0  0
  148.6109  136.9703  154.6589 N   0  0  0  0  0  0  0  0  0  0  0  0
  149.8116  136.6920  155.2812 C   0  0  0  0  0  0  0  0  0  0  0  0
  150.3538  135.4647  155.7251 C   0  0  0  0  0  0  0  0  0  0  0  0
  151.6219  135.4259  156.3414 C   0  0  0  0  0  0  0  0  0  0  0  0
  152.3644  136.6110  156.5223 C   0  0  0  0  0  0  0  0  0  0  0  0
  151.8421  137.8443  156.0872 C   0  0  0  0  0  0  0  0  0  0  0  0
  150.5756  137.8772  155.4732 C   0  0  0  0  0  0  0  0  0  0  0  0
  150.9818  143.3796  158.6927 C   0  0  0  0  0  0  0  0  0  0  0  0
  152.0159  145.7567  160.9474 H   0  0  0  0  0  0  0  0  0  0  0  0
  150.4437  145.6740  160.1491 H   0  0  0  0  0  0  0  0  0  0  0  0
  151.8888  146.0822  159.2150 H   0  0  0  0  0  0  0  0  0  0  0  0
  153.2466  143.7154  161.2330 H   0  0  0  0  0  0  0  0  0  0  0  0
  153.5953  141.3242  160.7157 H   0  0  0  0  0  0  0  0  0  0  0  0
  151.4142  139.2473  158.8972 H   0  0  0  0  0  0  0  0  0  0  0  0
  153.0657  139.3524  159.5106 H   0  0  0  0  0  0  0  0  0  0  0  0
  152.7374  139.6804  157.8067 H   0  0  0  0  0  0  0  0  0  0  0  0
  148.5934  142.1353  157.3626 H   0  0  0  0  0  0  0  0  0  0  0  0
  149.7712  143.0272  156.4005 H   0  0  0  0  0  0  0  0  0  0  0  0
  148.1869  140.5827  155.7614 H   0  0  0  0  0  0  0  0  0  0  0  0
  148.4728  142.9620  154.8485 H   0  0  0  0  0  0  0  0  0  0  0  0
  150.3916  140.5904  153.8778 H   0  0  0  0  0  0  0  0  0  0  0  0
  151.0563  140.4487  155.4806 H   0  0  0  0  0  0  0  0  0  0  0  0
  146.6461  138.9774  154.4123 H   0  0  0  0  0  0  0  0  0  0  0  0
  147.8342  140.1353  153.8323 H   0  0  0  0  0  0  0  0  0  0  0  0
  147.9884  138.9904  151.9484 H   0  0  0  0  0  0  0  0  0  0  0  0
  149.7930  134.5516  155.5903 H   0  0  0  0  0  0  0  0  0  0  0  0
  152.0270  134.4821  156.6763 H   0  0  0  0  0  0  0  0  0  0  0  0
  153.3349  136.5724  156.9946 H   0  0  0  0  0  0  0  0  0  0  0  0
  152.4076  138.7539  156.2239 H   0  0  0  0  0  0  0  0  0  0  0  0
  150.2668  143.9809  158.1520 H   0  0  0  0  0  0  0  0  0  0  0  0
  1  2  1  0  0  0  0
  1 25  1  0  0  0  0
  1 26  1  0  0  0  0
  1 27  1  0  0  0  0
  2 24  1  0  0  0  0
  2  3  2  0  0  0  0
  3  4  1  0  0  0  0
  3 28  1  0  0  0  0
  4  5  2  0  0  0  0
  4 29  1  0  0  0  0
  5  6  1  0  0  0  0
  5  7  1  0  0  0  0
  6 30  1  0  0  0  0
  6 31  1  0  0  0  0
  6 32  1  0  0  0  0
  7  8  1  0  0  0  0
  7 24  2  0  0  0  0
  8  9  1  0  0  0  0
  9 10  1  0  0  0  0
  9 33  1  0  0  0  0
  9 34  1  0  0  0  0
 10 11  1  0  0  0  0
 10 12  1  0  0  0  0
 10 35  1  0  0  0  0
 11 36  1  0  0  0  0
 12 13  1  0  0  0  0
 12 37  1  0  0  0  0
 12 38  1  0  0  0  0
 13 23  1  0  0  0  0
 13 14  1  0  0  0  0
 14 15  1  0  0  0  0
 14 17  2  0  0  0  0
 15 16  1  0  0  0  0
 15 39  1  0  0  0  0
 15 40  1  0  0  0  0
 16 41  1  0  0  0  0
 17 18  1  0  0  0  0
 18 23  2  0  0  0  0
 18 19  1  0  0  0  0
 19 20  2  0  0  0  0
 19 42  1  0  0  0  0
 20 21  1  0  0  0  0
 20 43  1  0  0  0  0
 21 22  2  0  0  0  0
 21 44  1  0  0  0  0
 22 23  1  0  0  0  0
 22 45  1  0  0  0  0
 24 46  1  0  0  0  0
M  END
> <s_m_source_file>
AV-unprocessed.smi

> <i_m_source_file_index>
2190

> <i_lp_mmshare_version>
43012

> <i_f3d_flags>
0

> <s_epik_input>
W0NIM11jMVtjSF1bY0hdYyhbQ0gzXSljKFtjSF0xKU9bQ0gyXVtDQEhdKFtPSF0pW0NIMl1uKGMobjIpW0NIMl1bT0hdKWMoYzIzKVtjSF1bY0hdW2NIXVtjSF0z

> <s_epik_cmdline>
J2VwaWtfcHl0aG9uJywgJy1waCcsICc3LjAnLCAnLXRuJywgJzgnLCAnLW1hJywgJzIwMCcsICctbWV0YWxfYmluZGluZycsICctaW1hZScsICc8aW5maWxlLm1hZT4nLCAnLW9tYWUnLCAnPG91dGZpbGUubWFlPic=

> <r_lp_tautomer_probability>
1

> <r_epik_Ionization_Penalty>
0.0555874

> <r_epik_Ionization_Penalty_Charging>
0

> <r_epik_Ionization_Penalty_Neutral>
0.0555874

> <r_epik_State_Penalty>
0.0478234

> <r_epik_Charging_Adjusted_Penalty>
0.0478234

> <i_epik_Tot_Q>
0

> <i_epik_Tot_abs_Q>
0

> <r_epik_Metal_State_Penalty>
4.98044e-05

> <b_epik_Metal_Only>
0

> <s_lp_Force_Field>
OPLS_2005

> <r_lp_Energy>
17.5395

> <b_lp_Chiralities_Consistent>
1

> <s_lp_Variant>
AV-unprocessed.smi:2190-2

> <Gold.Version>
5.8.1

> <Gold.Id.Protein>
6NUR|6NUR_protein|mol2

> <Gold.PLP.Fitness>
47.0960

> <Gold.PLP.PLP>
-42.7711

> <Gold.PLP.part.hbond>
-4.0000

> <Gold.PLP.part.metal>
0.0000

> <Gold.PLP.part.buried>
-1.7495

> <Gold.PLP.part.nonpolar>
-38.1144

> <Gold.PLP.part.repulsive>
1.2616

> <Gold.PLP.ligand.clash>
0.0000

> <Gold.PLP.ligand.torsion>
1.2645

> <Gold.PLP.Chemscore.Hbond>
2.2717

> <Gold.PLP.Chemscore.CHOScore>
0.0000

> <Gold.PLP.Chemscore.Metal>
0.0000

> <Gold.Chemscore.Hbonds>
donor molecule, donor type, donor heavy atom, donor atom, acceptor molecule, acceptor atom, score
      L1  H    11    36       P1  8028  1.00
      L1  H    16    41       P1  7957  0.94

> <Gold.PLP.Chemscore.Internal.Correction>
0.0388

> <Gold.Rescore>
     Score         DG    S(hbond)    S(metal)    S(lipo)     H(rot)  DE(clash)    DE(int)     intcor
     16.39     -19.54       1.92        0.00     130.01       2.96       1.21       1.93       ----

> <Gold.Chemscore.Fitness>
16.3886

> <Gold.Chemscore.DG>
-19.5376

> <Gold.Chemscore.ZeroCoef>
-5.4800

> <Gold.Chemscore.Hbond>
1.9204

> <Gold.Chemscore.Metal>
0.0000

> <Gold.Chemscore.Lipo>
130.0100

> <Gold.Chemscore.Internal_Hbond>
0.0000

> <Gold.Chemscore.DEClash>
1.2148

> <Gold.Chemscore.DEInternal>
1.9342

> <Gold.Chemscore.Rot>
2.9561

> <Gold.Chemscore.Internal.Correction>
   9.000000E+99

> <Gold.Chemscore.Hbonds>
donor molecule, donor type, donor heavy atom, donor atom, acceptor molecule, acceptor atom, score
      L1  H    11    36       P1  8028  0.99
      L1  H    16    41       P1  7957  0.88

> <Gold.Chemscore.Hbond.Weighted>
-6.4141

> <Gold.Chemscore.Metal.Weighted>
-0.0000

> <Gold.Chemscore.Lipo.Weighted>
-15.2112

> <Gold.Chemscore.Internal_Hbond.Weighted>
0.0000

> <Gold.Chemscore.DEClash.Weighted>
1.2148

> <Gold.Chemscore.DEInternal.Weighted>
1.9342

> <Gold.Chemscore.Rot.Weighted>
7.5677

> <Gold.Chemscore.Internal.Correction.Weighted>
   9.000000E+99

> <Gold.Protein.RotatedTorsions>
[ 6907 6896 6895 6894 ] final -136.16 input  -60.11 | X-H torsion
[ 7974 7965 7964 7962 ] final -122.64 input  175.53 | X-H torsion
[ 8008 7997 7996 7995 ] final  126.65 input   59.86 | X-H torsion
[ 10167 10162 10161 10158 ] final  -10.06 input  -65.29 | X-H torsion
[ 10718 10713 10712 10709 ] final  155.29 input   66.30 | X-H torsion
[ 10763 10752 10751 10750 ] final  -60.03 input  -60.55 | X-H torsion
[ 11005 11000 10999 10996 ] final   66.94 input  -57.11 | X-H torsion

> <Gold.Protein.ActiveResidues>
 VAL166  LYS551  ARG553  GLY616  TRP617  ASP618  TYR619  PRO620  LYS621  CYS622 
 ASP623  PHE694  ASN695  SER759  ASP760  ASP761  ALA762  ILE779  LEU786  VAL792 
 PHE793  MET794  SER795  GLU796  ALA797  LYS798  CYS799  TRP800  GLU811  SER814 

> <Gold.Protein.RotatedAtoms>
  151.0067  133.6004  159.2687 H   0  0  0  0  0  0  0  0  0  0  0  0  # atno 6907 bound_to 6896
  151.3171  135.0808  159.9302 H   0  0  0  0  0  0  0  0  0  0  0  0  # atno 6908 bound_to 6896
  152.5288  133.9721  159.7821 H   0  0  0  0  0  0  0  0  0  0  0  0  # atno 6909 bound_to 6896
  145.0273  140.8038  143.4345 H   0  0  0  0  0  0  0  0  0  0  0  0  # atno 7974 bound_to 7965
  156.2870  140.2687  156.2145 H   0  0  0  0  0  0  0  0  0  0  0  0  # atno 8008 bound_to 7997
  155.0230  140.0386  157.2463 H   0  0  0  0  0  0  0  0  0  0  0  0  # atno 8009 bound_to 7997
  154.7419  140.2726  155.6371 H   0  0  0  0  0  0  0  0  0  0  0  0  # atno 8010 bound_to 7997
  140.7104  143.5789  150.9013 H   0  0  0  0  0  0  0  0  0  0  0  0  # atno 10167 bound_to 10162
  157.2203  131.0717  151.1916 H   0  0  0  0  0  0  0  0  0  0  0  0  # atno 10718 bound_to 10713
  154.2629  135.6305  153.5281 H   0  0  0  0  0  0  0  0  0  0  0  0  # atno 10763 bound_to 10752
  152.9893  135.5592  154.5684 H   0  0  0  0  0  0  0  0  0  0  0  0  # atno 10764 bound_to 10752
  154.5237  135.2884  155.1215 H   0  0  0  0  0  0  0  0  0  0  0  0  # atno 10765 bound_to 10752
  139.9801  134.6758  156.0279 H   0  0  0  0  0  0  0  0  0  0  0  0  # atno 11005 bound_to 11000
  145.1817  139.2348  143.5289 LP  0  0  0  0  0  0  0  0  0  0  0  0  # atno 17320 bound_to 7965
  146.3494  140.1592  142.8591 LP  0  0  0  0  0  0  0  0  0  0  0  0  # atno 17321 bound_to 7965
  139.9515  143.6267  152.3027 LP  0  0  0  0  0  0  0  0  0  0  0  0  # atno 17342 bound_to 10162
  139.6787  144.7657  151.1648 LP  0  0  0  0  0  0  0  0  0  0  0  0  # atno 17343 bound_to 10162
  157.3582  130.7118  149.6485 LP  0  0  0  0  0  0  0  0  0  0  0  0  # atno 17370 bound_to 10713
  155.9683  130.4233  150.4555 LP  0  0  0  0  0  0  0  0  0  0  0  0  # atno 17371 bound_to 10713
  141.1474  133.6554  156.3908 LP  0  0  0  0  0  0  0  0  0  0  0  0  # atno 17394 bound_to 11000
  140.5114  134.6391  157.5286 LP  0  0  0  0  0  0  0  0  0  0  0  0  # atno 17395 bound_to 11000

$$$$
