AV-unprocessed.smi:1381|AV-procd|sdf|5618|dock4
  -GOLD-   22720 5233D 1   1.00000     0.00000
 Structure written by MMmdl.
 42 43  0  0  0  0  0  0  0  0  3 V2000
  152.5598  143.3623  160.0510 C   0  0  0  0  0  0  0  0  0  0  0  0
  151.6494  142.7461  159.0447 C   0  0  0  0  0  0  0  0  0  0  0  0
  151.1021  143.2067  157.8807 C   0  0  0  0  0  0  0  0  0  0  0  0
  150.3348  142.1008  157.4268 C   0  0  0  0  0  0  0  0  0  0  0  0
  149.5968  142.1822  156.2164 N   0  0  0  0  0  0  0  0  0  0  0  0
  149.7082  141.4286  155.1072 C   0  0  0  0  0  0  0  0  0  0  0  0
  150.5314  140.5068  155.0579 O   0  0  0  0  0  0  0  0  0  0  0  0
  148.8388  141.8169  154.1342 N   0  5  0  0  0  0  0  0  0  0  0  0
  147.4656  141.3351  154.0086 C   0  0  0  0  0  0  0  0  0  0  0  0
  147.4051  140.2195  152.9474 C   0  0  0  0  0  0  0  0  0  0  0  0
  146.3104  139.2494  153.2162 N   0  3  1  0  0  0  0  0  0  0  0  0
  146.2244  138.1783  152.1960 C   0  0  0  0  0  0  0  0  0  0  0  0
  144.9958  137.2877  152.4541 C   0  0  1  0  0  0  0  0  0  0  0  0
  144.9209  136.1135  151.4718 C   0  0  0  0  0  0  0  0  0  0  0  0
  145.0632  136.7518  153.7734 O   0  0  0  0  0  0  0  0  0  0  0  0
  145.1460  137.7260  154.8139 C   0  0  2  0  0  0  0  0  0  0  0  0
  143.8213  138.4838  155.0128 C   0  0  0  0  0  0  0  0  0  0  0  0
  146.3531  138.6536  154.5778 C   0  0  0  0  0  0  0  0  0  0  0  0
  150.4088  141.0588  158.2416 N   0  0  0  0  0  0  0  0  0  0  0  0
  151.2514  141.4671  159.2823 O   0  0  0  0  0  0  0  0  0  0  0  0
  152.7979  144.3917  159.7825 H   0  0  0  0  0  0  0  0  0  0  0  0
  153.4945  142.8056  160.1178 H   0  0  0  0  0  0  0  0  0  0  0  0
  152.0969  143.3687  161.0380 H   0  0  0  0  0  0  0  0  0  0  0  0
  151.2307  144.1783  157.4279 H   0  0  0  0  0  0  0  0  0  0  0  0
  148.8976  142.9089  156.1816 H   0  0  0  0  0  0  0  0  0  0  0  0
  147.0835  140.9446  154.9527 H   0  0  0  0  0  0  0  0  0  0  0  0
  146.7833  142.1356  153.7196 H   0  0  0  0  0  0  0  0  0  0  0  0
  147.2441  140.6910  151.9762 H   0  0  0  0  0  0  0  0  0  0  0  0
  148.3596  139.6954  152.8729 H   0  0  0  0  0  0  0  0  0  0  0  0
  146.1476  138.6214  151.2019 H   0  0  0  0  0  0  0  0  0  0  0  0
  147.1397  137.5844  152.2141 H   0  0  0  0  0  0  0  0  0  0  0  0
  144.0863  137.8785  152.3432 H   0  0  0  0  0  0  0  0  0  0  0  0
  144.8611  136.4660  150.4418 H   0  0  0  0  0  0  0  0  0  0  0  0
  144.0401  135.5003  151.6642 H   0  0  0  0  0  0  0  0  0  0  0  0
  145.7980  135.4711  151.5555 H   0  0  0  0  0  0  0  0  0  0  0  0
  145.3309  137.1695  155.7334 H   0  0  0  0  0  0  0  0  0  0  0  0
  143.8707  139.1199  155.8970 H   0  0  0  0  0  0  0  0  0  0  0  0
  142.9928  137.7894  155.1531 H   0  0  0  0  0  0  0  0  0  0  0  0
  143.5801  139.1268  154.1668 H   0  0  0  0  0  0  0  0  0  0  0  0
  147.2777  138.0846  154.6876 H   0  0  0  0  0  0  0  0  0  0  0  0
  146.3744  139.4324  155.3409 H   0  0  0  0  0  0  0  0  0  0  0  0
  145.4513  139.7761  153.1458 H   0  0  0  0  0  0  0  0  0  0  0  0
  1  2  1  0  0  0  0
  1 21  1  0  0  0  0
  1 22  1  0  0  0  0
  1 23  1  0  0  0  0
  2 20  1  0  0  0  0
  2  3  2  0  0  0  0
  3  4  1  0  0  0  0
  3 24  1  0  0  0  0
  4  5  1  0  0  0  0
  4 19  2  0  0  0  0
  5  6  1  0  0  0  0
  5 25  1  0  0  0  0
  6  7  2  0  0  0  0
  6  8  1  0  0  0  0
  8  9  1  0  0  0  0
  9 10  1  0  0  0  0
  9 26  1  0  0  0  0
  9 27  1  0  0  0  0
 10 11  1  0  0  0  0
 10 28  1  0  0  0  0
 10 29  1  0  0  0  0
 11 18  1  0  0  0  0
 11 12  1  0  0  0  0
 11 42  1  0  0  0  0
 12 13  1  0  0  0  0
 12 30  1  0  0  0  0
 12 31  1  0  0  0  0
 13 14  1  0  0  0  0
 13 15  1  0  0  0  0
 13 32  1  0  0  0  0
 14 33  1  0  0  0  0
 14 34  1  0  0  0  0
 14 35  1  0  0  0  0
 15 16  1  0  0  0  0
 16 17  1  0  0  0  0
 16 18  1  0  0  0  0
 16 36  1  0  0  0  0
 17 37  1  0  0  0  0
 17 38  1  0  0  0  0
 17 39  1  0  0  0  0
 18 40  1  0  0  0  0
 18 41  1  0  0  0  0
 19 20  1  0  0  0  0
M  CHG  1   8  -1
M  CHG  1  11   1
M  END
> <s_m_source_file>
AV-unprocessed.smi

> <i_m_source_file_index>
1381

> <i_lp_mmshare_version>
43012

> <i_f3d_flags>
0

> <s_epik_input>
W0NIM11jMVtjSF1jKG5vMSlbTkhdQyg9TylbTkhdW0NIMl1bQ0gyXU4yW0NIMl1bQ0BASF0oW0NIM10pT1tDQEBIXShbQ0gzXSlbQ0gyXTI=

> <s_epik_cmdline>
J2VwaWtfcHl0aG9uJywgJy1waCcsICc3LjAnLCAnLXRuJywgJzgnLCAnLW1hJywgJzIwMCcsICctbWV0YWxfYmluZGluZycsICctaW1hZScsICc8aW5maWxlLm1hZT4nLCAnLW9tYWUnLCAnPG91dGZpbGUubWFlPic=

> <r_epik_Ionization_Penalty>
6.8073

> <r_epik_Ionization_Penalty_Charging>
6.80729

> <r_epik_Ionization_Penalty_Neutral>
5.65391e-06

> <r_epik_State_Penalty>
7.47323

> <r_epik_Charging_Adjusted_Penalty>
14.2805

> <i_epik_Tot_Q>
0

> <i_epik_Tot_abs_Q>
2

> <r_epik_Metal_State_Penalty>
3.40035

> <b_epik_Metal_Only>
1

> <s_lp_Force_Field>
OPLS_2005

> <r_lp_Energy>
14.8512

> <b_lp_Chiralities_Consistent>
1

> <s_lp_Variant>
AV-unprocessed.smi:1381-17

> <Gold.Version>
5.8.1

> <Gold.Id.Protein>
6NUR|6NUR_protein|mol2

> <Gold.PLP.Fitness>
41.4448

> <Gold.PLP.PLP>
-31.3651

> <Gold.PLP.part.hbond>
-4.0218

> <Gold.PLP.part.metal>
0.0000

> <Gold.PLP.part.buried>
-2.6258

> <Gold.PLP.part.nonpolar>
-25.6153

> <Gold.PLP.part.repulsive>
0.4618

> <Gold.PLP.ligand.clash>
0.0000

> <Gold.PLP.ligand.torsion>
1.6412

> <Gold.PLP.Chemscore.Hbond>
4.4400

> <Gold.PLP.Chemscore.CHOScore>
0.0000

> <Gold.PLP.Chemscore.Metal>
0.0000

> <Gold.Chemscore.Hbonds>
donor molecule, donor type, donor heavy atom, donor atom, acceptor molecule, acceptor atom, score
      L1  H     5    25       P1  8028  0.70
      L1  H    11    42       P1 10175  2.00
      P1  H  7989  7998       L1     7  1.00
      P1  H  8011  8017       L1     8  0.39

> <Gold.PLP.Chemscore.Internal.Correction>
0.0421

> <Gold.Rescore>
     Score         DG    S(hbond)    S(metal)    S(lipo)     H(rot)  DE(clash)    DE(int)     intcor
     16.22     -18.66       2.77        0.00      68.29       1.58       0.84       1.61       ----

> <Gold.Chemscore.Fitness>
16.2160

> <Gold.Chemscore.DG>
-18.6642

> <Gold.Chemscore.ZeroCoef>
-5.4800

> <Gold.Chemscore.Hbond>
2.7655

> <Gold.Chemscore.Metal>
0.0000

> <Gold.Chemscore.Lipo>
68.2943

> <Gold.Chemscore.Internal_Hbond>
0.0000

> <Gold.Chemscore.DEClash>
0.8387

> <Gold.Chemscore.DEInternal>
1.6095

> <Gold.Chemscore.Rot>
1.5792

> <Gold.Chemscore.Internal.Correction>
   9.000000E+99

> <Gold.Chemscore.Hbonds>
donor molecule, donor type, donor heavy atom, donor atom, acceptor molecule, acceptor atom, score
      L1  H     5    25       P1  8028  0.72
      L1  H    11    42       P1 10175  0.94
      P1  H  7989  7998       L1     7  0.47
      P1  H  8011  8017       L1     8  0.31

> <Gold.Chemscore.Hbond.Weighted>
-9.2366

> <Gold.Chemscore.Metal.Weighted>
-0.0000

> <Gold.Chemscore.Lipo.Weighted>
-7.9904

> <Gold.Chemscore.Internal_Hbond.Weighted>
0.0000

> <Gold.Chemscore.DEClash.Weighted>
0.8387

> <Gold.Chemscore.DEInternal.Weighted>
1.6095

> <Gold.Chemscore.Rot.Weighted>
4.0428

> <Gold.Chemscore.Internal.Correction.Weighted>
   9.000000E+99

> <Gold.Protein.RotatedTorsions>
[ 6907 6896 6895 6894 ] final  131.03 input  -60.11 | X-H torsion
[ 7974 7965 7964 7962 ] final  -65.58 input  175.53 | X-H torsion
[ 8008 7997 7996 7995 ] final  117.02 input   59.86 | X-H torsion
[ 10167 10162 10161 10158 ] final -136.75 input  -65.29 | X-H torsion
[ 10718 10713 10712 10709 ] final  -62.60 input   66.30 | X-H torsion
[ 10763 10752 10751 10750 ] final  168.05 input  -60.55 | X-H torsion
[ 11005 11000 10999 10996 ] final  165.42 input  -57.11 | X-H torsion

> <Gold.Protein.ActiveResidues>
 VAL166  LYS551  ARG553  GLY616  TRP617  ASP618  TYR619  PRO620  LYS621  CYS622 
 ASP623  PHE694  ASN695  SER759  ASP760  ASP761  ALA762  ILE779  LEU786  VAL792 
 PHE793  MET794  SER795  GLU796  ALA797  LYS798  CYS799  TRP800  GLU811  SER814 

> <Gold.Protein.RotatedAtoms>
  152.3467  133.6130  159.5914 H   0  0  0  0  0  0  0  0  0  0  0  0  # atno 6907 bound_to 6896
  150.7512  133.9639  159.3533 H   0  0  0  0  0  0  0  0  0  0  0  0  # atno 6908 bound_to 6896
  151.7496  135.0836  160.0380 H   0  0  0  0  0  0  0  0  0  0  0  0  # atno 6909 bound_to 6896
  145.7525  140.8901  143.0472 H   0  0  0  0  0  0  0  0  0  0  0  0  # atno 7974 bound_to 7965
  156.2471  140.2905  156.0614 H   0  0  0  0  0  0  0  0  0  0  0  0  # atno 8008 bound_to 7997
  155.1772  140.0403  157.2892 H   0  0  0  0  0  0  0  0  0  0  0  0  # atno 8009 bound_to 7997
  154.6285  140.2493  155.7470 H   0  0  0  0  0  0  0  0  0  0  0  0  # atno 8010 bound_to 7997
  139.8647  143.7033  152.2646 H   0  0  0  0  0  0  0  0  0  0  0  0  # atno 10167 bound_to 10162
  156.0845  130.4211  150.1157 H   0  0  0  0  0  0  0  0  0  0  0  0  # atno 10718 bound_to 10713
  154.3629  135.2753  155.2310 H   0  0  0  0  0  0  0  0  0  0  0  0  # atno 10763 bound_to 10752
  154.4490  135.5935  153.6183 H   0  0  0  0  0  0  0  0  0  0  0  0  # atno 10764 bound_to 10752
  152.9842  135.6037  154.3851 H   0  0  0  0  0  0  0  0  0  0  0  0  # atno 10765 bound_to 10752
  140.2559  134.7940  157.3545 H   0  0  0  0  0  0  0  0  0  0  0  0  # atno 11005 bound_to 11000
  144.6847  139.9611  143.7480 LP  0  0  0  0  0  0  0  0  0  0  0  0  # atno 17320 bound_to 7965
  146.0343  139.3363  143.0736 LP  0  0  0  0  0  0  0  0  0  0  0  0  # atno 17321 bound_to 7965
  139.7340  144.7575  151.0756 LP  0  0  0  0  0  0  0  0  0  0  0  0  # atno 17342 bound_to 10162
  140.7770  143.5053  150.9720 LP  0  0  0  0  0  0  0  0  0  0  0  0  # atno 17343 bound_to 10162
  156.9181  130.9674  151.3553 LP  0  0  0  0  0  0  0  0  0  0  0  0  # atno 17370 bound_to 10713
  157.5974  130.8488  149.8750 LP  0  0  0  0  0  0  0  0  0  0  0  0  # atno 17371 bound_to 10713
  140.1512  134.4848  155.7960 LP  0  0  0  0  0  0  0  0  0  0  0  0  # atno 17394 bound_to 11000
  141.2196  133.6863  156.7381 LP  0  0  0  0  0  0  0  0  0  0  0  0  # atno 17395 bound_to 11000

$$$$
