AV-unprocessed.smi:3311|AV-procd|sdf|12720|dock3
  -GOLD-   2272019 63D 1   1.00000     0.00000
 Structure written by MMmdl.
 44 45  0  0  0  0  0  0  0  0  2 V2000
  149.6263  139.6320  154.7025 C   0  0  0  0  0  0  0  0  0  0  0  0
  148.7754  140.8379  155.1405 C   0  0  1  0  0  0  0  0  0  0  0  0
  149.6679  141.9976  155.3585 N   0  3  0  0  0  0  0  0  0  0  0  0
  150.8787  141.7119  156.1585 C   0  0  0  0  0  0  0  0  0  0  0  0
  150.8970  142.4887  157.4933 C   0  0  0  0  0  0  0  0  0  0  0  0
  149.5625  142.5348  157.9678 O   0  0  0  0  0  0  0  0  0  0  0  0
  151.7468  141.7221  158.5344 C   0  0  0  0  0  0  0  0  0  0  0  0
  151.8962  142.4803  159.8658 C   0  0  0  0  0  0  0  0  0  0  0  0
  152.4581  143.8913  159.6439 C   0  0  0  0  0  0  0  0  0  0  0  0
  151.5888  144.6798  158.6544 C   0  0  0  0  0  0  0  0  0  0  0  0
  151.4342  143.9310  157.3182 C   0  0  0  0  0  0  0  0  0  0  0  0
  147.6602  141.2046  154.1268 C   0  0  2  0  0  0  0  0  0  0  0  0
  146.6349  142.2001  154.7011 C   0  0  0  0  0  0  0  0  0  0  0  0
  146.9740  140.0209  153.6242 N   0  0  0  0  0  0  0  0  0  0  0  0
  146.8696  139.5679  152.3236 C   0  0  0  0  0  0  0  0  0  0  0  0
  146.1189  138.4277  152.3471 C   0  0  0  0  0  0  0  0  0  0  0  0
  145.8013  138.2607  153.7236 C   0  0  0  0  0  0  0  0  0  0  0  0
  146.3114  139.2161  154.4838 N   0  0  0  0  0  0  0  0  0  0  0  0
  149.0332  138.7201  154.6310 H   0  0  0  0  0  0  0  0  0  0  0  0
  150.4253  139.4367  155.4185 H   0  0  0  0  0  0  0  0  0  0  0  0
  150.0874  139.8058  153.7297 H   0  0  0  0  0  0  0  0  0  0  0  0
  148.3023  140.5665  156.0861 H   0  0  0  0  0  0  0  0  0  0  0  0
  149.9587  142.3530  154.4592 H   0  0  0  0  0  0  0  0  0  0  0  0
  150.9301  140.6393  156.3524 H   0  0  0  0  0  0  0  0  0  0  0  0
  151.7576  141.9673  155.5648 H   0  0  0  0  0  0  0  0  0  0  0  0
  149.1848  141.6720  157.8831 H   0  0  0  0  0  0  0  0  0  0  0  0
  151.3191  140.7360  158.7211 H   0  0  0  0  0  0  0  0  0  0  0  0
  152.7421  141.5443  158.1245 H   0  0  0  0  0  0  0  0  0  0  0  0
  150.9301  142.5447  160.3678 H   0  0  0  0  0  0  0  0  0  0  0  0
  152.5512  141.9235  160.5365 H   0  0  0  0  0  0  0  0  0  0  0  0
  152.5150  144.4228  160.5945 H   0  0  0  0  0  0  0  0  0  0  0  0
  153.4786  143.8247  159.2646 H   0  0  0  0  0  0  0  0  0  0  0  0
  150.6068  144.8602  159.0931 H   0  0  0  0  0  0  0  0  0  0  0  0
  152.0294  145.6616  158.4784 H   0  0  0  0  0  0  0  0  0  0  0  0
  152.4071  143.8934  156.8261 H   0  0  0  0  0  0  0  0  0  0  0  0
  150.7839  144.5069  156.6586 H   0  0  0  0  0  0  0  0  0  0  0  0
  148.1354  141.6892  153.2715 H   0  0  0  0  0  0  0  0  0  0  0  0
  147.1030  143.1481  154.9664 H   0  0  0  0  0  0  0  0  0  0  0  0
  146.1520  141.8077  155.5967 H   0  0  0  0  0  0  0  0  0  0  0  0
  145.8541  142.4205  153.9721 H   0  0  0  0  0  0  0  0  0  0  0  0
  147.3323  140.0884  151.4979 H   0  0  0  0  0  0  0  0  0  0  0  0
  145.8386  137.8075  151.5086 H   0  0  0  0  0  0  0  0  0  0  0  0
  145.2185  137.4800  154.1899 H   0  0  0  0  0  0  0  0  0  0  0  0
  149.1420  142.7199  155.8305 H   0  0  0  0  0  0  0  0  0  0  0  0
  1  2  1  0  0  0  0
  1 19  1  0  0  0  0
  1 20  1  0  0  0  0
  1 21  1  0  0  0  0
  2  3  1  0  0  0  0
  2 12  1  0  0  0  0
  2 22  1  0  0  0  0
  3  4  1  0  0  0  0
  3 23  1  0  0  0  0
  3 44  1  0  0  0  0
  4  5  1  0  0  0  0
  4 24  1  0  0  0  0
  4 25  1  0  0  0  0
  5 11  1  0  0  0  0
  5  6  1  0  0  0  0
  5  7  1  0  0  0  0
  6 26  1  0  0  0  0
  7  8  1  0  0  0  0
  7 27  1  0  0  0  0
  7 28  1  0  0  0  0
  8  9  1  0  0  0  0
  8 29  1  0  0  0  0
  8 30  1  0  0  0  0
  9 10  1  0  0  0  0
  9 31  1  0  0  0  0
  9 32  1  0  0  0  0
 10 11  1  0  0  0  0
 10 33  1  0  0  0  0
 10 34  1  0  0  0  0
 11 35  1  0  0  0  0
 11 36  1  0  0  0  0
 12 13  1  0  0  0  0
 12 14  1  0  0  0  0
 12 37  1  0  0  0  0
 13 38  1  0  0  0  0
 13 39  1  0  0  0  0
 13 40  1  0  0  0  0
 14 18  1  0  0  0  0
 14 15  1  0  0  0  0
 15 16  2  0  0  0  0
 15 41  1  0  0  0  0
 16 17  1  0  0  0  0
 16 42  1  0  0  0  0
 17 18  2  0  0  0  0
 17 43  1  0  0  0  0
M  CHG  1   3   1
M  END
> <s_m_source_file>
AV-unprocessed.smi

> <i_m_source_file_index>
3311

> <i_lp_mmshare_version>
43012

> <i_f3d_flags>
0

> <s_epik_input>
bjFbY0hdW2NIXVtjSF1uMVtDQEBIXShbQ0gzXSlbQ0BIXShbQ0gzXSlbTkhdW0NIMl1DMihbT0hdKVtDSDJdW0NIMl1bQ0gyXVtDSDJdW0NIMl0y

> <s_epik_cmdline>
J2VwaWtfcHl0aG9uJywgJy1waCcsICc3LjAnLCAnLXRuJywgJzgnLCAnLW1hJywgJzIwMCcsICctbWV0YWxfYmluZGluZycsICctaW1hZScsICc8aW5maWxlLm1hZT4nLCAnLW9tYWUnLCAnPG91dGZpbGUubWFlPic=

> <r_lp_tautomer_probability>
1

> <r_epik_Ionization_Penalty>
0.0141403

> <r_epik_Ionization_Penalty_Charging>
0.0141276

> <r_epik_Ionization_Penalty_Neutral>
1.27139e-05

> <r_epik_State_Penalty>
0.0110334

> <r_epik_Charging_Adjusted_Penalty>
0.025161

> <i_epik_Tot_Q>
1

> <i_epik_Tot_abs_Q>
1

> <r_epik_Metal_State_Penalty>
0.0110573

> <b_epik_Metal_Only>
0

> <s_lp_Force_Field>
OPLS_2005

> <r_lp_Energy>
23.6471

> <b_lp_Chiralities_Consistent>
1

> <s_lp_Variant>
AV-unprocessed.smi:3311-2

> <Gold.Version>
5.8.1

> <Gold.Id.Protein>
6NUR|6NUR_protein|mol2

> <Gold.PLP.Fitness>
47.1111

> <Gold.PLP.PLP>
-40.3979

> <Gold.PLP.part.hbond>
-2.0000

> <Gold.PLP.part.metal>
0.0000

> <Gold.PLP.part.buried>
-1.1295

> <Gold.PLP.part.nonpolar>
-37.9679

> <Gold.PLP.part.repulsive>
0.3177

> <Gold.PLP.ligand.clash>
0.0000

> <Gold.PLP.ligand.torsion>
1.0451

> <Gold.PLP.Chemscore.Hbond>
1.9840

> <Gold.PLP.Chemscore.CHOScore>
0.9282

> <Gold.PLP.Chemscore.Metal>
0.0000

> <Gold.Chemscore.Hbonds>
donor molecule, donor type, donor heavy atom, donor atom, acceptor molecule, acceptor atom, score
      L1  H     3    44       P1  8028  1.47
      L1  C    15    41       P1  7957  0.86

> <Gold.PLP.Chemscore.Internal.Correction>
0.0667

> <Gold.Rescore>
     Score         DG    S(hbond)    S(metal)    S(lipo)     H(rot)  DE(clash)    DE(int)     intcor
     15.67     -17.07       0.96        0.00     118.54       2.14       0.43       0.97       ----

> <Gold.Chemscore.Fitness>
15.6684

> <Gold.Chemscore.DG>
-17.0670

> <Gold.Chemscore.ZeroCoef>
-5.4800

> <Gold.Chemscore.Hbond>
0.9588

> <Gold.Chemscore.Metal>
0.0000

> <Gold.Chemscore.Lipo>
118.5413

> <Gold.Chemscore.Internal_Hbond>
0.0000

> <Gold.Chemscore.DEClash>
0.4300

> <Gold.Chemscore.DEInternal>
0.9685

> <Gold.Chemscore.Rot>
2.1424

> <Gold.Chemscore.Internal.Correction>
   9.000000E+99

> <Gold.Chemscore.Hbonds>
donor molecule, donor type, donor heavy atom, donor atom, acceptor molecule, acceptor atom, score
      L1  H     3    44       P1  8028  0.70

> <Gold.Chemscore.Hbond.Weighted>
-3.2023

> <Gold.Chemscore.Metal.Weighted>
-0.0000

> <Gold.Chemscore.Lipo.Weighted>
-13.8693

> <Gold.Chemscore.Internal_Hbond.Weighted>
0.0000

> <Gold.Chemscore.DEClash.Weighted>
0.4300

> <Gold.Chemscore.DEInternal.Weighted>
0.9685

> <Gold.Chemscore.Rot.Weighted>
5.4846

> <Gold.Chemscore.Internal.Correction.Weighted>
   9.000000E+99

> <Gold.Protein.RotatedTorsions>
[ 6907 6896 6895 6894 ] final   44.66 input  -60.11 | X-H torsion
[ 7974 7965 7964 7962 ] final   -4.62 input  175.53 | X-H torsion
[ 8008 7997 7996 7995 ] final  128.07 input   59.86 | X-H torsion
[ 10167 10162 10161 10158 ] final -151.46 input  -65.29 | X-H torsion
[ 10718 10713 10712 10709 ] final    6.92 input   66.30 | X-H torsion
[ 10763 10752 10751 10750 ] final  -41.71 input  -60.55 | X-H torsion
[ 11005 11000 10999 10996 ] final  -80.46 input  -57.11 | X-H torsion

> <Gold.Protein.ActiveResidues>
 VAL166  LYS551  ARG553  GLY616  TRP617  ASP618  TYR619  PRO620  LYS621  CYS622 
 ASP623  PHE694  ASN695  SER759  ASP760  ASP761  ALA762  ILE779  LEU786  VAL792 
 PHE793  MET794  SER795  GLU796  ALA797  LYS798  CYS799  TRP800  GLU811  SER814 

> <Gold.Protein.RotatedAtoms>
  152.2352  134.8283  160.0467 H   0  0  0  0  0  0  0  0  0  0  0  0  # atno 6907 bound_to 6896
  151.9018  133.3535  159.3841 H   0  0  0  0  0  0  0  0  0  0  0  0  # atno 6908 bound_to 6896
  150.7037  134.4746  159.5486 H   0  0  0  0  0  0  0  0  0  0  0  0  # atno 6909 bound_to 6896
  146.2369  140.1898  142.8332 H   0  0  0  0  0  0  0  0  0  0  0  0  # atno 7974 bound_to 7965
  156.2906  140.2653  156.2377 H   0  0  0  0  0  0  0  0  0  0  0  0  # atno 8008 bound_to 7997
  155.0009  140.0388  157.2378 H   0  0  0  0  0  0  0  0  0  0  0  0  # atno 8009 bound_to 7997
  154.7602  140.2759  155.6225 H   0  0  0  0  0  0  0  0  0  0  0  0  # atno 8010 bound_to 7997
  139.7266  143.8874  152.2521 H   0  0  0  0  0  0  0  0  0  0  0  0  # atno 10167 bound_to 10162
  156.9293  130.5820  149.5649 H   0  0  0  0  0  0  0  0  0  0  0  0  # atno 10718 bound_to 10713
  153.9670  135.6733  153.4746 H   0  0  0  0  0  0  0  0  0  0  0  0  # atno 10763 bound_to 10752
  153.0811  135.4923  154.8501 H   0  0  0  0  0  0  0  0  0  0  0  0  # atno 10764 bound_to 10752
  154.7240  135.3123  154.8961 H   0  0  0  0  0  0  0  0  0  0  0  0  # atno 10765 bound_to 10752
  141.1668  133.7151  156.8276 H   0  0  0  0  0  0  0  0  0  0  0  0  # atno 11005 bound_to 11000
  144.9867  140.8509  143.5364 LP  0  0  0  0  0  0  0  0  0  0  0  0  # atno 17320 bound_to 7965
  145.1899  139.2307  143.5248 LP  0  0  0  0  0  0  0  0  0  0  0  0  # atno 17321 bound_to 7965
  139.8785  144.7030  150.8905 LP  0  0  0  0  0  0  0  0  0  0  0  0  # atno 17342 bound_to 10162
  140.7764  143.3680  151.1702 LP  0  0  0  0  0  0  0  0  0  0  0  0  # atno 17343 bound_to 10162
  156.0455  130.5532  150.8870 LP  0  0  0  0  0  0  0  0  0  0  0  0  # atno 17370 bound_to 10713
  157.5857  131.0945  150.9199 LP  0  0  0  0  0  0  0  0  0  0  0  0  # atno 17371 bound_to 10713
  140.2074  134.8852  157.3237 LP  0  0  0  0  0  0  0  0  0  0  0  0  # atno 17394 bound_to 11000
  140.2123  134.4124  155.7607 LP  0  0  0  0  0  0  0  0  0  0  0  0  # atno 17395 bound_to 11000

$$$$
