AV-unprocessed.smi:3031|AV-procd|sdf|11556|dock9
  -GOLD-   2272016523D 1   1.00000     0.00000
 Structure written by MMmdl.
 46 47  0  0  0  0  0  0  0  0  1 V2000
  153.3771  143.6993  162.6940 C   0  0  0  0  0  0  0  0  0  0  0  0
  152.9477  143.2442  161.3292 C   0  0  0  0  0  0  0  0  0  0  0  0
  152.4281  144.0372  160.2673 C   0  0  0  0  0  0  0  0  0  0  0  0
  152.1336  143.3262  159.1915 N   0  0  0  0  0  0  0  0  0  0  0  0
  152.4711  142.0603  159.5184 N   0  0  0  0  0  0  0  0  0  0  0  0
  152.2521  140.9848  158.5651 C   0  0  0  0  0  0  0  0  0  0  0  0
  150.7740  140.8231  158.1325 C   0  0  1  0  0  0  0  0  0  0  0  0
  150.6857  140.4916  156.6361 C   0  0  0  0  0  0  0  0  0  0  0  0
  150.0668  139.7784  158.8805 N   0  0  0  0  0  0  0  0  0  0  0  0
  148.6596  139.5750  158.5401 C   0  0  0  0  0  0  0  0  0  0  0  0
  148.0018  138.5359  159.4674 C   0  0  1  0  0  0  0  0  0  0  0  0
  148.7773  138.4802  160.6460 O   0  0  0  0  0  0  0  0  0  0  0  0
  146.5626  138.9013  159.8980 C   0  0  0  0  0  0  0  0  0  0  0  0
  146.1797  138.5058  161.2544 N   0  0  0  0  0  0  0  0  0  0  0  0
  145.2485  137.3837  161.2356 C   0  0  0  0  0  0  0  0  0  0  0  0
  144.8555  136.9431  162.6563 C   0  0  0  0  0  0  0  0  0  0  0  0
  144.3014  138.0487  163.3621 O   0  0  0  0  0  0  0  0  0  0  0  0
  145.1947  139.1548  163.4396 C   0  0  0  0  0  0  0  0  0  0  0  0
  145.5897  139.6010  162.0210 C   0  0  0  0  0  0  0  0  0  0  0  0
  152.9491  141.9807  160.8100 C   0  0  0  0  0  0  0  0  0  0  0  0
  153.7336  144.7294  162.6830 H   0  0  0  0  0  0  0  0  0  0  0  0
  154.1860  143.0848  163.0896 H   0  0  0  0  0  0  0  0  0  0  0  0
  152.5559  143.6510  163.4092 H   0  0  0  0  0  0  0  0  0  0  0  0
  152.2514  145.1024  160.2492 H   0  0  0  0  0  0  0  0  0  0  0  0
  152.8682  141.2144  157.6947 H   0  0  0  0  0  0  0  0  0  0  0  0
  152.6378  140.0474  158.9701 H   0  0  0  0  0  0  0  0  0  0  0  0
  150.2556  141.7723  158.2708 H   0  0  0  0  0  0  0  0  0  0  0  0
  151.1423  141.2761  156.0318 H   0  0  0  0  0  0  0  0  0  0  0  0
  149.6480  140.3957  156.3146 H   0  0  0  0  0  0  0  0  0  0  0  0
  151.1942  139.5546  156.4054 H   0  0  0  0  0  0  0  0  0  0  0  0
  150.5615  138.8976  158.7749 H   0  0  0  0  0  0  0  0  0  0  0  0
  148.1231  140.5173  158.6359 H   0  0  0  0  0  0  0  0  0  0  0  0
  148.5599  139.2578  157.5012 H   0  0  0  0  0  0  0  0  0  0  0  0
  148.0432  137.5441  159.0170 H   0  0  0  0  0  0  0  0  0  0  0  0
  148.8688  139.3576  160.9849 H   0  0  0  0  0  0  0  0  0  0  0  0
  146.4197  139.9778  159.7893 H   0  0  0  0  0  0  0  0  0  0  0  0
  145.8742  138.4401  159.1879 H   0  0  0  0  0  0  0  0  0  0  0  0
  144.3497  137.6577  160.6809 H   0  0  0  0  0  0  0  0  0  0  0  0
  145.6957  136.5402  160.7083 H   0  0  0  0  0  0  0  0  0  0  0  0
  144.1191  136.1404  162.6151 H   0  0  0  0  0  0  0  0  0  0  0  0
  145.7227  136.5567  163.1945 H   0  0  0  0  0  0  0  0  0  0  0  0
  144.7077  139.9709  163.9734 H   0  0  0  0  0  0  0  0  0  0  0  0
  146.0789  138.8771  164.0160 H   0  0  0  0  0  0  0  0  0  0  0  0
  146.2913  140.4301  162.1025 H   0  0  0  0  0  0  0  0  0  0  0  0
  144.7094  139.9847  161.5031 H   0  0  0  0  0  0  0  0  0  0  0  0
  153.2488  141.0406  161.2495 H   0  0  0  0  0  0  0  0  0  0  0  0
  1  2  1  0  0  0  0
  1 21  1  0  0  0  0
  1 22  1  0  0  0  0
  1 23  1  0  0  0  0
  2 20  2  0  0  0  0
  2  3  1  0  0  0  0
  3  4  2  0  0  0  0
  3 24  1  0  0  0  0
  4  5  1  0  0  0  0
  5  6  1  0  0  0  0
  5 20  1  0  0  0  0
  6  7  1  0  0  0  0
  6 25  1  0  0  0  0
  6 26  1  0  0  0  0
  7  8  1  0  0  0  0
  7  9  1  0  0  0  0
  7 27  1  0  0  0  0
  8 28  1  0  0  0  0
  8 29  1  0  0  0  0
  8 30  1  0  0  0  0
  9 10  1  0  0  0  0
  9 31  1  0  0  0  0
 10 11  1  0  0  0  0
 10 32  1  0  0  0  0
 10 33  1  0  0  0  0
 11 12  1  0  0  0  0
 11 13  1  0  0  0  0
 11 34  1  0  0  0  0
 12 35  1  0  0  0  0
 13 14  1  0  0  0  0
 13 36  1  0  0  0  0
 13 37  1  0  0  0  0
 14 19  1  0  0  0  0
 14 15  1  0  0  0  0
 15 16  1  0  0  0  0
 15 38  1  0  0  0  0
 15 39  1  0  0  0  0
 16 17  1  0  0  0  0
 16 40  1  0  0  0  0
 16 41  1  0  0  0  0
 17 18  1  0  0  0  0
 18 19  1  0  0  0  0
 18 42  1  0  0  0  0
 18 43  1  0  0  0  0
 19 44  1  0  0  0  0
 19 45  1  0  0  0  0
 20 46  1  0  0  0  0
M  END
> <s_m_source_file>
AV-unprocessed.smi

> <i_m_source_file_index>
3031

> <i_lp_mmshare_version>
43012

> <i_f3d_flags>
0

> <s_epik_input>
W0NIM11jMVtjSF1ubihbY0hdMSlbQ0gyXVtDQEhdKFtDSDNdKVtOSF1bQ0gyXVtDQEhdKFtPSF0pW0NIMl1OMltDSDJdW0NIMl1PW0NIMl1bQ0gyXTI=

> <s_epik_cmdline>
J2VwaWtfcHl0aG9uJywgJy1waCcsICc3LjAnLCAnLXRuJywgJzgnLCAnLW1hJywgJzIwMCcsICctbWV0YWxfYmluZGluZycsICctaW1hZScsICc8aW5maWxlLm1hZT4nLCAnLW9tYWUnLCAnPG91dGZpbGUubWFlPic=

> <r_lp_tautomer_probability>
1

> <r_epik_Ionization_Penalty>
2.8101

> <r_epik_Ionization_Penalty_Charging>
0

> <r_epik_Ionization_Penalty_Neutral>
2.8101

> <r_epik_State_Penalty>
2.12351

> <r_epik_Charging_Adjusted_Penalty>
2.12351

> <i_epik_Tot_Q>
0

> <i_epik_Tot_abs_Q>
0

> <r_epik_Metal_State_Penalty>
2.12345

> <b_epik_Metal_Only>
0

> <s_lp_Force_Field>
OPLS_2005

> <r_lp_Energy>
29.6213

> <b_lp_Chiralities_Consistent>
1

> <s_lp_Variant>
AV-unprocessed.smi:3031-16

> <Gold.Version>
5.8.1

> <Gold.Id.Protein>
6NUR|6NUR_protein|mol2

> <Gold.PLP.Fitness>
43.4239

> <Gold.PLP.PLP>
-44.8594

> <Gold.PLP.part.hbond>
-1.6915

> <Gold.PLP.part.metal>
0.0000

> <Gold.PLP.part.buried>
-7.4946

> <Gold.PLP.part.nonpolar>
-36.2493

> <Gold.PLP.part.repulsive>
0.0000

> <Gold.PLP.ligand.clash>
0.0000

> <Gold.PLP.ligand.torsion>
2.2230

> <Gold.PLP.Chemscore.Hbond>
0.9750

> <Gold.PLP.Chemscore.CHOScore>
0.0000

> <Gold.PLP.Chemscore.Metal>
0.0000

> <Gold.PLP.Chemscore.Internal.Correction>
0.0854

> <Gold.Rescore>
     Score         DG    S(hbond)    S(metal)    S(lipo)     H(rot)  DE(clash)    DE(int)     intcor
     11.73     -14.85       0.94        0.00     108.58       2.53       0.11       3.01       ----

> <Gold.Chemscore.Fitness>
11.7300

> <Gold.Chemscore.DG>
-14.8486

> <Gold.Chemscore.ZeroCoef>
-5.4800

> <Gold.Chemscore.Hbond>
0.9432

> <Gold.Chemscore.Metal>
0.0000

> <Gold.Chemscore.Lipo>
108.5766

> <Gold.Chemscore.Internal_Hbond>
0.0000

> <Gold.Chemscore.DEClash>
0.1058

> <Gold.Chemscore.DEInternal>
3.0128

> <Gold.Chemscore.Rot>
2.5333

> <Gold.Chemscore.Internal.Correction>
   9.000000E+99

> <Gold.Chemscore.Hbond.Weighted>
-3.1503

> <Gold.Chemscore.Metal.Weighted>
-0.0000

> <Gold.Chemscore.Lipo.Weighted>
-12.7035

> <Gold.Chemscore.Internal_Hbond.Weighted>
0.0000

> <Gold.Chemscore.DEClash.Weighted>
0.1058

> <Gold.Chemscore.DEInternal.Weighted>
3.0128

> <Gold.Chemscore.Rot.Weighted>
6.4852

> <Gold.Chemscore.Internal.Correction.Weighted>
   9.000000E+99

> <Gold.Protein.RotatedTorsions>
[ 6907 6896 6895 6894 ] final  -24.29 input  -60.11 | X-H torsion
[ 7974 7965 7964 7962 ] final   57.19 input  175.53 | X-H torsion
[ 8008 7997 7996 7995 ] final  178.29 input   59.86 | X-H torsion
[ 10167 10162 10161 10158 ] final -119.83 input  -65.29 | X-H torsion
[ 10718 10713 10712 10709 ] final   21.95 input   66.30 | X-H torsion
[ 10763 10752 10751 10750 ] final   23.18 input  -60.55 | X-H torsion
[ 11005 11000 10999 10996 ] final    6.30 input  -57.11 | X-H torsion

> <Gold.Protein.ActiveResidues>
 VAL166  LYS551  ARG553  GLY616  TRP617  ASP618  TYR619  PRO620  LYS621  CYS622 
 ASP623  PHE694  ASN695  SER759  ASP760  ASP761  ALA762  ILE779  LEU786  VAL792 
 PHE793  MET794  SER795  GLU796  ALA797  LYS798  CYS799  TRP800  GLU811  SER814 

> <Gold.Protein.RotatedAtoms>
  151.1917  135.0405  159.8834 H   0  0  0  0  0  0  0  0  0  0  0  0  # atno 6907 bound_to 6896
  152.5439  134.0949  159.8303 H   0  0  0  0  0  0  0  0  0  0  0  0  # atno 6908 bound_to 6896
  151.1078  133.5148  159.2639 H   0  0  0  0  0  0  0  0  0  0  0  0  # atno 6909 bound_to 6896
  145.9317  139.3813  143.0417 H   0  0  0  0  0  0  0  0  0  0  0  0  # atno 7974 bound_to 7965
  156.0563  140.1337  156.9993 H   0  0  0  0  0  0  0  0  0  0  0  0  # atno 8008 bound_to 7997
  154.4459  140.1000  156.6521 H   0  0  0  0  0  0  0  0  0  0  0  0  # atno 8009 bound_to 7997
  155.5447  140.3461  155.4457 H   0  0  0  0  0  0  0  0  0  0  0  0  # atno 8010 bound_to 7997
  140.0424  143.5140  152.2123 H   0  0  0  0  0  0  0  0  0  0  0  0  # atno 10167 bound_to 10162
  157.1456  130.6652  149.5995 H   0  0  0  0  0  0  0  0  0  0  0  0  # atno 10718 bound_to 10713
  153.0858  135.6632  153.9952 H   0  0  0  0  0  0  0  0  0  0  0  0  # atno 10763 bound_to 10752
  153.9562  135.2979  155.3437 H   0  0  0  0  0  0  0  0  0  0  0  0  # atno 10764 bound_to 10752
  154.7266  135.5141  153.8968 H   0  0  0  0  0  0  0  0  0  0  0  0  # atno 10765 bound_to 10752
  140.5610  134.0192  155.7972 H   0  0  0  0  0  0  0  0  0  0  0  0  # atno 11005 bound_to 11000
  145.8417  140.9577  143.0796 LP  0  0  0  0  0  0  0  0  0  0  0  0  # atno 17320 bound_to 7965
  144.6766  140.0292  143.7483 LP  0  0  0  0  0  0  0  0  0  0  0  0  # atno 17321 bound_to 7965
  139.6005  144.7581  151.3183 LP  0  0  0  0  0  0  0  0  0  0  0  0  # atno 17342 bound_to 10162
  140.7254  143.7018  150.7839 LP  0  0  0  0  0  0  0  0  0  0  0  0  # atno 17343 bound_to 10162
  155.9780  130.4762  150.6629 LP  0  0  0  0  0  0  0  0  0  0  0  0  # atno 17370 bound_to 10713
  157.4267  131.0844  151.1078 LP  0  0  0  0  0  0  0  0  0  0  0  0  # atno 17371 bound_to 10713
  141.1114  133.9610  157.2902 LP  0  0  0  0  0  0  0  0  0  0  0  0  # atno 17394 bound_to 11000
  139.9408  135.0191  156.8701 LP  0  0  0  0  0  0  0  0  0  0  0  0  # atno 17395 bound_to 11000

$$$$
