AV-unprocessed.smi:1149|AV-procd|sdf|4892|dock1
  -GOLD-   22720 3463D 1   1.00000     0.00000
 Structure written by MMmdl.
 50 51  0  0  0  0  0  0  0  0  1 V2000
  146.3598  128.6409  151.9289 C   0  0  0  0  0  0  0  0  0  0  0  0
  147.2470  128.9143  153.0081 O   0  0  0  0  0  0  0  0  0  0  0  0
  147.6415  130.2203  153.2169 C   0  0  0  0  0  0  0  0  0  0  0  0
  146.9229  131.2517  152.5807 C   0  0  0  0  0  0  0  0  0  0  0  0
  147.3225  132.5851  152.7897 C   0  0  0  0  0  0  0  0  0  0  0  0
  148.4319  132.8491  153.6178 C   0  0  0  0  0  0  0  0  0  0  0  0
  148.8019  134.2044  153.8294 N   0  0  0  0  0  0  0  0  0  0  0  0
  149.2334  134.7828  154.9632 C   0  0  0  0  0  0  0  0  0  0  0  0
  149.4401  134.1955  156.0248 O   0  0  0  0  0  0  0  0  0  0  0  0
  149.4410  136.0948  154.7856 N   0  0  0  0  0  0  0  0  0  0  0  0
  149.9511  137.0274  155.7905 C   0  0  0  0  0  0  0  0  0  0  0  0
  150.4085  138.3788  155.1682 C   0  0  0  0  0  0  0  0  0  0  0  0
  151.6935  138.0962  154.3528 C   0  0  0  0  0  0  0  0  0  0  0  0
  149.3060  138.7891  154.1589 C   0  0  0  0  0  0  0  0  0  0  0  0
  150.5977  139.4274  156.2098 N   0  0  0  0  0  0  0  0  0  0  0  0
  151.5594  139.0797  157.2690 C   0  0  0  0  0  0  0  0  0  0  0  0
  151.5931  140.1430  158.3820 C   0  0  0  0  0  0  0  0  0  0  0  0
  151.9454  141.4575  157.8545 N   0  0  0  0  0  0  0  0  0  0  0  0
  151.9893  142.4609  158.9068 C   0  0  0  0  0  0  0  0  0  0  0  0
  150.9894  141.8151  156.8110 C   0  0  0  0  0  0  0  0  0  0  0  0
  150.9542  140.7583  155.6917 C   0  0  0  0  0  0  0  0  0  0  0  0
  149.0808  131.7448  154.2220 C   0  0  0  0  0  0  0  0  0  0  0  0
  148.7007  130.4640  154.0276 N   0  0  0  0  0  0  0  0  0  0  0  0
  146.1404  127.5738  151.9030 H   0  0  0  0  0  0  0  0  0  0  0  0
  146.8042  128.9100  150.9697 H   0  0  0  0  0  0  0  0  0  0  0  0
  145.4129  129.1699  152.0459 H   0  0  0  0  0  0  0  0  0  0  0  0
  146.0800  131.0243  151.9449 H   0  0  0  0  0  0  0  0  0  0  0  0
  146.7843  133.3925  152.3147 H   0  0  0  0  0  0  0  0  0  0  0  0
  148.7780  134.7941  153.0102 H   0  0  0  0  0  0  0  0  0  0  0  0
  149.2576  136.4820  153.8715 H   0  0  0  0  0  0  0  0  0  0  0  0
  149.1689  137.1804  156.5334 H   0  0  0  0  0  0  0  0  0  0  0  0
  150.7730  136.5801  156.3525 H   0  0  0  0  0  0  0  0  0  0  0  0
  151.5148  137.3332  153.5943 H   0  0  0  0  0  0  0  0  0  0  0  0
  152.5065  137.7302  154.9796 H   0  0  0  0  0  0  0  0  0  0  0  0
  152.0519  138.9814  153.8279 H   0  0  0  0  0  0  0  0  0  0  0  0
  149.0331  137.9597  153.5053 H   0  0  0  0  0  0  0  0  0  0  0  0
  149.6262  139.5989  153.5034 H   0  0  0  0  0  0  0  0  0  0  0  0
  148.3969  139.1147  154.6657 H   0  0  0  0  0  0  0  0  0  0  0  0
  151.3009  138.1295  157.7318 H   0  0  0  0  0  0  0  0  0  0  0  0
  152.5608  138.9670  156.8530 H   0  0  0  0  0  0  0  0  0  0  0  0
  150.6214  140.1855  158.8768 H   0  0  0  0  0  0  0  0  0  0  0  0
  152.3174  139.8459  159.1413 H   0  0  0  0  0  0  0  0  0  0  0  0
  152.2766  143.4321  158.5025 H   0  0  0  0  0  0  0  0  0  0  0  0
  152.7202  142.1890  159.6690 H   0  0  0  0  0  0  0  0  0  0  0  0
  151.0175  142.5679  159.3906 H   0  0  0  0  0  0  0  0  0  0  0  0
  149.9918  141.9263  157.2393 H   0  0  0  0  0  0  0  0  0  0  0  0
  151.2556  142.7827  156.3843 H   0  0  0  0  0  0  0  0  0  0  0  0
  151.9254  140.7280  155.1969 H   0  0  0  0  0  0  0  0  0  0  0  0
  150.2316  141.0917  154.9493 H   0  0  0  0  0  0  0  0  0  0  0  0
  149.9119  131.8703  154.8984 H   0  0  0  0  0  0  0  0  0  0  0  0
  1  2  1  0  0  0  0
  1 24  1  0  0  0  0
  1 25  1  0  0  0  0
  1 26  1  0  0  0  0
  2  3  1  0  0  0  0
  3 23  1  0  0  0  0
  3  4  2  0  0  0  0
  4  5  1  0  0  0  0
  4 27  1  0  0  0  0
  5  6  2  0  0  0  0
  5 28  1  0  0  0  0
  6  7  1  0  0  0  0
  6 22  1  0  0  0  0
  7  8  1  0  0  0  0
  7 29  1  0  0  0  0
  8  9  2  0  0  0  0
  8 10  1  0  0  0  0
 10 11  1  0  0  0  0
 10 30  1  0  0  0  0
 11 12  1  0  0  0  0
 11 31  1  0  0  0  0
 11 32  1  0  0  0  0
 12 13  1  0  0  0  0
 12 14  1  0  0  0  0
 12 15  1  0  0  0  0
 13 33  1  0  0  0  0
 13 34  1  0  0  0  0
 13 35  1  0  0  0  0
 14 36  1  0  0  0  0
 14 37  1  0  0  0  0
 14 38  1  0  0  0  0
 15 21  1  0  0  0  0
 15 16  1  0  0  0  0
 16 17  1  0  0  0  0
 16 39  1  0  0  0  0
 16 40  1  0  0  0  0
 17 18  1  0  0  0  0
 17 41  1  0  0  0  0
 17 42  1  0  0  0  0
 18 19  1  0  0  0  0
 18 20  1  0  0  0  0
 19 43  1  0  0  0  0
 19 44  1  0  0  0  0
 19 45  1  0  0  0  0
 20 21  1  0  0  0  0
 20 46  1  0  0  0  0
 20 47  1  0  0  0  0
 21 48  1  0  0  0  0
 21 49  1  0  0  0  0
 22 23  2  0  0  0  0
 22 50  1  0  0  0  0
M  END
> <s_m_source_file>
AV-unprocessed.smi

> <i_m_source_file_index>
1149

> <i_lp_mmshare_version>
43012

> <i_f3d_flags>
0

> <s_epik_input>
W0NIM11PYzFbY0hdW2NIXWMoW2NIXW4xKVtOSF1DKD1PKVtOSF1bQ0gyXUMoW0NIM10pKFtDSDNdKU4yW0NIMl1bQ0gyXU4oW0NIM10pW0NIMl1bQ0gyXTI=

> <s_epik_cmdline>
J2VwaWtfcHl0aG9uJywgJy1waCcsICc3LjAnLCAnLXRuJywgJzgnLCAnLW1hJywgJzIwMCcsICctbWV0YWxfYmluZGluZycsICctaW1hZScsICc8aW5maWxlLm1hZT4nLCAnLW9tYWUnLCAnPG91dGZpbGUubWFlPic=

> <r_lp_tautomer_probability>
1

> <r_epik_Ionization_Penalty>
3.08543

> <r_epik_Ionization_Penalty_Charging>
0

> <r_epik_Ionization_Penalty_Neutral>
3.08543

> <r_epik_State_Penalty>
2.1584

> <r_epik_Charging_Adjusted_Penalty>
2.1584

> <i_epik_Tot_Q>
0

> <i_epik_Tot_abs_Q>
0

> <r_epik_Metal_State_Penalty>
2.1584

> <b_epik_Metal_Only>
0

> <s_lp_Force_Field>
OPLS_2005

> <r_lp_Energy>
53.6816

> <b_lp_Chiralities_Consistent>
1

> <s_lp_Variant>
AV-unprocessed.smi:1149-3

> <Gold.Version>
5.8.1

> <Gold.Id.Protein>
6NUR|6NUR_protein|mol2

> <Gold.PLP.Fitness>
40.9882

> <Gold.PLP.PLP>
-36.4043

> <Gold.PLP.part.hbond>
-2.0000

> <Gold.PLP.part.metal>
0.0000

> <Gold.PLP.part.buried>
-3.4983

> <Gold.PLP.part.nonpolar>
-30.7858

> <Gold.PLP.part.repulsive>
0.2029

> <Gold.PLP.ligand.clash>
0.0293

> <Gold.PLP.ligand.torsion>
0.7049

> <Gold.PLP.Chemscore.Hbond>
1.9920

> <Gold.PLP.Chemscore.CHOScore>
0.0000

> <Gold.PLP.Chemscore.Metal>
0.0000

> <Gold.Chemscore.Hbonds>
donor molecule, donor type, donor heavy atom, donor atom, acceptor molecule, acceptor atom, score
      L1  H     7    29       P1  7948  0.90
      L1  H    10    30       P1  7948  0.99

> <Gold.PLP.Chemscore.Internal.Correction>
0.0471

> <Gold.Rescore>
     Score         DG    S(hbond)    S(metal)    S(lipo)     H(rot)  DE(clash)    DE(int)     intcor
     15.31     -17.04       1.62        0.00      89.13       1.67       0.15       1.58       ----

> <Gold.Chemscore.Fitness>
15.3136

> <Gold.Chemscore.DG>
-17.0424

> <Gold.Chemscore.ZeroCoef>
-5.4800

> <Gold.Chemscore.Hbond>
1.6226

> <Gold.Chemscore.Metal>
0.0000

> <Gold.Chemscore.Lipo>
89.1258

> <Gold.Chemscore.Internal_Hbond>
0.0000

> <Gold.Chemscore.DEClash>
0.1527

> <Gold.Chemscore.DEInternal>
1.5762

> <Gold.Chemscore.Rot>
1.6737

> <Gold.Chemscore.Internal.Correction>
   9.000000E+99

> <Gold.Chemscore.Hbonds>
donor molecule, donor type, donor heavy atom, donor atom, acceptor molecule, acceptor atom, score
      L1  H     7    29       P1  7948  0.18
      L1  H    10    30       P1  7948  0.83

> <Gold.Chemscore.Hbond.Weighted>
-5.4195

> <Gold.Chemscore.Metal.Weighted>
-0.0000

> <Gold.Chemscore.Lipo.Weighted>
-10.4277

> <Gold.Chemscore.Internal_Hbond.Weighted>
0.0000

> <Gold.Chemscore.DEClash.Weighted>
0.1527

> <Gold.Chemscore.DEInternal.Weighted>
1.5762

> <Gold.Chemscore.Rot.Weighted>
4.2848

> <Gold.Chemscore.Internal.Correction.Weighted>
   9.000000E+99

> <Gold.Protein.RotatedTorsions>
[ 6907 6896 6895 6894 ] final -169.52 input  -60.11 | X-H torsion
[ 7974 7965 7964 7962 ] final  168.38 input  175.53 | X-H torsion
[ 8008 7997 7996 7995 ] final  177.70 input   59.86 | X-H torsion
[ 10167 10162 10161 10158 ] final  -10.71 input  -65.29 | X-H torsion
[ 10718 10713 10712 10709 ] final -157.72 input   66.30 | X-H torsion
[ 10763 10752 10751 10750 ] final -173.32 input  -60.55 | X-H torsion
[ 11005 11000 10999 10996 ] final  -68.19 input  -57.11 | X-H torsion

> <Gold.Protein.ActiveResidues>
 VAL166  LYS551  ARG553  GLY616  TRP617  ASP618  TYR619  PRO620  LYS621  CYS622 
 ASP623  PHE694  ASN695  SER759  ASP760  ASP761  ALA762  ILE779  LEU786  VAL792 
 PHE793  MET794  SER795  GLU796  ALA797  LYS798  CYS799  TRP800  GLU811  SER814 

> <Gold.Protein.RotatedAtoms>
  151.4930  133.3521  159.2856 H   0  0  0  0  0  0  0  0  0  0  0  0  # atno 6907 bound_to 6896
  150.8822  134.8217  159.7244 H   0  0  0  0  0  0  0  0  0  0  0  0  # atno 6908 bound_to 6896
  152.4770  134.4829  159.9723 H   0  0  0  0  0  0  0  0  0  0  0  0  # atno 6909 bound_to 6896
  144.7390  139.8899  143.6402 H   0  0  0  0  0  0  0  0  0  0  0  0  # atno 7974 bound_to 7965
  156.0628  140.1352  156.9921 H   0  0  0  0  0  0  0  0  0  0  0  0  # atno 8008 bound_to 7997
  154.4490  140.0988  156.6613 H   0  0  0  0  0  0  0  0  0  0  0  0  # atno 8009 bound_to 7997
  155.5351  140.3459  155.4437 H   0  0  0  0  0  0  0  0  0  0  0  0  # atno 8010 bound_to 7997
  140.7120  143.5718  150.9084 H   0  0  0  0  0  0  0  0  0  0  0  0  # atno 10167 bound_to 10162
  156.5442  130.8576  151.2759 H   0  0  0  0  0  0  0  0  0  0  0  0  # atno 10718 bound_to 10713
  154.6092  135.2863  155.0451 H   0  0  0  0  0  0  0  0  0  0  0  0  # atno 10763 bound_to 10752
  154.1687  135.6476  153.5007 H   0  0  0  0  0  0  0  0  0  0  0  0  # atno 10764 bound_to 10752
  153.0188  135.5395  154.6840 H   0  0  0  0  0  0  0  0  0  0  0  0  # atno 10765 bound_to 10752
  141.1526  133.6735  156.6408 H   0  0  0  0  0  0  0  0  0  0  0  0  # atno 11005 bound_to 11000
  146.1149  139.4159  143.0264 LP  0  0  0  0  0  0  0  0  0  0  0  0  # atno 17320 bound_to 7965
  145.7389  141.0015  143.1311 LP  0  0  0  0  0  0  0  0  0  0  0  0  # atno 17321 bound_to 7965
  139.9444  143.6344  152.3045 LP  0  0  0  0  0  0  0  0  0  0  0  0  # atno 17342 bound_to 10162
  139.6840  144.7653  151.1556 LP  0  0  0  0  0  0  0  0  0  0  0  0  # atno 17343 bound_to 10162
  157.7400  130.9841  150.2347 LP  0  0  0  0  0  0  0  0  0  0  0  0  # atno 17370 bound_to 10713
  156.2944  130.3750  149.7811 LP  0  0  0  0  0  0  0  0  0  0  0  0  # atno 17371 bound_to 10713
  140.3394  134.7861  157.4386 LP  0  0  0  0  0  0  0  0  0  0  0  0  # atno 17394 bound_to 11000
  140.0950  134.5549  155.8407 LP  0  0  0  0  0  0  0  0  0  0  0  0  # atno 17395 bound_to 11000

$$$$
