#       Name:                AV-unprocessed.smi:1841
#       Creating user name   scv26
#       Creation time:       Fri Mar 27 09:19:57 2020


#       File generated by GOLD software.
#

@<TRIPOS>MOLECULE
AV-unprocessed.smi:1841
    49    50     1
SMALL
NO_CHARGES


@<TRIPOS>ATOM
      1 ****        -3.7450   7.0710  -1.2359 C.3            1 S1                 0.0000
      2 ****        -3.4654   5.6924  -1.0670 O.3            1 S1                 0.0000
      3 ****        -3.6680   5.2560   0.2668 C.3            1 S1                 0.0000
      4 ****        -3.3325   3.7647   0.3624 C.3            1 S1                 0.0000
      5 ****        -1.9176   3.6101   0.3076 O.3            1 S1                 0.0000
      6 ****        -1.3910   2.3355   0.3420 C.ar           1 S1                 0.0000
      7 ****         0.0077   2.1835   0.2680 C.ar           1 S1                 0.0000
      8 ****         0.5549   0.8866   0.2955 C.ar           1 S1                 0.0000
      9 ****        -0.3191  -0.2228   0.3878 C.ar           1 S1                 0.0000
     10 ****         0.1088  -1.5771   0.4369 N.am           1 S1                 0.0000
     11 ****         1.2623  -2.1088  -0.0085 C.2            1 S1                 0.0000
     12 ****         2.1578  -1.4703  -0.5617 O.2            1 S1                 0.0000
     13 ****         1.4209  -3.6257   0.1864 C.3            1 S1                 0.0000
     14 ****         1.5542  -4.3568  -1.1655 C.3            1 S1                 0.0000
     15 ****         2.9837  -4.8722  -1.1667 C.2            1 S1                 0.0000
     16 ****         3.4931  -5.4266  -2.1394 O.2            1 S1                 0.0000
     17 ****         3.5808  -4.6280   0.0031 N.am           1 S1                 0.0000
     18 ****         4.9587  -4.9565   0.3427 C.3            1 S1                 0.0000
     19 ****         2.7031  -3.9888   0.9683 C.3            1 S1                 0.0000
     20 ****        -1.7024   0.0379   0.4752 C.ar           1 S1                 0.0000
     21 ****        -2.2335   1.2784   0.4491 N.ar           1 S1                 0.0000
     22 ****        -3.5800   7.3534  -2.2756 H              1 S1                 0.0000
     23 ****        -3.0923   7.6842  -0.6131 H              1 S1                 0.0000
     24 ****        -4.7823   7.2971  -0.9858 H              1 S1                 0.0000
     25 ****        -3.0572   5.8303   0.9651 H              1 S1                 0.0000
     26 ****        -4.7127   5.4121   0.5393 H              1 S1                 0.0000
     27 ****        -3.7020   3.3738   1.3119 H              1 S1                 0.0000
     28 ****        -3.8260   3.2166  -0.4421 H              1 S1                 0.0000
     29 ****         0.6507   3.0481   0.1930 H              1 S1                 0.0000
     30 ****         1.6270   0.7720   0.2577 H              1 S1                 0.0000
     31 ****        -0.5715  -2.2327   0.7932 H              1 S1                 0.0000
     32 ****         0.5516  -4.0087   0.7240 H              1 S1                 0.0000
     33 ****         0.8640  -5.1986  -1.2277 H              1 S1                 0.0000
     34 ****         1.3805  -3.7150  -2.0311 H              1 S1                 0.0000
     35 ****         5.1955  -5.9834   0.0608 H              1 S1                 0.0000
     36 ****         5.1326  -4.8532   1.4142 H              1 S1                 0.0000
     37 ****         5.6454  -4.2896  -0.1793 H              1 S1                 0.0000
     38 ****         3.1934  -3.1216   1.4147 H              1 S1                 0.0000
     39 ****         2.4800  -4.6906   1.7731 H              1 S1                 0.0000
     40 ****        -2.4088  -0.7748   0.5623 H              1 S1                 0.0000
     41 ****        -2.5117   5.5256  -1.3175 LP             1 S1                 0.0000
     42 ****        -4.0653   5.1673  -1.6707 LP             1 S1                 0.0000
     43 ****        -1.5362   4.1077   1.0866 LP             1 S1                 0.0000
     44 ****        -1.6074   4.0343  -0.5432 LP             1 S1                 0.0000
     45 ****         2.0542  -0.4863  -0.7065 LP             1 S1                 0.0000
     46 ****         2.9888  -1.9357  -0.8664 LP             1 S1                 0.0000
     47 ****         2.9619  -5.5546  -2.9770 LP             1 S1                 0.0000
     48 ****         4.4385  -5.7494  -2.0927 LP             1 S1                 0.0000
     49 ****        -3.2225   1.4143   0.5072 LP             1 S1                 0.0000
@<TRIPOS>BOND
    1    1    2 1     
    2    1   22 1     
    3    1   23 1     
    4    1   24 1     
    5    2    3 1     
    6    3    4 1     
    7    3   25 1     
    8    3   26 1     
    9    4    5 1     
   10    4   27 1     
   11    4   28 1     
   12    5    6 1     
   13    6   21 ar    
   14    6    7 ar    
   15    7    8 ar    
   16    7   29 1     
   17    8    9 ar    
   18    8   30 1     
   19    9   10 1     
   20    9   20 ar    
   21   10   11 am    
   22   10   31 1     
   23   11   12 2     
   24   11   13 1     
   25   13   19 1     
   26   13   14 1     
   27   13   32 1     
   28   14   15 1     
   29   14   33 1     
   30   14   34 1     
   31   15   16 2     
   32   15   17 am    
   33   17   18 1     
   34   17   19 1     
   35   18   35 1     
   36   18   36 1     
   37   18   37 1     
   38   19   38 1     
   39   19   39 1     
   40   20   21 ar    
   41   20   40 1     
   42    2   41 1     
   43    2   42 1     
   44    5   43 1     
   45    5   44 1     
   46   12   45 1     
   47   12   46 1     
   48   16   47 1     
   49   16   48 1     
   50   21   49 1     
@<TRIPOS>SUBSTRUCTURE
      1 S1             1
@<TRIPOS>SET
LONE_PAIRS      STATIC     ATOMS    <user>   **** ""
9 41 42 43 44 45 46 47 48 49
DONOR_HYDROGENS      STATIC     ATOMS    <user>   **** ""
1 31
ATOM$BLUE        STATIC     ATOMS    COLORGROUP SYSTEM
9 41 42 43 44 45 46 47 48 49
ATOM$RED        STATIC     ATOMS    COLORGROUP SYSTEM
1 31
