AV-unprocessed.smi:2775|AV-procd|sdf|10702|dock9
  -GOLD-   2272015143D 1   1.00000     0.00000
 Structure written by MMmdl.
 43 46  0  0  0  0  0  0  0  0  2 V2000
  144.4040  139.3708  155.4835 C   0  0  0  0  0  0  0  0  0  0  0  0
  145.6450  140.2143  155.2631 C   0  0  0  0  0  0  0  0  0  0  0  0
  145.8079  140.7878  154.0508 N   0  3  0  0  0  0  0  0  0  0  0  0
  146.8737  141.5527  153.7371 C   0  0  0  0  0  0  0  0  0  0  0  0
  147.8786  141.7865  154.6959 C   0  0  0  0  0  0  0  0  0  0  0  0
  147.7541  141.2178  155.9897 C   0  0  0  0  0  0  0  0  0  0  0  0
  148.7160  141.3826  157.0260 N   0  0  0  0  0  0  0  0  0  0  0  0
  150.0372  141.6340  156.9546 C   0  0  0  0  0  0  0  0  0  0  0  0
  150.6633  141.8330  155.9166 O   0  0  0  0  0  0  0  0  0  0  0  0
  150.6454  141.6726  158.1525 N   0  0  0  0  0  0  0  0  0  0  0  0
  152.0615  141.9202  158.4243 C   0  0  2  0  0  0  0  0  0  0  0  0
  152.4995  141.3557  159.7773 C   0  0  1  0  0  0  0  0  0  0  0  0
  153.3671  140.2238  160.1945 C   0  0  0  0  0  0  0  0  0  0  0  0
  154.1521  140.9636  161.3077 C   0  0  0  0  0  0  0  0  0  0  0  0
  153.7933  142.3611  161.1815 O   0  0  0  0  0  0  0  0  0  0  0  0
  153.4768  142.5200  159.8117 C   0  0  2  0  0  0  0  0  0  0  0  0
  152.3554  143.2978  159.1073 C   0  0  0  0  0  0  0  0  0  0  0  0
  151.3223  144.1167  159.9036 C   0  0  0  0  0  0  0  0  0  0  0  0
  152.0708  145.3793  159.4639 C   0  0  0  0  0  0  0  0  0  0  0  0
  152.6727  144.5693  158.3102 C   0  0  0  0  0  0  0  0  0  0  0  0
  146.6209  140.4131  156.2679 C   0  0  0  0  0  0  0  0  0  0  0  0
  146.4269  139.6756  157.8237 Cl  0  0  0  0  0  0  0  0  0  0  0  0
  143.8040  139.7827  156.2957 H   0  0  0  0  0  0  0  0  0  0  0  0
  144.6812  138.3488  155.7436 H   0  0  0  0  0  0  0  0  0  0  0  0
  143.7825  139.3347  154.5878 H   0  0  0  0  0  0  0  0  0  0  0  0
  146.8936  141.9490  152.7322 H   0  0  0  0  0  0  0  0  0  0  0  0
  148.7242  142.3904  154.4079 H   0  0  0  0  0  0  0  0  0  0  0  0
  148.3456  141.3024  157.9620 H   0  0  0  0  0  0  0  0  0  0  0  0
  150.0611  141.5236  158.9629 H   0  0  0  0  0  0  0  0  0  0  0  0
  152.7429  141.6643  157.6083 H   0  0  0  0  0  0  0  0  0  0  0  0
  151.6888  141.4797  160.5051 H   0  0  0  0  0  0  0  0  0  0  0  0
  152.8014  139.3726  160.5740 H   0  0  0  0  0  0  0  0  0  0  0  0
  154.0195  139.8901  159.3866 H   0  0  0  0  0  0  0  0  0  0  0  0
  153.8864  140.6052  162.3026 H   0  0  0  0  0  0  0  0  0  0  0  0
  155.2270  140.8332  161.1761 H   0  0  0  0  0  0  0  0  0  0  0  0
  154.3557  142.3792  159.1737 H   0  0  0  0  0  0  0  0  0  0  0  0
  150.3148  144.0664  159.4887 H   0  0  0  0  0  0  0  0  0  0  0  0
  151.3251  143.9415  160.9797 H   0  0  0  0  0  0  0  0  0  0  0  0
  151.4297  146.2057  159.1558 H   0  0  0  0  0  0  0  0  0  0  0  0
  152.8201  145.6973  160.1905 H   0  0  0  0  0  0  0  0  0  0  0  0
  153.7341  144.7469  158.1349 H   0  0  0  0  0  0  0  0  0  0  0  0
  152.0924  144.6601  157.3921 H   0  0  0  0  0  0  0  0  0  0  0  0
  145.0943  140.6320  153.3384 H   0  0  0  0  0  0  0  0  0  0  0  0
  1  2  1  0  0  0  0
  1 23  1  0  0  0  0
  1 24  1  0  0  0  0
  1 25  1  0  0  0  0
  2 21  1  0  0  0  0
  2  3  2  0  0  0  0
  3  4  1  0  0  0  0
  3 43  1  0  0  0  0
  4  5  2  0  0  0  0
  4 26  1  0  0  0  0
  5  6  1  0  0  0  0
  5 27  1  0  0  0  0
  6  7  1  0  0  0  0
  6 21  2  0  0  0  0
  7  8  1  0  0  0  0
  7 28  1  0  0  0  0
  8  9  2  0  0  0  0
  8 10  1  0  0  0  0
 10 11  1  0  0  0  0
 10 29  1  0  0  0  0
 11 17  1  0  0  0  0
 11 12  1  0  0  0  0
 11 30  1  0  0  0  0
 12 16  1  0  0  0  0
 12 13  1  0  0  0  0
 12 31  1  0  0  0  0
 13 14  1  0  0  0  0
 13 32  1  0  0  0  0
 13 33  1  0  0  0  0
 14 15  1  0  0  0  0
 14 34  1  0  0  0  0
 14 35  1  0  0  0  0
 15 16  1  0  0  0  0
 16 17  1  0  0  0  0
 16 36  1  0  0  0  0
 17 20  1  0  0  0  0
 17 18  1  0  0  0  0
 18 19  1  0  0  0  0
 18 37  1  0  0  0  0
 18 38  1  0  0  0  0
 19 20  1  0  0  0  0
 19 39  1  0  0  0  0
 19 40  1  0  0  0  0
 20 41  1  0  0  0  0
 20 42  1  0  0  0  0
 21 22  1  0  0  0  0
M  CHG  1   3   1
M  END
> <s_m_source_file>
AV-unprocessed.smi

> <i_m_source_file_index>
2775

> <i_lp_mmshare_version>
43012

> <i_f3d_flags>
0

> <s_epik_input>
W0NIM11jMW5bY0hdW2NIXWMoYzFDbClbTkhdQyg9TylbTkhdW0NAQEhdMltDQEhdKFtDSDJdW0NIMl1PMylbQ0BASF0zQzI0W0NIMl1bQ0gyXVtDSDJdNA==

> <s_epik_cmdline>
J2VwaWtfcHl0aG9uJywgJy1waCcsICc3LjAnLCAnLXRuJywgJzgnLCAnLW1hJywgJzIwMCcsICctbWV0YWxfYmluZGluZycsICctaW1hZScsICc8aW5maWxlLm1hZT4nLCAnLW9tYWUnLCAnPG91dGZpbGUubWFlPic=

> <r_epik_Ionization_Penalty>
2.4104

> <r_epik_Ionization_Penalty_Charging>
2.41038

> <r_epik_Ionization_Penalty_Neutral>
1.9872e-05

> <r_epik_State_Penalty>
2.56896

> <r_epik_Charging_Adjusted_Penalty>
4.97934

> <i_epik_Tot_Q>
1

> <i_epik_Tot_abs_Q>
1

> <r_epik_Metal_State_Penalty>
2.57906

> <b_epik_Metal_Only>
0

> <s_lp_Force_Field>
OPLS_2005

> <r_lp_Energy>
84.5881

> <b_lp_Chiralities_Consistent>
1

> <s_lp_Variant>
AV-unprocessed.smi:2775-15

> <Gold.Version>
5.8.1

> <Gold.Id.Protein>
6NUR|6NUR_protein|mol2

> <Gold.PLP.Fitness>
46.6620

> <Gold.PLP.PLP>
-41.0583

> <Gold.PLP.part.hbond>
-1.2597

> <Gold.PLP.part.metal>
0.0000

> <Gold.PLP.part.buried>
-3.5904

> <Gold.PLP.part.nonpolar>
-36.1331

> <Gold.PLP.part.repulsive>
0.2180

> <Gold.PLP.ligand.clash>
0.0000

> <Gold.PLP.ligand.torsion>
0.3584

> <Gold.PLP.Chemscore.Hbond>
2.0000

> <Gold.PLP.Chemscore.CHOScore>
0.0000

> <Gold.PLP.Chemscore.Metal>
0.0000

> <Gold.Chemscore.Hbonds>
donor molecule, donor type, donor heavy atom, donor atom, acceptor molecule, acceptor atom, score
      L1  H     3    43       P1 10175  2.00

> <Gold.PLP.Chemscore.Internal.Correction>
0.3206

> <Gold.Rescore>
     Score         DG    S(hbond)    S(metal)    S(lipo)     H(rot)  DE(clash)    DE(int)     intcor
     18.40     -19.02       0.94        0.00     110.73       1.00       0.16       0.46       ----

> <Gold.Chemscore.Fitness>
18.4001

> <Gold.Chemscore.DG>
-19.0198

> <Gold.Chemscore.ZeroCoef>
-5.4800

> <Gold.Chemscore.Hbond>
0.9415

> <Gold.Chemscore.Metal>
0.0000

> <Gold.Chemscore.Lipo>
110.7276

> <Gold.Chemscore.Internal_Hbond>
0.0000

> <Gold.Chemscore.DEClash>
0.1634

> <Gold.Chemscore.DEInternal>
0.4563

> <Gold.Chemscore.Rot>
1.0000

> <Gold.Chemscore.Internal.Correction>
   9.000000E+99

> <Gold.Chemscore.Hbonds>
donor molecule, donor type, donor heavy atom, donor atom, acceptor molecule, acceptor atom, score
      L1  H     3    43       P1 10175  0.92

> <Gold.Chemscore.Hbond.Weighted>
-3.1447

> <Gold.Chemscore.Metal.Weighted>
-0.0000

> <Gold.Chemscore.Lipo.Weighted>
-12.9551

> <Gold.Chemscore.Internal_Hbond.Weighted>
0.0000

> <Gold.Chemscore.DEClash.Weighted>
0.1634

> <Gold.Chemscore.DEInternal.Weighted>
0.4563

> <Gold.Chemscore.Rot.Weighted>
2.5600

> <Gold.Chemscore.Internal.Correction.Weighted>
   9.000000E+99

> <Gold.Protein.RotatedTorsions>
[ 6907 6896 6895 6894 ] final -123.39 input  -60.11 | X-H torsion
[ 7974 7965 7964 7962 ] final   34.47 input  175.53 | X-H torsion
[ 8008 7997 7996 7995 ] final  -80.93 input   59.86 | X-H torsion
[ 10167 10162 10161 10158 ] final   17.98 input  -65.29 | X-H torsion
[ 10718 10713 10712 10709 ] final   66.08 input   66.30 | X-H torsion
[ 10763 10752 10751 10750 ] final  -31.41 input  -60.55 | X-H torsion
[ 11005 11000 10999 10996 ] final -134.12 input  -57.11 | X-H torsion

> <Gold.Protein.ActiveResidues>
 VAL166  LYS551  ARG553  GLY616  TRP617  ASP618  TYR619  PRO620  LYS621  CYS622 
 ASP623  PHE694  ASN695  SER759  ASP760  ASP761  ALA762  ILE779  LEU786  VAL792 
 PHE793  MET794  SER795  GLU796  ALA797  LYS798  CYS799  TRP800  GLU811  SER814 

> <Gold.Protein.RotatedAtoms>
  150.8667  133.7565  159.2974 H   0  0  0  0  0  0  0  0  0  0  0  0  # atno 6907 bound_to 6896
  151.5190  135.1065  159.9883 H   0  0  0  0  0  0  0  0  0  0  0  0  # atno 6908 bound_to 6896
  152.4666  133.7891  159.6948 H   0  0  0  0  0  0  0  0  0  0  0  0  # atno 6909 bound_to 6896
  146.1350  139.6265  142.9201 H   0  0  0  0  0  0  0  0  0  0  0  0  # atno 7974 bound_to 7965
  154.5933  140.0655  156.9268 H   0  0  0  0  0  0  0  0  0  0  0  0  # atno 8008 bound_to 7997
  155.2258  140.3333  155.4291 H   0  0  0  0  0  0  0  0  0  0  0  0  # atno 8009 bound_to 7997
  156.2270  140.1824  156.7322 H   0  0  0  0  0  0  0  0  0  0  0  0  # atno 8010 bound_to 7997
  140.5687  143.9203  150.6696 H   0  0  0  0  0  0  0  0  0  0  0  0  # atno 10167 bound_to 10162
  157.6146  130.9248  150.0061 H   0  0  0  0  0  0  0  0  0  0  0  0  # atno 10718 bound_to 10713
  153.7969  135.6893  153.4862 H   0  0  0  0  0  0  0  0  0  0  0  0  # atno 10763 bound_to 10752
  153.1714  135.4541  154.9905 H   0  0  0  0  0  0  0  0  0  0  0  0  # atno 10764 bound_to 10752
  154.8022  135.3342  154.7460 H   0  0  0  0  0  0  0  0  0  0  0  0  # atno 10765 bound_to 10752
  140.9019  134.1679  157.4454 H   0  0  0  0  0  0  0  0  0  0  0  0  # atno 11005 bound_to 11000
  145.5175  141.0433  143.2453 LP  0  0  0  0  0  0  0  0  0  0  0  0  # atno 17320 bound_to 7965
  144.7730  139.6691  143.7186 LP  0  0  0  0  0  0  0  0  0  0  0  0  # atno 17321 bound_to 7965
  140.2672  143.3481  152.1270 LP  0  0  0  0  0  0  0  0  0  0  0  0  # atno 17342 bound_to 10162
  139.5106  144.6887  151.5819 LP  0  0  0  0  0  0  0  0  0  0  0  0  # atno 17343 bound_to 10162
  156.1263  130.3644  149.9804 LP  0  0  0  0  0  0  0  0  0  0  0  0  # atno 17370 bound_to 10713
  156.7874  130.9243  151.3646 LP  0  0  0  0  0  0  0  0  0  0  0  0  # atno 17371 bound_to 10713
  139.8743  134.9901  156.5489 LP  0  0  0  0  0  0  0  0  0  0  0  0  # atno 17394 bound_to 11000
  140.8219  133.8347  155.8904 LP  0  0  0  0  0  0  0  0  0  0  0  0  # atno 17395 bound_to 11000

$$$$
