#       Name:                AV-unprocessed.smi:2336
#       Creating user name   scv26
#       Creation time:       Fri Mar 27 12:55:23 2020


#       File generated by GOLD software.
#

@<TRIPOS>MOLECULE
AV-unprocessed.smi:2336
    54    55     1
SMALL
NO_CHARGES


@<TRIPOS>ATOM
      1 ****        -2.0609  -3.0634  -1.0654 C.3            1 S1                 0.0000
      2 ****        -1.5393  -2.1914   0.0910 C.3            1 S1                 0.0000
      3 ****        -2.3502  -0.8854   0.1916 C.3            1 S1                 0.0000
      4 ****         0.0166  -1.9988   0.0813 C.3            1 S1                 0.0000
      5 ****         0.5114  -1.3846  -1.2615 C.3            1 S1                 0.0000
      6 ****         0.2936   0.0577  -1.3223 N.am           1 S1                 0.0000
      7 ****        -0.0876   0.7463  -2.4060 C.2            1 S1                 0.0000
      8 ****        -0.2687   0.2340  -3.5104 O.2            1 S1                 0.0000
      9 ****        -0.2279   2.0513  -2.1186 N.am           1 S1                 0.0000
     10 ****        -0.6711   3.1089  -2.9585 C.ar           1 S1                 0.0000
     11 ****        -1.4233   2.9224  -4.1438 C.ar           1 S1                 0.0000
     12 ****        -1.8230   4.0593  -4.8747 C.ar           1 S1                 0.0000
     13 ****        -1.5330   5.3238  -4.5018 N.ar           1 S1                 0.0000
     14 ****        -0.8263   5.4979  -3.3652 C.ar           1 S1                 0.0000
     15 ****        -0.3790   4.4307  -2.5609 C.ar           1 S1                 0.0000
     16 ****         0.3220   4.6761  -1.4273 F              1 S1                 0.0000
     17 ****         0.5585  -1.3013   1.2768 N.3            1 S1                 0.0000
     18 ****         2.0304  -1.2551   1.2815 C.3            1 S1                 0.0000
     19 ****         2.5918  -0.5107   2.5067 C.3            1 S1                 0.0000
     20 ****         2.1604  -1.1348   3.7520 N.3            1 S1                 0.0000
     21 ****         2.6980  -0.4413   4.9124 C.3            1 S1                 0.0000
     22 ****         0.7027  -1.1648   3.7723 C.3            1 S1                 0.0000
     23 ****         0.1355  -1.9089   2.5491 C.3            1 S1                 0.0000
     24 ****        -2.0462  -2.5357  -2.0188 H              1 S1                 0.0000
     25 ****        -3.0939  -3.3628  -0.8861 H              1 S1                 0.0000
     26 ****        -1.4716  -3.9745  -1.1714 H              1 S1                 0.0000
     27 ****        -1.7862  -2.7792   0.9733 H              1 S1                 0.0000
     28 ****        -2.3057  -0.3064  -0.7297 H              1 S1                 0.0000
     29 ****        -1.9975  -0.2514   1.0049 H              1 S1                 0.0000
     30 ****        -3.4021  -1.1002   0.3816 H              1 S1                 0.0000
     31 ****         0.4237  -3.0112   0.0994 H              1 S1                 0.0000
     32 ****         1.5777  -1.5663  -1.3923 H              1 S1                 0.0000
     33 ****         0.0575  -1.8877  -2.1136 H              1 S1                 0.0000
     34 ****         0.4192   0.5642  -0.4577 H              1 S1                 0.0000
     35 ****         0.0460   2.3313  -1.1880 H              1 S1                 0.0000
     36 ****        -1.7113   1.9448  -4.4975 H              1 S1                 0.0000
     37 ****        -2.3988   3.9492  -5.7818 H              1 S1                 0.0000
     38 ****        -0.6130   6.5191  -3.0860 H              1 S1                 0.0000
     39 ****         2.4360  -2.2677   1.2492 H              1 S1                 0.0000
     40 ****         2.4031  -0.7394   0.3986 H              1 S1                 0.0000
     41 ****         3.6811  -0.5051   2.4567 H              1 S1                 0.0000
     42 ****         2.2729   0.5327   2.4790 H              1 S1                 0.0000
     43 ****         2.3798  -0.9283   5.8347 H              1 S1                 0.0000
     44 ****         2.3628   0.5964   4.9427 H              1 S1                 0.0000
     45 ****         3.7883  -0.4458   4.8937 H              1 S1                 0.0000
     46 ****         0.3578  -1.6552   4.6832 H              1 S1                 0.0000
     47 ****         0.3070  -0.1480   3.7968 H              1 S1                 0.0000
     48 ****        -0.9478  -1.8814   2.6467 H              1 S1                 0.0000
     49 ****         0.4330  -2.9581   2.5817 H              1 S1                 0.0000
     50 ****        -0.1310  -0.7487  -3.6343 LP             1 S1                 0.0000
     51 ****        -0.5536   0.8004  -4.2836 LP             1 S1                 0.0000
     52 ****        -1.8318   6.1054  -5.0493 LP             1 S1                 0.0000
     53 ****         0.1811  -0.3778   1.2082 LP             1 S1                 0.0000
     54 ****         2.5137  -2.0692   3.7969 LP             1 S1                 0.0000
@<TRIPOS>BOND
    1    1    2 1     
    2    1   24 1     
    3    1   25 1     
    4    1   26 1     
    5    2    3 1     
    6    2    4 1     
    7    2   27 1     
    8    3   28 1     
    9    3   29 1     
   10    3   30 1     
   11    4    5 1     
   12    4   17 1     
   13    4   31 1     
   14    5    6 1     
   15    5   32 1     
   16    5   33 1     
   17    6    7 am    
   18    6   34 1     
   19    7    8 2     
   20    7    9 am    
   21    9   10 1     
   22    9   35 1     
   23   10   15 ar    
   24   10   11 ar    
   25   11   12 ar    
   26   11   36 1     
   27   12   13 ar    
   28   12   37 1     
   29   13   14 ar    
   30   14   15 ar    
   31   14   38 1     
   32   15   16 1     
   33   17   23 1     
   34   17   18 1     
   35   18   19 1     
   36   18   39 1     
   37   18   40 1     
   38   19   20 1     
   39   19   41 1     
   40   19   42 1     
   41   20   21 1     
   42   20   22 1     
   43   21   43 1     
   44   21   44 1     
   45   21   45 1     
   46   22   23 1     
   47   22   46 1     
   48   22   47 1     
   49   23   48 1     
   50   23   49 1     
   51    8   50 1     
   52    8   51 1     
   53   13   52 1     
   54   17   53 1     
   55   20   54 1     
@<TRIPOS>SUBSTRUCTURE
      1 S1             1
@<TRIPOS>SET
LONE_PAIRS      STATIC     ATOMS    <user>   **** ""
5 50 51 52 53 54
DONOR_HYDROGENS      STATIC     ATOMS    <user>   **** ""
2 34 35
ATOM$BLUE        STATIC     ATOMS    COLORGROUP SYSTEM
5 50 51 52 53 54
ATOM$RED        STATIC     ATOMS    COLORGROUP SYSTEM
2 34 35
