#       Name:                AV-unprocessed.smi:734
#       Creating user name   scv26
#       Creation time:       Fri Mar 27 00:52:31 2020


#       File generated by GOLD software.
#

@<TRIPOS>MOLECULE
AV-unprocessed.smi:734
    43    44     1
SMALL
NO_CHARGES


@<TRIPOS>ATOM
      1 ****        -5.6691   3.7165   0.8495 C.3            1 S1                 0.0000
      2 ****        -4.9949   2.4626   0.2739 C.3            1 S1                 0.0000
      3 ****        -5.8820   1.2115   0.3515 C.3            1 S1                 0.0000
      4 ****        -3.6393   2.2295   0.8643 C.2            1 S1                 0.0000
      5 ****        -3.4421   1.9633   2.1592 N.2            1 S1                 0.0000
      6 ****        -2.1005   1.7801   2.4590 N.2            1 S1                 0.0000
      7 ****        -1.3019   1.8997   1.3895 C.2            1 S1                 0.0000
      8 ****         0.0312   1.7523   1.4660 N.pl3          1 S1                -1.0000
      9 ****         0.5968   0.5681   1.1430 C.2            1 S1                 0.0000
     10 ****         0.0057  -0.4452   0.7618 O.2            1 S1                 0.0000
     11 ****         1.9321   0.5562   1.2613 N.am           1 S1                 0.0000
     12 ****         2.7976  -0.5782   0.9632 C.3            1 S1                 0.0000
     13 ****         2.9932  -0.7494  -0.5541 C.3            1 S1                 0.0000
     14 ****         3.8735  -1.8960  -0.8733 N.4            1 S1                 1.0000
     15 ****         4.3566  -1.9130  -2.2829 C.3            1 S1                 0.0000
     16 ****         4.3144  -3.3706  -2.6455 C.2            1 S1                 0.0000
     17 ****         3.7380  -4.0925  -1.6913 C.2            1 S1                 0.0000
     18 ****         3.3032  -3.2328  -0.5384 C.3            1 S1                 0.0000
     19 ****        -2.1697   2.2825  -0.0964 S.3            1 S1                 0.0000
     20 ****        -5.0450   4.5989   0.7038 H              1 S1                 0.0000
     21 ****        -5.8533   3.6117   1.9194 H              1 S1                 0.0000
     22 ****        -6.6272   3.9054   0.3647 H              1 S1                 0.0000
     23 ****        -4.8372   2.6598  -0.7872 H              1 S1                 0.0000
     24 ****        -5.4048   0.3624  -0.1386 H              1 S1                 0.0000
     25 ****        -6.8419   1.3792  -0.1373 H              1 S1                 0.0000
     26 ****        -6.0806   0.9302   1.3861 H              1 S1                 0.0000
     27 ****         2.3773   1.4040   1.5816 H              1 S1                 0.0000
     28 ****         3.7599  -0.4067   1.4457 H              1 S1                 0.0000
     29 ****         2.3812  -1.4805   1.4137 H              1 S1                 0.0000
     30 ****         2.0364  -0.8777  -1.0626 H              1 S1                 0.0000
     31 ****         3.4421   0.1600  -0.9567 H              1 S1                 0.0000
     32 ****         3.7008  -1.3527  -2.9511 H              1 S1                 0.0000
     33 ****         5.3677  -1.5112  -2.3530 H              1 S1                 0.0000
     34 ****         4.6933  -3.7513  -3.5826 H              1 S1                 0.0000
     35 ****         3.5693  -5.1590  -1.7216 H              1 S1                 0.0000
     36 ****         3.7013  -3.6011   0.4074 H              1 S1                 0.0000
     37 ****         2.2136  -3.2174  -0.4863 H              1 S1                 0.0000
     38 ****         4.7025  -1.7970  -0.3050 H              1 S1                 0.0000
     39 ****        -4.1774   1.9031   2.8342 LP             1 S1                 0.0000
     40 ****        -1.7636   1.5793   3.3789 LP             1 S1                 0.0000
     41 ****         0.6038   2.5171   1.7613 LP             1 S1                 0.0000
     42 ****        -0.9897  -0.4376   0.6672 LP             1 S1                 0.0000
     43 ****         0.5220  -1.2744   0.5474 LP             1 S1                 0.0000
@<TRIPOS>BOND
    1    1    2 1     
    2    1   20 1     
    3    1   21 1     
    4    1   22 1     
    5    2    3 1     
    6    2    4 1     
    7    2   23 1     
    8    3   24 1     
    9    3   25 1     
   10    3   26 1     
   11    4   19 1     
   12    4    5 2     
   13    5    6 1     
   14    6    7 2     
   15    7    8 1     
   16    7   19 1     
   17    8    9 1     
   18    9   10 2     
   19    9   11 am    
   20   11   12 1     
   21   11   27 1     
   22   12   13 1     
   23   12   28 1     
   24   12   29 1     
   25   13   14 1     
   26   13   30 1     
   27   13   31 1     
   28   14   18 1     
   29   14   15 1     
   30   14   38 1     
   31   15   16 1     
   32   15   32 1     
   33   15   33 1     
   34   16   17 2     
   35   16   34 1     
   36   17   18 1     
   37   17   35 1     
   38   18   36 1     
   39   18   37 1     
   40    5   39 1     
   41    6   40 1     
   42    8   41 1     
   43   10   42 1     
   44   10   43 1     
@<TRIPOS>SUBSTRUCTURE
      1 S1             1
@<TRIPOS>SET
LONE_PAIRS      STATIC     ATOMS    <user>   **** ""
5 39 40 41 42 43
DONOR_HYDROGENS      STATIC     ATOMS    <user>   **** ""
2 27 38
ATOM$BLUE        STATIC     ATOMS    COLORGROUP SYSTEM
5 39 40 41 42 43
ATOM$RED        STATIC     ATOMS    COLORGROUP SYSTEM
2 27 38
