AV-unprocessed.smi:1445|AV-procd|sdf|5887|dock8
  -GOLD-   22720 5563D 1   1.00000     0.00000
 Structure written by MMmdl.
 46 47  0  0  0  0  0  0  0  0  2 V2000
  147.9219  131.8281  153.2948 C   0  0  0  0  0  0  0  0  0  0  0  0
  147.3761  132.9374  152.5886 O   0  0  0  0  0  0  0  0  0  0  0  0
  146.2714  132.7287  151.7846 C   0  0  0  0  0  0  0  0  0  0  0  0
  145.8073  131.4615  151.6445 N   0  0  0  0  0  0  0  0  0  0  0  0
  144.7257  131.2553  150.8662 C   0  0  0  0  0  0  0  0  0  0  0  0
  144.0513  132.2916  150.1959 C   0  0  0  0  0  0  0  0  0  0  0  0
  144.5303  133.6068  150.3392 C   0  0  0  0  0  0  0  0  0  0  0  0
  145.6733  133.8396  151.1434 C   0  0  0  0  0  0  0  0  0  0  0  0
  146.2406  135.1252  151.3735 N   0  0  0  0  0  0  0  0  0  0  0  0
  145.6298  136.3164  151.4953 C   0  0  0  0  0  0  0  0  0  0  0  0
  144.4185  136.5145  151.4071 O   0  0  0  0  0  0  0  0  0  0  0  0
  146.5185  137.2957  151.7162 N   0  0  0  0  0  0  0  0  0  0  0  0
  146.1781  138.6996  151.9168 C   0  0  0  0  0  0  0  0  0  0  0  0
  146.9546  139.3122  153.0992 C   0  0  0  0  0  0  0  0  0  0  0  0
  146.2129  140.4232  153.7467 N   0  3  1  0  0  0  0  0  0  0  0  0
  145.4515  139.9717  154.9398 C   0  0  0  0  0  0  0  0  0  0  0  0
  144.5666  141.1010  155.4908 C   0  0  0  0  0  0  0  0  0  0  0  0
  145.4000  142.3504  155.8099 C   0  0  0  0  0  0  0  0  0  0  0  0
  146.2449  142.7843  154.5977 C   0  0  2  0  0  0  0  0  0  0  0  0
  145.4069  143.4524  153.4933 C   0  0  0  0  0  0  0  0  0  0  0  0
  147.0723  141.5972  154.0624 C   0  0  0  0  0  0  0  0  0  0  0  0
  148.7786  132.1595  153.8812 H   0  0  0  0  0  0  0  0  0  0  0  0
  148.2696  131.0523  152.6113 H   0  0  0  0  0  0  0  0  0  0  0  0
  147.1957  131.3974  153.9858 H   0  0  0  0  0  0  0  0  0  0  0  0
  144.3843  130.2344  150.7798 H   0  0  0  0  0  0  0  0  0  0  0  0
  143.1829  132.0831  149.5887 H   0  0  0  0  0  0  0  0  0  0  0  0
  144.0017  134.4025  149.8395 H   0  0  0  0  0  0  0  0  0  0  0  0
  147.2494  135.1418  151.4114 H   0  0  0  0  0  0  0  0  0  0  0  0
  147.4963  137.0489  151.7700 H   0  0  0  0  0  0  0  0  0  0  0  0
  146.3625  139.2424  150.9895 H   0  0  0  0  0  0  0  0  0  0  0  0
  145.1059  138.7639  152.1044 H   0  0  0  0  0  0  0  0  0  0  0  0
  147.1300  138.5210  153.8297 H   0  0  0  0  0  0  0  0  0  0  0  0
  147.9388  139.6659  152.7883 H   0  0  0  0  0  0  0  0  0  0  0  0
  144.8199  139.1221  154.6774 H   0  0  0  0  0  0  0  0  0  0  0  0
  146.1458  139.6260  155.7074 H   0  0  0  0  0  0  0  0  0  0  0  0
  143.7896  141.3458  154.7661 H   0  0  0  0  0  0  0  0  0  0  0  0
  144.0494  140.7623  156.3890 H   0  0  0  0  0  0  0  0  0  0  0  0
  144.7534  143.1646  156.1391 H   0  0  0  0  0  0  0  0  0  0  0  0
  146.0631  142.1303  156.6479 H   0  0  0  0  0  0  0  0  0  0  0  0
  146.9482  143.5411  154.9481 H   0  0  0  0  0  0  0  0  0  0  0  0
  144.6800  142.7655  153.0600 H   0  0  0  0  0  0  0  0  0  0  0  0
  146.0433  143.8106  152.6835 H   0  0  0  0  0  0  0  0  0  0  0  0
  144.8603  144.3120  153.8824 H   0  0  0  0  0  0  0  0  0  0  0  0
  147.8156  141.3024  154.8049 H   0  0  0  0  0  0  0  0  0  0  0  0
  147.6289  141.9176  153.1826 H   0  0  0  0  0  0  0  0  0  0  0  0
  145.5239  140.7337  153.0766 H   0  0  0  0  0  0  0  0  0  0  0  0
  1  2  1  0  0  0  0
  1 22  1  0  0  0  0
  1 23  1  0  0  0  0
  1 24  1  0  0  0  0
  2  3  1  0  0  0  0
  3  8  1  0  0  0  0
  3  4  2  0  0  0  0
  4  5  1  0  0  0  0
  5  6  2  0  0  0  0
  5 25  1  0  0  0  0
  6  7  1  0  0  0  0
  6 26  1  0  0  0  0
  7  8  2  0  0  0  0
  7 27  1  0  0  0  0
  8  9  1  0  0  0  0
  9 10  1  0  0  0  0
  9 28  1  0  0  0  0
 10 11  2  0  0  0  0
 10 12  1  0  0  0  0
 12 13  1  0  0  0  0
 12 29  1  0  0  0  0
 13 14  1  0  0  0  0
 13 30  1  0  0  0  0
 13 31  1  0  0  0  0
 14 15  1  0  0  0  0
 14 32  1  0  0  0  0
 14 33  1  0  0  0  0
 15 21  1  0  0  0  0
 15 16  1  0  0  0  0
 15 46  1  0  0  0  0
 16 17  1  0  0  0  0
 16 34  1  0  0  0  0
 16 35  1  0  0  0  0
 17 18  1  0  0  0  0
 17 36  1  0  0  0  0
 17 37  1  0  0  0  0
 18 19  1  0  0  0  0
 18 38  1  0  0  0  0
 18 39  1  0  0  0  0
 19 20  1  0  0  0  0
 19 21  1  0  0  0  0
 19 40  1  0  0  0  0
 20 41  1  0  0  0  0
 20 42  1  0  0  0  0
 20 43  1  0  0  0  0
 21 44  1  0  0  0  0
 21 45  1  0  0  0  0
M  CHG  1  15   1
M  END
> <s_m_source_file>
AV-unprocessed.smi

> <i_m_source_file_index>
1445

> <i_lp_mmshare_version>
43012

> <i_f3d_flags>
0

> <s_epik_input>
W0NIM11PYzFuW2NIXVtjSF1bY0hdYzFbTkhdQyg9TylbTkhdW0NIMl1bQ0gyXU4yW0NIMl1bQ0gyXVtDSDJdW0NAQEhdKFtDSDNdKVtDSDJdMg==

> <s_epik_cmdline>
J2VwaWtfcHl0aG9uJywgJy1waCcsICc3LjAnLCAnLXRuJywgJzgnLCAnLW1hJywgJzIwMCcsICctbWV0YWxfYmluZGluZycsICctaW1hZScsICc8aW5maWxlLm1hZT4nLCAnLW9tYWUnLCAnPG91dGZpbGUubWFlPic=

> <r_lp_tautomer_probability>
1

> <r_epik_Ionization_Penalty>
0.00179544

> <r_epik_Ionization_Penalty_Charging>
0.00171832

> <r_epik_Ionization_Penalty_Neutral>
7.71118e-05

> <r_epik_State_Penalty>
0.0011618

> <r_epik_Charging_Adjusted_Penalty>
0.00288012

> <i_epik_Tot_Q>
1

> <i_epik_Tot_abs_Q>
1

> <r_epik_Metal_State_Penalty>
-0

> <b_epik_Metal_Only>
0

> <s_lp_Force_Field>
OPLS_2005

> <r_lp_Energy>
21.8859

> <b_lp_Chiralities_Consistent>
1

> <s_lp_Variant>
AV-unprocessed.smi:1445-3

> <Gold.Version>
5.8.1

> <Gold.Id.Protein>
6NUR|6NUR_protein|mol2

> <Gold.PLP.Fitness>
45.9801

> <Gold.PLP.PLP>
-36.5790

> <Gold.PLP.part.hbond>
-3.0000

> <Gold.PLP.part.metal>
0.0000

> <Gold.PLP.part.buried>
-3.7077

> <Gold.PLP.part.nonpolar>
-32.7646

> <Gold.PLP.part.repulsive>
2.1456

> <Gold.PLP.ligand.clash>
0.0000

> <Gold.PLP.ligand.torsion>
1.0906

> <Gold.PLP.Chemscore.Hbond>
3.8455

> <Gold.PLP.Chemscore.CHOScore>
0.0000

> <Gold.PLP.Chemscore.Metal>
0.0000

> <Gold.Chemscore.Hbonds>
donor molecule, donor type, donor heavy atom, donor atom, acceptor molecule, acceptor atom, score
      L1  H     9    28       P1  7948  0.96
      L1  H    12    29       P1  7948  1.00
      L1  H    15    46       P1 10175  1.79

> <Gold.PLP.Chemscore.Internal.Correction>
0.0457

> <Gold.Rescore>
     Score         DG    S(hbond)    S(metal)    S(lipo)     H(rot)  DE(clash)    DE(int)     intcor
     17.22     -18.51       2.64        0.00      73.54       1.71       0.14       1.15       ----

> <Gold.Chemscore.Fitness>
17.2227

> <Gold.Chemscore.DG>
-18.5118

> <Gold.Chemscore.ZeroCoef>
-5.4800

> <Gold.Chemscore.Hbond>
2.6368

> <Gold.Chemscore.Metal>
0.0000

> <Gold.Chemscore.Lipo>
73.5399

> <Gold.Chemscore.Internal_Hbond>
0.0000

> <Gold.Chemscore.DEClash>
0.1429

> <Gold.Chemscore.DEInternal>
1.1462

> <Gold.Chemscore.Rot>
1.7107

> <Gold.Chemscore.Internal.Correction>
   9.000000E+99

> <Gold.Chemscore.Hbonds>
donor molecule, donor type, donor heavy atom, donor atom, acceptor molecule, acceptor atom, score
      L1  H     9    28       P1  7948  0.68
      L1  H    12    29       P1  7948  1.00
      L1  H    15    46       P1 10175  0.61

> <Gold.Chemscore.Hbond.Weighted>
-8.8070

> <Gold.Chemscore.Metal.Weighted>
-0.0000

> <Gold.Chemscore.Lipo.Weighted>
-8.6042

> <Gold.Chemscore.Internal_Hbond.Weighted>
0.0000

> <Gold.Chemscore.DEClash.Weighted>
0.1429

> <Gold.Chemscore.DEInternal.Weighted>
1.1462

> <Gold.Chemscore.Rot.Weighted>
4.3794

> <Gold.Chemscore.Internal.Correction.Weighted>
   9.000000E+99

> <Gold.Protein.RotatedTorsions>
[ 6907 6896 6895 6894 ] final   59.12 input  -60.11 | X-H torsion
[ 7974 7965 7964 7962 ] final   26.75 input  175.53 | X-H torsion
[ 8008 7997 7996 7995 ] final   37.24 input   59.86 | X-H torsion
[ 10167 10162 10161 10158 ] final -164.87 input  -65.29 | X-H torsion
[ 10718 10713 10712 10709 ] final  -11.58 input   66.30 | X-H torsion
[ 10763 10752 10751 10750 ] final   29.11 input  -60.55 | X-H torsion
[ 11005 11000 10999 10996 ] final  -40.69 input  -57.11 | X-H torsion

> <Gold.Protein.ActiveResidues>
 VAL166  LYS551  ARG553  GLY616  TRP617  ASP618  TYR619  PRO620  LYS621  CYS622 
 ASP623  PHE694  ASN695  SER759  ASP760  ASP761  ALA762  ILE779  LEU786  VAL792 
 PHE793  MET794  SER795  GLU796  ALA797  LYS798  CYS799  TRP800  GLU811  SER814 

> <Gold.Protein.RotatedAtoms>
  152.3886  134.6478  160.0115 H   0  0  0  0  0  0  0  0  0  0  0  0  # atno 6907 bound_to 6896
  151.6719  133.3308  159.3206 H   0  0  0  0  0  0  0  0  0  0  0  0  # atno 6908 bound_to 6896
  150.7807  134.6792  159.6479 H   0  0  0  0  0  0  0  0  0  0  0  0  # atno 6909 bound_to 6896
  146.1821  139.7285  142.8893 H   0  0  0  0  0  0  0  0  0  0  0  0  # atno 7974 bound_to 7965
  155.2006  140.3315  155.4344 H   0  0  0  0  0  0  0  0  0  0  0  0  # atno 8008 bound_to 7997
  156.2408  140.1894  156.7043 H   0  0  0  0  0  0  0  0  0  0  0  0  # atno 8009 bound_to 7997
  154.6144  140.0604  156.9521 H   0  0  0  0  0  0  0  0  0  0  0  0  # atno 8010 bound_to 7997
  139.6221  144.0604  152.1942 H   0  0  0  0  0  0  0  0  0  0  0  0  # atno 10167 bound_to 10162
  156.6570  130.4971  149.6043 H   0  0  0  0  0  0  0  0  0  0  0  0  # atno 10718 bound_to 10713
  153.0450  135.6497  154.0840 H   0  0  0  0  0  0  0  0  0  0  0  0  # atno 10763 bound_to 10752
  154.0540  135.2893  155.3337 H   0  0  0  0  0  0  0  0  0  0  0  0  # atno 10764 bound_to 10752
  154.6701  135.5359  153.8193 H   0  0  0  0  0  0  0  0  0  0  0  0  # atno 10765 bound_to 10752
  141.0192  133.6870  156.2355 H   0  0  0  0  0  0  0  0  0  0  0  0  # atno 11005 bound_to 11000
  145.4046  141.0389  143.3051 LP  0  0  0  0  0  0  0  0  0  0  0  0  # atno 17320 bound_to 7965
  144.8333  139.5592  143.6934 LP  0  0  0  0  0  0  0  0  0  0  0  0  # atno 17321 bound_to 7965
  140.0248  144.6125  150.7536 LP  0  0  0  0  0  0  0  0  0  0  0  0  # atno 17342 bound_to 10162
  140.7388  143.2783  151.3674 LP  0  0  0  0  0  0  0  0  0  0  0  0  # atno 17343 bound_to 10162
  156.2040  130.6637  151.1198 LP  0  0  0  0  0  0  0  0  0  0  0  0  # atno 17370 bound_to 10713
  157.7122  131.0728  150.6459 LP  0  0  0  0  0  0  0  0  0  0  0  0  # atno 17371 bound_to 10713
  140.6602  134.4976  157.5583 LP  0  0  0  0  0  0  0  0  0  0  0  0  # atno 17394 bound_to 11000
  139.9136  134.8293  156.1443 LP  0  0  0  0  0  0  0  0  0  0  0  0  # atno 17395 bound_to 11000

$$$$
