AV-unprocessed.smi:175|AV-procd|sdf|1430|dock6
  -GOLD-   2262019203D 1   1.00000     0.00000
 Structure written by MMmdl.
 47 50  0  0  0  0  0  0  0  0  1 V2000
  147.4700  137.7571  153.2462 C   0  0  0  0  0  0  0  0  0  0  0  0
  147.8708  137.3183  154.6638 C   0  0  1  0  0  0  0  0  0  0  0  0
  146.8430  137.6309  155.5927 O   0  0  0  0  0  0  0  0  0  0  0  0
  147.0938  136.8682  156.7588 C   0  0  0  0  0  0  0  0  0  0  0  0
  147.4417  135.4965  156.1935 C   0  0  0  0  0  0  0  0  0  0  0  0
  148.1662  135.8099  154.8808 C   0  0  1  0  0  0  0  0  0  0  0  0
  147.5932  135.0090  153.8599 O   0  0  0  0  0  0  0  0  0  0  0  0
  149.6791  135.4872  154.9584 C   0  0  0  0  0  0  0  0  0  0  0  0
  150.4862  136.5988  155.4395 N   0  0  0  0  0  0  0  0  0  0  0  0
  151.4517  137.2828  154.7344 C   0  0  0  0  0  0  0  0  0  0  0  0
  152.0354  138.2518  155.3845 N   0  0  0  0  0  0  0  0  0  0  0  0
  151.4332  138.2286  156.6361 C   0  0  0  0  0  0  0  0  0  0  0  0
  151.5822  138.9985  157.8244 C   0  0  0  0  0  0  0  0  0  0  0  0
  152.4486  140.0256  157.9701 N   0  0  0  0  0  0  0  0  0  0  0  0
  153.4383  139.8321  159.0314 C   0  0  0  0  0  0  0  0  0  0  0  0
  153.2551  141.0610  159.8994 C   0  0  0  0  0  0  0  0  0  0  0  0
  153.8863  141.2566  160.9367 O   0  0  0  0  0  0  0  0  0  0  0  0
  152.3235  141.8561  159.3718 N   0  0  0  0  0  0  0  0  0  0  0  0
  151.8472  143.1267  159.9124 C   0  0  0  0  0  0  0  0  0  0  0  0
  151.9203  144.2645  158.8783 C   0  0  0  0  0  0  0  0  0  0  0  0
  151.8989  145.4330  159.5180 F   0  0  0  0  0  0  0  0  0  0  0  0
  153.0528  144.1841  158.1796 F   0  0  0  0  0  0  0  0  0  0  0  0
  150.8849  144.2224  158.0400 F   0  0  0  0  0  0  0  0  0  0  0  0
  151.8099  141.3352  158.1163 C   0  0  0  0  0  0  0  0  0  0  0  0
  150.8058  138.6846  158.8894 N   0  0  0  0  0  0  0  0  0  0  0  0
  149.9333  137.6755  158.8028 C   0  0  0  0  0  0  0  0  0  0  0  0
  149.6845  136.8721  157.7657 N   0  0  0  0  0  0  0  0  0  0  0  0
  150.4630  137.1900  156.6914 C   0  0  0  0  0  0  0  0  0  0  0  0
  148.2450  137.5047  152.5221 H   0  0  0  0  0  0  0  0  0  0  0  0
  147.3193  138.8358  153.2059 H   0  0  0  0  0  0  0  0  0  0  0  0
  146.5409  137.2843  152.9277 H   0  0  0  0  0  0  0  0  0  0  0  0
  148.7372  137.9037  154.9732 H   0  0  0  0  0  0  0  0  0  0  0  0
  147.9374  137.2943  157.3046 H   0  0  0  0  0  0  0  0  0  0  0  0
  146.2284  136.8454  157.4211 H   0  0  0  0  0  0  0  0  0  0  0  0
  148.0361  134.9023  156.8884 H   0  0  0  0  0  0  0  0  0  0  0  0
  146.5154  134.9497  156.0093 H   0  0  0  0  0  0  0  0  0  0  0  0
  146.8150  134.5970  154.2026 H   0  0  0  0  0  0  0  0  0  0  0  0
  149.8454  134.6337  155.6168 H   0  0  0  0  0  0  0  0  0  0  0  0
  150.0560  135.1911  153.9783 H   0  0  0  0  0  0  0  0  0  0  0  0
  151.7064  137.0442  153.7120 H   0  0  0  0  0  0  0  0  0  0  0  0
  153.2895  138.9222  159.6161 H   0  0  0  0  0  0  0  0  0  0  0  0
  154.4434  139.8136  158.6097 H   0  0  0  0  0  0  0  0  0  0  0  0
  150.8221  143.0097  160.2672 H   0  0  0  0  0  0  0  0  0  0  0  0
  152.4439  143.3865  160.7878 H   0  0  0  0  0  0  0  0  0  0  0  0
  152.1071  141.9823  157.2904 H   0  0  0  0  0  0  0  0  0  0  0  0
  150.7194  141.2902  158.1348 H   0  0  0  0  0  0  0  0  0  0  0  0
  149.3499  137.4850  159.6915 H   0  0  0  0  0  0  0  0  0  0  0  0
  1  2  1  0  0  0  0
  1 29  1  0  0  0  0
  1 30  1  0  0  0  0
  1 31  1  0  0  0  0
  2  6  1  0  0  0  0
  2  3  1  0  0  0  0
  2 32  1  0  0  0  0
  3  4  1  0  0  0  0
  4  5  1  0  0  0  0
  4 33  1  0  0  0  0
  4 34  1  0  0  0  0
  5  6  1  0  0  0  0
  5 35  1  0  0  0  0
  5 36  1  0  0  0  0
  6  7  1  0  0  0  0
  6  8  1  0  0  0  0
  7 37  1  0  0  0  0
  8  9  1  0  0  0  0
  8 38  1  0  0  0  0
  8 39  1  0  0  0  0
  9 28  1  0  0  0  0
  9 10  1  0  0  0  0
 10 11  2  0  0  0  0
 10 40  1  0  0  0  0
 11 12  1  0  0  0  0
 12 28  2  0  0  0  0
 12 13  1  0  0  0  0
 13 14  1  0  0  0  0
 13 25  2  0  0  0  0
 14 24  1  0  0  0  0
 14 15  1  0  0  0  0
 15 16  1  0  0  0  0
 15 41  1  0  0  0  0
 15 42  1  0  0  0  0
 16 17  2  0  0  0  0
 16 18  1  0  0  0  0
 18 19  1  0  0  0  0
 18 24  1  0  0  0  0
 19 20  1  0  0  0  0
 19 43  1  0  0  0  0
 19 44  1  0  0  0  0
 20 21  1  0  0  0  0
 20 22  1  0  0  0  0
 20 23  1  0  0  0  0
 24 45  1  0  0  0  0
 24 46  1  0  0  0  0
 25 26  1  0  0  0  0
 26 27  2  0  0  0  0
 26 47  1  0  0  0  0
 27 28  1  0  0  0  0
M  END
> <s_m_source_file>
AV-unprocessed.smi

> <i_m_source_file_index>
175

> <i_lp_mmshare_version>
43012

> <i_f3d_flags>
0

> <s_epik_input>
W0NIMl0xW0NIMl1PW0NAQEhdKFtDSDNdKVtDQEBdMShbT0hdKVtDSDJdbihbY0hdbjIpYyhjMjMpbltjSF1uYzNONFtDSDJdQyg9TylOKFtDSDJdNClbQ0gyXUMoRikoRilG

> <s_epik_cmdline>
J2VwaWtfcHl0aG9uJywgJy1waCcsICc3LjAnLCAnLXRuJywgJzgnLCAnLW1hJywgJzIwMCcsICctbWV0YWxfYmluZGluZycsICctaW1hZScsICc8aW5maWxlLm1hZT4nLCAnLW9tYWUnLCAnPG91dGZpbGUubWFlPic=

> <r_lp_tautomer_probability>
1

> <r_epik_Ionization_Penalty>
0.000307802

> <r_epik_Ionization_Penalty_Charging>
0

> <r_epik_Ionization_Penalty_Neutral>
0.000307802

> <r_epik_State_Penalty>
-0

> <r_epik_Charging_Adjusted_Penalty>
0

> <i_epik_Tot_Q>
0

> <i_epik_Tot_abs_Q>
0

> <r_epik_Metal_State_Penalty>
-0

> <b_epik_Metal_Only>
0

> <s_epik_Chemistry_Notes>
This compound contains an acetal/aminal-like group ( X-CH(R)-Y where X, Y are N, S, or O) that may be acid/base labile, releasing an aldehyde.

> <s_lp_Force_Field>
OPLS_2005

> <r_lp_Energy>
36.8699

> <b_lp_Chiralities_Consistent>
1

> <s_lp_Variant>
AV-unprocessed.smi:175-2

> <Gold.Version>
5.8.1

> <Gold.Id.Protein>
6NUR|6NUR_protein|mol2

> <Gold.PLP.Fitness>
41.4895

> <Gold.PLP.PLP>
-40.7256

> <Gold.PLP.part.hbond>
-1.4043

> <Gold.PLP.part.metal>
0.0000

> <Gold.PLP.part.buried>
-3.6869

> <Gold.PLP.part.nonpolar>
-35.3683

> <Gold.PLP.part.repulsive>
0.0142

> <Gold.PLP.ligand.clash>
0.0000

> <Gold.PLP.ligand.torsion>
0.9725

> <Gold.PLP.Chemscore.Hbond>
0.0000

> <Gold.PLP.Chemscore.CHOScore>
0.8364

> <Gold.PLP.Chemscore.Metal>
0.0000

> <Gold.Chemscore.Hbonds>
donor molecule, donor type, donor heavy atom, donor atom, acceptor molecule, acceptor atom, score
      L1  C    10    40       P1  7949  1.00

> <Gold.PLP.Chemscore.Internal.Correction>
0.1996

> <Gold.Rescore>
     Score         DG    S(hbond)    S(metal)    S(lipo)     H(rot)  DE(clash)    DE(int)     intcor
      2.08      -3.08       0.00        0.00      46.17       3.05       0.09       0.90       ----

> <Gold.Chemscore.Fitness>
2.0787

> <Gold.Chemscore.DG>
-3.0772

> <Gold.Chemscore.ZeroCoef>
-5.4800

> <Gold.Chemscore.Hbond>
0.0000

> <Gold.Chemscore.Metal>
0.0000

> <Gold.Chemscore.Lipo>
46.1690

> <Gold.Chemscore.Internal_Hbond>
0.0000

> <Gold.Chemscore.DEClash>
0.0945

> <Gold.Chemscore.DEInternal>
0.9040

> <Gold.Chemscore.Rot>
3.0487

> <Gold.Chemscore.Internal.Correction>
   9.000000E+99

> <Gold.Chemscore.Hbond.Weighted>
-0.0000

> <Gold.Chemscore.Metal.Weighted>
-0.0000

> <Gold.Chemscore.Lipo.Weighted>
-5.4018

> <Gold.Chemscore.Internal_Hbond.Weighted>
0.0000

> <Gold.Chemscore.DEClash.Weighted>
0.0945

> <Gold.Chemscore.DEInternal.Weighted>
0.9040

> <Gold.Chemscore.Rot.Weighted>
7.8046

> <Gold.Chemscore.Internal.Correction.Weighted>
   9.000000E+99

> <Gold.Protein.RotatedTorsions>
[ 6907 6896 6895 6894 ] final  161.53 input  -60.11 | X-H torsion
[ 7974 7965 7964 7962 ] final  -19.19 input  175.53 | X-H torsion
[ 8008 7997 7996 7995 ] final   -4.87 input   59.86 | X-H torsion
[ 10167 10162 10161 10158 ] final  -70.27 input  -65.29 | X-H torsion
[ 10718 10713 10712 10709 ] final -144.70 input   66.30 | X-H torsion
[ 10763 10752 10751 10750 ] final   51.76 input  -60.55 | X-H torsion
[ 11005 11000 10999 10996 ] final   79.63 input  -57.11 | X-H torsion

> <Gold.Protein.ActiveResidues>
 VAL166  LYS551  ARG553  GLY616  TRP617  ASP618  TYR619  PRO620  LYS621  CYS622 
 ASP623  PHE694  ASN695  SER759  ASP760  ASP761  ALA762  ILE779  LEU786  VAL792 
 PHE793  MET794  SER795  GLU796  ALA797  LYS798  CYS799  TRP800  GLU811  SER814 

> <Gold.Protein.RotatedAtoms>
  151.9542  133.3675  159.4010 H   0  0  0  0  0  0  0  0  0  0  0  0  # atno 6907 bound_to 6896
  150.6975  134.4309  159.5257 H   0  0  0  0  0  0  0  0  0  0  0  0  # atno 6908 bound_to 6896
  152.1987  134.8607  160.0561 H   0  0  0  0  0  0  0  0  0  0  0  0  # atno 6909 bound_to 6896
  146.1854  140.4027  142.8478 H   0  0  0  0  0  0  0  0  0  0  0  0  # atno 7974 bound_to 7965
  154.6098  140.2473  155.7684 H   0  0  0  0  0  0  0  0  0  0  0  0  # atno 8008 bound_to 7997
  156.2363  140.2949  156.0273 H   0  0  0  0  0  0  0  0  0  0  0  0  # atno 8009 bound_to 7997
  155.2071  140.0396  157.2917 H   0  0  0  0  0  0  0  0  0  0  0  0  # atno 8010 bound_to 7997
  140.5365  143.2317  151.7167 H   0  0  0  0  0  0  0  0  0  0  0  0  # atno 10167 bound_to 10162
  156.3733  130.7799  151.1983 H   0  0  0  0  0  0  0  0  0  0  0  0  # atno 10718 bound_to 10713
  152.9786  135.5835  154.4468 H   0  0  0  0  0  0  0  0  0  0  0  0  # atno 10763 bound_to 10752
  154.4062  135.2769  155.2067 H   0  0  0  0  0  0  0  0  0  0  0  0  # atno 10764 bound_to 10752
  154.3877  135.6132  153.5879 H   0  0  0  0  0  0  0  0  0  0  0  0  # atno 10765 bound_to 10752
  139.9165  134.7858  156.1804 H   0  0  0  0  0  0  0  0  0  0  0  0  # atno 11005 bound_to 11000
  144.8388  140.6824  143.6243 LP  0  0  0  0  0  0  0  0  0  0  0  0  # atno 17320 bound_to 7965
  145.3954  139.1608  143.4206 LP  0  0  0  0  0  0  0  0  0  0  0  0  # atno 17321 bound_to 7965
  139.4973  144.4034  152.0157 LP  0  0  0  0  0  0  0  0  0  0  0  0  # atno 17342 bound_to 10162
  140.3140  144.3505  150.6026 LP  0  0  0  0  0  0  0  0  0  0  0  0  # atno 17343 bound_to 10162
  157.7486  131.0365  150.4415 LP  0  0  0  0  0  0  0  0  0  0  0  0  # atno 17370 bound_to 10713
  156.4646  130.4039  149.6555 LP  0  0  0  0  0  0  0  0  0  0  0  0  # atno 17371 bound_to 10713
  141.0646  133.6825  156.2018 LP  0  0  0  0  0  0  0  0  0  0  0  0  # atno 17394 bound_to 11000
  140.6606  134.4971  157.5583 LP  0  0  0  0  0  0  0  0  0  0  0  0  # atno 17395 bound_to 11000

$$$$
