AV-unprocessed.smi:1284|AV-procd|sdf|5364|dock8
  -GOLD-   22720 4503D 1   1.00000     0.00000
 Structure written by MMmdl.
 39 41  0  0  0  0  0  0  0  0  1 V2000
  154.5511  138.0186  159.1396 N   0  0  0  0  0  0  0  0  0  0  0  0
  153.2994  137.5765  159.2884 C   0  0  0  0  0  0  0  0  0  0  0  0
  153.0086  136.6975  160.0966 O   0  0  0  0  0  0  0  0  0  0  0  0
  152.2206  138.2163  158.4068 C   0  0  0  0  0  0  0  0  0  0  0  0
  152.1893  139.6995  158.6694 C   0  0  0  0  0  0  0  0  0  0  0  0
  153.0344  140.2753  159.5289 N   0  0  0  0  0  0  0  0  0  0  0  0
  152.6806  141.6077  159.4656 C   0  0  0  0  0  0  0  0  0  0  0  0
  153.2169  142.7320  160.1330 C   0  0  0  0  0  0  0  0  0  0  0  0
  152.6860  144.0183  159.9041 C   0  0  0  0  0  0  0  0  0  0  0  0
  151.6125  144.1974  159.0083 C   0  0  0  0  0  0  0  0  0  0  0  0
  151.0614  143.0895  158.3365 C   0  0  0  0  0  0  0  0  0  0  0  0
  151.5966  141.8072  158.5662 C   0  0  0  0  0  0  0  0  0  0  0  0
  151.2988  140.5383  158.0753 N   0  0  0  0  0  0  0  0  0  0  0  0
  150.2424  140.2240  157.1203 C   0  0  0  0  0  0  0  0  0  0  0  0
  150.4945  140.8382  155.7289 C   0  0  1  0  0  0  0  0  0  0  0  0
  151.6676  140.2579  155.1969 O   0  0  0  0  0  0  0  0  0  0  0  0
  149.2976  140.6774  154.8013 C   0  0  0  0  0  0  0  0  0  0  0  0
  148.5796  141.8163  154.3768 C   0  0  0  0  0  0  0  0  0  0  0  0
  147.4524  141.6761  153.5447 C   0  0  0  0  0  0  0  0  0  0  0  0
  147.0368  140.3962  153.1310 C   0  0  0  0  0  0  0  0  0  0  0  0
  147.7488  139.2561  153.5504 C   0  0  0  0  0  0  0  0  0  0  0  0
  148.8756  139.3957  154.3836 C   0  0  0  0  0  0  0  0  0  0  0  0
  155.2934  137.6161  159.6933 H   0  0  0  0  0  0  0  0  0  0  0  0
  154.7540  138.7447  158.4682 H   0  0  0  0  0  0  0  0  0  0  0  0
  152.4327  137.9918  157.3632 H   0  0  0  0  0  0  0  0  0  0  0  0
  151.2401  137.7933  158.6299 H   0  0  0  0  0  0  0  0  0  0  0  0
  154.0394  142.6047  160.8208 H   0  0  0  0  0  0  0  0  0  0  0  0
  153.1047  144.8711  160.4179 H   0  0  0  0  0  0  0  0  0  0  0  0
  151.2118  145.1857  158.8370 H   0  0  0  0  0  0  0  0  0  0  0  0
  150.2411  143.2264  157.6478 H   0  0  0  0  0  0  0  0  0  0  0  0
  150.1406  139.1409  157.0546 H   0  0  0  0  0  0  0  0  0  0  0  0
  149.2924  140.5806  157.5203 H   0  0  0  0  0  0  0  0  0  0  0  0
  150.7075  141.9005  155.8383 H   0  0  0  0  0  0  0  0  0  0  0  0
  151.8214  139.4377  155.6406 H   0  0  0  0  0  0  0  0  0  0  0  0
  148.8839  142.8018  154.6974 H   0  0  0  0  0  0  0  0  0  0  0  0
  146.9045  142.5509  153.2270 H   0  0  0  0  0  0  0  0  0  0  0  0
  146.1712  140.2890  152.4941 H   0  0  0  0  0  0  0  0  0  0  0  0
  147.4286  138.2737  153.2364 H   0  0  0  0  0  0  0  0  0  0  0  0
  149.4087  138.5145  154.7090 H   0  0  0  0  0  0  0  0  0  0  0  0
  1  2  1  0  0  0  0
  1 23  1  0  0  0  0
  1 24  1  0  0  0  0
  2  3  2  0  0  0  0
  2  4  1  0  0  0  0
  4  5  1  0  0  0  0
  4 25  1  0  0  0  0
  4 26  1  0  0  0  0
  5 13  1  0  0  0  0
  5  6  2  0  0  0  0
  6  7  1  0  0  0  0
  7 12  2  0  0  0  0
  7  8  1  0  0  0  0
  8  9  2  0  0  0  0
  8 27  1  0  0  0  0
  9 10  1  0  0  0  0
  9 28  1  0  0  0  0
 10 11  2  0  0  0  0
 10 29  1  0  0  0  0
 11 12  1  0  0  0  0
 11 30  1  0  0  0  0
 12 13  1  0  0  0  0
 13 14  1  0  0  0  0
 14 15  1  0  0  0  0
 14 31  1  0  0  0  0
 14 32  1  0  0  0  0
 15 16  1  0  0  0  0
 15 17  1  0  0  0  0
 15 33  1  0  0  0  0
 16 34  1  0  0  0  0
 17 22  1  0  0  0  0
 17 18  2  0  0  0  0
 18 19  1  0  0  0  0
 18 35  1  0  0  0  0
 19 20  2  0  0  0  0
 19 36  1  0  0  0  0
 20 21  1  0  0  0  0
 20 37  1  0  0  0  0
 21 22  2  0  0  0  0
 21 38  1  0  0  0  0
 22 39  1  0  0  0  0
M  END
> <s_m_source_file>
AV-unprocessed.smi

> <i_m_source_file_index>
1284

> <i_lp_mmshare_version>
43012

> <i_f3d_flags>
0

> <s_epik_input>
W2NIXTFbY0hdW2NIXVtjSF1jKGMxMiluKGMobjIpW0NIMl1DKD1PKVtOSDJdKVtDSDJdW0NASF0oW09IXSljM1tjSF1bY0hdW2NIXVtjSF1bY0hdMw==

> <s_epik_cmdline>
J2VwaWtfcHl0aG9uJywgJy1waCcsICc3LjAnLCAnLXRuJywgJzgnLCAnLW1hJywgJzIwMCcsICctbWV0YWxfYmluZGluZycsICctaW1hZScsICc8aW5maWxlLm1hZT4nLCAnLW9tYWUnLCAnPG91dGZpbGUubWFlPic=

> <r_epik_Ionization_Penalty>
0.0366899

> <r_epik_Ionization_Penalty_Charging>
0

> <r_epik_Ionization_Penalty_Neutral>
0.0366899

> <r_epik_State_Penalty>
0.0306642

> <r_epik_Charging_Adjusted_Penalty>
0.0306642

> <i_epik_Tot_Q>
0

> <i_epik_Tot_abs_Q>
0

> <r_epik_Metal_State_Penalty>
0.028853

> <b_epik_Metal_Only>
0

> <s_lp_Force_Field>
OPLS_2005

> <r_lp_Energy>
12.7879

> <b_lp_Chiralities_Consistent>
1

> <s_lp_Variant>
AV-unprocessed.smi:1284-2

> <Gold.Version>
5.8.1

> <Gold.Id.Protein>
6NUR|6NUR_protein|mol2

> <Gold.PLP.Fitness>
50.5403

> <Gold.PLP.PLP>
-45.0441

> <Gold.PLP.part.hbond>
-2.0000

> <Gold.PLP.part.metal>
0.0000

> <Gold.PLP.part.buried>
-4.1966

> <Gold.PLP.part.nonpolar>
-37.7800

> <Gold.PLP.part.repulsive>
0.0698

> <Gold.PLP.ligand.clash>
0.0000

> <Gold.PLP.ligand.torsion>
0.1087

> <Gold.PLP.Chemscore.Hbond>
1.8960

> <Gold.PLP.Chemscore.CHOScore>
0.0000

> <Gold.PLP.Chemscore.Metal>
0.0000

> <Gold.Chemscore.Hbonds>
donor molecule, donor type, donor heavy atom, donor atom, acceptor molecule, acceptor atom, score
      P1  H  6896  6907       L1     3  1.00
      P1  H  7989  7998       L1    16  0.90

> <Gold.PLP.Chemscore.Internal.Correction>
0.0256

> <Gold.Rescore>
     Score         DG    S(hbond)    S(metal)    S(lipo)     H(rot)  DE(clash)    DE(int)     intcor
     16.01     -17.52       1.70        0.00     116.90       2.86       0.09       1.42       ----

> <Gold.Chemscore.Fitness>
16.0128

> <Gold.Chemscore.DG>
-17.5203

> <Gold.Chemscore.ZeroCoef>
-5.4800

> <Gold.Chemscore.Hbond>
1.7023

> <Gold.Chemscore.Metal>
0.0000

> <Gold.Chemscore.Lipo>
116.9035

> <Gold.Chemscore.Internal_Hbond>
0.0000

> <Gold.Chemscore.DEClash>
0.0904

> <Gold.Chemscore.DEInternal>
1.4172

> <Gold.Chemscore.Rot>
2.8606

> <Gold.Chemscore.Internal.Correction>
   9.000000E+99

> <Gold.Chemscore.Hbonds>
donor molecule, donor type, donor heavy atom, donor atom, acceptor molecule, acceptor atom, score
      P1  H  6896  6907       L1     3  1.00
      P1  H  7989  7998       L1    16  0.31

> <Gold.Chemscore.Hbond.Weighted>
-5.6858

> <Gold.Chemscore.Metal.Weighted>
-0.0000

> <Gold.Chemscore.Lipo.Weighted>
-13.6777

> <Gold.Chemscore.Internal_Hbond.Weighted>
0.0000

> <Gold.Chemscore.DEClash.Weighted>
0.0904

> <Gold.Chemscore.DEInternal.Weighted>
1.4172

> <Gold.Chemscore.Rot.Weighted>
7.3231

> <Gold.Chemscore.Internal.Correction.Weighted>
   9.000000E+99

> <Gold.Protein.RotatedTorsions>
[ 6907 6896 6895 6894 ] final   37.77 input  -60.11 | X-H torsion
[ 7974 7965 7964 7962 ] final   51.12 input  175.53 | X-H torsion
[ 8008 7997 7996 7995 ] final  -41.41 input   59.86 | X-H torsion
[ 10167 10162 10161 10158 ] final   68.78 input  -65.29 | X-H torsion
[ 10718 10713 10712 10709 ] final  -56.82 input   66.30 | X-H torsion
[ 10763 10752 10751 10750 ] final  -38.82 input  -60.55 | X-H torsion
[ 11005 11000 10999 10996 ] final  125.36 input  -57.11 | X-H torsion

> <Gold.Protein.ActiveResidues>
 VAL166  LYS551  ARG553  GLY616  TRP617  ASP618  TYR619  PRO620  LYS621  CYS622 
 ASP623  PHE694  ASN695  SER759  ASP760  ASP761  ALA762  ILE779  LEU786  VAL792 
 PHE793  MET794  SER795  GLU796  ALA797  LYS798  CYS799  TRP800  GLU811  SER814 

> <Gold.Protein.RotatedAtoms>
  152.1475  134.9014  160.0549 H   0  0  0  0  0  0  0  0  0  0  0  0  # atno 6907 bound_to 6896
  152.0058  133.3838  159.4208 H   0  0  0  0  0  0  0  0  0  0  0  0  # atno 6908 bound_to 6896
  150.6872  134.3706  159.5034 H   0  0  0  0  0  0  0  0  0  0  0  0  # atno 6909 bound_to 6896
  145.9944  139.4373  143.0053 H   0  0  0  0  0  0  0  0  0  0  0  0  # atno 7974 bound_to 7965
  154.4004  140.1500  156.3186 H   0  0  0  0  0  0  0  0  0  0  0  0  # atno 8008 bound_to 7997
  155.8550  140.3456  155.5697 H   0  0  0  0  0  0  0  0  0  0  0  0  # atno 8009 bound_to 7997
  155.7943  140.0861  157.1982 H   0  0  0  0  0  0  0  0  0  0  0  0  # atno 8010 bound_to 7997
  140.0749  144.5121  150.7201 H   0  0  0  0  0  0  0  0  0  0  0  0  # atno 10167 bound_to 10162
  156.1258  130.4163  150.0357 H   0  0  0  0  0  0  0  0  0  0  0  0  # atno 10718 bound_to 10713
  153.9192  135.6784  153.4748 H   0  0  0  0  0  0  0  0  0  0  0  0  # atno 10763 bound_to 10752
  153.1037  135.4815  154.8911 H   0  0  0  0  0  0  0  0  0  0  0  0  # atno 10764 bound_to 10752
  154.7487  135.3179  154.8554 H   0  0  0  0  0  0  0  0  0  0  0  0  # atno 10765 bound_to 10752
  139.9403  134.9636  156.8547 H   0  0  0  0  0  0  0  0  0  0  0  0  # atno 11005 bound_to 11000
  145.7581  140.9946  143.1214 LP  0  0  0  0  0  0  0  0  0  0  0  0  # atno 17320 bound_to 7965
  144.6899  139.9297  143.7471 LP  0  0  0  0  0  0  0  0  0  0  0  0  # atno 17321 bound_to 7965
  140.7107  143.2503  151.4590 LP  0  0  0  0  0  0  0  0  0  0  0  0  # atno 17342 bound_to 10162
  139.5814  144.1702  152.1972 LP  0  0  0  0  0  0  0  0  0  0  0  0  # atno 17343 bound_to 10162
  156.8283  130.9383  151.3638 LP  0  0  0  0  0  0  0  0  0  0  0  0  # atno 17370 bound_to 10713
  157.6440  130.8829  149.9502 LP  0  0  0  0  0  0  0  0  0  0  0  0  # atno 17371 bound_to 10713
  140.5970  134.0208  155.7522 LP  0  0  0  0  0  0  0  0  0  0  0  0  # atno 17394 bound_to 11000
  141.1034  133.9732  157.3039 LP  0  0  0  0  0  0  0  0  0  0  0  0  # atno 17395 bound_to 11000

$$$$
