AV-unprocessed.smi:1531|AV-procd|sdf|6158|dock7
  -GOLD-   22720 6303D 1   1.00000     0.00000
 Structure written by MMmdl.
 44 45  0  0  0  0  0  0  0  0  1 V2000
  148.3109  132.1475  161.9680 C   0  0  0  0  0  0  0  0  0  0  0  0
  146.7863  132.2954  161.8706 C   0  0  0  0  0  0  0  0  0  0  0  0
  146.2508  133.6616  162.3570 C   0  0  2  0  0  0  0  0  0  0  0  0
  144.8979  133.9904  161.6886 C   0  0  0  0  0  0  0  0  0  0  0  0
  144.3160  135.3194  162.1950 C   0  0  0  0  0  0  0  0  0  0  0  0
  145.3050  136.4744  161.9865 C   0  0  0  0  0  0  0  0  0  0  0  0
  146.6560  136.1714  162.6549 C   0  0  0  0  0  0  0  0  0  0  0  0
  147.2562  134.8316  162.1813 C   0  0  2  0  0  0  0  0  0  0  0  0
  147.7097  134.9406  160.7935 N   0  0  0  0  0  0  0  0  0  0  0  0
  148.4481  135.9364  160.2835 C   0  0  0  0  0  0  0  0  0  0  0  0
  148.8383  136.9043  160.9367 O   0  0  0  0  0  0  0  0  0  0  0  0
  148.6965  135.7367  158.9789 N   0  0  0  0  0  0  0  0  0  0  0  0
  149.4750  136.5507  158.1180 C   0  0  0  0  0  0  0  0  0  0  0  0
  149.9206  137.8622  158.4260 C   0  0  0  0  0  0  0  0  0  0  0  0
  150.6207  138.3772  157.4268 N   0  0  0  0  0  0  0  0  0  0  0  0
  150.6325  137.4142  156.4710 N   0  0  0  0  0  0  0  0  0  0  0  0
  151.3251  137.6527  155.2171 C   0  0  0  0  0  0  0  0  0  0  0  0
  150.6475  138.7610  154.4093 C   0  0  0  0  0  0  0  0  0  0  0  0
  149.9851  138.3961  153.3079 N   0  0  0  0  0  0  0  0  0  0  0  0
  150.7166  139.9318  154.7770 O   0  0  0  0  0  0  0  0  0  0  0  0
  149.9397  136.2847  156.8612 C   0  0  0  0  0  0  0  0  0  0  0  0
  148.6176  131.1367  161.6987 H   0  0  0  0  0  0  0  0  0  0  0  0
  148.6630  132.3414  162.9815 H   0  0  0  0  0  0  0  0  0  0  0  0
  148.8249  132.8330  161.2944 H   0  0  0  0  0  0  0  0  0  0  0  0
  146.4678  132.1047  160.8452 H   0  0  0  0  0  0  0  0  0  0  0  0
  146.3323  131.5067  162.4717 H   0  0  0  0  0  0  0  0  0  0  0  0
  146.0576  133.5639  163.4265 H   0  0  0  0  0  0  0  0  0  0  0  0
  145.0189  134.0352  160.6057 H   0  0  0  0  0  0  0  0  0  0  0  0
  144.1835  133.1893  161.8819 H   0  0  0  0  0  0  0  0  0  0  0  0
  143.3794  135.5354  161.6803 H   0  0  0  0  0  0  0  0  0  0  0  0
  144.0731  135.2323  163.2548 H   0  0  0  0  0  0  0  0  0  0  0  0
  145.4495  136.6463  160.9192 H   0  0  0  0  0  0  0  0  0  0  0  0
  144.8891  137.3966  162.3926 H   0  0  0  0  0  0  0  0  0  0  0  0
  147.3562  136.9867  162.4683 H   0  0  0  0  0  0  0  0  0  0  0  0
  146.5160  136.1367  163.7361 H   0  0  0  0  0  0  0  0  0  0  0  0
  148.1152  134.6273  162.8220 H   0  0  0  0  0  0  0  0  0  0  0  0
  147.4374  134.1915  160.1742 H   0  0  0  0  0  0  0  0  0  0  0  0
  148.2932  134.9120  158.5588 H   0  0  0  0  0  0  0  0  0  0  0  0
  149.7639  138.4456  159.3216 H   0  0  0  0  0  0  0  0  0  0  0  0
  152.3598  137.9237  155.4321 H   0  0  0  0  0  0  0  0  0  0  0  0
  151.3511  136.7298  154.6355 H   0  0  0  0  0  0  0  0  0  0  0  0
  149.5185  139.0919  152.7439 H   0  0  0  0  0  0  0  0  0  0  0  0
  149.9509  137.4217  153.0453 H   0  0  0  0  0  0  0  0  0  0  0  0
  149.8455  135.4205  156.2204 H   0  0  0  0  0  0  0  0  0  0  0  0
  1  2  1  0  0  0  0
  1 22  1  0  0  0  0
  1 23  1  0  0  0  0
  1 24  1  0  0  0  0
  2  3  1  0  0  0  0
  2 25  1  0  0  0  0
  2 26  1  0  0  0  0
  3  8  1  0  0  0  0
  3  4  1  0  0  0  0
  3 27  1  0  0  0  0
  4  5  1  0  0  0  0
  4 28  1  0  0  0  0
  4 29  1  0  0  0  0
  5  6  1  0  0  0  0
  5 30  1  0  0  0  0
  5 31  1  0  0  0  0
  6  7  1  0  0  0  0
  6 32  1  0  0  0  0
  6 33  1  0  0  0  0
  7  8  1  0  0  0  0
  7 34  1  0  0  0  0
  7 35  1  0  0  0  0
  8  9  1  0  0  0  0
  8 36  1  0  0  0  0
  9 10  1  0  0  0  0
  9 37  1  0  0  0  0
 10 11  2  0  0  0  0
 10 12  1  0  0  0  0
 12 13  1  0  0  0  0
 12 38  1  0  0  0  0
 13 21  2  0  0  0  0
 13 14  1  0  0  0  0
 14 15  2  0  0  0  0
 14 39  1  0  0  0  0
 15 16  1  0  0  0  0
 16 17  1  0  0  0  0
 16 21  1  0  0  0  0
 17 18  1  0  0  0  0
 17 40  1  0  0  0  0
 17 41  1  0  0  0  0
 18 19  1  0  0  0  0
 18 20  2  0  0  0  0
 19 42  1  0  0  0  0
 19 43  1  0  0  0  0
 21 44  1  0  0  0  0
M  END
> <s_m_source_file>
AV-unprocessed.smi

> <i_m_source_file_index>
1531

> <i_lp_mmshare_version>
43012

> <i_f3d_flags>
0

> <s_epik_input>
W0NIM11bQ0gyXVtDQEBIXTFbQ0gyXVtDSDJdW0NIMl1bQ0gyXVtDQEhdMVtOSF1DKD1PKVtOSF1jMltjSF1ubihbY0hdMilbQ0gyXUMoPU8pW05IMl0=

> <s_epik_cmdline>
J2VwaWtfcHl0aG9uJywgJy1waCcsICc3LjAnLCAnLXRuJywgJzgnLCAnLW1hJywgJzIwMCcsICctbWV0YWxfYmluZGluZycsICctaW1hZScsICc8aW5maWxlLm1hZT4nLCAnLW9tYWUnLCAnPG91dGZpbGUubWFlPic=

> <r_lp_tautomer_probability>
1

> <r_epik_Ionization_Penalty>
4.83437e-05

> <r_epik_Ionization_Penalty_Charging>
0

> <r_epik_Ionization_Penalty_Neutral>
4.83437e-05

> <r_epik_State_Penalty>
-0

> <r_epik_Charging_Adjusted_Penalty>
0

> <i_epik_Tot_Q>
0

> <i_epik_Tot_abs_Q>
0

> <r_epik_Metal_State_Penalty>
-0

> <b_epik_Metal_Only>
0

> <s_lp_Force_Field>
OPLS_2005

> <r_lp_Energy>
15.1652

> <b_lp_Chiralities_Consistent>
1

> <s_lp_Variant>
AV-unprocessed.smi:1531-3

> <Gold.Version>
5.8.1

> <Gold.Id.Protein>
6NUR|6NUR_protein|mol2

> <Gold.PLP.Fitness>
44.8137

> <Gold.PLP.PLP>
-35.8655

> <Gold.PLP.part.hbond>
-3.7107

> <Gold.PLP.part.metal>
0.0000

> <Gold.PLP.part.buried>
-6.4831

> <Gold.PLP.part.nonpolar>
-26.2577

> <Gold.PLP.part.repulsive>
0.3311

> <Gold.PLP.ligand.clash>
0.0000

> <Gold.PLP.ligand.torsion>
0.6327

> <Gold.PLP.Chemscore.Hbond>
3.3920

> <Gold.PLP.Chemscore.CHOScore>
0.0000

> <Gold.PLP.Chemscore.Metal>
0.0000

> <Gold.Chemscore.Hbonds>
donor molecule, donor type, donor heavy atom, donor atom, acceptor molecule, acceptor atom, score
      L1  H    19    42       P1  7957  0.86
      L1  H    19    43       P1  7948  0.80
      P1  H  6931  6943       L1    11  0.96
      P1  H  7989  7998       L1    20  1.00

> <Gold.PLP.Chemscore.Internal.Correction>
0.0376

> <Gold.Rescore>
     Score         DG    S(hbond)    S(metal)    S(lipo)     H(rot)  DE(clash)    DE(int)     intcor
     18.17     -19.89       3.60        0.00      67.08       2.13       0.00       1.72       ----

> <Gold.Chemscore.Fitness>
18.1678

> <Gold.Chemscore.DG>
-19.8920

> <Gold.Chemscore.ZeroCoef>
-5.4800

> <Gold.Chemscore.Hbond>
3.6003

> <Gold.Chemscore.Metal>
0.0000

> <Gold.Chemscore.Lipo>
67.0844

> <Gold.Chemscore.Internal_Hbond>
0.0000

> <Gold.Chemscore.DEClash>
0.0000

> <Gold.Chemscore.DEInternal>
1.7242

> <Gold.Chemscore.Rot>
2.1335

> <Gold.Chemscore.Internal.Correction>
   9.000000E+99

> <Gold.Chemscore.Hbonds>
donor molecule, donor type, donor heavy atom, donor atom, acceptor molecule, acceptor atom, score
      L1  H    19    42       P1  7957  0.83
      L1  H    19    43       P1  7948  0.20
      P1  H  6931  6943       L1    11  0.92
      P1  H  7989  7998       L1    20  0.65

> <Gold.Chemscore.Hbond.Weighted>
-12.0250

> <Gold.Chemscore.Metal.Weighted>
-0.0000

> <Gold.Chemscore.Lipo.Weighted>
-7.8489

> <Gold.Chemscore.Internal_Hbond.Weighted>
0.0000

> <Gold.Chemscore.DEClash.Weighted>
0.0000

> <Gold.Chemscore.DEInternal.Weighted>
1.7242

> <Gold.Chemscore.Rot.Weighted>
5.4618

> <Gold.Chemscore.Internal.Correction.Weighted>
   9.000000E+99

> <Gold.Protein.RotatedTorsions>
[ 6907 6896 6895 6894 ] final   63.77 input  -60.11 | X-H torsion
[ 7974 7965 7964 7962 ] final   45.54 input  175.53 | X-H torsion
[ 8008 7997 7996 7995 ] final  118.63 input   59.86 | X-H torsion
[ 10167 10162 10161 10158 ] final   71.84 input  -65.29 | X-H torsion
[ 10718 10713 10712 10709 ] final -113.38 input   66.30 | X-H torsion
[ 10763 10752 10751 10750 ] final    3.32 input  -60.55 | X-H torsion
[ 11005 11000 10999 10996 ] final   45.39 input  -57.11 | X-H torsion

> <Gold.Protein.ActiveResidues>
 VAL166  LYS551  ARG553  GLY616  TRP617  ASP618  TYR619  PRO620  LYS621  CYS622 
 ASP623  PHE694  ASN695  SER759  ASP760  ASP761  ALA762  ILE779  LEU786  VAL792 
 PHE793  MET794  SER795  GLU796  ALA797  LYS798  CYS799  TRP800  GLU811  SER814 

> <Gold.Protein.RotatedAtoms>
  152.4279  134.5833  159.9953 H   0  0  0  0  0  0  0  0  0  0  0  0  # atno 6907 bound_to 6896
  151.5965  133.3355  159.3046 H   0  0  0  0  0  0  0  0  0  0  0  0  # atno 6908 bound_to 6896
  150.8170  134.7393  159.6803 H   0  0  0  0  0  0  0  0  0  0  0  0  # atno 6909 bound_to 6896
  146.0470  139.4953  142.9742 H   0  0  0  0  0  0  0  0  0  0  0  0  # atno 7974 bound_to 7965
  156.2556  140.2870  156.0864 H   0  0  0  0  0  0  0  0  0  0  0  0  # atno 8008 bound_to 7997
  155.1510  140.0397  157.2838 H   0  0  0  0  0  0  0  0  0  0  0  0  # atno 8009 bound_to 7997
  154.6461  140.2533  155.7273 H   0  0  0  0  0  0  0  0  0  0  0  0  # atno 8010 bound_to 7997
  140.0418  144.5383  150.7428 H   0  0  0  0  0  0  0  0  0  0  0  0  # atno 10167 bound_to 10162
  156.0763  130.5970  150.8635 H   0  0  0  0  0  0  0  0  0  0  0  0  # atno 10718 bound_to 10713
  153.2848  135.6943  153.7350 H   0  0  0  0  0  0  0  0  0  0  0  0  # atno 10763 bound_to 10752
  153.6324  135.3408  155.3046 H   0  0  0  0  0  0  0  0  0  0  0  0  # atno 10764 bound_to 10752
  154.8506  135.4412  154.1912 H   0  0  0  0  0  0  0  0  0  0  0  0  # atno 10765 bound_to 10752
  140.1464  134.4517  155.8412 H   0  0  0  0  0  0  0  0  0  0  0  0  # atno 11005 bound_to 11000
  145.6788  141.0196  143.1617 LP  0  0  0  0  0  0  0  0  0  0  0  0  # atno 17320 bound_to 7965
  144.7103  139.8397  143.7417 LP  0  0  0  0  0  0  0  0  0  0  0  0  # atno 17321 bound_to 7965
  140.7257  143.2633  151.4130 LP  0  0  0  0  0  0  0  0  0  0  0  0  # atno 17342 bound_to 10162
  139.6009  144.1298  152.2197 LP  0  0  0  0  0  0  0  0  0  0  0  0  # atno 17343 bound_to 10162
  157.5860  131.0945  150.9195 LP  0  0  0  0  0  0  0  0  0  0  0  0  # atno 17370 bound_to 10713
  156.9381  130.5374  149.5280 LP  0  0  0  0  0  0  0  0  0  0  0  0  # atno 17371 bound_to 10713
  141.2193  133.6854  156.7342 LP  0  0  0  0  0  0  0  0  0  0  0  0  # atno 17394 bound_to 11000
  140.2658  134.8431  157.3801 LP  0  0  0  0  0  0  0  0  0  0  0  0  # atno 17395 bound_to 11000

$$$$
