AV-unprocessed.smi:1008|AV-procd|sdf|4412|dock6
  -GOLD-   22720 2353D 1   1.00000     0.00000
 Structure written by MMmdl.
 23 23  0  0  0  0  0  0  0  0  1 V2000
  149.6624  140.1068  154.5054 C   0  0  0  0  0  0  0  0  0  0  0  0
  150.4894  140.6130  155.6730 C   0  0  0  0  0  0  0  0  0  0  0  0
  150.2512  141.8877  156.0542 N   0  0  0  0  0  0  0  0  0  0  0  0
  150.9699  142.3568  157.0740 C   0  0  0  0  0  0  0  0  0  0  0  0
  150.7203  143.6517  157.4571 N   0  0  0  0  0  0  0  0  0  0  0  0
  151.9060  141.7005  157.7604 N   0  0  0  0  0  0  0  0  0  0  0  0
  152.1576  140.4248  157.3949 C   0  0  0  0  0  0  0  0  0  0  0  0
  153.1184  139.7411  158.0822 O   0  0  0  0  0  0  0  0  0  0  0  0
  151.4559  139.8090  156.3291 C   0  0  0  0  0  0  0  0  0  0  0  0
  151.7392  138.3712  155.9135 C   0  0  0  0  0  0  0  0  0  0  0  0
  152.0223  138.2502  154.4100 C   0  0  0  0  0  0  0  0  0  0  0  0
  151.9175  136.9010  154.0113 O   0  0  0  0  0  0  0  0  0  0  0  0
  152.8597  139.5459  158.9697 H   0  0  0  0  0  0  0  0  0  0  0  0
  150.3060  139.6907  153.7304 H   0  0  0  0  0  0  0  0  0  0  0  0
  149.0750  140.9086  154.0562 H   0  0  0  0  0  0  0  0  0  0  0  0
  148.9731  139.3307  154.8380 H   0  0  0  0  0  0  0  0  0  0  0  0
  150.0234  144.2017  156.9765 H   0  0  0  0  0  0  0  0  0  0  0  0
  151.2456  144.0715  158.2103 H   0  0  0  0  0  0  0  0  0  0  0  0
  150.9006  137.7319  156.1892 H   0  0  0  0  0  0  0  0  0  0  0  0
  152.5890  137.9936  156.4830 H   0  0  0  0  0  0  0  0  0  0  0  0
  151.3144  138.8457  153.8330 H   0  0  0  0  0  0  0  0  0  0  0  0
  153.0232  138.6138  154.1751 H   0  0  0  0  0  0  0  0  0  0  0  0
  151.8064  136.8727  153.0732 H   0  0  0  0  0  0  0  0  0  0  0  0
  1 14  1  0  0  0  0
  1 15  1  0  0  0  0
  1 16  1  0  0  0  0
  1  2  1  0  0  0  0
  2  9  2  0  0  0  0
  2  3  1  0  0  0  0
  3  4  2  0  0  0  0
  4  5  1  0  0  0  0
  4  6  1  0  0  0  0
  5 17  1  0  0  0  0
  5 18  1  0  0  0  0
  6  7  2  0  0  0  0
  7  8  1  0  0  0  0
  7  9  1  0  0  0  0
  8 13  1  0  0  0  0
  9 10  1  0  0  0  0
 10 11  1  0  0  0  0
 10 19  1  0  0  0  0
 10 20  1  0  0  0  0
 11 12  1  0  0  0  0
 11 21  1  0  0  0  0
 11 22  1  0  0  0  0
 12 23  1  0  0  0  0
M  END
> <s_m_source_file>
AV-unprocessed.smi

> <i_m_source_file_index>
1008

> <i_lp_mmshare_version>
43012

> <i_f3d_flags>
0

> <s_epik_input>
W0NIM11jMW5jKFtOSDJdKVtuSF1jKD1PKWMxW0NIMl1bQ0gyXVtPSF0=

> <s_epik_cmdline>
J2VwaWtfcHl0aG9uJywgJy1waCcsICc3LjAnLCAnLXRuJywgJzgnLCAnLW1hJywgJzIwMCcsICctbWV0YWxfYmluZGluZycsICctaW1hZScsICc8aW5maWxlLm1hZT4nLCAnLW9tYWUnLCAnPG91dGZpbGUubWFlPic=

> <r_lp_tautomer_probability>
0.0131372

> <r_epik_Ionization_Penalty>
8.55637

> <r_epik_Ionization_Penalty_Charging>
0

> <r_epik_Ionization_Penalty_Neutral>
8.55637

> <r_epik_State_Penalty>
2.72329

> <r_epik_Charging_Adjusted_Penalty>
2.72329

> <i_epik_Tot_Q>
0

> <i_epik_Tot_abs_Q>
0

> <r_epik_Metal_State_Penalty>
2.85363

> <b_epik_Metal_Only>
0

> <s_lp_Force_Field>
OPLS_2005

> <r_lp_Energy>
-5.16374

> <b_lp_Chiralities_Consistent>
1

> <s_lp_Variant>
AV-unprocessed.smi:1008-3

> <Gold.Version>
5.8.1

> <Gold.Id.Protein>
6NUR|6NUR_protein|mol2

> <Gold.PLP.Fitness>
33.6558

> <Gold.PLP.PLP>
-21.9002

> <Gold.PLP.part.hbond>
-4.0000

> <Gold.PLP.part.metal>
0.0000

> <Gold.PLP.part.buried>
-2.7710

> <Gold.PLP.part.nonpolar>
-14.7357

> <Gold.PLP.part.repulsive>
0.1165

> <Gold.PLP.ligand.clash>
0.0000

> <Gold.PLP.ligand.torsion>
0.1223

> <Gold.PLP.Chemscore.Hbond>
4.0000

> <Gold.PLP.Chemscore.CHOScore>
0.0000

> <Gold.PLP.Chemscore.Metal>
0.0000

> <Gold.Chemscore.Hbonds>
donor molecule, donor type, donor heavy atom, donor atom, acceptor molecule, acceptor atom, score
      L1  H     5    17       P1  8028  1.00
      L1  H    12    23       P1  7949  1.00
      P1  H  7997  8008       L1     8  1.00
      P1  H 10752 10765       L1    12  1.00

> <Gold.PLP.Chemscore.Internal.Correction>
0.0001

> <Gold.Rescore>
     Score         DG    S(hbond)    S(metal)    S(lipo)     H(rot)  DE(clash)    DE(int)     intcor
     14.04     -14.49       3.56        0.00      35.07       2.73       0.39       0.06       ----

> <Gold.Chemscore.Fitness>
14.0363

> <Gold.Chemscore.DG>
-14.4899

> <Gold.Chemscore.ZeroCoef>
-5.4800

> <Gold.Chemscore.Hbond>
3.5597

> <Gold.Chemscore.Metal>
0.0000

> <Gold.Chemscore.Lipo>
35.0724

> <Gold.Chemscore.Internal_Hbond>
0.0000

> <Gold.Chemscore.DEClash>
0.3926

> <Gold.Chemscore.DEInternal>
0.0610

> <Gold.Chemscore.Rot>
2.7277

> <Gold.Chemscore.Internal.Correction>
   9.000000E+99

> <Gold.Chemscore.Hbonds>
donor molecule, donor type, donor heavy atom, donor atom, acceptor molecule, acceptor atom, score
      L1  H     5    17       P1  8028  0.85
      L1  H    12    23       P1  7949  0.95
      P1  H  7997  8008       L1     8  0.44
      P1  H 10752 10765       L1    12  0.44

> <Gold.Chemscore.Hbond.Weighted>
-11.8893

> <Gold.Chemscore.Metal.Weighted>
-0.0000

> <Gold.Chemscore.Lipo.Weighted>
-4.1035

> <Gold.Chemscore.Internal_Hbond.Weighted>
0.0000

> <Gold.Chemscore.DEClash.Weighted>
0.3926

> <Gold.Chemscore.DEInternal.Weighted>
0.0610

> <Gold.Chemscore.Rot.Weighted>
6.9829

> <Gold.Chemscore.Internal.Correction.Weighted>
   9.000000E+99

> <Gold.Protein.RotatedTorsions>
[ 6907 6896 6895 6894 ] final  176.15 input  -60.11 | X-H torsion
[ 7974 7965 7964 7962 ] final  -27.04 input  175.53 | X-H torsion
[ 8008 7997 7996 7995 ] final  -92.17 input   59.86 | X-H torsion
[ 10167 10162 10161 10158 ] final   43.44 input  -65.29 | X-H torsion
[ 10718 10713 10712 10709 ] final   93.95 input   66.30 | X-H torsion
[ 10763 10752 10751 10750 ] final  164.25 input  -60.55 | X-H torsion
[ 11005 11000 10999 10996 ] final -175.23 input  -57.11 | X-H torsion

> <Gold.Protein.ActiveResidues>
 VAL166  LYS551  ARG553  GLY616  TRP617  ASP618  TYR619  PRO620  LYS621  CYS622 
 ASP623  PHE694  ASN695  SER759  ASP760  ASP761  ALA762  ILE779  LEU786  VAL792 
 PHE793  MET794  SER795  GLU796  ALA797  LYS798  CYS799  TRP800  GLU811  SER814 

> <Gold.Protein.RotatedAtoms>
  151.7247  133.3315  159.3324 H   0  0  0  0  0  0  0  0  0  0  0  0  # atno 6907 bound_to 6896
  150.7638  134.6417  159.6250 H   0  0  0  0  0  0  0  0  0  0  0  0  # atno 6908 bound_to 6896
  152.3630  134.6848  160.0253 H   0  0  0  0  0  0  0  0  0  0  0  0  # atno 6909 bound_to 6896
  146.1385  140.5099  142.8662 H   0  0  0  0  0  0  0  0  0  0  0  0  # atno 7974 bound_to 7965
  154.7198  140.0511  157.0629 H   0  0  0  0  0  0  0  0  0  0  0  0  # atno 8008 bound_to 7997
  155.0442  140.3172  155.4695 H   0  0  0  0  0  0  0  0  0  0  0  0  # atno 8009 bound_to 7997
  156.2813  140.2127  156.5566 H   0  0  0  0  0  0  0  0  0  0  0  0  # atno 8010 bound_to 7997
  140.3444  144.2430  150.6152 H   0  0  0  0  0  0  0  0  0  0  0  0  # atno 10167 bound_to 10162
  157.6951  131.0495  150.4111 H   0  0  0  0  0  0  0  0  0  0  0  0  # atno 10718 bound_to 10713
  154.3061  135.2758  155.2588 H   0  0  0  0  0  0  0  0  0  0  0  0  # atno 10763 bound_to 10752
  154.5003  135.5810  153.6530 H   0  0  0  0  0  0  0  0  0  0  0  0  # atno 10764 bound_to 10752
  152.9894  135.6156  154.3235 H   0  0  0  0  0  0  0  0  0  0  0  0  # atno 10765 bound_to 10752
  140.4657  134.6213  157.4861 H   0  0  0  0  0  0  0  0  0  0  0  0  # atno 11005 bound_to 11000
  144.7766  140.5752  143.6634 LP  0  0  0  0  0  0  0  0  0  0  0  0  # atno 17320 bound_to 7965
  145.5101  139.1479  143.3609 LP  0  0  0  0  0  0  0  0  0  0  0  0  # atno 17321 bound_to 7965
  140.5279  143.2250  151.8286 LP  0  0  0  0  0  0  0  0  0  0  0  0  # atno 17342 bound_to 10162
  139.4835  144.4757  151.9370 LP  0  0  0  0  0  0  0  0  0  0  0  0  # atno 17343 bound_to 10162
  156.4495  130.4008  149.6645 LP  0  0  0  0  0  0  0  0  0  0  0  0  # atno 17370 bound_to 10713
  156.3799  130.7574  151.2565 LP  0  0  0  0  0  0  0  0  0  0  0  0  # atno 17371 bound_to 10713
  139.9917  134.6975  155.9678 LP  0  0  0  0  0  0  0  0  0  0  0  0  # atno 17394 bound_to 11000
  141.1601  133.6539  156.4289 LP  0  0  0  0  0  0  0  0  0  0  0  0  # atno 17395 bound_to 11000

$$$$
