#       Name:                AV-unprocessed.smi:749
#       Creating user name   scv26
#       Creation time:       Fri Mar 27 00:58:22 2020


#       File generated by GOLD software.
#

@<TRIPOS>MOLECULE
AV-unprocessed.smi:749
    50    51     1
SMALL
NO_CHARGES


@<TRIPOS>ATOM
      1 ****        -4.1118   0.4345  -2.1560 C.3            1 S1                 0.0000
      2 ****        -3.8514   0.5194  -0.7182 N.am           1 S1                 0.0000
      3 ****        -2.4342   0.6722  -0.3547 C.3            1 S1                 0.0000
      4 ****        -2.2008   1.1218   1.0978 C.3            1 S1                 0.0000
      5 ****        -0.7940   0.9456   1.4451 N.am           1 S1                 0.0000
      6 ****        -0.1171   1.6011   2.4086 C.2            1 S1                 0.0000
      7 ****        -0.7105   2.4361   3.0902 O.2            1 S1                 0.0000
      8 ****         1.1981   1.2998   2.5770 N.pl3          1 S1                -1.0000
      9 ****         1.8408   0.3980   1.8142 C.2            1 S1                 0.0000
     10 ****         2.4692   0.6591   0.5668 C.2            1 S1                 0.0000
     11 ****         2.9617  -0.5621   0.1961 C.2            1 S1                 0.0000
     12 ****         3.7219  -1.0492  -1.0056 C.3            1 S1                 0.0000
     13 ****         3.9995   0.1084  -1.9854 C.3            1 S1                 0.0000
     14 ****         2.9028  -2.1242  -1.7441 C.3            1 S1                 0.0000
     15 ****         5.0713  -1.6496  -0.5688 C.3            1 S1                 0.0000
     16 ****         2.6641  -1.4885   1.1495 O.3            1 S1                 0.0000
     17 ****         1.9550  -0.8659   2.1829 N.2            1 S1                 0.0000
     18 ****        -3.1007   0.3121   2.0372 C.3            1 S1                 0.0000
     19 ****        -4.5760   0.5155   1.6727 C.3            1 S1                 0.0000
     20 ****        -4.8662   0.3833   0.1697 C.2            1 S1                 0.0000
     21 ****        -6.0305   0.1876  -0.1809 O.2            1 S1                 0.0000
     22 ****        -4.7575   1.2534  -2.4759 H              1 S1                 0.0000
     23 ****        -4.6041  -0.5065  -2.4058 H              1 S1                 0.0000
     24 ****        -3.1950   0.4871  -2.7446 H              1 S1                 0.0000
     25 ****        -1.9522  -0.2925  -0.5235 H              1 S1                 0.0000
     26 ****        -1.9516   1.3819  -1.0283 H              1 S1                 0.0000
     27 ****        -2.4618   2.1790   1.1762 H              1 S1                 0.0000
     28 ****        -0.2802   0.2625   0.9081 H              1 S1                 0.0000
     29 ****         2.5371   1.5925   0.0286 H              1 S1                 0.0000
     30 ****         4.5547  -0.2338  -2.8595 H              1 S1                 0.0000
     31 ****         4.5876   0.8966  -1.5137 H              1 S1                 0.0000
     32 ****         3.0729   0.5586  -2.3437 H              1 S1                 0.0000
     33 ****         1.9387  -1.7315  -2.0696 H              1 S1                 0.0000
     34 ****         2.7061  -2.9858  -1.1050 H              1 S1                 0.0000
     35 ****         3.4268  -2.4870  -2.6290 H              1 S1                 0.0000
     36 ****         5.6467  -2.0028  -1.4253 H              1 S1                 0.0000
     37 ****         4.9329  -2.4978   0.1027 H              1 S1                 0.0000
     38 ****         5.6804  -0.9126  -0.0440 H              1 S1                 0.0000
     39 ****        -2.8471  -0.7474   1.9788 H              1 S1                 0.0000
     40 ****        -2.9392   0.6123   3.0733 H              1 S1                 0.0000
     41 ****        -5.1948  -0.1922   2.2252 H              1 S1                 0.0000
     42 ****        -4.8911   1.5126   1.9823 H              1 S1                 0.0000
     43 ****        -1.6796   2.6190   2.9249 LP             1 S1                 0.0000
     44 ****        -0.2237   2.9317   3.8094 LP             1 S1                 0.0000
     45 ****         1.7086   1.7683   3.2980 LP             1 S1                 0.0000
     46 ****         3.5097  -1.8806   1.5117 LP             1 S1                 0.0000
     47 ****         2.1049  -2.2144   0.7489 LP             1 S1                 0.0000
     48 ****         1.6087  -1.2873   3.0211 LP             1 S1                 0.0000
     49 ****        -6.2559   0.1236  -1.1531 LP             1 S1                 0.0000
     50 ****        -6.7505   0.0927   0.5066 LP             1 S1                 0.0000
@<TRIPOS>BOND
    1    1    2 1     
    2    1   22 1     
    3    1   23 1     
    4    1   24 1     
    5    2   20 am    
    6    2    3 1     
    7    3    4 1     
    8    3   25 1     
    9    3   26 1     
   10    4    5 1     
   11    4   18 1     
   12    4   27 1     
   13    5    6 am    
   14    5   28 1     
   15    6    7 2     
   16    6    8 1     
   17    8    9 1     
   18    9   17 2     
   19    9   10 1     
   20   10   11 2     
   21   10   29 1     
   22   11   12 1     
   23   11   16 1     
   24   12   13 1     
   25   12   14 1     
   26   12   15 1     
   27   13   30 1     
   28   13   31 1     
   29   13   32 1     
   30   14   33 1     
   31   14   34 1     
   32   14   35 1     
   33   15   36 1     
   34   15   37 1     
   35   15   38 1     
   36   16   17 1     
   37   18   19 1     
   38   18   39 1     
   39   18   40 1     
   40   19   20 1     
   41   19   41 1     
   42   19   42 1     
   43   20   21 2     
   44    7   43 1     
   45    7   44 1     
   46    8   45 1     
   47   16   46 1     
   48   16   47 1     
   49   17   48 1     
   50   21   49 1     
   51   21   50 1     
@<TRIPOS>SUBSTRUCTURE
      1 S1             1
@<TRIPOS>SET
LONE_PAIRS      STATIC     ATOMS    <user>   **** ""
8 43 44 45 46 47 48 49 50
DONOR_HYDROGENS      STATIC     ATOMS    <user>   **** ""
1 28
ATOM$BLUE        STATIC     ATOMS    COLORGROUP SYSTEM
8 43 44 45 46 47 48 49 50
ATOM$RED        STATIC     ATOMS    COLORGROUP SYSTEM
1 28
