#       Name:                AV-unprocessed.smi:1057
#       Creating user name   scv26
#       Creation time:       Fri Mar 27 03:15:57 2020


#       File generated by GOLD software.
#

@<TRIPOS>MOLECULE
AV-unprocessed.smi:1057
    50    51     1
SMALL
NO_CHARGES


@<TRIPOS>ATOM
      1 ****        -4.5997  -4.5316   5.7185 C.1            1 S1                 0.0000
      2 ****        -4.2722  -3.6309   4.9619 C.1            1 S1                 0.0000
      3 ****        -3.8844  -2.5529   4.0402 C.3            1 S1                 0.0000
      4 ****        -2.4396  -2.3953   3.9673 N.am           1 S1                 0.0000
      5 ****        -1.8140  -1.5167   3.1714 C.2            1 S1                 0.0000
      6 ****        -2.4119  -0.7434   2.4212 O.2            1 S1                 0.0000
      7 ****        -0.2830  -1.5037   3.2588 C.3            1 S1                 0.0000
      8 ****         0.3461  -0.8504   2.1132 N.am           1 S1                 0.0000
      9 ****         0.6114  -1.4405   0.9387 C.2            1 S1                 0.0000
     10 ****         0.3784  -2.6261   0.7039 O.2            1 S1                 0.0000
     11 ****         1.1347  -0.5679   0.0619 N.am           1 S1                 0.0000
     12 ****         1.5315  -0.8090  -1.2838 C.ar           1 S1                 0.0000
     13 ****         2.0223  -2.0652  -1.7223 C.ar           1 S1                 0.0000
     14 ****         2.4217  -2.2285  -3.0640 C.ar           1 S1                 0.0000
     15 ****         2.3331  -1.1338  -3.9440 C.ar           1 S1                 0.0000
     16 ****         1.8748   0.0528  -3.4926 N.pl3          1 S1                 1.0000
     17 ****         1.4779   0.2603  -2.2133 C.ar           1 S1                 0.0000
     18 ****         1.0187   1.5366  -1.8505 N.3            1 S1                 0.0000
     19 ****         2.0750   2.5443  -1.8152 C.3            1 S1                 0.0000
     20 ****         1.5602   3.8494  -1.1840 C.3            1 S1                 0.0000
     21 ****         0.2944   4.3458  -1.9018 C.3            1 S1                 0.0000
     22 ****        -0.7684   3.2354  -1.9373 C.3            1 S1                 0.0000
     23 ****        -0.1957   1.9463  -2.5511 C.3            1 S1                 0.0000
     24 ****        -4.8896  -5.3195   6.3770 H              1 S1                 0.0000
     25 ****        -4.2905  -2.7847   3.0546 H              1 S1                 0.0000
     26 ****        -4.3460  -1.6263   4.3839 H              1 S1                 0.0000
     27 ****        -1.8800  -2.9934   4.5580 H              1 S1                 0.0000
     28 ****         0.0077  -0.9663   4.1616 H              1 S1                 0.0000
     29 ****         0.0928  -2.5228   3.3670 H              1 S1                 0.0000
     30 ****         0.5618   0.1304   2.2157 H              1 S1                 0.0000
     31 ****         1.1711   0.3956   0.3614 H              1 S1                 0.0000
     32 ****         2.1132  -2.9031  -1.0478 H              1 S1                 0.0000
     33 ****         2.7967  -3.1804  -3.4109 H              1 S1                 0.0000
     34 ****         2.6188  -1.1690  -4.9853 H              1 S1                 0.0000
     35 ****         2.9266   2.1677  -1.2468 H              1 S1                 0.0000
     36 ****         2.4270   2.7370  -2.8296 H              1 S1                 0.0000
     37 ****         1.3386   3.6816  -0.1291 H              1 S1                 0.0000
     38 ****         2.3362   4.6143  -1.2197 H              1 S1                 0.0000
     39 ****        -0.1010   5.2304  -1.4017 H              1 S1                 0.0000
     40 ****         0.5439   4.6473  -2.9199 H              1 S1                 0.0000
     41 ****        -1.1182   3.0330  -0.9240 H              1 S1                 0.0000
     42 ****        -1.6381   3.5664  -2.5054 H              1 S1                 0.0000
     43 ****         0.0284   2.1075  -3.6065 H              1 S1                 0.0000
     44 ****        -0.9379   1.1486  -2.4991 H              1 S1                 0.0000
     45 ****         1.8252   0.8325  -4.1487 H              1 S1                 0.0000
     46 ****        -3.4112  -0.7528   2.3867 LP             1 S1                 0.0000
     47 ****        -1.8977  -0.1065   1.8468 LP             1 S1                 0.0000
     48 ****        -0.0309  -3.2045   1.4095 LP             1 S1                 0.0000
     49 ****         0.5985  -3.0110  -0.1925 LP             1 S1                 0.0000
     50 ****         0.7265   1.4544  -0.8977 LP             1 S1                 0.0000
@<TRIPOS>BOND
    1    1    2 3     
    2    1   24 1     
    3    2    3 1     
    4    3    4 1     
    5    3   25 1     
    6    3   26 1     
    7    4    5 am    
    8    4   27 1     
    9    5    6 2     
   10    5    7 1     
   11    7    8 1     
   12    7   28 1     
   13    7   29 1     
   14    8    9 am    
   15    8   30 1     
   16    9   10 2     
   17    9   11 am    
   18   11   12 1     
   19   11   31 1     
   20   12   17 ar    
   21   12   13 ar    
   22   13   14 ar    
   23   13   32 1     
   24   14   15 ar    
   25   14   33 1     
   26   15   16 ar    
   27   15   34 1     
   28   16   17 ar    
   29   16   45 1     
   30   17   18 1     
   31   18   23 1     
   32   18   19 1     
   33   19   20 1     
   34   19   35 1     
   35   19   36 1     
   36   20   21 1     
   37   20   37 1     
   38   20   38 1     
   39   21   22 1     
   40   21   39 1     
   41   21   40 1     
   42   22   23 1     
   43   22   41 1     
   44   22   42 1     
   45   23   43 1     
   46   23   44 1     
   47    6   46 1     
   48    6   47 1     
   49   10   48 1     
   50   10   49 1     
   51   18   50 1     
@<TRIPOS>SUBSTRUCTURE
      1 S1             1
@<TRIPOS>SET
LONE_PAIRS      STATIC     ATOMS    <user>   **** ""
5 46 47 48 49 50
DONOR_HYDROGENS      STATIC     ATOMS    <user>   **** ""
4 27 30 31 45
ATOM$BLUE        STATIC     ATOMS    COLORGROUP SYSTEM
5 46 47 48 49 50
ATOM$RED        STATIC     ATOMS    COLORGROUP SYSTEM
4 27 30 31 45
