AV-unprocessed.smi:2743|AV-procd|sdf|10567|dock8
  -GOLD-   2272015 23D 1   1.00000     0.00000
 Structure written by MMmdl.
 39 40  0  0  0  0  0  0  0  0  2 V2000
  151.8610  145.9143  159.4876 N   0  0  0  0  0  0  0  0  0  0  0  0
  151.1159  145.0529  159.2819 C   0  0  0  0  0  0  0  0  0  0  0  0
  150.1691  143.9586  159.0162 C   0  0  0  0  0  0  0  0  0  0  0  0
  150.8048  142.8669  158.1620 C   0  0  0  0  0  0  0  0  0  0  0  0
  151.7051  142.1681  158.6262 O   0  0  0  0  0  0  0  0  0  0  0  0
  150.3483  142.7553  156.9045 N   0  0  0  0  0  0  0  0  0  0  0  0
  150.8852  141.8675  155.8728 C   0  0  0  0  0  0  0  0  0  0  0  0
  150.1719  140.4816  155.8392 C   0  0  0  0  0  0  0  0  0  0  0  0
  148.7964  140.6507  155.1522 C   0  0  0  0  0  0  0  0  0  0  0  0
  147.9592  139.5224  154.9567 C   0  0  0  0  0  0  0  0  0  0  0  0
  146.7226  139.6639  154.2964 C   0  0  0  0  0  0  0  0  0  0  0  0
  146.3365  140.8747  153.8457 N   0  3  0  0  0  0  0  0  0  0  0  0
  147.0925  141.9810  153.9980 C   0  0  0  0  0  0  0  0  0  0  0  0
  148.3384  141.8986  154.6516 C   0  0  0  0  0  0  0  0  0  0  0  0
  151.0224  139.4632  155.0223 C   0  0  0  0  0  0  0  0  0  0  0  0
  152.3516  139.0625  155.6891 C   0  0  0  0  0  0  0  0  0  0  0  0
  152.1296  138.5151  157.1026 C   0  0  0  0  0  0  0  0  0  0  0  0
  151.3528  139.5210  157.9576 C   0  0  0  0  0  0  0  0  0  0  0  0
  150.0239  139.9121  157.2865 C   0  0  0  0  0  0  0  0  0  0  0  0
  149.8402  143.5469  159.9711 H   0  0  0  0  0  0  0  0  0  0  0  0
  149.2925  144.3699  158.5146 H   0  0  0  0  0  0  0  0  0  0  0  0
  149.5971  143.3687  156.6221 H   0  0  0  0  0  0  0  0  0  0  0  0
  150.8257  142.3458  154.8938 H   0  0  0  0  0  0  0  0  0  0  0  0
  151.9507  141.7600  156.0683 H   0  0  0  0  0  0  0  0  0  0  0  0
  148.2612  138.5407  155.2890 H   0  0  0  0  0  0  0  0  0  0  0  0
  146.0401  138.8478  154.1090 H   0  0  0  0  0  0  0  0  0  0  0  0
  146.6853  142.8940  153.5883 H   0  0  0  0  0  0  0  0  0  0  0  0
  148.9210  142.8020  154.7387 H   0  0  0  0  0  0  0  0  0  0  0  0
  150.4357  138.5564  154.8668 H   0  0  0  0  0  0  0  0  0  0  0  0
  151.2463  139.8481  154.0278 H   0  0  0  0  0  0  0  0  0  0  0  0
  152.8523  138.3085  155.0811 H   0  0  0  0  0  0  0  0  0  0  0  0
  153.0283  139.9162  155.7251 H   0  0  0  0  0  0  0  0  0  0  0  0
  151.5777  137.5756  157.0496 H   0  0  0  0  0  0  0  0  0  0  0  0
  153.0874  138.2861  157.5704 H   0  0  0  0  0  0  0  0  0  0  0  0
  151.1534  139.0874  158.9381 H   0  0  0  0  0  0  0  0  0  0  0  0
  151.9633  140.4052  158.1401 H   0  0  0  0  0  0  0  0  0  0  0  0
  149.5027  140.6178  157.9341 H   0  0  0  0  0  0  0  0  0  0  0  0
  149.4055  139.0137  157.2555 H   0  0  0  0  0  0  0  0  0  0  0  0
  145.4397  140.9559  153.3656 H   0  0  0  0  0  0  0  0  0  0  0  0
  1  2  3  0  0  0  0
  2  3  1  0  0  0  0
  3  4  1  0  0  0  0
  3 20  1  0  0  0  0
  3 21  1  0  0  0  0
  4  5  2  0  0  0  0
  4  6  1  0  0  0  0
  6  7  1  0  0  0  0
  6 22  1  0  0  0  0
  7  8  1  0  0  0  0
  7 23  1  0  0  0  0
  7 24  1  0  0  0  0
  8 19  1  0  0  0  0
  8  9  1  0  0  0  0
  8 15  1  0  0  0  0
  9 14  1  0  0  0  0
  9 10  2  0  0  0  0
 10 11  1  0  0  0  0
 10 25  1  0  0  0  0
 11 12  2  0  0  0  0
 11 26  1  0  0  0  0
 12 13  1  0  0  0  0
 12 39  1  0  0  0  0
 13 14  2  0  0  0  0
 13 27  1  0  0  0  0
 14 28  1  0  0  0  0
 15 16  1  0  0  0  0
 15 29  1  0  0  0  0
 15 30  1  0  0  0  0
 16 17  1  0  0  0  0
 16 31  1  0  0  0  0
 16 32  1  0  0  0  0
 17 18  1  0  0  0  0
 17 33  1  0  0  0  0
 17 34  1  0  0  0  0
 18 19  1  0  0  0  0
 18 35  1  0  0  0  0
 18 36  1  0  0  0  0
 19 37  1  0  0  0  0
 19 38  1  0  0  0  0
M  CHG  1  12   1
M  END
> <s_m_source_file>
AV-unprocessed.smi

> <i_m_source_file_index>
2743

> <i_lp_mmshare_version>
43012

> <i_f3d_flags>
0

> <s_epik_input>
TiNDW0NIMl1DKD1PKVtOSF1bQ0gyXUMxKFtDSDJdW0NIMl1bQ0gyXVtDSDJdW0NIMl0xKWMyW2NIXVtjSF1uW2NIXVtjSF0y

> <s_epik_cmdline>
J2VwaWtfcHl0aG9uJywgJy1waCcsICc3LjAnLCAnLXRuJywgJzgnLCAnLW1hJywgJzIwMCcsICctbWV0YWxfYmluZGluZycsICctaW1hZScsICc8aW5maWxlLm1hZT4nLCAnLW9tYWUnLCAnPG91dGZpbGUubWFlPic=

> <r_epik_Ionization_Penalty>
1.44483

> <r_epik_Ionization_Penalty_Charging>
1.44483

> <r_epik_Ionization_Penalty_Neutral>
8.95364e-07

> <r_epik_State_Penalty>
1.53054

> <r_epik_Charging_Adjusted_Penalty>
2.97537

> <i_epik_Tot_Q>
1

> <i_epik_Tot_abs_Q>
1

> <r_epik_Metal_State_Penalty>
1.58148

> <b_epik_Metal_Only>
0

> <s_lp_Force_Field>
OPLS_2005

> <r_lp_Energy>
24.9332

> <b_lp_Chiralities_Consistent>
1

> <s_lp_Variant>
AV-unprocessed.smi:2743-2

> <Gold.Version>
5.8.1

> <Gold.Id.Protein>
6NUR|6NUR_protein|mol2

> <Gold.PLP.Fitness>
40.9507

> <Gold.PLP.PLP>
-32.8179

> <Gold.PLP.part.hbond>
-3.0000

> <Gold.PLP.part.metal>
0.0000

> <Gold.PLP.part.buried>
-4.7433

> <Gold.PLP.part.nonpolar>
-25.4385

> <Gold.PLP.part.repulsive>
0.1959

> <Gold.PLP.ligand.clash>
0.0000

> <Gold.PLP.ligand.torsion>
0.4449

> <Gold.PLP.Chemscore.Hbond>
3.0000

> <Gold.PLP.Chemscore.CHOScore>
0.0000

> <Gold.PLP.Chemscore.Metal>
0.0000

> <Gold.Chemscore.Hbonds>
donor molecule, donor type, donor heavy atom, donor atom, acceptor molecule, acceptor atom, score
      L1  H     6    22       P1  8028  1.00
      L1  H    12    39       P1 10175  2.00

> <Gold.PLP.Chemscore.Internal.Correction>
0.0226

> <Gold.Rescore>
     Score         DG    S(hbond)    S(metal)    S(lipo)     H(rot)  DE(clash)    DE(int)     intcor
     13.07     -15.30       1.85        0.00      71.75       1.85       0.23       1.99       ----

> <Gold.Chemscore.Fitness>
13.0747

> <Gold.Chemscore.DG>
-15.2993

> <Gold.Chemscore.ZeroCoef>
-5.4800

> <Gold.Chemscore.Hbond>
1.8484

> <Gold.Chemscore.Metal>
0.0000

> <Gold.Chemscore.Lipo>
71.7482

> <Gold.Chemscore.Internal_Hbond>
0.0000

> <Gold.Chemscore.DEClash>
0.2350

> <Gold.Chemscore.DEInternal>
1.9896

> <Gold.Chemscore.Rot>
1.8550

> <Gold.Chemscore.Internal.Correction>
   9.000000E+99

> <Gold.Chemscore.Hbonds>
donor molecule, donor type, donor heavy atom, donor atom, acceptor molecule, acceptor atom, score
      L1  H     6    22       P1  8028  0.98
      L1  H    12    39       P1 10175  0.57

> <Gold.Chemscore.Hbond.Weighted>
-6.1736

> <Gold.Chemscore.Metal.Weighted>
-0.0000

> <Gold.Chemscore.Lipo.Weighted>
-8.3945

> <Gold.Chemscore.Internal_Hbond.Weighted>
0.0000

> <Gold.Chemscore.DEClash.Weighted>
0.2350

> <Gold.Chemscore.DEInternal.Weighted>
1.9896

> <Gold.Chemscore.Rot.Weighted>
4.7488

> <Gold.Chemscore.Internal.Correction.Weighted>
   9.000000E+99

> <Gold.Protein.RotatedTorsions>
[ 6907 6896 6895 6894 ] final  119.45 input  -60.11 | X-H torsion
[ 7974 7965 7964 7962 ] final   83.60 input  175.53 | X-H torsion
[ 8008 7997 7996 7995 ] final -122.78 input   59.86 | X-H torsion
[ 10167 10162 10161 10158 ] final -105.92 input  -65.29 | X-H torsion
[ 10718 10713 10712 10709 ] final  115.15 input   66.30 | X-H torsion
[ 10763 10752 10751 10750 ] final  -29.68 input  -60.55 | X-H torsion
[ 11005 11000 10999 10996 ] final -145.56 input  -57.11 | X-H torsion

> <Gold.Protein.ActiveResidues>
 VAL166  LYS551  ARG553  GLY616  TRP617  ASP618  TYR619  PRO620  LYS621  CYS622 
 ASP623  PHE694  ASN695  SER759  ASP760  ASP761  ALA762  ILE779  LEU786  VAL792 
 PHE793  MET794  SER795  GLU796  ALA797  LYS798  CYS799  TRP800  GLU811  SER814 

> <Gold.Protein.RotatedAtoms>
  152.4470  133.7556  159.6718 H   0  0  0  0  0  0  0  0  0  0  0  0  # atno 6907 bound_to 6896
  150.8373  133.7983  159.3081 H   0  0  0  0  0  0  0  0  0  0  0  0  # atno 6908 bound_to 6896
  151.5618  135.1068  160.0026 H   0  0  0  0  0  0  0  0  0  0  0  0  # atno 6909 bound_to 6896
  145.6097  139.2366  143.2199 H   0  0  0  0  0  0  0  0  0  0  0  0  # atno 7974 bound_to 7965
  155.1699  140.0408  157.2860 H   0  0  0  0  0  0  0  0  0  0  0  0  # atno 8008 bound_to 7997
  154.6277  140.2516  155.7444 H   0  0  0  0  0  0  0  0  0  0  0  0  # atno 8009 bound_to 7997
  156.2468  140.2882  156.0614 H   0  0  0  0  0  0  0  0  0  0  0  0  # atno 8010 bound_to 7997
  140.1933  143.3875  152.1188 H   0  0  0  0  0  0  0  0  0  0  0  0  # atno 10167 bound_to 10162
  157.6239  131.1008  150.7288 H   0  0  0  0  0  0  0  0  0  0  0  0  # atno 10718 bound_to 10713
  153.7686  135.6914  153.4911 H   0  0  0  0  0  0  0  0  0  0  0  0  # atno 10763 bound_to 10752
  153.1890  135.4478  155.0124 H   0  0  0  0  0  0  0  0  0  0  0  0  # atno 10764 bound_to 10752
  154.8126  135.3384  154.7196 H   0  0  0  0  0  0  0  0  0  0  0  0  # atno 10765 bound_to 10752
  140.7910  134.2969  157.5013 H   0  0  0  0  0  0  0  0  0  0  0  0  # atno 11005 bound_to 11000
  146.1513  140.6920  142.9320 LP  0  0  0  0  0  0  0  0  0  0  0  0  # atno 17320 bound_to 7965
  144.7275  140.4569  143.6962 LP  0  0  0  0  0  0  0  0  0  0  0  0  # atno 17321 bound_to 7965
  139.5247  144.7087  151.5275 LP  0  0  0  0  0  0  0  0  0  0  0  0  # atno 17342 bound_to 10162
  140.6441  143.8831  150.6719 LP  0  0  0  0  0  0  0  0  0  0  0  0  # atno 17343 bound_to 10162
  156.7640  130.4807  149.5431 LP  0  0  0  0  0  0  0  0  0  0  0  0  # atno 17370 bound_to 10713
  156.1400  130.6238  151.0454 LP  0  0  0  0  0  0  0  0  0  0  0  0  # atno 17371 bound_to 10713
  139.8731  134.9374  156.3687 LP  0  0  0  0  0  0  0  0  0  0  0  0  # atno 17394 bound_to 11000
  140.9390  133.7527  156.0121 LP  0  0  0  0  0  0  0  0  0  0  0  0  # atno 17395 bound_to 11000

$$$$
