#       Name:                AV-unprocessed.smi:350
#       Creating user name   scv26
#       Creation time:       Thu Mar 26 22:33:10 2020


#       File generated by GOLD software.
#

@<TRIPOS>MOLECULE
AV-unprocessed.smi:350
    41    42     1
SMALL
NO_CHARGES


@<TRIPOS>ATOM
      1 ****        -3.5307   2.4513   0.5911 C.3            1 S1                 0.0000
      2 ****        -2.8062   1.1333   0.6409 C.2            1 S1                 0.0000
      3 ****        -1.5155   1.1779   0.5911 N.2            1 S1                 0.0000
      4 ****        -0.7538   0.0269   0.6243 N.am           1 S1                 0.0000
      5 ****         0.6927   0.2686   0.5517 C.3            1 S1                 0.0000
      6 ****         1.2601   0.0175  -0.8628 C.3            1 S1                 0.0000
      7 ****         0.8817   1.0916  -1.7014 O.3            1 S1                 0.0000
      8 ****         2.7721  -0.1455  -0.8235 C.ar           1 S1                 0.0000
      9 ****         3.6098   0.9666  -0.5844 C.ar           1 S1                 0.0000
     10 ****         5.0084   0.8065  -0.5416 C.ar           1 S1                 0.0000
     11 ****         5.5783  -0.4666  -0.7362 C.ar           1 S1                 0.0000
     12 ****         7.2916  -0.6635  -0.6837 Cl             1 S1                 0.0000
     13 ****         4.7478  -1.5794  -0.9716 C.ar           1 S1                 0.0000
     14 ****         3.3491  -1.4196  -1.0135 C.ar           1 S1                 0.0000
     15 ****        -1.2593  -1.2367   0.7118 C.2            1 S1                 0.0000
     16 ****        -0.5412  -2.2376   0.7335 O.2            1 S1                 0.0000
     17 ****        -2.7222  -1.2806   0.7719 C.2            1 S1                 0.0000
     18 ****        -3.2934  -2.5855   0.8650 C.1            1 S1                 0.0000
     19 ****        -3.7751  -3.6356   0.9378 N.1            1 S1                 0.0000
     20 ****        -3.4815  -0.1567   0.7394 C.2            1 S1                 0.0000
     21 ****        -5.0029  -0.1475   0.7986 C.3            1 S1                 0.0000
     22 ****        -4.1901   2.4973  -0.2756 H              1 S1                 0.0000
     23 ****        -2.8398   3.2929   0.5224 H              1 S1                 0.0000
     24 ****        -4.1359   2.5950   1.4863 H              1 S1                 0.0000
     25 ****         0.9412   1.2768   0.8897 H              1 S1                 0.0000
     26 ****         1.1858  -0.3956   1.2643 H              1 S1                 0.0000
     27 ****         0.8305  -0.8924  -1.2835 H              1 S1                 0.0000
     28 ****         1.1564   0.8931  -2.5835 H              1 S1                 0.0000
     29 ****         3.1818   1.9465  -0.4307 H              1 S1                 0.0000
     30 ****         5.6425   1.6616  -0.3585 H              1 S1                 0.0000
     31 ****         5.1824  -2.5572  -1.1194 H              1 S1                 0.0000
     32 ****         2.7214  -2.2806  -1.1911 H              1 S1                 0.0000
     33 ****        -5.4205  -1.1528   0.8443 H              1 S1                 0.0000
     34 ****        -5.4188   0.3388  -0.0843 H              1 S1                 0.0000
     35 ****        -5.3467   0.3908   1.6824 H              1 S1                 0.0000
     36 ****        -1.0587   2.0652   0.5271 LP             1 S1                 0.0000
     37 ****         1.3234   1.9336  -1.3917 LP             1 S1                 0.0000
     38 ****        -0.1113   1.2070  -1.6750 LP             1 S1                 0.0000
     39 ****         0.4530  -2.1408   0.6861 LP             1 S1                 0.0000
     40 ****        -0.9525  -3.1468   0.7984 LP             1 S1                 0.0000
     41 ****        -4.1912  -4.5427   1.0007 LP             1 S1                 0.0000
@<TRIPOS>BOND
    1    1    2 1     
    2    1   22 1     
    3    1   23 1     
    4    1   24 1     
    5    2   20 1     
    6    2    3 2     
    7    3    4 1     
    8    4    5 1     
    9    4   15 am    
   10    5    6 1     
   11    5   25 1     
   12    5   26 1     
   13    6    7 1     
   14    6    8 1     
   15    6   27 1     
   16    7   28 1     
   17    8   14 ar    
   18    8    9 ar    
   19    9   10 ar    
   20    9   29 1     
   21   10   11 ar    
   22   10   30 1     
   23   11   12 1     
   24   11   13 ar    
   25   13   14 ar    
   26   13   31 1     
   27   14   32 1     
   28   15   16 2     
   29   15   17 1     
   30   17   18 1     
   31   17   20 2     
   32   18   19 3     
   33   20   21 1     
   34   21   33 1     
   35   21   34 1     
   36   21   35 1     
   37    3   36 1     
   38    7   37 1     
   39    7   38 1     
   40   16   39 1     
   41   16   40 1     
   42   19   41 1     
@<TRIPOS>SUBSTRUCTURE
      1 S1             1
@<TRIPOS>SET
LONE_PAIRS      STATIC     ATOMS    <user>   **** ""
6 36 37 38 39 40 41
DONOR_HYDROGENS      STATIC     ATOMS    <user>   **** ""
1 28
ATOM$BLUE        STATIC     ATOMS    COLORGROUP SYSTEM
6 36 37 38 39 40 41
ATOM$RED        STATIC     ATOMS    COLORGROUP SYSTEM
1 28
