AV-unprocessed.smi:283|AV-procd|sdf|2137|dock8
  -GOLD-   2262021463D 1   1.00000     0.00000
 Structure written by MMmdl.
 48 51  0  0  0  0  0  0  0  0  1 V2000
  151.8303  140.8588  158.2354 C   0  0  0  0  0  0  0  0  0  0  0  0
  153.0099  141.5616  158.9201 C   0  0  2  0  0  0  0  0  0  0  0  0
  153.5132  140.7361  160.0168 N   0  0  0  0  0  0  0  0  0  0  0  0
  153.9802  139.4880  159.7886 C   0  0  0  0  0  0  0  0  0  0  0  0
  154.1544  139.0223  158.5240 N   0  0  0  0  0  0  0  0  0  0  0  0
  154.6156  137.7842  158.3250 C   0  0  0  0  0  0  0  0  0  0  0  0
  154.9564  136.8650  159.2313 N   0  0  0  0  0  0  0  0  0  0  0  0
  154.7807  137.3277  160.5033 C   0  0  0  0  0  0  0  0  0  0  0  0
  154.2967  138.6161  160.8620 C   0  0  0  0  0  0  0  0  0  0  0  0
  154.2428  138.7288  162.2442 N   0  0  0  0  0  0  0  0  0  0  0  0
  154.6657  137.5696  162.6719 C   0  0  0  0  0  0  0  0  0  0  0  0
  155.0275  136.6687  161.6891 N   0  0  0  0  0  0  0  0  0  0  0  0
  155.5219  135.2541  161.8053 C   0  0  2  0  0  0  0  0  0  0  0  0
  154.6162  134.5468  162.5885 O   0  0  0  0  0  0  0  0  0  0  0  0
  154.9714  134.6828  163.9572 C   0  0  1  0  0  0  0  0  0  0  0  0
  154.3610  133.5314  164.7709 C   0  0  0  0  0  0  0  0  0  0  0  0
  154.7512  133.6319  166.1237 O   0  0  0  0  0  0  0  0  0  0  0  0
  156.5084  134.6566  163.9200 C   0  0  2  0  0  0  0  0  0  0  0  0
  157.0286  135.5060  164.9240 O   0  0  0  0  0  0  0  0  0  0  0  0
  156.8778  135.1760  162.5260 C   0  0  1  0  0  0  0  0  0  0  0  0
  157.7491  134.2756  161.8727 O   0  0  0  0  0  0  0  0  0  0  0  0
  152.6212  142.9841  159.3302 C   0  0  0  0  0  0  0  0  0  0  0  0
  152.2441  143.9211  158.3399 C   0  0  0  0  0  0  0  0  0  0  0  0
  151.8829  145.2344  158.6941 C   0  0  0  0  0  0  0  0  0  0  0  0
  151.9008  145.6278  160.0443 C   0  0  0  0  0  0  0  0  0  0  0  0
  152.2847  144.7075  161.0370 C   0  0  0  0  0  0  0  0  0  0  0  0
  152.6476  143.3910  160.6880 C   0  0  0  0  0  0  0  0  0  0  0  0
  153.1224  142.3076  161.9491 Cl  0  0  0  0  0  0  0  0  0  0  0  0
  155.5448  134.8827  160.7801 H   0  0  0  0  0  0  0  0  0  0  0  0
  154.6167  135.6464  164.3275 H   0  0  0  0  0  0  0  0  0  0  0  0
  156.8782  133.6403  164.0678 H   0  0  0  0  0  0  0  0  0  0  0  0
  157.3606  136.1538  162.5435 H   0  0  0  0  0  0  0  0  0  0  0  0
  151.4937  141.4199  157.3630 H   0  0  0  0  0  0  0  0  0  0  0  0
  150.9814  140.7550  158.9120 H   0  0  0  0  0  0  0  0  0  0  0  0
  152.1107  139.8614  157.8956 H   0  0  0  0  0  0  0  0  0  0  0  0
  153.8177  141.6133  158.1910 H   0  0  0  0  0  0  0  0  0  0  0  0
  153.6367  141.2107  160.8996 H   0  0  0  0  0  0  0  0  0  0  0  0
  154.7275  137.4880  157.2923 H   0  0  0  0  0  0  0  0  0  0  0  0
  154.7216  137.3483  163.7270 H   0  0  0  0  0  0  0  0  0  0  0  0
  153.2739  133.5186  164.6883 H   0  0  0  0  0  0  0  0  0  0  0  0
  154.7257  132.5745  164.3967 H   0  0  0  0  0  0  0  0  0  0  0  0
  154.3654  132.9145  166.6028 H   0  0  0  0  0  0  0  0  0  0  0  0
  157.9531  135.6245  164.7711 H   0  0  0  0  0  0  0  0  0  0  0  0
  157.5533  134.2853  160.9482 H   0  0  0  0  0  0  0  0  0  0  0  0
  152.2290  143.6360  157.2982 H   0  0  0  0  0  0  0  0  0  0  0  0
  151.5936  145.9401  157.9294 H   0  0  0  0  0  0  0  0  0  0  0  0
  151.6240  146.6352  160.3182 H   0  0  0  0  0  0  0  0  0  0  0  0
  152.3021  145.0146  162.0723 H   0  0  0  0  0  0  0  0  0  0  0  0
  1  2  1  0  0  0  0
  1 33  1  0  0  0  0
  1 34  1  0  0  0  0
  1 35  1  0  0  0  0
  2  3  1  0  0  0  0
  2 22  1  0  0  0  0
  2 36  1  0  0  0  0
  3  4  1  0  0  0  0
  3 37  1  0  0  0  0
  4  9  1  0  0  0  0
  4  5  2  0  0  0  0
  5  6  1  0  0  0  0
  6  7  2  0  0  0  0
  6 38  1  0  0  0  0
  7  8  1  0  0  0  0
  8 12  1  0  0  0  0
  8  9  2  0  0  0  0
  9 10  1  0  0  0  0
 10 11  2  0  0  0  0
 11 12  1  0  0  0  0
 11 39  1  0  0  0  0
 12 13  1  0  0  0  0
 13 29  1  0  0  0  0
 13 20  1  0  0  0  0
 13 14  1  0  0  0  0
 14 15  1  0  0  0  0
 15 30  1  0  0  0  0
 15 16  1  0  0  0  0
 15 18  1  0  0  0  0
 16 17  1  0  0  0  0
 16 40  1  0  0  0  0
 16 41  1  0  0  0  0
 17 42  1  0  0  0  0
 18 31  1  0  0  0  0
 18 19  1  0  0  0  0
 18 20  1  0  0  0  0
 19 43  1  0  0  0  0
 20 32  1  0  0  0  0
 20 21  1  0  0  0  0
 21 44  1  0  0  0  0
 22 27  1  0  0  0  0
 22 23  2  0  0  0  0
 23 24  1  0  0  0  0
 23 45  1  0  0  0  0
 24 25  2  0  0  0  0
 24 46  1  0  0  0  0
 25 26  1  0  0  0  0
 25 47  1  0  0  0  0
 26 27  2  0  0  0  0
 26 48  1  0  0  0  0
 27 28  1  0  0  0  0
M  END
> <s_m_source_file>
AV-unprocessed.smi

> <i_m_source_file_index>
283

> <i_lp_mmshare_version>
43012

> <i_f3d_flags>
0

> <s_epik_input>
Q2xjMVtjSF1bY0hdW2NIXVtjSF1jMVtDQEhdKFtDSDNdKVtOSF1jKG5bY0hdbjIpYyhjMjMpbltjSF1uM1tDQEBIXTRPW0NASF0oW0NIMl1bT0hdKVtDQEBIXShbT0hdKVtDQEhdNFtPSF0=

> <s_epik_cmdline>
J2VwaWtfcHl0aG9uJywgJy1waCcsICc3LjAnLCAnLXRuJywgJzgnLCAnLW1hJywgJzIwMCcsICctbWV0YWxfYmluZGluZycsICctaW1hZScsICc8aW5maWxlLm1hZT4nLCAnLW9tYWUnLCAnPG91dGZpbGUubWFlPic=

> <r_lp_tautomer_probability>
1

> <r_epik_Ionization_Penalty>
0.000266407

> <r_epik_Ionization_Penalty_Charging>
0

> <r_epik_Ionization_Penalty_Neutral>
0.000266407

> <r_epik_State_Penalty>
-0

> <r_epik_Charging_Adjusted_Penalty>
0

> <i_epik_Tot_Q>
0

> <i_epik_Tot_abs_Q>
0

> <r_epik_Metal_State_Penalty>
-0

> <b_epik_Metal_Only>
0

> <s_epik_Chemistry_Notes>
This compound contains an acetal/aminal-like group ( X-CH(R)-Y where X, Y are N, S, or O) that may be acid/base labile, releasing an aldehyde.

> <s_lp_Force_Field>
OPLS_2005

> <r_lp_Energy>
39.6204

> <b_lp_Chiralities_Consistent>
1

> <s_lp_Variant>
AV-unprocessed.smi:283-13

> <Gold.Version>
5.8.1

> <Gold.Id.Protein>
6NUR|6NUR_protein|mol2

> <Gold.PLP.Fitness>
52.0074

> <Gold.PLP.PLP>
-49.1279

> <Gold.PLP.part.hbond>
-2.0000

> <Gold.PLP.part.metal>
0.0000

> <Gold.PLP.part.buried>
-7.0054

> <Gold.PLP.part.nonpolar>
-38.9839

> <Gold.PLP.part.repulsive>
0.0794

> <Gold.PLP.ligand.clash>
0.0000

> <Gold.PLP.ligand.torsion>
0.1066

> <Gold.PLP.Chemscore.Hbond>
1.0000

> <Gold.PLP.Chemscore.CHOScore>
0.0000

> <Gold.PLP.Chemscore.Metal>
0.0000

> <Gold.Chemscore.Hbonds>
donor molecule, donor type, donor heavy atom, donor atom, acceptor molecule, acceptor atom, score
      P1  H  7997  8008       L1     5  1.00

> <Gold.PLP.Chemscore.Internal.Correction>
0.0927

> <Gold.Rescore>
     Score         DG    S(hbond)    S(metal)    S(lipo)     H(rot)  DE(clash)    DE(int)     intcor
      9.56     -12.43       0.87        0.00     124.23       4.10       0.07       2.81       ----

> <Gold.Chemscore.Fitness>
9.5580

> <Gold.Chemscore.DG>
-12.4330

> <Gold.Chemscore.ZeroCoef>
-5.4800

> <Gold.Chemscore.Hbond>
0.8701

> <Gold.Chemscore.Metal>
0.0000

> <Gold.Chemscore.Lipo>
124.2302

> <Gold.Chemscore.Internal_Hbond>
0.0000

> <Gold.Chemscore.DEClash>
0.0680

> <Gold.Chemscore.DEInternal>
2.8071

> <Gold.Chemscore.Rot>
4.0968

> <Gold.Chemscore.Internal.Correction>
   9.000000E+99

> <Gold.Chemscore.Hbonds>
donor molecule, donor type, donor heavy atom, donor atom, acceptor molecule, acceptor atom, score
      P1  H  7997  8008       L1     5  0.38

> <Gold.Chemscore.Hbond.Weighted>
-2.9060

> <Gold.Chemscore.Metal.Weighted>
-0.0000

> <Gold.Chemscore.Lipo.Weighted>
-14.5349

> <Gold.Chemscore.Internal_Hbond.Weighted>
0.0000

> <Gold.Chemscore.DEClash.Weighted>
0.0680

> <Gold.Chemscore.DEInternal.Weighted>
2.8071

> <Gold.Chemscore.Rot.Weighted>
10.4879

> <Gold.Chemscore.Internal.Correction.Weighted>
   9.000000E+99

> <Gold.Protein.RotatedTorsions>
[ 6907 6896 6895 6894 ] final  104.86 input  -60.11 | X-H torsion
[ 7974 7965 7964 7962 ] final  -80.97 input  175.53 | X-H torsion
[ 8008 7997 7996 7995 ] final -122.40 input   59.86 | X-H torsion
[ 10167 10162 10161 10158 ] final   17.46 input  -65.29 | X-H torsion
[ 10718 10713 10712 10709 ] final   28.39 input   66.30 | X-H torsion
[ 10763 10752 10751 10750 ] final  -26.59 input  -60.55 | X-H torsion
[ 11005 11000 10999 10996 ] final  -87.43 input  -57.11 | X-H torsion

> <Gold.Protein.ActiveResidues>
 VAL166  LYS551  ARG553  GLY616  TRP617  ASP618  TYR619  PRO620  LYS621  CYS622 
 ASP623  PHE694  ASN695  SER759  ASP760  ASP761  ALA762  ILE779  LEU786  VAL792 
 PHE793  MET794  SER795  GLU796  ALA797  LYS798  CYS799  TRP800  GLU811  SER814 

> <Gold.Protein.RotatedAtoms>
  152.5250  133.9615  159.7718 H   0  0  0  0  0  0  0  0  0  0  0  0  # atno 6907 bound_to 6896
  150.9904  133.6147  159.2716 H   0  0  0  0  0  0  0  0  0  0  0  0  # atno 6908 bound_to 6896
  151.3292  135.0843  159.9386 H   0  0  0  0  0  0  0  0  0  0  0  0  # atno 6909 bound_to 6896
  145.5529  140.9494  143.1489 H   0  0  0  0  0  0  0  0  0  0  0  0  # atno 7974 bound_to 7965
  155.1636  140.0406  157.2848 H   0  0  0  0  0  0  0  0  0  0  0  0  # atno 8008 bound_to 7997
  154.6319  140.2526  155.7397 H   0  0  0  0  0  0  0  0  0  0  0  0  # atno 8009 bound_to 7997
  156.2489  140.2873  156.0674 H   0  0  0  0  0  0  0  0  0  0  0  0  # atno 8010 bound_to 7997
  140.5724  143.9136  150.6723 H   0  0  0  0  0  0  0  0  0  0  0  0  # atno 10167 bound_to 10162
  157.2329  130.7032  149.6322 H   0  0  0  0  0  0  0  0  0  0  0  0  # atno 10718 bound_to 10713
  153.7184  135.6946  153.5019 H   0  0  0  0  0  0  0  0  0  0  0  0  # atno 10763 bound_to 10752
  153.2222  135.4366  155.0500 H   0  0  0  0  0  0  0  0  0  0  0  0  # atno 10764 bound_to 10752
  154.8292  135.3463  154.6718 H   0  0  0  0  0  0  0  0  0  0  0  0  # atno 10765 bound_to 10752
  141.1617  133.7511  156.9305 H   0  0  0  0  0  0  0  0  0  0  0  0  # atno 11005 bound_to 11000
  144.7520  139.7169  143.7269 LP  0  0  0  0  0  0  0  0  0  0  0  0  # atno 17320 bound_to 7965
  146.1904  139.5142  142.9808 LP  0  0  0  0  0  0  0  0  0  0  0  0  # atno 17321 bound_to 7965
  140.2614  143.3521  152.1319 LP  0  0  0  0  0  0  0  0  0  0  0  0  # atno 17342 bound_to 10162
  139.5124  144.6917  151.5742 LP  0  0  0  0  0  0  0  0  0  0  0  0  # atno 17343 bound_to 10162
  155.9674  130.4483  150.5614 LP  0  0  0  0  0  0  0  0  0  0  0  0  # atno 17370 bound_to 10713
  157.3460  131.0725  151.1751 LP  0  0  0  0  0  0  0  0  0  0  0  0  # atno 17371 bound_to 10713
  140.1390  134.9306  157.2440 LP  0  0  0  0  0  0  0  0  0  0  0  0  # atno 17394 bound_to 11000
  140.2860  134.3295  155.7329 LP  0  0  0  0  0  0  0  0  0  0  0  0  # atno 17395 bound_to 11000

$$$$
