#       Name:                AV-unprocessed.smi:1389
#       Creating user name   scv26
#       Creation time:       Fri Mar 27 05:26:39 2020


#       File generated by GOLD software.
#

@<TRIPOS>MOLECULE
AV-unprocessed.smi:1389
    58    60     1
SMALL
NO_CHARGES


@<TRIPOS>ATOM
      1 ****        -1.8321  -0.3103  -3.0496 C.3            1 S1                 0.0000
      2 ****        -1.3842  -1.7356  -2.6526 C.3            1 S1                 0.0000
      3 ****         0.1661  -1.7802  -2.6615 C.3            1 S1                 0.0000
      4 ****         0.7406  -0.9978  -1.5691 N.am           1 S1                 0.0000
      5 ****         1.3691   0.1790  -1.6967 C.2            1 S1                 0.0000
      6 ****         1.5855   0.7264  -2.7780 O.2            1 S1                 0.0000
      7 ****         1.6957   0.6843  -0.4962 N.am           1 S1                 0.0000
      8 ****         2.3364   1.9234  -0.2132 C.ar           1 S1                 0.0000
      9 ****         3.3003   2.4887  -1.0827 C.ar           1 S1                 0.0000
     10 ****         3.9054   3.7096  -0.7359 C.ar           1 S1                 0.0000
     11 ****         3.5314   4.3188   0.4745 C.ar           1 S1                 0.0000
     12 ****         2.6280   3.7847   1.3212 N.ar           1 S1                 0.0000
     13 ****         2.0358   2.6099   0.9942 C.ar           1 S1                 0.0000
     14 ****         1.1169   2.0612   1.9129 N.3            1 S1                 0.0000
     15 ****         1.6630   0.9642   2.7065 C.3            1 S1                 0.0000
     16 ****         1.0055   1.0618   4.0837 C.3            1 S1                 0.0000
     17 ****         0.7162   2.5519   4.2177 C.3            1 S1                 0.0000
     18 ****         0.3544   2.9511   2.7879 C.3            1 S1                 0.0000
     19 ****        -1.9926  -2.2151  -1.3918 N.3            1 S1                 0.0000
     20 ****        -3.4573  -2.1591  -1.4172 C.3            1 S1                 0.0000
     21 ****        -4.0909  -2.6714  -0.1123 C.3            1 S1                 0.0000
     22 ****        -3.6551  -4.0005   0.1416 O.3            1 S1                 0.0000
     23 ****        -2.2401  -4.0922   0.2411 C.3            1 S1                 0.0000
     24 ****        -1.5950  -3.5869  -1.0608 C.3            1 S1                 0.0000
     25 ****        -1.2657   0.0583  -3.9053 H              1 S1                 0.0000
     26 ****        -1.6886   0.3970  -2.2320 H              1 S1                 0.0000
     27 ****        -2.8812  -0.2779  -3.3418 H              1 S1                 0.0000
     28 ****        -1.7141  -2.3967  -3.4554 H              1 S1                 0.0000
     29 ****         0.5335  -2.8024  -2.5829 H              1 S1                 0.0000
     30 ****         0.5390  -1.4348  -3.6272 H              1 S1                 0.0000
     31 ****         0.6046  -1.3619  -0.6375 H              1 S1                 0.0000
     32 ****         1.3541   0.1791   0.3083 H              1 S1                 0.0000
     33 ****         3.5936   1.9998  -1.9993 H              1 S1                 0.0000
     34 ****         4.6422   4.1649  -1.3809 H              1 S1                 0.0000
     35 ****         3.9756   5.2559   0.7756 H              1 S1                 0.0000
     36 ****         1.4611   0.0005   2.2387 H              1 S1                 0.0000
     37 ****         2.7452   1.0718   2.8004 H              1 S1                 0.0000
     38 ****         0.0689   0.5023   4.0881 H              1 S1                 0.0000
     39 ****         1.6362   0.6735   4.8837 H              1 S1                 0.0000
     40 ****        -0.0760   2.7723   4.9337 H              1 S1                 0.0000
     41 ****         1.6179   3.0786   4.5336 H              1 S1                 0.0000
     42 ****         0.5209   4.0137   2.6115 H              1 S1                 0.0000
     43 ****        -0.7043   2.7636   2.6075 H              1 S1                 0.0000
     44 ****        -3.7982  -1.1356  -1.5659 H              1 S1                 0.0000
     45 ****        -3.8358  -2.7438  -2.2572 H              1 S1                 0.0000
     46 ****        -3.8239  -2.0263   0.7263 H              1 S1                 0.0000
     47 ****        -5.1781  -2.6622  -0.1900 H              1 S1                 0.0000
     48 ****        -1.8886  -3.5127   1.0962 H              1 S1                 0.0000
     49 ****        -1.9631  -5.1307   0.4229 H              1 S1                 0.0000
     50 ****        -1.8616  -4.2570  -1.8797 H              1 S1                 0.0000
     51 ****        -0.5157  -3.6544  -0.9362 H              1 S1                 0.0000
     52 ****         1.2865   0.2914  -3.6273 LP             1 S1                 0.0000
     53 ****         2.0602   1.6060  -2.8069 LP             1 S1                 0.0000
     54 ****         2.3984   4.2480   2.1771 LP             1 S1                 0.0000
     55 ****         0.4403   1.7310   1.2547 LP             1 S1                 0.0000
     56 ****        -1.6477  -1.5907  -0.6910 LP             1 S1                 0.0000
     57 ****        -3.9642  -4.5890  -0.6055 LP             1 S1                 0.0000
     58 ****        -4.0593  -4.3132   1.0012 LP             1 S1                 0.0000
@<TRIPOS>BOND
    1    1    2 1     
    2    1   25 1     
    3    1   26 1     
    4    1   27 1     
    5    2    3 1     
    6    2   19 1     
    7    2   28 1     
    8    3    4 1     
    9    3   29 1     
   10    3   30 1     
   11    4    5 am    
   12    4   31 1     
   13    5    6 2     
   14    5    7 am    
   15    7    8 1     
   16    7   32 1     
   17    8   13 ar    
   18    8    9 ar    
   19    9   10 ar    
   20    9   33 1     
   21   10   11 ar    
   22   10   34 1     
   23   11   12 ar    
   24   11   35 1     
   25   12   13 ar    
   26   13   14 1     
   27   14   18 1     
   28   14   15 1     
   29   15   16 1     
   30   15   36 1     
   31   15   37 1     
   32   16   17 1     
   33   16   38 1     
   34   16   39 1     
   35   17   18 1     
   36   17   40 1     
   37   17   41 1     
   38   18   42 1     
   39   18   43 1     
   40   19   24 1     
   41   19   20 1     
   42   20   21 1     
   43   20   44 1     
   44   20   45 1     
   45   21   22 1     
   46   21   46 1     
   47   21   47 1     
   48   22   23 1     
   49   23   24 1     
   50   23   48 1     
   51   23   49 1     
   52   24   50 1     
   53   24   51 1     
   54    6   52 1     
   55    6   53 1     
   56   12   54 1     
   57   14   55 1     
   58   19   56 1     
   59   22   57 1     
   60   22   58 1     
@<TRIPOS>SUBSTRUCTURE
      1 S1             1
@<TRIPOS>SET
LONE_PAIRS      STATIC     ATOMS    <user>   **** ""
7 52 53 54 55 56 57 58
DONOR_HYDROGENS      STATIC     ATOMS    <user>   **** ""
2 31 32
ATOM$BLUE        STATIC     ATOMS    COLORGROUP SYSTEM
7 52 53 54 55 56 57 58
ATOM$RED        STATIC     ATOMS    COLORGROUP SYSTEM
2 31 32
