AV-unprocessed.smi:1403|AV-procd|sdf|5698|dock6
  -GOLD-   22720 5323D 1   1.00000     0.00000
 Structure written by MMmdl.
 36 37  0  0  0  0  0  0  0  0  1 V2000
  152.3084  145.0749  158.8348 C   0  0  0  0  0  0  0  0  0  0  0  0
  151.4043  143.8338  158.8562 C   0  0  1  0  0  0  0  0  0  0  0  0
  151.3344  143.2820  157.5041 N   0  0  0  0  0  0  0  0  0  0  0  0
  150.5712  142.2502  157.1107 C   0  0  0  0  0  0  0  0  0  0  0  0
  149.8385  141.6198  157.8740 O   0  0  0  0  0  0  0  0  0  0  0  0
  150.6814  141.8600  155.6299 C   0  0  0  0  0  0  0  0  0  0  0  0
  149.5326  141.0761  155.1541 N   0  0  0  0  0  0  0  0  0  0  0  0
  148.2381  141.5271  155.3708 C   0  0  0  0  0  0  0  0  0  0  0  0
  147.1364  140.8612  154.9507 C   0  0  0  0  0  0  0  0  0  0  0  0
  147.2661  139.6003  154.2280 C   0  0  0  0  0  0  0  0  0  0  0  0
  146.3299  138.9235  153.8088 O   0  0  0  0  0  0  0  0  0  0  0  0
  148.5841  139.1811  154.0276 N   0  0  0  0  0  0  0  0  0  0  0  0
  149.7238  139.8631  154.4566 C   0  0  0  0  0  0  0  0  0  0  0  0
  150.8423  139.4061  154.2234 O   0  0  0  0  0  0  0  0  0  0  0  0
  151.9143  142.7686  159.8491 C   0  0  2  0  0  0  0  0  0  0  0  0
  152.2236  143.2874  161.2545 C   0  0  0  0  0  0  0  0  0  0  0  0
  153.1741  142.2296  161.7661 C   0  0  0  0  0  0  0  0  0  0  0  0
  153.9851  141.8999  160.5157 C   0  0  0  0  0  0  0  0  0  0  0  0
  153.1506  142.2169  159.4035 O   0  0  0  0  0  0  0  0  0  0  0  0
  148.7234  138.3142  153.5291 H   0  0  0  0  0  0  0  0  0  0  0  0
  152.3534  145.5469  159.8166 H   0  0  0  0  0  0  0  0  0  0  0  0
  151.9359  145.8206  158.1315 H   0  0  0  0  0  0  0  0  0  0  0  0
  153.3275  144.8199  158.5419 H   0  0  0  0  0  0  0  0  0  0  0  0
  150.4122  144.1572  159.1762 H   0  0  0  0  0  0  0  0  0  0  0  0
  151.9104  143.7299  156.8064 H   0  0  0  0  0  0  0  0  0  0  0  0
  150.8026  142.7565  155.0183 H   0  0  0  0  0  0  0  0  0  0  0  0
  151.6055  141.2953  155.4978 H   0  0  0  0  0  0  0  0  0  0  0  0
  148.0938  142.4595  155.8981 H   0  0  0  0  0  0  0  0  0  0  0  0
  146.1537  141.2639  155.1490 H   0  0  0  0  0  0  0  0  0  0  0  0
  151.1947  141.9513  159.9247 H   0  0  0  0  0  0  0  0  0  0  0  0
  152.7307  144.2523  161.2066 H   0  0  0  0  0  0  0  0  0  0  0  0
  151.3341  143.3970  161.8754 H   0  0  0  0  0  0  0  0  0  0  0  0
  153.7912  142.5709  162.5975 H   0  0  0  0  0  0  0  0  0  0  0  0
  152.6136  141.3527  162.0931 H   0  0  0  0  0  0  0  0  0  0  0  0
  154.8802  142.5206  160.4637 H   0  0  0  0  0  0  0  0  0  0  0  0
  154.2959  140.8552  160.4923 H   0  0  0  0  0  0  0  0  0  0  0  0
  1  2  1  0  0  0  0
  1 21  1  0  0  0  0
  1 22  1  0  0  0  0
  1 23  1  0  0  0  0
  2  3  1  0  0  0  0
  2 15  1  0  0  0  0
  2 24  1  0  0  0  0
  3  4  1  0  0  0  0
  3 25  1  0  0  0  0
  4  5  2  0  0  0  0
  4  6  1  0  0  0  0
  6  7  1  0  0  0  0
  6 26  1  0  0  0  0
  6 27  1  0  0  0  0
  7 13  1  0  0  0  0
  7  8  1  0  0  0  0
  8  9  2  0  0  0  0
  8 28  1  0  0  0  0
  9 10  1  0  0  0  0
  9 29  1  0  0  0  0
 10 11  2  0  0  0  0
 10 12  1  0  0  0  0
 12 20  1  0  0  0  0
 12 13  1  0  0  0  0
 13 14  2  0  0  0  0
 15 19  1  0  0  0  0
 15 16  1  0  0  0  0
 15 30  1  0  0  0  0
 16 17  1  0  0  0  0
 16 31  1  0  0  0  0
 16 32  1  0  0  0  0
 17 18  1  0  0  0  0
 17 33  1  0  0  0  0
 17 34  1  0  0  0  0
 18 19  1  0  0  0  0
 18 35  1  0  0  0  0
 18 36  1  0  0  0  0
M  END
> <s_m_source_file>
AV-unprocessed.smi

> <i_m_source_file_index>
1403

> <i_lp_mmshare_version>
43012

> <i_f3d_flags>
0

> <s_epik_input>
TzFbQ0gyXVtDSDJdW0NIMl1bQ0BIXTFbQ0BIXShbQ0gzXSlbTkhdQyg9TylbQ0gyXW4yW2NIXVtjSF1jKD1PKVtuSF1jMj1P

> <s_epik_cmdline>
J2VwaWtfcHl0aG9uJywgJy1waCcsICc3LjAnLCAnLXRuJywgJzgnLCAnLW1hJywgJzIwMCcsICctbWV0YWxfYmluZGluZycsICctaW1hZScsICc8aW5maWxlLm1hZT4nLCAnLW9tYWUnLCAnPG91dGZpbGUubWFlPic=

> <r_lp_tautomer_probability>
0.999537

> <r_epik_Ionization_Penalty>
0.00331407

> <r_epik_Ionization_Penalty_Charging>
0.00331405

> <r_epik_Ionization_Penalty_Neutral>
2.30132e-08

> <r_epik_State_Penalty>
0.00234266

> <r_epik_Charging_Adjusted_Penalty>
0.00565671

> <i_epik_Tot_Q>
0

> <i_epik_Tot_abs_Q>
0

> <r_epik_Metal_State_Penalty>
0.365604

> <b_epik_Metal_Only>
0

> <s_lp_Force_Field>
OPLS_2005

> <r_lp_Energy>
17.659

> <b_lp_Chiralities_Consistent>
1

> <s_lp_Variant>
AV-unprocessed.smi:1403-2

> <Gold.Version>
5.8.1

> <Gold.Id.Protein>
6NUR|6NUR_protein|mol2

> <Gold.PLP.Fitness>
42.1642

> <Gold.PLP.PLP>
-37.0575

> <Gold.PLP.part.hbond>
-1.5556

> <Gold.PLP.part.metal>
0.0000

> <Gold.PLP.part.buried>
-4.0417

> <Gold.PLP.part.nonpolar>
-31.9031

> <Gold.PLP.part.repulsive>
0.4556

> <Gold.PLP.ligand.clash>
0.0000

> <Gold.PLP.ligand.torsion>
0.4531

> <Gold.PLP.Chemscore.Hbond>
1.0000

> <Gold.PLP.Chemscore.CHOScore>
1.0000

> <Gold.PLP.Chemscore.Metal>
0.0000

> <Gold.Chemscore.Hbonds>
donor molecule, donor type, donor heavy atom, donor atom, acceptor molecule, acceptor atom, score
      P1  H  7989  7998       L1    14  1.00
      L1  C     8    28       P1  8028  1.00

> <Gold.PLP.Chemscore.Internal.Correction>
0.0129

> <Gold.Rescore>
     Score         DG    S(hbond)    S(metal)    S(lipo)     H(rot)  DE(clash)    DE(int)     intcor
     11.28     -12.90       0.82        0.00      84.65       2.04       0.00       1.62       ----

> <Gold.Chemscore.Fitness>
11.2830

> <Gold.Chemscore.DG>
-12.9022

> <Gold.Chemscore.ZeroCoef>
-5.4800

> <Gold.Chemscore.Hbond>
0.8203

> <Gold.Chemscore.Metal>
0.0000

> <Gold.Chemscore.Lipo>
84.6455

> <Gold.Chemscore.Internal_Hbond>
0.0000

> <Gold.Chemscore.DEClash>
0.0033

> <Gold.Chemscore.DEInternal>
1.6159

> <Gold.Chemscore.Rot>
2.0395

> <Gold.Chemscore.Internal.Correction>
   9.000000E+99

> <Gold.Chemscore.Hbonds>
donor molecule, donor type, donor heavy atom, donor atom, acceptor molecule, acceptor atom, score
      P1  H  7989  7998       L1    14  0.26

> <Gold.Chemscore.Hbond.Weighted>
-2.7397

> <Gold.Chemscore.Metal.Weighted>
-0.0000

> <Gold.Chemscore.Lipo.Weighted>
-9.9035

> <Gold.Chemscore.Internal_Hbond.Weighted>
0.0000

> <Gold.Chemscore.DEClash.Weighted>
0.0033

> <Gold.Chemscore.DEInternal.Weighted>
1.6159

> <Gold.Chemscore.Rot.Weighted>
5.2211

> <Gold.Chemscore.Internal.Correction.Weighted>
   9.000000E+99

> <Gold.Protein.RotatedTorsions>
[ 6907 6896 6895 6894 ] final  111.17 input  -60.11 | X-H torsion
[ 7974 7965 7964 7962 ] final -159.72 input  175.53 | X-H torsion
[ 8008 7997 7996 7995 ] final  148.12 input   59.86 | X-H torsion
[ 10167 10162 10161 10158 ] final  160.31 input  -65.29 | X-H torsion
[ 10718 10713 10712 10709 ] final   61.11 input   66.30 | X-H torsion
[ 10763 10752 10751 10750 ] final   19.19 input  -60.55 | X-H torsion
[ 11005 11000 10999 10996 ] final   53.38 input  -57.11 | X-H torsion

> <Gold.Protein.ActiveResidues>
 VAL166  LYS551  ARG553  GLY616  TRP617  ASP618  TYR619  PRO620  LYS621  CYS622 
 ASP623  PHE694  ASN695  SER759  ASP760  ASP761  ALA762  ILE779  LEU786  VAL792 
 PHE793  MET794  SER795  GLU796  ALA797  LYS798  CYS799  TRP800  GLU811  SER814 

> <Gold.Protein.RotatedAtoms>
  152.4983  133.8696  159.7291 H   0  0  0  0  0  0  0  0  0  0  0  0  # atno 6907 bound_to 6896
  150.9186  133.6900  159.2844 H   0  0  0  0  0  0  0  0  0  0  0  0  # atno 6908 bound_to 6896
  151.4284  135.1011  159.9687 H   0  0  0  0  0  0  0  0  0  0  0  0  # atno 6909 bound_to 6896
  144.7454  140.3644  143.6089 H   0  0  0  0  0  0  0  0  0  0  0  0  # atno 7974 bound_to 7965
  156.2802  140.2137  156.5648 H   0  0  0  0  0  0  0  0  0  0  0  0  # atno 8008 bound_to 7997
  154.7184  140.0506  157.0639 H   0  0  0  0  0  0  0  0  0  0  0  0  # atno 8009 bound_to 7997
  155.0512  140.3156  155.4694 H   0  0  0  0  0  0  0  0  0  0  0  0  # atno 8010 bound_to 7997
  139.4839  144.4646  151.8658 H   0  0  0  0  0  0  0  0  0  0  0  0  # atno 10167 bound_to 10162
  157.5804  130.8976  149.9420 H   0  0  0  0  0  0  0  0  0  0  0  0  # atno 10718 bound_to 10713
  153.1183  135.6713  153.9379 H   0  0  0  0  0  0  0  0  0  0  0  0  # atno 10763 bound_to 10752
  153.8902  135.3048  155.3448 H   0  0  0  0  0  0  0  0  0  0  0  0  # atno 10764 bound_to 10752
  154.7597  135.4994  153.9520 H   0  0  0  0  0  0  0  0  0  0  0  0  # atno 10765 bound_to 10752
  140.0772  134.5389  155.8984 H   0  0  0  0  0  0  0  0  0  0  0  0  # atno 11005 bound_to 11000
  145.7143  139.1693  143.2521 LP  0  0  0  0  0  0  0  0  0  0  0  0  # atno 17320 bound_to 7965
  146.1324  140.7168  142.9406 LP  0  0  0  0  0  0  0  0  0  0  0  0  # atno 17321 bound_to 7965
  140.4111  144.2368  150.5889 LP  0  0  0  0  0  0  0  0  0  0  0  0  # atno 17342 bound_to 10162
  140.4965  143.2331  151.8741 LP  0  0  0  0  0  0  0  0  0  0  0  0  # atno 17343 bound_to 10162
  156.0849  130.3669  150.0507 LP  0  0  0  0  0  0  0  0  0  0  0  0  # atno 17370 bound_to 10713
  156.8647  130.9503  151.3615 LP  0  0  0  0  0  0  0  0  0  0  0  0  # atno 17371 bound_to 10713
  141.2033  133.6631  156.6058 LP  0  0  0  0  0  0  0  0  0  0  0  0  # atno 17394 bound_to 11000
  140.3541  134.7743  157.4488 LP  0  0  0  0  0  0  0  0  0  0  0  0  # atno 17395 bound_to 11000

$$$$
