AV-unprocessed.smi:1081|AV-procd|sdf|4710|dock4
  -GOLD-   22720 3233D 1   1.00000     0.00000
 Structure written by MMmdl.
 52 54  0  0  0  0  0  0  0  0  1 V2000
  147.0229  137.3054  155.7452 O   0  0  0  0  0  0  0  0  0  0  0  0
  147.6414  137.1403  154.6942 C   0  0  0  0  0  0  0  0  0  0  0  0
  147.2419  136.2967  153.7306 N   0  0  0  0  0  0  0  0  0  0  0  0
  146.0431  135.4609  153.7883 C   0  0  0  0  0  0  0  0  0  0  0  0
  146.3035  133.9793  153.4519 C   0  0  0  0  0  0  0  0  0  0  0  0
  146.7319  133.2324  154.3341 O   0  0  0  0  0  0  0  0  0  0  0  0
  146.0625  133.5401  152.1923 N   0  0  0  0  0  0  0  0  0  0  0  0
  146.1773  132.1474  151.7347 C   0  0  0  0  0  0  0  0  0  0  0  0
  144.7705  131.6083  151.4163 C   0  0  0  0  0  0  0  0  0  0  0  0
  144.0585  132.4999  150.3820 C   0  0  0  0  0  0  0  0  0  0  0  0
  144.1033  133.9842  150.7887 C   0  0  0  0  0  0  0  0  0  0  0  0
  145.5397  134.4163  151.1346 C   0  0  0  0  0  0  0  0  0  0  0  0
  148.7905  137.7508  154.3573 N   0  0  0  0  0  0  0  0  0  0  0  0
  149.5535  138.7009  155.0907 C   0  0  0  0  0  0  0  0  0  0  0  0
  150.8774  139.0906  154.7788 C   0  0  0  0  0  0  0  0  0  0  0  0
  151.5203  140.0384  155.5978 C   0  0  0  0  0  0  0  0  0  0  0  0
  150.8320  140.5725  156.7117 C   0  0  0  0  0  0  0  0  0  0  0  0
  151.4614  141.5266  157.5392 N   0  0  0  0  0  0  0  0  0  0  0  0
  150.9912  142.9027  157.3695 C   0  0  0  0  0  0  0  0  0  0  0  0
  151.9778  143.9075  157.9892 C   0  0  0  0  0  0  0  0  0  0  0  0
  152.2753  143.5596  159.4554 C   0  0  0  0  0  0  0  0  0  0  0  0
  152.7687  142.1091  159.5615 C   0  0  0  0  0  0  0  0  0  0  0  0
  151.7659  141.1362  158.9180 C   0  0  0  0  0  0  0  0  0  0  0  0
  149.5692  140.1866  157.0168 N   0  0  0  0  0  0  0  0  0  0  0  0
  148.9561  139.2798  156.2281 C   0  0  0  0  0  0  0  0  0  0  0  0
  147.8140  136.2133  152.9033 H   0  0  0  0  0  0  0  0  0  0  0  0
  145.5997  135.5430  154.7821 H   0  0  0  0  0  0  0  0  0  0  0  0
  145.3196  135.8631  153.0784 H   0  0  0  0  0  0  0  0  0  0  0  0
  146.7993  132.1175  150.8389 H   0  0  0  0  0  0  0  0  0  0  0  0
  146.6650  131.4853  152.4480 H   0  0  0  0  0  0  0  0  0  0  0  0
  144.8356  130.5856  151.0442 H   0  0  0  0  0  0  0  0  0  0  0  0
  144.1804  131.5677  152.3327 H   0  0  0  0  0  0  0  0  0  0  0  0
  144.5459  132.3810  149.4134 H   0  0  0  0  0  0  0  0  0  0  0  0
  143.0262  132.1755  150.2495 H   0  0  0  0  0  0  0  0  0  0  0  0
  143.7076  134.6044  149.9838 H   0  0  0  0  0  0  0  0  0  0  0  0
  143.4569  134.1473  151.6523 H   0  0  0  0  0  0  0  0  0  0  0  0
  145.5507  135.4713  151.4109 H   0  0  0  0  0  0  0  0  0  0  0  0
  146.1780  134.3357  150.2536 H   0  0  0  0  0  0  0  0  0  0  0  0
  149.1937  137.4694  153.4758 H   0  0  0  0  0  0  0  0  0  0  0  0
  151.4218  138.6812  153.9433 H   0  0  0  0  0  0  0  0  0  0  0  0
  152.5351  140.3322  155.3743 H   0  0  0  0  0  0  0  0  0  0  0  0
  150.8467  143.1520  156.3191 H   0  0  0  0  0  0  0  0  0  0  0  0
  150.0157  142.9970  157.8484 H   0  0  0  0  0  0  0  0  0  0  0  0
  152.9069  143.9043  157.4176 H   0  0  0  0  0  0  0  0  0  0  0  0
  151.5736  144.9177  157.9185 H   0  0  0  0  0  0  0  0  0  0  0  0
  153.0221  144.2428  159.8610 H   0  0  0  0  0  0  0  0  0  0  0  0
  151.3733  143.6869  160.0553 H   0  0  0  0  0  0  0  0  0  0  0  0
  153.7359  142.0159  159.0659 H   0  0  0  0  0  0  0  0  0  0  0  0
  152.9294  141.8426  160.6065 H   0  0  0  0  0  0  0  0  0  0  0  0
  150.8415  141.1161  159.4968 H   0  0  0  0  0  0  0  0  0  0  0  0
  152.1833  140.1286  158.9401 H   0  0  0  0  0  0  0  0  0  0  0  0
  147.9508  139.0094  156.5168 H   0  0  0  0  0  0  0  0  0  0  0  0
  1  2  2  0  0  0  0
  2  3  1  0  0  0  0
  2 13  1  0  0  0  0
  3  4  1  0  0  0  0
  3 26  1  0  0  0  0
  4  5  1  0  0  0  0
  4 27  1  0  0  0  0
  4 28  1  0  0  0  0
  5  6  2  0  0  0  0
  5  7  1  0  0  0  0
  7 12  1  0  0  0  0
  7  8  1  0  0  0  0
  8  9  1  0  0  0  0
  8 29  1  0  0  0  0
  8 30  1  0  0  0  0
  9 10  1  0  0  0  0
  9 31  1  0  0  0  0
  9 32  1  0  0  0  0
 10 11  1  0  0  0  0
 10 33  1  0  0  0  0
 10 34  1  0  0  0  0
 11 12  1  0  0  0  0
 11 35  1  0  0  0  0
 11 36  1  0  0  0  0
 12 37  1  0  0  0  0
 12 38  1  0  0  0  0
 13 14  1  0  0  0  0
 13 39  1  0  0  0  0
 14 25  1  0  0  0  0
 14 15  2  0  0  0  0
 15 16  1  0  0  0  0
 15 40  1  0  0  0  0
 16 17  2  0  0  0  0
 16 41  1  0  0  0  0
 17 18  1  0  0  0  0
 17 24  1  0  0  0  0
 18 23  1  0  0  0  0
 18 19  1  0  0  0  0
 19 20  1  0  0  0  0
 19 42  1  0  0  0  0
 19 43  1  0  0  0  0
 20 21  1  0  0  0  0
 20 44  1  0  0  0  0
 20 45  1  0  0  0  0
 21 22  1  0  0  0  0
 21 46  1  0  0  0  0
 21 47  1  0  0  0  0
 22 23  1  0  0  0  0
 22 48  1  0  0  0  0
 22 49  1  0  0  0  0
 23 50  1  0  0  0  0
 23 51  1  0  0  0  0
 24 25  2  0  0  0  0
 25 52  1  0  0  0  0
M  END
> <s_m_source_file>
AV-unprocessed.smi

> <i_m_source_file_index>
1081

> <i_lp_mmshare_version>
43012

> <i_f3d_flags>
0

> <s_epik_input>
W0NIMl0xW0NIMl1bQ0gyXVtDSDJdW0NIMl1OMUMoPU8pW0NIMl1bTkhdQyg9TylbTkhdYzJbY0hdW2NIXWMobltjSF0yKU4zW0NIMl1bQ0gyXVtDSDJdW0NIMl1bQ0gyXTM=

> <s_epik_cmdline>
J2VwaWtfcHl0aG9uJywgJy1waCcsICc3LjAnLCAnLXRuJywgJzgnLCAnLW1hJywgJzIwMCcsICctbWV0YWxfYmluZGluZycsICctaW1hZScsICc8aW5maWxlLm1hZT4nLCAnLW9tYWUnLCAnPG91dGZpbGUubWFlPic=

> <r_lp_tautomer_probability>
1

> <r_epik_Ionization_Penalty>
0.2566

> <r_epik_Ionization_Penalty_Charging>
0

> <r_epik_Ionization_Penalty_Neutral>
0.2566

> <r_epik_State_Penalty>
0.242651

> <r_epik_Charging_Adjusted_Penalty>
0.242651

> <i_epik_Tot_Q>
0

> <i_epik_Tot_abs_Q>
0

> <r_epik_Metal_State_Penalty>
0.169478

> <b_epik_Metal_Only>
0

> <s_lp_Force_Field>
OPLS_2005

> <r_lp_Energy>
36.1946

> <b_lp_Chiralities_Consistent>
1

> <s_lp_Variant>
AV-unprocessed.smi:1081-1

> <Gold.Version>
5.8.1

> <Gold.Id.Protein>
6NUR|6NUR_protein|mol2

> <Gold.PLP.Fitness>
48.8281

> <Gold.PLP.PLP>
-43.9216

> <Gold.PLP.part.hbond>
-1.9809

> <Gold.PLP.part.metal>
0.0000

> <Gold.PLP.part.buried>
-5.3461

> <Gold.PLP.part.nonpolar>
-37.6690

> <Gold.PLP.part.repulsive>
0.1137

> <Gold.PLP.ligand.clash>
0.0000

> <Gold.PLP.ligand.torsion>
0.6298

> <Gold.PLP.Chemscore.Hbond>
1.9120

> <Gold.PLP.Chemscore.CHOScore>
0.0000

> <Gold.PLP.Chemscore.Metal>
0.0000

> <Gold.Chemscore.Hbonds>
donor molecule, donor type, donor heavy atom, donor atom, acceptor molecule, acceptor atom, score
      L1  H     3    26       P1  7948  1.00
      L1  H    13    39       P1  7948  0.91

> <Gold.PLP.Chemscore.Internal.Correction>
0.4300

> <Gold.Rescore>
     Score         DG    S(hbond)    S(metal)    S(lipo)     H(rot)  DE(clash)    DE(int)     intcor
     19.52     -21.58       1.93        0.00     113.46       1.41       0.04       2.02       ----

> <Gold.Chemscore.Fitness>
19.5160

> <Gold.Chemscore.DG>
-21.5800

> <Gold.Chemscore.ZeroCoef>
-5.4800

> <Gold.Chemscore.Hbond>
1.9272

> <Gold.Chemscore.Metal>
0.0000

> <Gold.Chemscore.Lipo>
113.4617

> <Gold.Chemscore.Internal_Hbond>
0.0000

> <Gold.Chemscore.DEClash>
0.0402

> <Gold.Chemscore.DEInternal>
2.0238

> <Gold.Chemscore.Rot>
1.4109

> <Gold.Chemscore.Internal.Correction>
   9.000000E+99

> <Gold.Chemscore.Hbonds>
donor molecule, donor type, donor heavy atom, donor atom, acceptor molecule, acceptor atom, score
      L1  H     3    26       P1  7948  0.94
      L1  H    13    39       P1  7948  0.82

> <Gold.Chemscore.Hbond.Weighted>
-6.4369

> <Gold.Chemscore.Metal.Weighted>
-0.0000

> <Gold.Chemscore.Lipo.Weighted>
-13.2750

> <Gold.Chemscore.Internal_Hbond.Weighted>
0.0000

> <Gold.Chemscore.DEClash.Weighted>
0.0402

> <Gold.Chemscore.DEInternal.Weighted>
2.0238

> <Gold.Chemscore.Rot.Weighted>
3.6118

> <Gold.Chemscore.Internal.Correction.Weighted>
   9.000000E+99

> <Gold.Protein.RotatedTorsions>
[ 6907 6896 6895 6894 ] final   30.03 input  -60.11 | X-H torsion
[ 7974 7965 7964 7962 ] final    4.63 input  175.53 | X-H torsion
[ 8008 7997 7996 7995 ] final  137.32 input   59.86 | X-H torsion
[ 10167 10162 10161 10158 ] final  -14.16 input  -65.29 | X-H torsion
[ 10718 10713 10712 10709 ] final  -34.47 input   66.30 | X-H torsion
[ 10763 10752 10751 10750 ] final -172.05 input  -60.55 | X-H torsion
[ 11005 11000 10999 10996 ] final   37.85 input  -57.11 | X-H torsion

> <Gold.Protein.ActiveResidues>
 VAL166  LYS551  ARG553  GLY616  TRP617  ASP618  TYR619  PRO620  LYS621  CYS622 
 ASP623  PHE694  ASN695  SER759  ASP760  ASP761  ALA762  ILE779  LEU786  VAL792 
 PHE793  MET794  SER795  GLU796  ALA797  LYS798  CYS799  TRP800  GLU811  SER814 

> <Gold.Protein.RotatedAtoms>
  152.0401  134.9716  160.0573 H   0  0  0  0  0  0  0  0  0  0  0  0  # atno 6907 bound_to 6896
  152.1158  133.4321  159.4660 H   0  0  0  0  0  0  0  0  0  0  0  0  # atno 6908 bound_to 6896
  150.6846  134.2512  159.4555 H   0  0  0  0  0  0  0  0  0  0  0  0  # atno 6909 bound_to 6896
  146.2443  140.0506  142.8375 H   0  0  0  0  0  0  0  0  0  0  0  0  # atno 7974 bound_to 7965
  156.3002  140.2422  156.3890 H   0  0  0  0  0  0  0  0  0  0  0  0  # atno 8008 bound_to 7997
  154.8631  140.0419  157.1697 H   0  0  0  0  0  0  0  0  0  0  0  0  # atno 8009 bound_to 7997
  154.8875  140.2958  155.5393 H   0  0  0  0  0  0  0  0  0  0  0  0  # atno 8010 bound_to 7997
  140.7196  143.5350  150.9475 H   0  0  0  0  0  0  0  0  0  0  0  0  # atno 10167 bound_to 10162
  156.3502  130.4307  149.7711 H   0  0  0  0  0  0  0  0  0  0  0  0  # atno 10718 bound_to 10713
  154.6236  135.2878  155.0298 H   0  0  0  0  0  0  0  0  0  0  0  0  # atno 10763 bound_to 10752
  154.1484  135.6507  153.4961 H   0  0  0  0  0  0  0  0  0  0  0  0  # atno 10764 bound_to 10752
  153.0247  135.5349  154.7036 H   0  0  0  0  0  0  0  0  0  0  0  0  # atno 10765 bound_to 10752
  140.2184  134.3670  155.8016 H   0  0  0  0  0  0  0  0  0  0  0  0  # atno 11005 bound_to 11000
  145.0988  140.9332  143.4725 LP  0  0  0  0  0  0  0  0  0  0  0  0  # atno 17320 bound_to 7965
  145.0694  139.3043  143.5839 LP  0  0  0  0  0  0  0  0  0  0  0  0  # atno 17321 bound_to 7965
  139.9071  143.6765  152.3121 LP  0  0  0  0  0  0  0  0  0  0  0  0  # atno 17342 bound_to 10162
  139.7135  144.7616  151.1073 LP  0  0  0  0  0  0  0  0  0  0  0  0  # atno 17343 bound_to 10162
  156.4915  130.8087  151.3096 LP  0  0  0  0  0  0  0  0  0  0  0  0  # atno 17370 bound_to 10713
  157.7460  130.9974  150.2814 LP  0  0  0  0  0  0  0  0  0  0  0  0  # atno 17371 bound_to 10713
  141.2224  133.7180  156.8535 LP  0  0  0  0  0  0  0  0  0  0  0  0  # atno 17394 bound_to 11000
  140.1875  134.8989  157.3022 LP  0  0  0  0  0  0  0  0  0  0  0  0  # atno 17395 bound_to 11000

$$$$
