AV-unprocessed.smi:1493|AV-procd|sdf|6048|dock1
  -GOLD-   22720 6163D 1   1.00000     0.00000
 Structure written by MMmdl.
 33 33  0  0  0  0  0  0  0  0  2 V2000
  151.7584  145.5717  159.6903 C   0  0  0  0  0  0  0  0  0  0  0  0
  151.7531  144.5615  158.5377 C   0  0  0  0  0  0  0  0  0  0  0  0
  152.7157  143.3863  158.7812 C   0  0  0  0  0  0  0  0  0  0  0  0
  152.1957  142.3560  159.8017 C   0  0  2  0  0  0  0  0  0  0  0  0
  153.3521  141.6795  160.5554 C   0  0  0  0  0  0  0  0  0  0  0  0
  151.3777  141.3475  159.1321 N   0  0  0  0  0  0  0  0  0  0  0  0
  151.8445  140.3412  158.3765 C   0  0  0  0  0  0  0  0  0  0  0  0
  153.0450  140.1504  158.1751 O   0  0  0  0  0  0  0  0  0  0  0  0
  150.7821  139.4078  157.7750 C   0  0  0  0  0  0  0  0  0  0  0  0
  149.8573  140.0773  156.8484 N   0  0  0  0  0  0  0  0  0  0  0  0
  148.6894  140.6644  157.4999 N   0  5  0  0  0  0  0  0  0  0  0  0
  147.7527  141.2922  156.7405 C   0  0  0  0  0  0  0  0  0  0  0  0
  146.7363  141.7935  157.2155 O   0  0  0  0  0  0  0  0  0  0  0  0
  147.9763  141.3729  155.3066 C   0  0  0  0  0  0  0  0  0  0  0  0
  149.0774  140.8463  154.7354 C   0  0  0  0  0  0  0  0  0  0  0  0
  150.1055  140.1618  155.5099 C   0  0  0  0  0  0  0  0  0  0  0  0
  151.1211  139.6917  154.9963 O   0  0  0  0  0  0  0  0  0  0  0  0
  151.0676  146.3911  159.4907 H   0  0  0  0  0  0  0  0  0  0  0  0
  152.7505  146.0004  159.8345 H   0  0  0  0  0  0  0  0  0  0  0  0
  151.4560  145.1019  160.6265 H   0  0  0  0  0  0  0  0  0  0  0  0
  150.7405  144.1815  158.3988 H   0  0  0  0  0  0  0  0  0  0  0  0
  152.0173  145.0772  157.6139 H   0  0  0  0  0  0  0  0  0  0  0  0
  152.9285  142.8890  157.8337 H   0  0  0  0  0  0  0  0  0  0  0  0
  153.6688  143.7814  159.1350 H   0  0  0  0  0  0  0  0  0  0  0  0
  151.5798  142.8884  160.5290 H   0  0  0  0  0  0  0  0  0  0  0  0
  153.9648  142.4162  161.0756 H   0  0  0  0  0  0  0  0  0  0  0  0
  154.0008  141.1279  159.8738 H   0  0  0  0  0  0  0  0  0  0  0  0
  152.9807  140.9774  161.3027 H   0  0  0  0  0  0  0  0  0  0  0  0
  150.3776  141.4230  159.2482 H   0  0  0  0  0  0  0  0  0  0  0  0
  151.3011  138.5886  157.2745 H   0  0  0  0  0  0  0  0  0  0  0  0
  150.2096  138.9435  158.5801 H   0  0  0  0  0  0  0  0  0  0  0  0
  147.2445  141.8680  154.6856 H   0  0  0  0  0  0  0  0  0  0  0  0
  149.2029  140.9314  153.6665 H   0  0  0  0  0  0  0  0  0  0  0  0
  1  2  1  0  0  0  0
  1 18  1  0  0  0  0
  1 19  1  0  0  0  0
  1 20  1  0  0  0  0
  2  3  1  0  0  0  0
  2 21  1  0  0  0  0
  2 22  1  0  0  0  0
  3  4  1  0  0  0  0
  3 23  1  0  0  0  0
  3 24  1  0  0  0  0
  4  5  1  0  0  0  0
  4  6  1  0  0  0  0
  4 25  1  0  0  0  0
  5 26  1  0  0  0  0
  5 27  1  0  0  0  0
  5 28  1  0  0  0  0
  6  7  1  0  0  0  0
  6 29  1  0  0  0  0
  7  8  2  0  0  0  0
  7  9  1  0  0  0  0
  9 30  1  0  0  0  0
  9 31  1  0  0  0  0
  9 10  1  0  0  0  0
 10 11  1  0  0  0  0
 10 16  1  0  0  0  0
 11 12  1  0  0  0  0
 12 13  2  0  0  0  0
 12 14  1  0  0  0  0
 14 32  1  0  0  0  0
 14 15  2  0  0  0  0
 15 33  1  0  0  0  0
 15 16  1  0  0  0  0
 16 17  2  0  0  0  0
M  CHG  1  11  -1
M  END
> <s_m_source_file>
AV-unprocessed.smi

> <i_m_source_file_index>
1493

> <i_lp_mmshare_version>
43012

> <i_f3d_flags>
0

> <s_epik_input>
W0NIM11bQ0gyXVtDSDJdW0NASF0oW0NIM10pW05IXUMoPU8pW0NIMl1uMVtuSF1jKD1PKVtjSF1bY0hdYzE9Tw==

> <s_epik_cmdline>
J2VwaWtfcHl0aG9uJywgJy1waCcsICc3LjAnLCAnLXRuJywgJzgnLCAnLW1hJywgJzIwMCcsICctbWV0YWxfYmluZGluZycsICctaW1hZScsICc8aW5maWxlLm1hZT4nLCAnLW9tYWUnLCAnPG91dGZpbGUubWFlPic=

> <r_lp_tautomer_probability>
1

> <r_epik_Ionization_Penalty>
0.0986298

> <r_epik_Ionization_Penalty_Charging>
0.0986298

> <r_epik_Ionization_Penalty_Neutral>
1.93017e-08

> <r_epik_State_Penalty>
0.0347731

> <r_epik_Charging_Adjusted_Penalty>
0.133403

> <i_epik_Tot_Q>
-1

> <i_epik_Tot_abs_Q>
1

> <r_epik_Metal_State_Penalty>
0.0347731

> <b_epik_Metal_Only>
0

> <s_lp_Force_Field>
OPLS_2005

> <r_lp_Energy>
18.8288

> <b_lp_Chiralities_Consistent>
1

> <s_lp_Variant>
AV-unprocessed.smi:1493-1

> <Gold.Version>
5.8.1

> <Gold.Id.Protein>
6NUR|6NUR_protein|mol2

> <Gold.PLP.Fitness>
40.4932

> <Gold.PLP.PLP>
-36.4292

> <Gold.PLP.part.hbond>
-2.0000

> <Gold.PLP.part.metal>
0.0000

> <Gold.PLP.part.buried>
-2.4856

> <Gold.PLP.part.nonpolar>
-31.9266

> <Gold.PLP.part.repulsive>
0.3756

> <Gold.PLP.ligand.clash>
0.0000

> <Gold.PLP.ligand.torsion>
0.9571

> <Gold.PLP.Chemscore.Hbond>
1.9760

> <Gold.PLP.Chemscore.CHOScore>
0.0000

> <Gold.PLP.Chemscore.Metal>
0.0000

> <Gold.Chemscore.Hbonds>
donor molecule, donor type, donor heavy atom, donor atom, acceptor molecule, acceptor atom, score
      P1  H  7989  7998       L1    17  1.00
      P1  H  7997  8009       L1     8  1.00

> <Gold.PLP.Chemscore.Internal.Correction>
0.0503

> <Gold.Rescore>
     Score         DG    S(hbond)    S(metal)    S(lipo)     H(rot)  DE(clash)    DE(int)     intcor
     13.91     -15.43       1.96        0.00      75.87       2.14       0.00       1.51       ----

> <Gold.Chemscore.Fitness>
13.9095

> <Gold.Chemscore.DG>
-15.4268

> <Gold.Chemscore.ZeroCoef>
-5.4800

> <Gold.Chemscore.Hbond>
1.9584

> <Gold.Chemscore.Metal>
0.0000

> <Gold.Chemscore.Lipo>
75.8715

> <Gold.Chemscore.Internal_Hbond>
0.0000

> <Gold.Chemscore.DEClash>
0.0042

> <Gold.Chemscore.DEInternal>
1.5131

> <Gold.Chemscore.Rot>
2.1372

> <Gold.Chemscore.Internal.Correction>
   9.000000E+99

> <Gold.Chemscore.Hbonds>
donor molecule, donor type, donor heavy atom, donor atom, acceptor molecule, acceptor atom, score
      P1  H  7989  7998       L1    17  0.64
      P1  H  7997  8009       L1     8  0.94

> <Gold.Chemscore.Hbond.Weighted>
-6.5411

> <Gold.Chemscore.Metal.Weighted>
-0.0000

> <Gold.Chemscore.Lipo.Weighted>
-8.8770

> <Gold.Chemscore.Internal_Hbond.Weighted>
0.0000

> <Gold.Chemscore.DEClash.Weighted>
0.0042

> <Gold.Chemscore.DEInternal.Weighted>
1.5131

> <Gold.Chemscore.Rot.Weighted>
5.4713

> <Gold.Chemscore.Internal.Correction.Weighted>
   9.000000E+99

> <Gold.Protein.RotatedTorsions>
[ 6907 6896 6895 6894 ] final  -45.80 input  -60.11 | X-H torsion
[ 7974 7965 7964 7962 ] final  123.31 input  175.53 | X-H torsion
[ 8008 7997 7996 7995 ] final  157.13 input   59.86 | X-H torsion
[ 10167 10162 10161 10158 ] final -179.96 input  -65.29 | X-H torsion
[ 10718 10713 10712 10709 ] final   50.55 input   66.30 | X-H torsion
[ 10763 10752 10751 10750 ] final  -84.72 input  -60.55 | X-H torsion
[ 11005 11000 10999 10996 ] final  153.46 input  -57.11 | X-H torsion

> <Gold.Protein.ActiveResidues>
 VAL166  LYS551  ARG553  GLY616  TRP617  ASP618  TYR619  PRO620  LYS621  CYS622 
 ASP623  PHE694  ASN695  SER759  ASP760  ASP761  ALA762  ILE779  LEU786  VAL792 
 PHE793  MET794  SER795  GLU796  ALA797  LYS798  CYS799  TRP800  GLU811  SER814 

> <Gold.Protein.RotatedAtoms>
  150.9180  134.8598  159.7469 H   0  0  0  0  0  0  0  0  0  0  0  0  # atno 6907 bound_to 6896
  152.4978  134.4260  159.9506 H   0  0  0  0  0  0  0  0  0  0  0  0  # atno 6908 bound_to 6896
  151.4296  133.3634  159.2802 H   0  0  0  0  0  0  0  0  0  0  0  0  # atno 6909 bound_to 6896
  145.0974  139.3543  143.4829 H   0  0  0  0  0  0  0  0  0  0  0  0  # atno 7974 bound_to 7965
  156.2382  140.1893  156.7062 H   0  0  0  0  0  0  0  0  0  0  0  0  # atno 8008 bound_to 7997
  154.6146  140.0617  156.9565 H   0  0  0  0  0  0  0  0  0  0  0  0  # atno 8009 bound_to 7997
  155.1960  140.3288  155.4353 H   0  0  0  0  0  0  0  0  0  0  0  0  # atno 8010 bound_to 7997
  139.5363  144.2488  152.0801 H   0  0  0  0  0  0  0  0  0  0  0  0  # atno 10167 bound_to 10162
  157.4896  130.8367  149.8187 H   0  0  0  0  0  0  0  0  0  0  0  0  # atno 10718 bound_to 10713
  154.6028  135.5510  153.7392 H   0  0  0  0  0  0  0  0  0  0  0  0  # atno 10763 bound_to 10752
  153.0162  135.6370  154.1690 H   0  0  0  0  0  0  0  0  0  0  0  0  # atno 10764 bound_to 10752
  154.1630  135.2896  155.3083 H   0  0  0  0  0  0  0  0  0  0  0  0  # atno 10765 bound_to 10752
  140.1400  134.8745  157.2318 H   0  0  0  0  0  0  0  0  0  0  0  0  # atno 11005 bound_to 11000
  146.3530  140.0836  142.8616 LP  0  0  0  0  0  0  0  0  0  0  0  0  # atno 17320 bound_to 7965
  145.0995  140.9336  143.4721 LP  0  0  0  0  0  0  0  0  0  0  0  0  # atno 17321 bound_to 7965
  140.1959  144.4705  150.6455 LP  0  0  0  0  0  0  0  0  0  0  0  0  # atno 17342 bound_to 10162
  140.6571  143.2241  151.5943 LP  0  0  0  0  0  0  0  0  0  0  0  0  # atno 17343 bound_to 10162
  156.0166  130.3811  150.2092 LP  0  0  0  0  0  0  0  0  0  0  0  0  # atno 17370 bound_to 10713
  157.0280  130.9999  151.3320 LP  0  0  0  0  0  0  0  0  0  0  0  0  # atno 17371 bound_to 10713
  140.2734  134.3434  155.7366 LP  0  0  0  0  0  0  0  0  0  0  0  0  # atno 17394 bound_to 11000
  141.2184  133.7436  156.9256 LP  0  0  0  0  0  0  0  0  0  0  0  0  # atno 17395 bound_to 11000

$$$$
