#       Name:                AV-unprocessed.smi:840
#       Creating user name   scv26
#       Creation time:       Fri Mar 27 01:37:35 2020


#       File generated by GOLD software.
#

@<TRIPOS>MOLECULE
AV-unprocessed.smi:840
    42    43     1
SMALL
NO_CHARGES


@<TRIPOS>ATOM
      1 ****        -0.2037  -2.2329   2.8514 C.3            1 S1                 0.0000
      2 ****         0.0727  -1.5649   1.4942 C.3            1 S1                 0.0000
      3 ****         1.5218  -1.5063   1.3042 N.am           1 S1                 0.0000
      4 ****         2.1580  -1.3317   0.1357 C.2            1 S1                 0.0000
      5 ****         1.5082  -1.2029  -0.9049 O.2            1 S1                 0.0000
      6 ****         3.5060  -1.3201   0.2456 N.pl3          1 S1                -1.0000
      7 ****         4.2682  -1.1486  -0.8467 C.2            1 S1                 0.0000
      8 ****         4.8321   0.0222  -1.1654 N.2            1 S1                 0.0000
      9 ****         5.5898  -0.0271  -2.3368 C.2            1 S1                 0.0000
     10 ****         5.6103  -1.2664  -2.9197 C.2            1 S1                 0.0000
     11 ****         4.6718  -2.4152  -2.0093 S.3            1 S1                 0.0000
     12 ****        -0.5279  -0.1505   1.5226 C.2            1 S1                 0.0000
     13 ****         0.0041   0.7464   2.1790 O.2            1 S1                 0.0000
     14 ****        -1.6517   0.0264   0.8117 N.am           1 S1                 0.0000
     15 ****        -2.3820   1.2849   0.6910 C.3            1 S1                 0.0000
     16 ****        -3.8311   1.0346   0.2300 C.3            1 S1                 0.0000
     17 ****        -4.0788   1.9947  -0.9354 C.3            1 S1                 0.0000
     18 ****        -2.7030   2.1894  -1.5643 C.3            1 S1                 0.0000
     19 ****        -1.7472   2.2044  -0.3714 C.3            1 S1                 0.0000
     20 ****        -1.2745  -2.3047   3.0470 H              1 S1                 0.0000
     21 ****         0.2503  -1.6816   3.6763 H              1 S1                 0.0000
     22 ****         0.1983  -3.2463   2.8735 H              1 S1                 0.0000
     23 ****        -0.3835  -2.1568   0.6981 H              1 S1                 0.0000
     24 ****         2.0926  -1.5968   2.1316 H              1 S1                 0.0000
     25 ****         6.0828   0.8693  -2.6821 H              1 S1                 0.0000
     26 ****         6.1169  -1.5728  -3.8223 H              1 S1                 0.0000
     27 ****        -2.0164  -0.7649   0.3018 H              1 S1                 0.0000
     28 ****        -2.3912   1.7958   1.6558 H              1 S1                 0.0000
     29 ****        -3.9520   0.0093  -0.1239 H              1 S1                 0.0000
     30 ****        -4.5501   1.1821   1.0365 H              1 S1                 0.0000
     31 ****        -4.8150   1.6141  -1.6440 H              1 S1                 0.0000
     32 ****        -4.4450   2.9488  -0.5537 H              1 S1                 0.0000
     33 ****        -2.4706   1.3419  -2.2106 H              1 S1                 0.0000
     34 ****        -2.6387   3.0965  -2.1660 H              1 S1                 0.0000
     35 ****        -1.6843   3.2185   0.0252 H              1 S1                 0.0000
     36 ****        -0.7356   1.9101  -0.6555 H              1 S1                 0.0000
     37 ****         0.5089  -1.2287  -0.8768 LP             1 S1                 0.0000
     38 ****         1.9807  -1.0727  -1.7765 LP             1 S1                 0.0000
     39 ****         3.9353  -1.4393   1.1408 LP             1 S1                 0.0000
     40 ****         4.7215   0.8517  -0.6178 LP             1 S1                 0.0000
     41 ****         0.8359   0.5579   2.7010 LP             1 S1                 0.0000
     42 ****        -0.3961   1.6628   2.1897 LP             1 S1                 0.0000
@<TRIPOS>BOND
    1    1    2 1     
    2    1   20 1     
    3    1   21 1     
    4    1   22 1     
    5    2    3 1     
    6    2   12 1     
    7    2   23 1     
    8    3    4 am    
    9    3   24 1     
   10    4    5 2     
   11    4    6 1     
   12    6    7 1     
   13    7   11 1     
   14    7    8 2     
   15    8    9 1     
   16    9   10 2     
   17    9   25 1     
   18   10   11 1     
   19   10   26 1     
   20   12   13 2     
   21   12   14 am    
   22   14   15 1     
   23   14   27 1     
   24   15   19 1     
   25   15   16 1     
   26   15   28 1     
   27   16   17 1     
   28   16   29 1     
   29   16   30 1     
   30   17   18 1     
   31   17   31 1     
   32   17   32 1     
   33   18   19 1     
   34   18   33 1     
   35   18   34 1     
   36   19   35 1     
   37   19   36 1     
   38    5   37 1     
   39    5   38 1     
   40    6   39 1     
   41    8   40 1     
   42   13   41 1     
   43   13   42 1     
@<TRIPOS>SUBSTRUCTURE
      1 S1             1
@<TRIPOS>SET
LONE_PAIRS      STATIC     ATOMS    <user>   **** ""
6 37 38 39 40 41 42
DONOR_HYDROGENS      STATIC     ATOMS    <user>   **** ""
2 24 27
ATOM$BLUE        STATIC     ATOMS    COLORGROUP SYSTEM
6 37 38 39 40 41 42
ATOM$RED        STATIC     ATOMS    COLORGROUP SYSTEM
2 24 27
