#       Name:                AV-unprocessed.smi:1642
#       Creating user name   scv26
#       Creation time:       Fri Mar 27 07:25:34 2020


#       File generated by GOLD software.
#

@<TRIPOS>MOLECULE
AV-unprocessed.smi:1642
    39    40     1
SMALL
NO_CHARGES


@<TRIPOS>ATOM
      1 ****        -7.3258   3.3188   0.4257 C.3            1 S1                 0.0000
      2 ****        -5.8982   2.8960   0.3544 C.2            1 S1                 0.0000
      3 ****        -4.8809   3.7399   0.5660 N.2            1 S1                 0.0000
      4 ****        -3.6468   3.1166   0.4471 N.2            1 S1                 0.0000
      5 ****        -3.7703   1.8158   0.1495 C.2            1 S1                 0.0000
      6 ****        -2.6670   0.9391  -0.0290 N.am           1 S1                 0.0000
      7 ****        -1.3554   1.2252   0.0520 C.2            1 S1                 0.0000
      8 ****        -0.8805   2.3332   0.3025 O.2            1 S1                 0.0000
      9 ****        -0.6029   0.1404  -0.1772 N.am           1 S1                 0.0000
     10 ****         0.8536   0.1428  -0.1590 C.3            1 S1                 0.0000
     11 ****         1.4072  -1.2522  -0.4862 C.3            1 S1                 0.0000
     12 ****         2.8886  -1.2677  -0.4986 N.4            1 S1                 1.0000
     13 ****         3.5358  -1.0801   0.8230 C.3            1 S1                 0.0000
     14 ****         4.7087  -2.0683   0.8902 C.3            1 S1                 0.0000
     15 ****         4.8919  -2.5493  -0.5457 C.3            1 S1                 0.0000
     16 ****         3.4778  -2.4750  -1.1111 C.3            1 S1                 0.0000
     17 ****        -5.4216   1.2418  -0.0098 S.3            1 S1                 0.0000
     18 ****        -7.4090   4.4036   0.3506 H              1 S1                 0.0000
     19 ****        -7.7614   2.9983   1.3720 H              1 S1                 0.0000
     20 ****        -7.8908   2.8693  -0.3910 H              1 S1                 0.0000
     21 ****        -2.9067  -0.0173  -0.2446 H              1 S1                 0.0000
     22 ****        -1.0649  -0.7352  -0.3754 H              1 S1                 0.0000
     23 ****         1.2219   0.8701  -0.8846 H              1 S1                 0.0000
     24 ****         1.1932   0.4694   0.8251 H              1 S1                 0.0000
     25 ****         1.0359  -1.9928   0.2241 H              1 S1                 0.0000
     26 ****         1.0484  -1.5541  -1.4715 H              1 S1                 0.0000
     27 ****         3.8831  -0.0493   0.9015 H              1 S1                 0.0000
     28 ****         2.8437  -1.2591   1.6475 H              1 S1                 0.0000
     29 ****         5.6142  -1.6201   1.3004 H              1 S1                 0.0000
     30 ****         4.4400  -2.9127   1.5263 H              1 S1                 0.0000
     31 ****         5.5455  -1.8639  -1.0873 H              1 S1                 0.0000
     32 ****         5.3233  -3.5488  -0.6082 H              1 S1                 0.0000
     33 ****         2.9138  -3.3581  -0.8048 H              1 S1                 0.0000
     34 ****         3.4628  -2.4235  -2.2002 H              1 S1                 0.0000
     35 ****         3.1912  -0.4938  -1.0731 H              1 S1                 0.0000
     36 ****        -4.9969   4.7088   0.7847 LP             1 S1                 0.0000
     37 ****        -2.7702   3.5823   0.5689 LP             1 S1                 0.0000
     38 ****        -1.4865   3.1117   0.4656 LP             1 S1                 0.0000
     39 ****         0.1113   2.4546   0.3428 LP             1 S1                 0.0000
@<TRIPOS>BOND
    1    1    2 1     
    2    1   18 1     
    3    1   19 1     
    4    1   20 1     
    5    2   17 1     
    6    2    3 2     
    7    3    4 1     
    8    4    5 2     
    9    5    6 1     
   10    5   17 1     
   11    6    7 am    
   12    6   21 1     
   13    7    8 2     
   14    7    9 am    
   15    9   10 1     
   16    9   22 1     
   17   10   11 1     
   18   10   23 1     
   19   10   24 1     
   20   11   12 1     
   21   11   25 1     
   22   11   26 1     
   23   12   16 1     
   24   12   13 1     
   25   12   35 1     
   26   13   14 1     
   27   13   27 1     
   28   13   28 1     
   29   14   15 1     
   30   14   29 1     
   31   14   30 1     
   32   15   16 1     
   33   15   31 1     
   34   15   32 1     
   35   16   33 1     
   36   16   34 1     
   37    3   36 1     
   38    4   37 1     
   39    8   38 1     
   40    8   39 1     
@<TRIPOS>SUBSTRUCTURE
      1 S1             1
@<TRIPOS>SET
LONE_PAIRS      STATIC     ATOMS    <user>   **** ""
4 36 37 38 39
DONOR_HYDROGENS      STATIC     ATOMS    <user>   **** ""
3 21 22 35
ATOM$BLUE        STATIC     ATOMS    COLORGROUP SYSTEM
4 36 37 38 39
ATOM$RED        STATIC     ATOMS    COLORGROUP SYSTEM
3 21 22 35
