AV-unprocessed.smi:609|AV-procd|sdf|3049|dock2
  -GOLD-   2262023573D 1   1.00000     0.00000
 Structure written by MMmdl.
 44 46  0  0  0  0  0  0  0  0  3 V2000
  155.0441  140.3762  162.9339 C   0  0  0  0  0  0  0  0  0  0  0  0
  154.2865  141.3108  162.0061 C   0  0  0  0  0  0  0  0  0  0  0  0
  153.4974  142.3347  162.5774 C   0  0  0  0  0  0  0  0  0  0  0  0
  152.8195  143.1755  161.7027 C   0  0  0  0  0  0  0  0  0  0  0  0
  151.9813  144.2661  161.9453 N   0  3  0  0  0  0  0  0  0  0  0  0
  151.5522  144.7820  160.7601 C   0  0  0  0  0  0  0  0  0  0  0  0
  152.0953  144.0290  159.7649 N   0  0  0  0  0  0  0  0  0  0  0  0
  151.9621  144.1494  158.3073 C   0  0  0  0  0  0  0  0  0  0  0  0
  150.8140  143.2992  157.7251 C   0  0  2  0  0  0  0  0  0  0  0  0
  150.3083  142.4886  158.7653 O   0  0  0  0  0  0  0  0  0  0  0  0
  151.2393  142.4070  156.5443 C   0  0  0  0  0  0  0  0  0  0  0  0
  149.9266  141.2553  156.0488 S   0  0  0  0  0  0  0  0  0  0  0  0
  150.7601  139.9024  155.2792 C   0  0  0  0  0  0  0  0  0  0  0  0
  152.0594  139.6291  155.4224 N   0  3  0  0  0  0  0  0  0  0  0  0
  152.3837  138.5167  154.6936 C   0  0  0  0  0  0  0  0  0  0  0  0
  151.2263  138.0950  154.0889 C   0  0  0  0  0  0  0  0  0  0  0  0
  150.2377  138.9658  154.4720 N   0  0  0  0  0  0  0  0  0  0  0  0
  148.8269  138.9057  154.0825 C   0  0  0  0  0  0  0  0  0  0  0  0
  152.9018  143.0224  160.3052 C   0  0  0  0  0  0  0  0  0  0  0  0
  153.6749  142.0200  159.7255 C   0  0  0  0  0  0  0  0  0  0  0  0
  154.3754  141.1567  160.5981 C   0  0  0  0  0  0  0  0  0  0  0  0
  155.2310  140.0557  159.9948 C   0  0  0  0  0  0  0  0  0  0  0  0
  154.8542  140.6127  163.9812 H   0  0  0  0  0  0  0  0  0  0  0  0
  156.1180  140.4571  162.7638 H   0  0  0  0  0  0  0  0  0  0  0  0
  154.7431  139.3418  162.7666 H   0  0  0  0  0  0  0  0  0  0  0  0
  153.4277  142.4599  163.6480 H   0  0  0  0  0  0  0  0  0  0  0  0
  150.8978  145.6325  160.6333 H   0  0  0  0  0  0  0  0  0  0  0  0
  151.7985  145.2050  158.0846 H   0  0  0  0  0  0  0  0  0  0  0  0
  152.9174  143.8814  157.8532 H   0  0  0  0  0  0  0  0  0  0  0  0
  150.0091  143.9581  157.3982 H   0  0  0  0  0  0  0  0  0  0  0  0
  151.0288  142.2176  159.3139 H   0  0  0  0  0  0  0  0  0  0  0  0
  151.4862  143.0210  155.6800 H   0  0  0  0  0  0  0  0  0  0  0  0
  152.1354  141.8387  156.7963 H   0  0  0  0  0  0  0  0  0  0  0  0
  153.3870  138.1172  154.6618 H   0  0  0  0  0  0  0  0  0  0  0  0
  151.0380  137.2570  153.4329 H   0  0  0  0  0  0  0  0  0  0  0  0
  148.5731  137.8822  153.8053 H   0  0  0  0  0  0  0  0  0  0  0  0
  148.6628  139.5612  153.2273 H   0  0  0  0  0  0  0  0  0  0  0  0
  148.1945  139.2136  154.9156 H   0  0  0  0  0  0  0  0  0  0  0  0
  153.7432  141.9043  158.6537 H   0  0  0  0  0  0  0  0  0  0  0  0
  155.2268  140.0987  158.9052 H   0  0  0  0  0  0  0  0  0  0  0  0
  154.8578  139.0754  160.2919 H   0  0  0  0  0  0  0  0  0  0  0  0
  156.2656  140.1484  160.3259 H   0  0  0  0  0  0  0  0  0  0  0  0
  152.7052  140.1685  155.9854 H   0  0  0  0  0  0  0  0  0  0  0  0
  151.7261  144.6376  162.8515 H   0  0  0  0  0  0  0  0  0  0  0  0
  1  2  1  0  0  0  0
  1 23  1  0  0  0  0
  1 24  1  0  0  0  0
  1 25  1  0  0  0  0
  2 21  1  0  0  0  0
  2  3  2  0  0  0  0
  3  4  1  0  0  0  0
  3 26  1  0  0  0  0
  4 19  2  0  0  0  0
  4  5  1  0  0  0  0
  5  6  2  0  0  0  0
  5 44  1  0  0  0  0
  6  7  1  0  0  0  0
  6 27  1  0  0  0  0
  7  8  1  0  0  0  0
  7 19  1  0  0  0  0
  8  9  1  0  0  0  0
  8 28  1  0  0  0  0
  8 29  1  0  0  0  0
  9 10  1  0  0  0  0
  9 11  1  0  0  0  0
  9 30  1  0  0  0  0
 10 31  1  0  0  0  0
 11 12  1  0  0  0  0
 11 32  1  0  0  0  0
 11 33  1  0  0  0  0
 12 13  1  0  0  0  0
 13 17  1  0  0  0  0
 13 14  2  0  0  0  0
 14 15  1  0  0  0  0
 14 43  1  0  0  0  0
 15 16  2  0  0  0  0
 15 34  1  0  0  0  0
 16 17  1  0  0  0  0
 16 35  1  0  0  0  0
 17 18  1  0  0  0  0
 18 36  1  0  0  0  0
 18 37  1  0  0  0  0
 18 38  1  0  0  0  0
 19 20  1  0  0  0  0
 20 21  2  0  0  0  0
 20 39  1  0  0  0  0
 21 22  1  0  0  0  0
 22 40  1  0  0  0  0
 22 41  1  0  0  0  0
 22 42  1  0  0  0  0
M  CHG  1   5   1
M  CHG  1  14   1
M  END
> <s_m_source_file>
AV-unprocessed.smi

> <i_m_source_file_index>
609

> <i_lp_mmshare_version>
43012

> <i_f3d_flags>
0

> <s_epik_input>
W0NIM11jKFtjSF0xKWMoW0NIM10pW2NIXWMoYzEyKW4oW2NIXW4yKVtDSDJdW0NASF0oW09IXSlbQ0gyXVNjM25bY0hdW2NIXW4zW0NIM10=

> <s_epik_cmdline>
J2VwaWtfcHl0aG9uJywgJy1waCcsICc3LjAnLCAnLXRuJywgJzgnLCAnLW1hJywgJzIwMCcsICctbWV0YWxfYmluZGluZycsICctaW1hZScsICc8aW5maWxlLm1hZT4nLCAnLW9tYWUnLCAnPG91dGZpbGUubWFlPic=

> <r_lp_tautomer_probability>
1

> <r_epik_Ionization_Penalty>
1.19058

> <r_epik_Ionization_Penalty_Charging>
1.07615

> <r_epik_Ionization_Penalty_Neutral>
0.114429

> <r_epik_State_Penalty>
1.23473

> <r_epik_Charging_Adjusted_Penalty>
2.31088

> <i_epik_Tot_Q>
2

> <i_epik_Tot_abs_Q>
2

> <r_epik_Metal_State_Penalty>
4.63867

> <b_epik_Metal_Only>
0

> <s_lp_Force_Field>
OPLS_2005

> <r_lp_Energy>
20.2349

> <b_lp_Chiralities_Consistent>
1

> <s_lp_Variant>
AV-unprocessed.smi:609-5

> <Gold.Version>
5.8.1

> <Gold.Id.Protein>
6NUR|6NUR_protein|mol2

> <Gold.PLP.Fitness>
59.5208

> <Gold.PLP.PLP>
-59.1030

> <Gold.PLP.part.hbond>
-1.5150

> <Gold.PLP.part.metal>
0.0000

> <Gold.PLP.part.buried>
-4.3403

> <Gold.PLP.part.nonpolar>
-52.7693

> <Gold.PLP.part.repulsive>
0.2366

> <Gold.PLP.ligand.clash>
0.0000

> <Gold.PLP.ligand.torsion>
1.5049

> <Gold.PLP.Chemscore.Hbond>
0.0000

> <Gold.PLP.Chemscore.CHOScore>
1.1296

> <Gold.PLP.Chemscore.Metal>
0.0000

> <Gold.Chemscore.Hbonds>
donor molecule, donor type, donor heavy atom, donor atom, acceptor molecule, acceptor atom, score
      L1  C    16    35       P1  7948  0.06
      L1  C    16    35       P1  7949  1.00

> <Gold.PLP.Chemscore.Internal.Correction>
0.0387

> <Gold.Rescore>
     Score         DG    S(hbond)    S(metal)    S(lipo)     H(rot)  DE(clash)    DE(int)     intcor
     13.07     -14.89       0.00        0.00     136.99       2.59       0.12       1.70       ----

> <Gold.Chemscore.Fitness>
13.0672

> <Gold.Chemscore.DG>
-14.8873

> <Gold.Chemscore.ZeroCoef>
-5.4800

> <Gold.Chemscore.Hbond>
0.0000

> <Gold.Chemscore.Metal>
0.0000

> <Gold.Chemscore.Lipo>
136.9941

> <Gold.Chemscore.Internal_Hbond>
0.0000

> <Gold.Chemscore.DEClash>
0.1218

> <Gold.Chemscore.DEInternal>
1.6983

> <Gold.Chemscore.Rot>
2.5863

> <Gold.Chemscore.Internal.Correction>
   9.000000E+99

> <Gold.Chemscore.Hbond.Weighted>
-0.0000

> <Gold.Chemscore.Metal.Weighted>
-0.0000

> <Gold.Chemscore.Lipo.Weighted>
-16.0283

> <Gold.Chemscore.Internal_Hbond.Weighted>
0.0000

> <Gold.Chemscore.DEClash.Weighted>
0.1218

> <Gold.Chemscore.DEInternal.Weighted>
1.6983

> <Gold.Chemscore.Rot.Weighted>
6.6210

> <Gold.Chemscore.Internal.Correction.Weighted>
   9.000000E+99

> <Gold.Protein.RotatedTorsions>
[ 6907 6896 6895 6894 ] final -158.37 input  -60.11 | X-H torsion
[ 7974 7965 7964 7962 ] final  153.96 input  175.53 | X-H torsion
[ 8008 7997 7996 7995 ] final   35.96 input   59.86 | X-H torsion
[ 10167 10162 10161 10158 ] final -105.47 input  -65.29 | X-H torsion
[ 10718 10713 10712 10709 ] final  -25.73 input   66.30 | X-H torsion
[ 10763 10752 10751 10750 ] final -146.28 input  -60.55 | X-H torsion
[ 11005 11000 10999 10996 ] final  -84.73 input  -57.11 | X-H torsion

> <Gold.Protein.ActiveResidues>
 VAL166  LYS551  ARG553  GLY616  TRP617  ASP618  TYR619  PRO620  LYS621  CYS622 
 ASP623  PHE694  ASN695  SER759  ASP760  ASP761  ALA762  ILE779  LEU786  VAL792 
 PHE793  MET794  SER795  GLU796  ALA797  LYS798  CYS799  TRP800  GLU811  SER814 

> <Gold.Protein.RotatedAtoms>
  151.3171  133.4055  159.2651 H   0  0  0  0  0  0  0  0  0  0  0  0  # atno 6907 bound_to 6896
  151.0065  134.9364  159.7994 H   0  0  0  0  0  0  0  0  0  0  0  0  # atno 6908 bound_to 6896
  152.5289  134.3136  159.9175 H   0  0  0  0  0  0  0  0  0  0  0  0  # atno 6909 bound_to 6896
  144.8120  139.6869  143.6137 H   0  0  0  0  0  0  0  0  0  0  0  0  # atno 7974 bound_to 7965
  155.1796  140.3299  155.4377 H   0  0  0  0  0  0  0  0  0  0  0  0  # atno 8008 bound_to 7997
  156.2481  140.1929  156.6845 H   0  0  0  0  0  0  0  0  0  0  0  0  # atno 8009 bound_to 7997
  154.6280  140.0586  156.9683 H   0  0  0  0  0  0  0  0  0  0  0  0  # atno 8010 bound_to 7997
  140.1982  143.3839  152.1151 H   0  0  0  0  0  0  0  0  0  0  0  0  # atno 10167 bound_to 10162
  156.4605  130.4503  149.6932 H   0  0  0  0  0  0  0  0  0  0  0  0  # atno 10718 bound_to 10713
  154.8344  135.3391  154.6636 H   0  0  0  0  0  0  0  0  0  0  0  0  # atno 10763 bound_to 10752
  153.7252  135.6955  153.5007 H   0  0  0  0  0  0  0  0  0  0  0  0  # atno 10764 bound_to 10752
  153.2352  135.4403  155.0591 H   0  0  0  0  0  0  0  0  0  0  0  0  # atno 10765 bound_to 10752
  141.1648  133.7362  156.8912 H   0  0  0  0  0  0  0  0  0  0  0  0  # atno 11005 bound_to 11000
  146.2420  139.6020  142.9485 LP  0  0  0  0  0  0  0  0  0  0  0  0  # atno 17320 bound_to 7965
  145.5301  141.0427  143.2387 LP  0  0  0  0  0  0  0  0  0  0  0  0  # atno 17321 bound_to 7965
  139.5228  144.7063  151.5343 LP  0  0  0  0  0  0  0  0  0  0  0  0  # atno 17342 bound_to 10162
  140.6409  143.8891  150.6691 LP  0  0  0  0  0  0  0  0  0  0  0  0  # atno 17343 bound_to 10162
  156.3722  130.7536  151.2520 LP  0  0  0  0  0  0  0  0  0  0  0  0  # atno 17370 bound_to 10713
  157.7498  131.0320  150.4206 LP  0  0  0  0  0  0  0  0  0  0  0  0  # atno 17371 bound_to 10713
  140.1647  134.9141  157.2759 LP  0  0  0  0  0  0  0  0  0  0  0  0  # atno 17394 bound_to 11000
  140.2570  134.3616  155.7420 LP  0  0  0  0  0  0  0  0  0  0  0  0  # atno 17395 bound_to 11000

$$$$
