#       Name:                AV-unprocessed.smi:2569
#       Creating user name   scv26
#       Creation time:       Fri Mar 27 14:11:55 2020


#       File generated by GOLD software.
#

@<TRIPOS>MOLECULE
AV-unprocessed.smi:2569
    45    47     1
SMALL
NO_CHARGES


@<TRIPOS>ATOM
      1 ****        -2.2456   4.3133   2.9040 C.3            1 S1                 0.0000
      2 ****        -1.7938   3.1656   2.0181 C.ar           1 S1                 0.0000
      3 ****        -1.7438   3.3560   0.6186 C.ar           1 S1                 0.0000
      4 ****        -1.3301   2.3138  -0.2396 C.ar           1 S1                 0.0000
      5 ****        -1.2042   2.2807  -1.6179 N.2            1 S1                 0.0000
      6 ****        -0.7789   1.0368  -1.8185 C.2            1 S1                 0.0000
      7 ****        -0.6126   0.2593  -0.7314 N.pl3          1 S1                 0.0000
      8 ****        -0.1622  -1.1208  -0.7071 C.3            1 S1                 0.0000
      9 ****         1.3761  -1.2405  -0.6626 C.3            1 S1                 0.0000
     10 ****         1.8804  -0.5817   0.4824 O.3            1 S1                 0.0000
     11 ****         1.8835  -2.6956  -0.6349 C.3            1 S1                 0.0000
     12 ****         1.4272  -3.4724  -1.7755 N.pl3          1 S1                 0.0000
     13 ****         0.4027  -4.3532  -1.6572 N.2            1 S1                 0.0000
     14 ****         0.2248  -4.8803  -2.8344 N.2            1 S1                 0.0000
     15 ****         1.1212  -4.3698  -3.7546 N.2            1 S1                 0.0000
     16 ****         1.8415  -3.5081  -3.0487 C.2            1 S1                 0.0000
     17 ****         2.9607  -2.6757  -3.5818 C.3            1 S1                 0.0000
     18 ****        -0.9674   1.0652   0.3449 C.ar           1 S1                 0.0000
     19 ****        -1.0129   0.8635   1.7356 C.ar           1 S1                 0.0000
     20 ****        -1.4256   1.9162   2.5790 C.ar           1 S1                 0.0000
     21 ****        -1.4667   1.6897   4.0799 C.3            1 S1                 0.0000
     22 ****        -2.4842   5.2004   2.3166 H              1 S1                 0.0000
     23 ****        -1.4610   4.5824   3.6114 H              1 S1                 0.0000
     24 ****        -3.1377   4.0339   3.4649 H              1 S1                 0.0000
     25 ****        -2.0230   4.3077   0.1910 H              1 S1                 0.0000
     26 ****        -0.5756   0.6685  -2.8135 H              1 S1                 0.0000
     27 ****        -0.6097  -1.6197   0.1535 H              1 S1                 0.0000
     28 ****        -0.5600  -1.6157  -1.5937 H              1 S1                 0.0000
     29 ****         1.7929  -0.7367  -1.5352 H              1 S1                 0.0000
     30 ****         1.5877   0.3169   0.4656 H              1 S1                 0.0000
     31 ****         2.9737  -2.7175  -0.6194 H              1 S1                 0.0000
     32 ****         1.5531  -3.1914   0.2795 H              1 S1                 0.0000
     33 ****         3.2568  -3.0270  -4.5707 H              1 S1                 0.0000
     34 ****         3.8264  -2.7339  -2.9218 H              1 S1                 0.0000
     35 ****         2.6471  -1.6350  -3.6630 H              1 S1                 0.0000
     36 ****        -0.7289  -0.0930   2.1490 H              1 S1                 0.0000
     37 ****        -1.1619   0.6749   4.3375 H              1 S1                 0.0000
     38 ****        -2.4758   1.8434   4.4627 H              1 S1                 0.0000
     39 ****        -0.7933   2.3800   4.5887 H              1 S1                 0.0000
     40 ****        -1.3854   3.0020  -2.2864 LP             1 S1                 0.0000
     41 ****         2.8799  -0.6109   0.4752 LP             1 S1                 0.0000
     42 ****         1.5397  -1.0319   1.3078 LP             1 S1                 0.0000
     43 ****        -0.1156  -4.5581  -0.8269 LP             1 S1                 0.0000
     44 ****        -0.4712  -5.5666  -3.0458 LP             1 S1                 0.0000
     45 ****         1.2066  -4.5968  -4.7248 LP             1 S1                 0.0000
@<TRIPOS>BOND
    1    1    2 1     
    2    1   22 1     
    3    1   23 1     
    4    1   24 1     
    5    2   20 ar    
    6    2    3 ar    
    7    3    4 ar    
    8    3   25 1     
    9    4   18 ar    
   10    4    5 1     
   11    5    6 2     
   12    6    7 1     
   13    6   26 1     
   14    7    8 1     
   15    7   18 1     
   16    8    9 1     
   17    8   27 1     
   18    8   28 1     
   19    9   10 1     
   20    9   11 1     
   21    9   29 1     
   22   10   30 1     
   23   11   12 1     
   24   11   31 1     
   25   11   32 1     
   26   12   16 1     
   27   12   13 1     
   28   13   14 2     
   29   14   15 1     
   30   15   16 2     
   31   16   17 1     
   32   17   33 1     
   33   17   34 1     
   34   17   35 1     
   35   18   19 ar    
   36   19   20 ar    
   37   19   36 1     
   38   20   21 1     
   39   21   37 1     
   40   21   38 1     
   41   21   39 1     
   42    5   40 1     
   43   10   41 1     
   44   10   42 1     
   45   13   43 1     
   46   14   44 1     
   47   15   45 1     
@<TRIPOS>SUBSTRUCTURE
      1 S1             1
@<TRIPOS>SET
LONE_PAIRS      STATIC     ATOMS    <user>   **** ""
6 40 41 42 43 44 45
DONOR_HYDROGENS      STATIC     ATOMS    <user>   **** ""
1 30
ATOM$BLUE        STATIC     ATOMS    COLORGROUP SYSTEM
6 40 41 42 43 44 45
ATOM$RED        STATIC     ATOMS    COLORGROUP SYSTEM
1 30
