#       Name:                AV-unprocessed.smi:403
#       Creating user name   scv26
#       Creation time:       Thu Mar 26 22:44:15 2020


#       File generated by GOLD software.
#

@<TRIPOS>MOLECULE
AV-unprocessed.smi:403
    52    53     1
SMALL
NO_CHARGES


@<TRIPOS>ATOM
      1 ****        -3.1876   4.9895   1.2569 C.3            1 S1                 0.0000
      2 ****        -3.1752   4.2887  -0.1123 C.3            1 S1                 0.0000
      3 ****        -4.5675   4.3559  -0.7584 C.3            1 S1                 0.0000
      4 ****        -2.6846   2.8287  -0.0250 C.3            1 S1                 0.0000
      5 ****        -1.1998   2.6882   0.3702 C.3            1 S1                 0.0000
      6 ****        -0.6896   1.2429   0.3538 C.2            1 S1                 0.0000
      7 ****        -1.4380   0.3065   0.0706 O.2            1 S1                 0.0000
      8 ****         0.6060   1.0781   0.6621 N.am           1 S1                 0.0000
      9 ****         1.3003  -0.2060   0.6991 C.3            1 S1                 0.0000
     10 ****         1.7994  -0.7138  -0.6565 C.ar           1 S1                 0.0000
     11 ****         1.9797   0.1718  -1.7453 C.ar           1 S1                 0.0000
     12 ****         2.4665  -0.3241  -2.9679 C.ar           1 S1                 0.0000
     13 ****         2.7651  -1.6946  -3.0597 C.ar           1 S1                 0.0000
     14 ****         2.6085  -2.5527  -2.0318 N.ar           1 S1                 0.0000
     15 ****         2.1385  -2.0799  -0.8514 C.ar           1 S1                 0.0000
     16 ****         1.9705  -3.0087   0.1906 N.3            1 S1                 0.0000
     17 ****         0.6584  -3.6430   0.1732 C.3            1 S1                 0.0000
     18 ****         0.4652  -4.4816   1.4483 C.3            1 S1                 0.0000
     19 ****         1.5257  -5.4267   1.5656 O.3            1 S1                 0.0000
     20 ****         2.8009  -4.7959   1.6513 C.3            1 S1                 0.0000
     21 ****         3.0532  -3.9681   0.3795 C.3            1 S1                 0.0000
     22 ****        -3.8236   4.4604   1.9673 H              1 S1                 0.0000
     23 ****        -3.5647   6.0089   1.1706 H              1 S1                 0.0000
     24 ****        -2.1886   5.0542   1.6868 H              1 S1                 0.0000
     25 ****        -2.4920   4.8365  -0.7627 H              1 S1                 0.0000
     26 ****        -5.3091   3.8312  -0.1551 H              1 S1                 0.0000
     27 ****        -4.5652   3.9038  -1.7507 H              1 S1                 0.0000
     28 ****        -4.9004   5.3880  -0.8711 H              1 S1                 0.0000
     29 ****        -3.3103   2.2758   0.6776 H              1 S1                 0.0000
     30 ****        -2.8316   2.3561  -0.9976 H              1 S1                 0.0000
     31 ****        -0.5827   3.2755  -0.3110 H              1 S1                 0.0000
     32 ****        -1.0360   3.0902   1.3700 H              1 S1                 0.0000
     33 ****         1.1509   1.8986   0.8840 H              1 S1                 0.0000
     34 ****         2.1632  -0.1015   1.3566 H              1 S1                 0.0000
     35 ****         0.6489  -0.9421   1.1713 H              1 S1                 0.0000
     36 ****         1.7561   1.2243  -1.6571 H              1 S1                 0.0000
     37 ****         2.6103   0.3312  -3.8141 H              1 S1                 0.0000
     38 ****         3.1415  -2.1129  -3.9816 H              1 S1                 0.0000
     39 ****        -0.1277  -2.8909   0.0963 H              1 S1                 0.0000
     40 ****         0.5778  -4.2806  -0.7084 H              1 S1                 0.0000
     41 ****         0.4344  -3.8421   2.3321 H              1 S1                 0.0000
     42 ****        -0.4842  -5.0155   1.4073 H              1 S1                 0.0000
     43 ****         2.8476  -4.1667   2.5416 H              1 S1                 0.0000
     44 ****         3.5694  -5.5612   1.7605 H              1 S1                 0.0000
     45 ****         3.1174  -4.6334  -0.4827 H              1 S1                 0.0000
     46 ****         4.0047  -3.4409   0.4556 H              1 S1                 0.0000
     47 ****        -2.3965   0.4826  -0.1538 LP             1 S1                 0.0000
     48 ****        -1.0872  -0.6300   0.0651 LP             1 S1                 0.0000
     49 ****         2.8350  -3.5209  -2.1381 LP             1 S1                 0.0000
     50 ****         2.0213  -2.4398   1.0115 LP             1 S1                 0.0000
     51 ****         1.5150  -6.0242   0.7638 LP             1 S1                 0.0000
     52 ****         1.3805  -5.9732   2.3904 LP             1 S1                 0.0000
@<TRIPOS>BOND
    1    1    2 1     
    2    1   22 1     
    3    1   23 1     
    4    1   24 1     
    5    2    3 1     
    6    2    4 1     
    7    2   25 1     
    8    3   26 1     
    9    3   27 1     
   10    3   28 1     
   11    4    5 1     
   12    4   29 1     
   13    4   30 1     
   14    5    6 1     
   15    5   31 1     
   16    5   32 1     
   17    6    7 2     
   18    6    8 am    
   19    8    9 1     
   20    8   33 1     
   21    9   10 1     
   22    9   34 1     
   23    9   35 1     
   24   10   15 ar    
   25   10   11 ar    
   26   11   12 ar    
   27   11   36 1     
   28   12   13 ar    
   29   12   37 1     
   30   13   14 ar    
   31   13   38 1     
   32   14   15 ar    
   33   15   16 1     
   34   16   21 1     
   35   16   17 1     
   36   17   18 1     
   37   17   39 1     
   38   17   40 1     
   39   18   19 1     
   40   18   41 1     
   41   18   42 1     
   42   19   20 1     
   43   20   21 1     
   44   20   43 1     
   45   20   44 1     
   46   21   45 1     
   47   21   46 1     
   48    7   47 1     
   49    7   48 1     
   50   14   49 1     
   51   16   50 1     
   52   19   51 1     
   53   19   52 1     
@<TRIPOS>SUBSTRUCTURE
      1 S1             1
@<TRIPOS>SET
LONE_PAIRS      STATIC     ATOMS    <user>   **** ""
6 47 48 49 50 51 52
DONOR_HYDROGENS      STATIC     ATOMS    <user>   **** ""
1 33
ATOM$BLUE        STATIC     ATOMS    COLORGROUP SYSTEM
6 47 48 49 50 51 52
ATOM$RED        STATIC     ATOMS    COLORGROUP SYSTEM
1 33
