AV-unprocessed.smi:2378|AV-procd|sdf|9450|dock1
  -GOLD-   2272013 83D 1   1.00000     0.00000
 Structure written by MMmdl.
 40 41  0  0  0  0  0  0  0  0  1 V2000
  146.2612  130.6525  151.7744 C   0  0  0  0  0  0  0  0  0  0  0  0
  145.6443  131.9776  151.3784 C   0  0  0  0  0  0  0  0  0  0  0  0
  144.4280  132.0266  150.6710 C   0  0  0  0  0  0  0  0  0  0  0  0
  143.9079  133.2892  150.3313 C   0  0  0  0  0  0  0  0  0  0  0  0
  144.5180  134.4499  150.6500 N   0  0  0  0  0  0  0  0  0  0  0  0
  145.6904  134.4159  151.3312 C   0  0  0  0  0  0  0  0  0  0  0  0
  146.4126  135.5762  151.7178 N   0  0  0  0  0  0  0  0  0  0  0  0
  145.9261  136.7679  152.1076 C   0  0  0  0  0  0  0  0  0  0  0  0
  144.7322  137.0590  152.1877 O   0  0  0  0  0  0  0  0  0  0  0  0
  146.9164  137.6232  152.4003 N   0  0  0  0  0  0  0  0  0  0  0  0
  146.7312  139.0020  152.8384 C   0  0  0  0  0  0  0  0  0  0  0  0
  147.2407  139.2095  154.2748 C   0  0  0  0  0  0  0  0  0  0  0  0
  148.7645  139.3943  154.3479 C   0  0  1  0  0  0  0  0  0  0  0  0
  149.1797  140.2824  155.5371 C   0  0  0  0  0  0  0  0  0  0  0  0
  150.7064  140.3845  155.6256 C   0  0  0  0  0  0  0  0  0  0  0  0
  151.3163  138.9793  155.6510 C   0  0  0  0  0  0  0  0  0  0  0  0
  150.7943  138.1491  154.4675 C   0  0  0  0  0  0  0  0  0  0  0  0
  149.3707  138.1110  154.4913 O   0  0  0  0  0  0  0  0  0  0  0  0
  146.2819  133.1899  151.7115 C   0  0  0  0  0  0  0  0  0  0  0  0
  145.5755  129.8253  151.5880 H   0  0  0  0  0  0  0  0  0  0  0  0
  146.5127  130.6530  152.8353 H   0  0  0  0  0  0  0  0  0  0  0  0
  147.1732  130.4757  151.2039 H   0  0  0  0  0  0  0  0  0  0  0  0
  143.9039  131.1238  150.3934 H   0  0  0  0  0  0  0  0  0  0  0  0
  142.9774  133.3696  149.7888 H   0  0  0  0  0  0  0  0  0  0  0  0
  147.4178  135.4893  151.6929 H   0  0  0  0  0  0  0  0  0  0  0  0
  147.8682  137.3004  152.3070 H   0  0  0  0  0  0  0  0  0  0  0  0
  147.2306  139.6847  152.1488 H   0  0  0  0  0  0  0  0  0  0  0  0
  145.6671  139.2320  152.7846 H   0  0  0  0  0  0  0  0  0  0  0  0
  146.7536  140.0886  154.6987 H   0  0  0  0  0  0  0  0  0  0  0  0
  146.9472  138.3649  154.8997 H   0  0  0  0  0  0  0  0  0  0  0  0
  149.1078  139.8524  153.4184 H   0  0  0  0  0  0  0  0  0  0  0  0
  148.7458  141.2776  155.4373 H   0  0  0  0  0  0  0  0  0  0  0  0
  148.7887  139.8627  156.4648 H   0  0  0  0  0  0  0  0  0  0  0  0
  151.0880  140.9361  154.7655 H   0  0  0  0  0  0  0  0  0  0  0  0
  151.0001  140.9440  156.5142 H   0  0  0  0  0  0  0  0  0  0  0  0
  152.4046  139.0389  155.6217 H   0  0  0  0  0  0  0  0  0  0  0  0
  151.0542  138.4835  156.5866 H   0  0  0  0  0  0  0  0  0  0  0  0
  151.1420  138.5613  153.5189 H   0  0  0  0  0  0  0  0  0  0  0  0
  151.1742  137.1292  154.5287 H   0  0  0  0  0  0  0  0  0  0  0  0
  147.2165  133.1764  152.2537 H   0  0  0  0  0  0  0  0  0  0  0  0
  1  2  1  0  0  0  0
  1 20  1  0  0  0  0
  1 21  1  0  0  0  0
  1 22  1  0  0  0  0
  2 19  1  0  0  0  0
  2  3  2  0  0  0  0
  3  4  1  0  0  0  0
  3 23  1  0  0  0  0
  4  5  2  0  0  0  0
  4 24  1  0  0  0  0
  5  6  1  0  0  0  0
  6  7  1  0  0  0  0
  6 19  2  0  0  0  0
  7  8  1  0  0  0  0
  7 25  1  0  0  0  0
  8  9  2  0  0  0  0
  8 10  1  0  0  0  0
 10 11  1  0  0  0  0
 10 26  1  0  0  0  0
 11 12  1  0  0  0  0
 11 27  1  0  0  0  0
 11 28  1  0  0  0  0
 12 13  1  0  0  0  0
 12 29  1  0  0  0  0
 12 30  1  0  0  0  0
 13 18  1  0  0  0  0
 13 14  1  0  0  0  0
 13 31  1  0  0  0  0
 14 15  1  0  0  0  0
 14 32  1  0  0  0  0
 14 33  1  0  0  0  0
 15 16  1  0  0  0  0
 15 34  1  0  0  0  0
 15 35  1  0  0  0  0
 16 17  1  0  0  0  0
 16 36  1  0  0  0  0
 16 37  1  0  0  0  0
 17 18  1  0  0  0  0
 17 38  1  0  0  0  0
 17 39  1  0  0  0  0
 19 40  1  0  0  0  0
M  END
> <s_m_source_file>
AV-unprocessed.smi

> <i_m_source_file_index>
2378

> <i_lp_mmshare_version>
43012

> <i_f3d_flags>
0

> <s_epik_input>
W0NIM11jMVtjSF1bY0hdbmMoW2NIXTEpW05IXUMoPU8pW05IXVtDSDJdW0NIMl1bQ0BASF0yW0NIMl1bQ0gyXVtDSDJdW0NIMl1PMg==

> <s_epik_cmdline>
J2VwaWtfcHl0aG9uJywgJy1waCcsICc3LjAnLCAnLXRuJywgJzgnLCAnLW1hJywgJzIwMCcsICctbWV0YWxfYmluZGluZycsICctaW1hZScsICc8aW5maWxlLm1hZT4nLCAnLW9tYWUnLCAnPG91dGZpbGUubWFlPic=

> <r_lp_tautomer_probability>
1

> <r_epik_Ionization_Penalty>
8.60919e-05

> <r_epik_Ionization_Penalty_Charging>
0

> <r_epik_Ionization_Penalty_Neutral>
8.60919e-05

> <r_epik_State_Penalty>
-0

> <r_epik_Charging_Adjusted_Penalty>
0

> <i_epik_Tot_Q>
0

> <i_epik_Tot_abs_Q>
0

> <r_epik_Metal_State_Penalty>
-0

> <b_epik_Metal_Only>
0

> <s_lp_Force_Field>
OPLS_2005

> <r_lp_Energy>
10.7522

> <b_lp_Chiralities_Consistent>
1

> <s_lp_Variant>
AV-unprocessed.smi:2378-2

> <Gold.Version>
5.8.1

> <Gold.Id.Protein>
6NUR|6NUR_protein|mol2

> <Gold.PLP.Fitness>
39.5376

> <Gold.PLP.PLP>
-31.9991

> <Gold.PLP.part.hbond>
-1.9701

> <Gold.PLP.part.metal>
0.0000

> <Gold.PLP.part.buried>
-3.2809

> <Gold.PLP.part.nonpolar>
-28.1683

> <Gold.PLP.part.repulsive>
1.2779

> <Gold.PLP.ligand.clash>
0.0000

> <Gold.PLP.ligand.torsion>
0.7262

> <Gold.PLP.Chemscore.Hbond>
1.9920

> <Gold.PLP.Chemscore.CHOScore>
1.0000

> <Gold.PLP.Chemscore.Metal>
0.0000

> <Gold.Chemscore.Hbonds>
donor molecule, donor type, donor heavy atom, donor atom, acceptor molecule, acceptor atom, score
      L1  H     7    25       P1  7948  0.99
      L1  H    10    26       P1  7948  1.00
      L1  C     4    24       P1 10186  1.00

> <Gold.PLP.Chemscore.Internal.Correction>
0.0148

> <Gold.Rescore>
     Score         DG    S(hbond)    S(metal)    S(lipo)     H(rot)  DE(clash)    DE(int)     intcor
     16.09     -17.70       1.93        0.00      80.53       1.42       0.15       1.47       ----

> <Gold.Chemscore.Fitness>
16.0857

> <Gold.Chemscore.DG>
-17.6972

> <Gold.Chemscore.ZeroCoef>
-5.4800

> <Gold.Chemscore.Hbond>
1.9289

> <Gold.Chemscore.Metal>
0.0000

> <Gold.Chemscore.Lipo>
80.5324

> <Gold.Chemscore.Internal_Hbond>
0.0000

> <Gold.Chemscore.DEClash>
0.1457

> <Gold.Chemscore.DEInternal>
1.4658

> <Gold.Chemscore.Rot>
1.4248

> <Gold.Chemscore.Internal.Correction>
   9.000000E+99

> <Gold.Chemscore.Hbonds>
donor molecule, donor type, donor heavy atom, donor atom, acceptor molecule, acceptor atom, score
      L1  H     7    25       P1  7948  0.93
      L1  H    10    26       P1  7948  0.94

> <Gold.Chemscore.Hbond.Weighted>
-6.4425

> <Gold.Chemscore.Metal.Weighted>
-0.0000

> <Gold.Chemscore.Lipo.Weighted>
-9.4223

> <Gold.Chemscore.Internal_Hbond.Weighted>
0.0000

> <Gold.Chemscore.DEClash.Weighted>
0.1457

> <Gold.Chemscore.DEInternal.Weighted>
1.4658

> <Gold.Chemscore.Rot.Weighted>
3.6476

> <Gold.Chemscore.Internal.Correction.Weighted>
   9.000000E+99

> <Gold.Protein.RotatedTorsions>
[ 6907 6896 6895 6894 ] final -133.89 input  -60.11 | X-H torsion
[ 7974 7965 7964 7962 ] final  101.08 input  175.53 | X-H torsion
[ 8008 7997 7996 7995 ] final    8.06 input   59.86 | X-H torsion
[ 10167 10162 10161 10158 ] final  113.18 input  -65.29 | X-H torsion
[ 10718 10713 10712 10709 ] final -116.34 input   66.30 | X-H torsion
[ 10763 10752 10751 10750 ] final  -30.57 input  -60.55 | X-H torsion
[ 11005 11000 10999 10996 ] final    0.21 input  -57.11 | X-H torsion

> <Gold.Protein.ActiveResidues>
 VAL166  LYS551  ARG553  GLY616  TRP617  ASP618  TYR619  PRO620  LYS621  CYS622 
 ASP623  PHE694  ASN695  SER759  ASP760  ASP761  ALA762  ILE779  LEU786  VAL792 
 PHE793  MET794  SER795  GLU796  ALA797  LYS798  CYS799  TRP800  GLU811  SER814 

> <Gold.Protein.RotatedAtoms>
  150.9794  133.6261  159.2724 H   0  0  0  0  0  0  0  0  0  0  0  0  # atno 6907 bound_to 6896
  151.3521  135.0885  159.9416 H   0  0  0  0  0  0  0  0  0  0  0  0  # atno 6908 bound_to 6896
  152.5210  133.9384  159.7669 H   0  0  0  0  0  0  0  0  0  0  0  0  # atno 6909 bound_to 6896
  145.3771  139.2387  143.3424 H   0  0  0  0  0  0  0  0  0  0  0  0  # atno 7974 bound_to 7965
  154.7619  140.2786  155.6207 H   0  0  0  0  0  0  0  0  0  0  0  0  # atno 8008 bound_to 7997
  156.2917  140.2658  156.2327 H   0  0  0  0  0  0  0  0  0  0  0  0  # atno 8009 bound_to 7997
  155.0006  140.0373  157.2348 H   0  0  0  0  0  0  0  0  0  0  0  0  # atno 8010 bound_to 7997
  139.6480  144.7127  151.2104 H   0  0  0  0  0  0  0  0  0  0  0  0  # atno 10167 bound_to 10162
  156.0957  130.6130  150.9023 H   0  0  0  0  0  0  0  0  0  0  0  0  # atno 10718 bound_to 10713
  153.7831  135.6903  153.4885 H   0  0  0  0  0  0  0  0  0  0  0  0  # atno 10763 bound_to 10752
  153.1799  135.4510  155.0012 H   0  0  0  0  0  0  0  0  0  0  0  0  # atno 10764 bound_to 10752
  154.8074  135.3362  154.7332 H   0  0  0  0  0  0  0  0  0  0  0  0  # atno 10765 bound_to 10752
  140.6290  133.9592  155.8264 H   0  0  0  0  0  0  0  0  0  0  0  0  # atno 11005 bound_to 11000
  146.2859  140.4432  142.8758 LP  0  0  0  0  0  0  0  0  0  0  0  0  # atno 17320 bound_to 7965
  144.8534  140.7035  143.6153 LP  0  0  0  0  0  0  0  0  0  0  0  0  # atno 17321 bound_to 7965
  140.7524  143.6198  150.8524 LP  0  0  0  0  0  0  0  0  0  0  0  0  # atno 17342 bound_to 10162
  139.9843  143.5917  152.2932 LP  0  0  0  0  0  0  0  0  0  0  0  0  # atno 17343 bound_to 10162
  157.6117  131.0936  150.8783 LP  0  0  0  0  0  0  0  0  0  0  0  0  # atno 17370 bound_to 10713
  156.8922  130.5217  149.5286 LP  0  0  0  0  0  0  0  0  0  0  0  0  # atno 17371 bound_to 10713
  141.0688  134.0236  157.3555 LP  0  0  0  0  0  0  0  0  0  0  0  0  # atno 17394 bound_to 11000
  139.9123  135.0192  156.7742 LP  0  0  0  0  0  0  0  0  0  0  0  0  # atno 17395 bound_to 11000

$$$$
