#       Name:                AV-unprocessed.smi:2090
#       Creating user name   scv26
#       Creation time:       Fri Mar 27 11:25:53 2020


#       File generated by GOLD software.
#

@<TRIPOS>MOLECULE
AV-unprocessed.smi:2090
    47    48     1
SMALL
NO_CHARGES


@<TRIPOS>ATOM
      1 ****        -6.2817   5.2390   1.6758 C.3            1 S1                 0.0000
      2 ****        -5.0383   4.4485   1.4519 C.2            1 S1                 0.0000
      3 ****        -4.4654   3.4077   2.1265 C.2            1 S1                 0.0000
      4 ****        -3.2928   3.1410   1.3705 C.2            1 S1                 0.0000
      5 ****        -2.4045   2.1020   1.7551 N.am           1 S1                 0.0000
      6 ****        -1.2502   1.7230   1.1768 C.2            1 S1                 0.0000
      7 ****        -0.8329   2.3087   0.1704 O.2            1 S1                 0.0000
      8 ****        -0.6691   0.6744   1.8236 N.pl3          1 S1                -1.0000
      9 ****         0.6064   0.0667   1.4477 C.3            1 S1                 0.0000
     10 ****         0.4033  -0.9321   0.2898 C.3            1 S1                 0.0000
     11 ****         1.6826  -1.5684  -0.1220 N.4            1 S1                 1.0000
     12 ****         2.3609  -0.8639  -1.2454 C.3            1 S1                 0.0000
     13 ****         3.7483  -1.4692  -1.5231 C.3            1 S1                 0.0000
     14 ****         3.6781  -2.9824  -1.7991 C.3            1 S1                 0.0000
     15 ****         3.1062  -3.3082  -3.1900 C.3            1 S1                 0.0000
     16 ****         2.9070  -3.6761  -0.6612 C.3            1 S1                 0.0000
     17 ****         1.5388  -3.0214  -0.3986 C.3            1 S1                 0.0000
     18 ****        -3.1635   3.9469   0.3268 N.2            1 S1                 0.0000
     19 ****        -4.2805   4.7893   0.3745 O.3            1 S1                 0.0000
     20 ****        -7.0303   4.6442   2.1994 H              1 S1                 0.0000
     21 ****        -6.7125   5.5650   0.7290 H              1 S1                 0.0000
     22 ****        -6.0723   6.1247   2.2759 H              1 S1                 0.0000
     23 ****        -4.8276   2.9178   3.0181 H              1 S1                 0.0000
     24 ****        -2.6752   1.5791   2.5747 H              1 S1                 0.0000
     25 ****         1.3451   0.8135   1.1539 H              1 S1                 0.0000
     26 ****         1.0520  -0.4620   2.2906 H              1 S1                 0.0000
     27 ****        -0.3015  -1.6955   0.6237 H              1 S1                 0.0000
     28 ****        -0.0644  -0.4509  -0.5708 H              1 S1                 0.0000
     29 ****         1.7375  -0.9129  -2.1391 H              1 S1                 0.0000
     30 ****         2.4771   0.1940  -1.0083 H              1 S1                 0.0000
     31 ****         4.2213  -0.9527  -2.3592 H              1 S1                 0.0000
     32 ****         4.3894  -1.2931  -0.6581 H              1 S1                 0.0000
     33 ****         4.6986  -3.3673  -1.7881 H              1 S1                 0.0000
     34 ****         2.0792  -2.9624  -3.3052 H              1 S1                 0.0000
     35 ****         3.1137  -4.3831  -3.3726 H              1 S1                 0.0000
     36 ****         3.7010  -2.8404  -3.9751 H              1 S1                 0.0000
     37 ****         2.7789  -4.7363  -0.8824 H              1 S1                 0.0000
     38 ****         3.5011  -3.6286   0.2527 H              1 S1                 0.0000
     39 ****         1.0730  -3.5117   0.4570 H              1 S1                 0.0000
     40 ****         0.8704  -3.1690  -1.2479 H              1 S1                 0.0000
     41 ****         2.2918  -1.4966   0.6804 H              1 S1                 0.0000
     42 ****        -1.3541   3.0686  -0.2180 LP             1 S1                 0.0000
     43 ****         0.0257   2.0223  -0.2548 LP             1 S1                 0.0000
     44 ****        -1.1499   0.2925   2.6129 LP             1 S1                 0.0000
     45 ****        -2.4267   3.9522  -0.3493 LP             1 S1                 0.0000
     46 ****        -3.9817   5.7397   0.4604 LP             1 S1                 0.0000
     47 ****        -4.8180   4.6831  -0.4620 LP             1 S1                 0.0000
@<TRIPOS>BOND
    1    1    2 1     
    2    1   20 1     
    3    1   21 1     
    4    1   22 1     
    5    2   19 1     
    6    2    3 2     
    7    3    4 1     
    8    3   23 1     
    9    4    5 1     
   10    4   18 2     
   11    5    6 am    
   12    5   24 1     
   13    6    7 2     
   14    6    8 1     
   15    8    9 1     
   16    9   10 1     
   17    9   25 1     
   18    9   26 1     
   19   10   11 1     
   20   10   27 1     
   21   10   28 1     
   22   11   17 1     
   23   11   12 1     
   24   11   41 1     
   25   12   13 1     
   26   12   29 1     
   27   12   30 1     
   28   13   14 1     
   29   13   31 1     
   30   13   32 1     
   31   14   15 1     
   32   14   16 1     
   33   14   33 1     
   34   15   34 1     
   35   15   35 1     
   36   15   36 1     
   37   16   17 1     
   38   16   37 1     
   39   16   38 1     
   40   17   39 1     
   41   17   40 1     
   42   18   19 1     
   43    7   42 1     
   44    7   43 1     
   45    8   44 1     
   46   18   45 1     
   47   19   46 1     
   48   19   47 1     
@<TRIPOS>SUBSTRUCTURE
      1 S1             1
@<TRIPOS>SET
LONE_PAIRS      STATIC     ATOMS    <user>   **** ""
6 42 43 44 45 46 47
DONOR_HYDROGENS      STATIC     ATOMS    <user>   **** ""
2 24 41
ATOM$BLUE        STATIC     ATOMS    COLORGROUP SYSTEM
6 42 43 44 45 46 47
ATOM$RED        STATIC     ATOMS    COLORGROUP SYSTEM
2 24 41
