AV-unprocessed.smi:297|AV-procd|sdf|2260|dock8
  -GOLD-   2262022143D 1   1.00000     0.00000
 Structure written by MMmdl.
 29 30  0  0  0  0  0  0  0  0  1 V2000
  150.9289  145.4941  159.7588 N   0  0  0  0  0  0  0  0  0  0  0  0
  151.2744  144.4050  159.5743 C   0  0  0  0  0  0  0  0  0  0  0  0
  151.7089  143.0357  159.3425 C   0  0  0  0  0  0  0  0  0  0  0  0
  151.3215  142.4654  158.1801 N   0  0  0  0  0  0  0  0  0  0  0  0
  151.6951  141.1926  157.9000 C   0  0  0  0  0  0  0  0  0  0  0  0
  151.2768  140.6258  156.6765 N   0  0  0  0  0  0  0  0  0  0  0  0
  152.3445  140.1741  155.7889 C   0  0  0  0  0  0  0  0  0  0  0  0
  151.7670  139.2988  154.6653 C   0  0  0  0  0  0  0  0  0  0  0  0
  150.7466  140.0135  153.9775 O   0  0  0  0  0  0  0  0  0  0  0  0
  149.6519  140.3512  154.8300 C   0  0  2  0  0  0  0  0  0  0  0  0
  148.5586  141.0284  153.9904 C   0  0  0  0  0  0  0  0  0  0  0  0
  147.9828  140.2984  153.0309 N   0  0  0  0  0  0  0  0  0  0  0  0
  148.2195  142.1897  154.2114 O   0  0  0  0  0  0  0  0  0  0  0  0
  150.1619  141.2581  155.9726 C   0  0  0  0  0  0  0  0  0  0  0  0
  152.4778  140.4375  158.8041 C   0  0  0  0  0  0  0  0  0  0  0  0
  152.8834  141.0269  160.0157 C   0  0  0  0  0  0  0  0  0  0  0  0
  152.4979  142.3508  160.2974 C   0  0  0  0  0  0  0  0  0  0  0  0
  152.9935  143.0812  161.7861 Cl  0  0  0  0  0  0  0  0  0  0  0  0
  152.8412  141.0471  155.3636 H   0  0  0  0  0  0  0  0  0  0  0  0
  153.1046  139.6068  156.3241 H   0  0  0  0  0  0  0  0  0  0  0  0
  152.5515  139.0325  153.9571 H   0  0  0  0  0  0  0  0  0  0  0  0
  151.3678  138.3649  155.0646 H   0  0  0  0  0  0  0  0  0  0  0  0
  149.2265  139.4364  155.2463 H   0  0  0  0  0  0  0  0  0  0  0  0
  147.2545  140.7046  152.4612 H   0  0  0  0  0  0  0  0  0  0  0  0
  148.2726  139.3425  152.8837 H   0  0  0  0  0  0  0  0  0  0  0  0
  149.3483  141.4521  156.6733 H   0  0  0  0  0  0  0  0  0  0  0  0
  150.4884  142.2212  155.5762 H   0  0  0  0  0  0  0  0  0  0  0  0
  152.7575  139.4166  158.5917 H   0  0  0  0  0  0  0  0  0  0  0  0
  153.4804  140.4674  160.7207 H   0  0  0  0  0  0  0  0  0  0  0  0
  1  2  3  0  0  0  0
  2  3  1  0  0  0  0
  3 17  1  0  0  0  0
  3  4  2  0  0  0  0
  4  5  1  0  0  0  0
  5  6  1  0  0  0  0
  5 15  2  0  0  0  0
  6 14  1  0  0  0  0
  6  7  1  0  0  0  0
  7  8  1  0  0  0  0
  7 19  1  0  0  0  0
  7 20  1  0  0  0  0
  8  9  1  0  0  0  0
  8 21  1  0  0  0  0
  8 22  1  0  0  0  0
  9 10  1  0  0  0  0
 10 11  1  0  0  0  0
 10 14  1  0  0  0  0
 10 23  1  0  0  0  0
 11 12  1  0  0  0  0
 11 13  2  0  0  0  0
 12 24  1  0  0  0  0
 12 25  1  0  0  0  0
 14 26  1  0  0  0  0
 14 27  1  0  0  0  0
 15 16  1  0  0  0  0
 15 28  1  0  0  0  0
 16 17  2  0  0  0  0
 16 29  1  0  0  0  0
 17 18  1  0  0  0  0
M  END
> <s_m_source_file>
AV-unprocessed.smi

> <i_m_source_file_index>
297

> <i_lp_mmshare_version>
43012

> <i_f3d_flags>
0

> <s_epik_input>
TiNDYzFuYyhbY0hdW2NIXWMxQ2wpTjJbQ0gyXVtDSDJdT1tDQEhdKFtDSDJdMilDKD1PKVtOSDJd

> <s_epik_cmdline>
J2VwaWtfcHl0aG9uJywgJy1waCcsICc3LjAnLCAnLXRuJywgJzgnLCAnLW1hJywgJzIwMCcsICctbWV0YWxfYmluZGluZycsICctaW1hZScsICc8aW5maWxlLm1hZT4nLCAnLW9tYWUnLCAnPG91dGZpbGUubWFlPic=

> <r_lp_tautomer_probability>
1

> <r_epik_Ionization_Penalty>
8.82403e-08

> <r_epik_Ionization_Penalty_Charging>
0

> <r_epik_Ionization_Penalty_Neutral>
8.82403e-08

> <r_epik_State_Penalty>
-0

> <r_epik_Charging_Adjusted_Penalty>
0

> <i_epik_Tot_Q>
0

> <i_epik_Tot_abs_Q>
0

> <r_epik_Metal_State_Penalty>
-0

> <b_epik_Metal_Only>
0

> <s_lp_Force_Field>
OPLS_2005

> <r_lp_Energy>
18.7144

> <b_lp_Chiralities_Consistent>
1

> <s_lp_Variant>
AV-unprocessed.smi:297-2

> <Gold.Version>
5.8.1

> <Gold.Id.Protein>
6NUR|6NUR_protein|mol2

> <Gold.PLP.Fitness>
41.2455

> <Gold.PLP.PLP>
-38.3459

> <Gold.PLP.part.hbond>
-4.0000

> <Gold.PLP.part.metal>
0.0000

> <Gold.PLP.part.buried>
-4.6619

> <Gold.PLP.part.nonpolar>
-30.5231

> <Gold.PLP.part.repulsive>
2.1238

> <Gold.PLP.ligand.clash>
0.0000

> <Gold.PLP.ligand.torsion>
0.2716

> <Gold.PLP.Chemscore.Hbond>
1.0302

> <Gold.PLP.Chemscore.CHOScore>
0.0000

> <Gold.PLP.Chemscore.Metal>
0.0000

> <Gold.Chemscore.Hbonds>
donor molecule, donor type, donor heavy atom, donor atom, acceptor molecule, acceptor atom, score
      P1  H  7989  7998       L1     9  0.27

> <Gold.PLP.Chemscore.Internal.Correction>
0.3522

> <Gold.Rescore>
     Score         DG    S(hbond)    S(metal)    S(lipo)     H(rot)  DE(clash)    DE(int)     intcor
     13.10     -15.25       1.49        0.00      73.75       1.50       1.93       0.22       ----

> <Gold.Chemscore.Fitness>
13.0959

> <Gold.Chemscore.DG>
-15.2526

> <Gold.Chemscore.ZeroCoef>
-5.4800

> <Gold.Chemscore.Hbond>
1.4925

> <Gold.Chemscore.Metal>
0.0000

> <Gold.Chemscore.Lipo>
73.7542

> <Gold.Chemscore.Internal_Hbond>
0.0000

> <Gold.Chemscore.DEClash>
1.9332

> <Gold.Chemscore.DEInternal>
0.2235

> <Gold.Chemscore.Rot>
1.5006

> <Gold.Chemscore.Internal.Correction>
   9.000000E+99

> <Gold.Chemscore.Hbonds>
donor molecule, donor type, donor heavy atom, donor atom, acceptor molecule, acceptor atom, score
      P1  H  7989  7998       L1     9  0.02

> <Gold.Chemscore.Hbond.Weighted>
-4.9849

> <Gold.Chemscore.Metal.Weighted>
-0.0000

> <Gold.Chemscore.Lipo.Weighted>
-8.6292

> <Gold.Chemscore.Internal_Hbond.Weighted>
0.0000

> <Gold.Chemscore.DEClash.Weighted>
1.9332

> <Gold.Chemscore.DEInternal.Weighted>
0.2235

> <Gold.Chemscore.Rot.Weighted>
3.8416

> <Gold.Chemscore.Internal.Correction.Weighted>
   9.000000E+99

> <Gold.Protein.RotatedTorsions>
[ 6907 6896 6895 6894 ] final  -59.08 input  -60.11 | X-H torsion
[ 7974 7965 7964 7962 ] final  -66.62 input  175.53 | X-H torsion
[ 8008 7997 7996 7995 ] final  -55.01 input   59.86 | X-H torsion
[ 10167 10162 10161 10158 ] final  -87.73 input  -65.29 | X-H torsion
[ 10718 10713 10712 10709 ] final -177.19 input   66.30 | X-H torsion
[ 10763 10752 10751 10750 ] final  -46.46 input  -60.55 | X-H torsion
[ 11005 11000 10999 10996 ] final  -68.49 input  -57.11 | X-H torsion

> <Gold.Protein.ActiveResidues>
 VAL166  LYS551  ARG553  GLY616  TRP617  ASP618  TYR619  PRO620  LYS621  CYS622 
 ASP623  PHE694  ASN695  SER759  ASP760  ASP761  ALA762  ILE779  LEU786  VAL792 
 PHE793  MET794  SER795  GLU796  ALA797  LYS798  CYS799  TRP800  GLU811  SER814 

> <Gold.Protein.RotatedAtoms>
  150.7957  134.7015  159.6552 H   0  0  0  0  0  0  0  0  0  0  0  0  # atno 6907 bound_to 6896
  152.4069  134.6188  160.0055 H   0  0  0  0  0  0  0  0  0  0  0  0  # atno 6908 bound_to 6896
  151.6442  133.3287  159.3173 H   0  0  0  0  0  0  0  0  0  0  0  0  # atno 6909 bound_to 6896
  145.7395  140.8960  143.0537 H   0  0  0  0  0  0  0  0  0  0  0  0  # atno 7974 bound_to 7965
  154.4181  140.1163  156.5408 H   0  0  0  0  0  0  0  0  0  0  0  0  # atno 8008 bound_to 7997
  155.6510  140.3496  155.4729 H   0  0  0  0  0  0  0  0  0  0  0  0  # atno 8009 bound_to 7997
  155.9792  140.1157  157.0731 H   0  0  0  0  0  0  0  0  0  0  0  0  # atno 8010 bound_to 7997
  140.3815  143.2746  151.9377 H   0  0  0  0  0  0  0  0  0  0  0  0  # atno 10167 bound_to 10162
  156.8258  130.9636  151.3109 H   0  0  0  0  0  0  0  0  0  0  0  0  # atno 10718 bound_to 10713
  154.0454  135.6638  153.4794 H   0  0  0  0  0  0  0  0  0  0  0  0  # atno 10763 bound_to 10752
  153.0485  135.5099  154.7802 H   0  0  0  0  0  0  0  0  0  0  0  0  # atno 10764 bound_to 10752
  154.6792  135.3042  154.9603 H   0  0  0  0  0  0  0  0  0  0  0  0  # atno 10765 bound_to 10752
  141.1533  133.6742  156.6454 H   0  0  0  0  0  0  0  0  0  0  0  0  # atno 11005 bound_to 11000
  144.6874  139.9440  143.7476 LP  0  0  0  0  0  0  0  0  0  0  0  0  # atno 17320 bound_to 7965
  146.0462  139.3467  143.0667 LP  0  0  0  0  0  0  0  0  0  0  0  0  # atno 17321 bound_to 7965
  139.4795  144.5813  151.7927 LP  0  0  0  0  0  0  0  0  0  0  0  0  # atno 17342 bound_to 10162
  140.4932  144.1279  150.5954 LP  0  0  0  0  0  0  0  0  0  0  0  0  # atno 17343 bound_to 10162
  157.6433  130.8823  149.9489 LP  0  0  0  0  0  0  0  0  0  0  0  0  # atno 17370 bound_to 10713
  156.0962  130.3659  150.0302 LP  0  0  0  0  0  0  0  0  0  0  0  0  # atno 17371 bound_to 10713
  140.3361  134.7888  157.4363 LP  0  0  0  0  0  0  0  0  0  0  0  0  # atno 17394 bound_to 11000
  140.0976  134.5515  155.8383 LP  0  0  0  0  0  0  0  0  0  0  0  0  # atno 17395 bound_to 11000

$$$$
