AV-unprocessed.smi:562|AV-procd|sdf|2945|dock1
  -GOLD-   2262023443D 1   1.00000     0.00000
 Structure written by MMmdl.
 40 42  0  0  0  0  0  0  0  0  2 V2000
  147.5763  141.2669  153.5715 C   0  0  0  0  0  0  0  0  0  0  0  0
  148.6619  141.9966  154.1131 O   0  0  0  0  0  0  0  0  0  0  0  0
  148.9842  141.5958  155.4347 C   0  0  0  0  0  0  0  0  0  0  0  0
  150.2115  142.3777  155.9228 C   0  0  0  0  0  0  0  0  0  0  0  0
  151.0410  141.5867  156.8285 N   0  0  0  0  0  0  0  0  0  0  0  0
  151.4345  141.8979  158.0910 C   0  0  0  0  0  0  0  0  0  0  0  0
  151.0480  143.1040  158.7133 N   0  0  0  0  0  0  0  0  0  0  0  0
  149.8847  143.1766  159.3967 N   0  0  0  0  0  0  0  0  0  0  0  0
  149.8238  144.4242  159.8317 C   0  0  0  0  0  0  0  0  0  0  0  0
  148.6494  144.8615  160.6565 C   0  0  0  0  0  0  0  0  0  0  0  0
  150.9474  145.1940  159.4199 C   0  0  0  0  0  0  0  0  0  0  0  0
  151.7082  144.3194  158.6963 C   0  0  0  0  0  0  0  0  0  0  0  0
  153.0071  144.5286  157.9879 C   0  0  0  0  0  0  0  0  0  0  0  0
  152.1737  140.9668  158.6971 N   0  0  0  0  0  0  0  0  0  0  0  0
  152.2620  139.9737  157.7324 C   0  0  0  0  0  0  0  0  0  0  0  0
  151.5851  140.3190  156.6039 C   0  0  0  0  0  0  0  0  0  0  0  0
  151.4758  139.4527  155.4102 C   0  0  0  0  0  0  0  0  0  0  0  0
  150.8403  139.8121  154.4211 O   0  0  0  0  0  0  0  0  0  0  0  0
  152.1421  138.2657  155.5712 N   0  5  0  0  0  0  0  0  0  0  0  0
  152.8405  137.8743  156.6937 C   0  0  0  0  0  0  0  0  0  0  0  0
  153.4087  136.7833  156.7578 O   0  0  0  0  0  0  0  0  0  0  0  0
  152.9123  138.7102  157.7774 N   0  0  0  0  0  0  0  0  0  0  0  0
  153.6434  138.3178  158.9857 C   0  0  0  0  0  0  0  0  0  0  0  0
  147.3750  141.6114  152.5571 H   0  0  0  0  0  0  0  0  0  0  0  0
  146.6709  141.4124  154.1620 H   0  0  0  0  0  0  0  0  0  0  0  0
  147.8006  140.2003  153.5280 H   0  0  0  0  0  0  0  0  0  0  0  0
  148.1363  141.7740  156.0977 H   0  0  0  0  0  0  0  0  0  0  0  0
  149.1957  140.5258  155.4562 H   0  0  0  0  0  0  0  0  0  0  0  0
  150.8177  142.7062  155.0797 H   0  0  0  0  0  0  0  0  0  0  0  0
  149.8903  143.2928  156.4168 H   0  0  0  0  0  0  0  0  0  0  0  0
  148.7128  145.9220  160.9007 H   0  0  0  0  0  0  0  0  0  0  0  0
  148.6008  144.3075  161.5942 H   0  0  0  0  0  0  0  0  0  0  0  0
  147.7123  144.7000  160.1230 H   0  0  0  0  0  0  0  0  0  0  0  0
  151.1609  146.2332  159.6215 H   0  0  0  0  0  0  0  0  0  0  0  0
  153.5042  145.4304  158.3451 H   0  0  0  0  0  0  0  0  0  0  0  0
  152.8476  144.6330  156.9147 H   0  0  0  0  0  0  0  0  0  0  0  0
  153.6843  143.6894  158.1469 H   0  0  0  0  0  0  0  0  0  0  0  0
  154.6843  138.0938  158.7486 H   0  0  0  0  0  0  0  0  0  0  0  0
  153.1947  137.4282  159.4293 H   0  0  0  0  0  0  0  0  0  0  0  0
  153.6452  139.0963  159.7478 H   0  0  0  0  0  0  0  0  0  0  0  0
  1  2  1  0  0  0  0
  1 24  1  0  0  0  0
  1 25  1  0  0  0  0
  1 26  1  0  0  0  0
  2  3  1  0  0  0  0
  3  4  1  0  0  0  0
  3 27  1  0  0  0  0
  3 28  1  0  0  0  0
  4  5  1  0  0  0  0
  4 29  1  0  0  0  0
  4 30  1  0  0  0  0
  5 16  1  0  0  0  0
  5  6  1  0  0  0  0
  6  7  1  0  0  0  0
  6 14  2  0  0  0  0
  7 12  1  0  0  0  0
  7  8  1  0  0  0  0
  8  9  2  0  0  0  0
  9 10  1  0  0  0  0
  9 11  1  0  0  0  0
 10 31  1  0  0  0  0
 10 32  1  0  0  0  0
 10 33  1  0  0  0  0
 11 12  2  0  0  0  0
 11 34  1  0  0  0  0
 12 13  1  0  0  0  0
 13 35  1  0  0  0  0
 13 36  1  0  0  0  0
 13 37  1  0  0  0  0
 14 15  1  0  0  0  0
 15 22  1  0  0  0  0
 15 16  2  0  0  0  0
 16 17  1  0  0  0  0
 17 18  2  0  0  0  0
 17 19  1  0  0  0  0
 19 20  1  0  0  0  0
 20 21  2  0  0  0  0
 20 22  1  0  0  0  0
 22 23  1  0  0  0  0
 23 38  1  0  0  0  0
 23 39  1  0  0  0  0
 23 40  1  0  0  0  0
M  CHG  1  19  -1
M  END
> <s_m_source_file>
AV-unprocessed.smi

> <i_m_source_file_index>
562

> <i_lp_mmshare_version>
43012

> <i_f3d_flags>
0

> <s_epik_input>
W0NIM11uMWMoPU8pW25IXWMoPU8pYyhjMTIpbihbQ0gyXVtDSDJdT1tDSDNdKWMobjIpLW4zbmMoW0NIM10pW2NIXWMzW0NIM10=

> <s_epik_cmdline>
J2VwaWtfcHl0aG9uJywgJy1waCcsICc3LjAnLCAnLXRuJywgJzgnLCAnLW1hJywgJzIwMCcsICctbWV0YWxfYmluZGluZycsICctaW1hZScsICc8aW5maWxlLm1hZT4nLCAnLW9tYWUnLCAnPG91dGZpbGUubWFlPic=

> <r_lp_tautomer_probability>
1

> <r_epik_Ionization_Penalty>
3.9873

> <r_epik_Ionization_Penalty_Charging>
0.0180637

> <r_epik_Ionization_Penalty_Neutral>
3.96924

> <r_epik_State_Penalty>
3.96767

> <r_epik_Charging_Adjusted_Penalty>
3.98573

> <i_epik_Tot_Q>
-1

> <i_epik_Tot_abs_Q>
1

> <r_epik_Metal_State_Penalty>
0.612149

> <b_epik_Metal_Only>
1

> <s_lp_Force_Field>
OPLS_2005

> <r_lp_Energy>
28.5769

> <b_lp_Chiralities_Consistent>
1

> <s_lp_Variant>
AV-unprocessed.smi:562-2

> <Gold.Version>
5.8.1

> <Gold.Id.Protein>
6NUR|6NUR_protein|mol2

> <Gold.PLP.Fitness>
45.9588

> <Gold.PLP.PLP>
-42.2768

> <Gold.PLP.part.hbond>
-4.0000

> <Gold.PLP.part.metal>
0.0000

> <Gold.PLP.part.buried>
-4.3808

> <Gold.PLP.part.nonpolar>
-34.0192

> <Gold.PLP.part.repulsive>
0.4215

> <Gold.PLP.ligand.clash>
0.0000

> <Gold.PLP.ligand.torsion>
1.7433

> <Gold.PLP.Chemscore.Hbond>
2.2518

> <Gold.PLP.Chemscore.CHOScore>
0.0000

> <Gold.PLP.Chemscore.Metal>
0.0000

> <Gold.Chemscore.Hbonds>
donor molecule, donor type, donor heavy atom, donor atom, acceptor molecule, acceptor atom, score
      P1  H  7989  7998       L1    18  1.00
      P1  H  8011  8017       L1     2  0.29
      P1  H 10752 10764       L1    21  0.83

> <Gold.PLP.Chemscore.Internal.Correction>
0.4133

> <Gold.Rescore>
     Score         DG    S(hbond)    S(metal)    S(lipo)     H(rot)  DE(clash)    DE(int)     intcor
     12.86     -18.67       2.03        0.00      87.88       1.52       2.71       3.10       ----

> <Gold.Chemscore.Fitness>
12.8614

> <Gold.Chemscore.DG>
-18.6695

> <Gold.Chemscore.ZeroCoef>
-5.4800

> <Gold.Chemscore.Hbond>
2.0325

> <Gold.Chemscore.Metal>
0.0000

> <Gold.Chemscore.Lipo>
87.8763

> <Gold.Chemscore.Internal_Hbond>
0.0000

> <Gold.Chemscore.DEClash>
2.7052

> <Gold.Chemscore.DEInternal>
3.1029

> <Gold.Chemscore.Rot>
1.5159

> <Gold.Chemscore.Internal.Correction>
   9.000000E+99

> <Gold.Chemscore.Hbonds>
donor molecule, donor type, donor heavy atom, donor atom, acceptor molecule, acceptor atom, score
      P1  H  7989  7998       L1    18  0.87
      P1  H  8011  8017       L1     2  0.08
      P1  H 10752 10764       L1    21  0.78

> <Gold.Chemscore.Hbond.Weighted>
-6.7886

> <Gold.Chemscore.Metal.Weighted>
-0.0000

> <Gold.Chemscore.Lipo.Weighted>
-10.2815

> <Gold.Chemscore.Internal_Hbond.Weighted>
0.0000

> <Gold.Chemscore.DEClash.Weighted>
2.7052

> <Gold.Chemscore.DEInternal.Weighted>
3.1029

> <Gold.Chemscore.Rot.Weighted>
3.8806

> <Gold.Chemscore.Internal.Correction.Weighted>
   9.000000E+99

> <Gold.Protein.RotatedTorsions>
[ 6907 6896 6895 6894 ] final -169.13 input  -60.11 | X-H torsion
[ 7974 7965 7964 7962 ] final  129.19 input  175.53 | X-H torsion
[ 8008 7997 7996 7995 ] final   85.14 input   59.86 | X-H torsion
[ 10167 10162 10161 10158 ] final   89.01 input  -65.29 | X-H torsion
[ 10718 10713 10712 10709 ] final  111.73 input   66.30 | X-H torsion
[ 10763 10752 10751 10750 ] final  -10.14 input  -60.55 | X-H torsion
[ 11005 11000 10999 10996 ] final -115.08 input  -57.11 | X-H torsion

> <Gold.Protein.ActiveResidues>
 VAL166  LYS551  ARG553  GLY616  TRP617  ASP618  TYR619  PRO620  LYS621  CYS622 
 ASP623  PHE694  ASN695  SER759  ASP760  ASP761  ALA762  ILE779  LEU786  VAL792 
 PHE793  MET794  SER795  GLU796  ALA797  LYS798  CYS799  TRP800  GLU811  SER814 

> <Gold.Protein.RotatedAtoms>
  151.4866  133.3534  159.2846 H   0  0  0  0  0  0  0  0  0  0  0  0  # atno 6907 bound_to 6896
  150.8862  134.8262  159.7271 H   0  0  0  0  0  0  0  0  0  0  0  0  # atno 6908 bound_to 6896
  152.4794  134.4770  159.9705 H   0  0  0  0  0  0  0  0  0  0  0  0  # atno 6909 bound_to 6896
  145.0313  139.4043  143.5148 H   0  0  0  0  0  0  0  0  0  0  0  0  # atno 7974 bound_to 7965
  155.9462  140.3404  155.6369 H   0  0  0  0  0  0  0  0  0  0  0  0  # atno 8008 bound_to 7997
  155.6978  140.0756  157.2441 H   0  0  0  0  0  0  0  0  0  0  0  0  # atno 8009 bound_to 7997
  154.4112  140.1645  156.2145 H   0  0  0  0  0  0  0  0  0  0  0  0  # atno 8010 bound_to 7997
  139.8615  144.6541  150.9052 H   0  0  0  0  0  0  0  0  0  0  0  0  # atno 10167 bound_to 10162
  157.6429  131.0956  150.6792 H   0  0  0  0  0  0  0  0  0  0  0  0  # atno 10718 bound_to 10713
  153.4648  135.7016  153.6028 H   0  0  0  0  0  0  0  0  0  0  0  0  # atno 10763 bound_to 10752
  153.4307  135.3803  155.2169 H   0  0  0  0  0  0  0  0  0  0  0  0  # atno 10764 bound_to 10752
  154.8726  135.3950  154.4079 H   0  0  0  0  0  0  0  0  0  0  0  0  # atno 10765 bound_to 10752
  141.0511  133.9686  157.2835 H   0  0  0  0  0  0  0  0  0  0  0  0  # atno 11005 bound_to 11000
  146.3499  139.9865  142.8690 LP  0  0  0  0  0  0  0  0  0  0  0  0  # atno 17320 bound_to 7965
  145.1766  140.9747  143.4290 LP  0  0  0  0  0  0  0  0  0  0  0  0  # atno 17321 bound_to 7965
  140.7774  143.3740  151.1597 LP  0  0  0  0  0  0  0  0  0  0  0  0  # atno 17342 bound_to 10162
  139.7369  143.8985  152.3037 LP  0  0  0  0  0  0  0  0  0  0  0  0  # atno 17343 bound_to 10162
  156.7113  130.4653  149.5546 LP  0  0  0  0  0  0  0  0  0  0  0  0  # atno 17370 bound_to 10713
  156.1728  130.6448  151.0858 LP  0  0  0  0  0  0  0  0  0  0  0  0  # atno 17371 bound_to 10713
  139.9351  135.0197  156.8529 LP  0  0  0  0  0  0  0  0  0  0  0  0  # atno 17394 bound_to 11000
  140.6054  134.0133  155.7554 LP  0  0  0  0  0  0  0  0  0  0  0  0  # atno 17395 bound_to 11000

$$$$
