AV-unprocessed.smi:34|AV-procd|sdf|225|dock3
  -GOLD-   2262015543D 1   1.00000     0.00000
 Structure written by MMmdl.
 55 59  0  0  0  0  0  0  0  0  1 V2000
  151.2600  142.0903  156.8455 O   0  0  0  0  0  0  0  0  0  0  0  0
  151.6957  141.6880  157.9247 C   0  0  0  0  0  0  0  0  0  0  0  0
  151.9644  140.2826  158.1746 N   0  0  0  0  0  0  0  0  0  0  0  0
  151.8685  139.2455  157.3096 C   0  0  0  0  0  0  0  0  0  0  0  0
  152.4680  139.2552  156.0901 N   0  0  0  0  0  0  0  0  0  0  0  0
  152.3443  138.2069  155.2713 C   0  0  0  0  0  0  0  0  0  0  0  0
  151.6795  137.0677  155.4716 N   0  0  0  0  0  0  0  0  0  0  0  0
  151.0733  137.0485  156.6937 C   0  0  0  0  0  0  0  0  0  0  0  0
  151.1208  138.0912  157.6608 C   0  0  0  0  0  0  0  0  0  0  0  0
  150.3914  137.7241  158.7842 N   0  0  0  0  0  0  0  0  0  0  0  0
  149.9435  136.5320  158.4947 C   0  0  0  0  0  0  0  0  0  0  0  0
  150.3036  136.0490  157.2559 N   0  0  0  0  0  0  0  0  0  0  0  0
  149.9467  134.7236  156.6535 C   0  0  2  0  0  0  0  0  0  0  0  0
  148.5568  134.6012  156.6864 O   0  0  0  0  0  0  0  0  0  0  0  0
  148.1928  133.3279  157.2038 C   0  0  2  0  0  0  0  0  0  0  0  0
  146.8221  133.4134  157.8855 C   0  0  0  0  0  0  0  0  0  0  0  0
  146.9072  134.2573  159.0220 O   0  0  0  0  0  0  0  0  0  0  0  0
  146.5566  133.7904  160.2360 C   0  0  0  0  0  0  0  0  0  0  0  0
  146.1454  132.6453  160.4338 O   0  0  0  0  0  0  0  0  0  0  0  0
  146.7186  134.8052  161.3169 C   0  0  0  0  0  0  0  0  0  0  0  0
  146.4559  134.4378  162.6575 C   0  0  0  0  0  0  0  0  0  0  0  0
  146.5990  135.3746  163.6992 C   0  0  0  0  0  0  0  0  0  0  0  0
  147.0062  136.6907  163.4133 C   0  0  0  0  0  0  0  0  0  0  0  0
  147.2696  137.0691  162.0838 C   0  0  0  0  0  0  0  0  0  0  0  0
  147.1273  136.1335  161.0406 C   0  0  0  0  0  0  0  0  0  0  0  0
  149.3396  132.9595  158.1434 C   0  0  1  0  0  0  0  0  0  0  0  0
  149.4433  131.6388  158.2977 F   0  0  0  0  0  0  0  0  0  0  0  0
  150.5504  133.5308  157.4277 C   0  0  2  0  0  0  0  0  0  0  0  0
  151.5752  133.8685  158.3454 O   0  0  0  0  0  0  0  0  0  0  0  0
  151.9024  142.6156  159.0871 C   0  0  0  0  0  0  0  0  0  0  0  0
  152.4448  142.1238  160.2958 C   0  0  0  0  0  0  0  0  0  0  0  0
  152.6266  142.9828  161.3972 C   0  0  0  0  0  0  0  0  0  0  0  0
  152.2619  144.3389  161.3018 C   0  0  0  0  0  0  0  0  0  0  0  0
  151.7102  144.8348  160.1056 C   0  0  0  0  0  0  0  0  0  0  0  0
  151.5265  143.9767  159.0038 C   0  0  0  0  0  0  0  0  0  0  0  0
  152.2828  140.0533  159.1046 H   0  0  0  0  0  0  0  0  0  0  0  0
  152.8506  138.2926  154.3213 H   0  0  0  0  0  0  0  0  0  0  0  0
  149.3310  135.9683  159.1832 H   0  0  0  0  0  0  0  0  0  0  0  0
  150.3040  134.7862  155.6250 H   0  0  0  0  0  0  0  0  0  0  0  0
  148.1590  132.6307  156.3647 H   0  0  0  0  0  0  0  0  0  0  0  0
  146.0743  133.7912  157.1868 H   0  0  0  0  0  0  0  0  0  0  0  0
  146.5021  132.4196  158.2009 H   0  0  0  0  0  0  0  0  0  0  0  0
  146.1419  133.4331  162.9016 H   0  0  0  0  0  0  0  0  0  0  0  0
  146.3956  135.0823  164.7190 H   0  0  0  0  0  0  0  0  0  0  0  0
  147.1160  137.4089  164.2124 H   0  0  0  0  0  0  0  0  0  0  0  0
  147.5809  138.0793  161.8627 H   0  0  0  0  0  0  0  0  0  0  0  0
  147.3362  136.4575  160.0315 H   0  0  0  0  0  0  0  0  0  0  0  0
  149.2037  133.4100  159.1273 H   0  0  0  0  0  0  0  0  0  0  0  0
  150.9274  132.8153  156.6956 H   0  0  0  0  0  0  0  0  0  0  0  0
  152.0335  134.6274  158.0187 H   0  0  0  0  0  0  0  0  0  0  0  0
  152.7290  141.0852  160.3859 H   0  0  0  0  0  0  0  0  0  0  0  0
  153.0450  142.5999  162.3163 H   0  0  0  0  0  0  0  0  0  0  0  0
  152.4016  144.9969  162.1467 H   0  0  0  0  0  0  0  0  0  0  0  0
  151.4247  145.8741  160.0336 H   0  0  0  0  0  0  0  0  0  0  0  0
  151.0914  144.3762  158.0995 H   0  0  0  0  0  0  0  0  0  0  0  0
  1  2  2  0  0  0  0
  2  3  1  0  0  0  0
  2 30  1  0  0  0  0
  3  4  1  0  0  0  0
  3 36  1  0  0  0  0
  4  9  1  0  0  0  0
  4  5  2  0  0  0  0
  5  6  1  0  0  0  0
  6  7  2  0  0  0  0
  6 37  1  0  0  0  0
  7  8  1  0  0  0  0
  8 12  1  0  0  0  0
  8  9  2  0  0  0  0
  9 10  1  0  0  0  0
 10 11  2  0  0  0  0
 11 12  1  0  0  0  0
 11 38  1  0  0  0  0
 12 13  1  0  0  0  0
 13 28  1  0  0  0  0
 13 14  1  0  0  0  0
 13 39  1  0  0  0  0
 14 15  1  0  0  0  0
 15 16  1  0  0  0  0
 15 26  1  0  0  0  0
 15 40  1  0  0  0  0
 16 17  1  0  0  0  0
 16 41  1  0  0  0  0
 16 42  1  0  0  0  0
 17 18  1  0  0  0  0
 18 19  2  0  0  0  0
 18 20  1  0  0  0  0
 20 25  1  0  0  0  0
 20 21  2  0  0  0  0
 21 22  1  0  0  0  0
 21 43  1  0  0  0  0
 22 23  2  0  0  0  0
 22 44  1  0  0  0  0
 23 24  1  0  0  0  0
 23 45  1  0  0  0  0
 24 25  2  0  0  0  0
 24 46  1  0  0  0  0
 25 47  1  0  0  0  0
 26 27  1  0  0  0  0
 26 28  1  0  0  0  0
 26 48  1  0  0  0  0
 28 29  1  0  0  0  0
 28 49  1  0  0  0  0
 29 50  1  0  0  0  0
 30 35  1  0  0  0  0
 30 31  2  0  0  0  0
 31 32  1  0  0  0  0
 31 51  1  0  0  0  0
 32 33  2  0  0  0  0
 32 52  1  0  0  0  0
 33 34  1  0  0  0  0
 33 53  1  0  0  0  0
 34 35  2  0  0  0  0
 34 54  1  0  0  0  0
 35 55  1  0  0  0  0
M  END
> <s_m_source_file>
AV-unprocessed.smi

> <i_m_source_file_index>
34

> <i_lp_mmshare_version>
43012

> <i_f3d_flags>
0

> <s_epik_input>
W2NIXTFbY0hdW2NIXVtjSF1bY0hdYzFDKD1PKVtOSF1jKG5bY0hdbjIpYyhjMjMpbltjSF1uM1tDQEBIXTRPW0NASF0oW0NAQEhdKEYpW0NASF00W09IXSlbQ0gyXU9DKD1PKWM1W2NIXVtjSF1bY0hdW2NIXVtjSF01

> <s_epik_cmdline>
J2VwaWtfcHl0aG9uJywgJy1waCcsICc3LjAnLCAnLXRuJywgJzgnLCAnLW1hJywgJzIwMCcsICctbWV0YWxfYmluZGluZycsICctaW1hZScsICc8aW5maWxlLm1hZT4nLCAnLW9tYWUnLCAnPG91dGZpbGUubWFlPic=

> <r_lp_tautomer_probability>
1

> <r_epik_Ionization_Penalty>
0.00257489

> <r_epik_Ionization_Penalty_Charging>
0

> <r_epik_Ionization_Penalty_Neutral>
0.00257489

> <r_epik_State_Penalty>
0.00519398

> <r_epik_Charging_Adjusted_Penalty>
0.00519398

> <i_epik_Tot_Q>
0

> <i_epik_Tot_abs_Q>
0

> <r_epik_Metal_State_Penalty>
0.335891

> <b_epik_Metal_Only>
0

> <s_epik_Chemistry_Notes>
This compound has an ester and may undergo hydrolysis at high or low pH. This compound contains an acetal/aminal-like group ( X-CH(R)-Y where X, Y are N, S, or O) that may be acid/base labile, releasing an aldehyde.

> <s_lp_Force_Field>
OPLS_2005

> <r_lp_Energy>
52.3036

> <b_lp_Chiralities_Consistent>
1

> <s_lp_Variant>
AV-unprocessed.smi:34-11

> <Gold.Version>
5.8.1

> <Gold.Id.Protein>
6NUR|6NUR_protein|mol2

> <Gold.PLP.Fitness>
62.1899

> <Gold.PLP.PLP>
-58.0618

> <Gold.PLP.part.hbond>
-3.0000

> <Gold.PLP.part.metal>
0.0000

> <Gold.PLP.part.buried>
-8.4521

> <Gold.PLP.part.nonpolar>
-47.2781

> <Gold.PLP.part.repulsive>
0.3168

> <Gold.PLP.ligand.clash>
0.0000

> <Gold.PLP.ligand.torsion>
0.9292

> <Gold.PLP.Chemscore.Hbond>
1.9695

> <Gold.PLP.Chemscore.CHOScore>
0.0000

> <Gold.PLP.Chemscore.Metal>
0.0000

> <Gold.Chemscore.Hbonds>
donor molecule, donor type, donor heavy atom, donor atom, acceptor molecule, acceptor atom, score
      P1  H  7997  8008       L1     5  0.71
      P1  H 10752 10764       L1     7  0.50

> <Gold.PLP.Chemscore.Internal.Correction>
0.0779

> <Gold.Rescore>
     Score         DG    S(hbond)    S(metal)    S(lipo)     H(rot)  DE(clash)    DE(int)     intcor
     17.22     -18.21       1.39        0.00     128.65       2.72       0.06       0.94       ----

> <Gold.Chemscore.Fitness>
17.2183

> <Gold.Chemscore.DG>
-18.2120

> <Gold.Chemscore.ZeroCoef>
-5.4800

> <Gold.Chemscore.Hbond>
1.3912

> <Gold.Chemscore.Metal>
0.0000

> <Gold.Chemscore.Lipo>
128.6545

> <Gold.Chemscore.Internal_Hbond>
0.0000

> <Gold.Chemscore.DEClash>
0.0573

> <Gold.Chemscore.DEInternal>
0.9364

> <Gold.Chemscore.Rot>
2.7215

> <Gold.Chemscore.Internal.Correction>
   9.000000E+99

> <Gold.Chemscore.Hbonds>
donor molecule, donor type, donor heavy atom, donor atom, acceptor molecule, acceptor atom, score
      P1  H  7997  8008       L1     5  0.55
      P1  H 10752 10764       L1     7  0.15

> <Gold.Chemscore.Hbond.Weighted>
-4.6465

> <Gold.Chemscore.Metal.Weighted>
-0.0000

> <Gold.Chemscore.Lipo.Weighted>
-15.0526

> <Gold.Chemscore.Internal_Hbond.Weighted>
0.0000

> <Gold.Chemscore.DEClash.Weighted>
0.0573

> <Gold.Chemscore.DEInternal.Weighted>
0.9364

> <Gold.Chemscore.Rot.Weighted>
6.9670

> <Gold.Chemscore.Internal.Correction.Weighted>
   9.000000E+99

> <Gold.Protein.RotatedTorsions>
[ 6907 6896 6895 6894 ] final   34.03 input  -60.11 | X-H torsion
[ 7974 7965 7964 7962 ] final  146.60 input  175.53 | X-H torsion
[ 8008 7997 7996 7995 ] final  -22.03 input   59.86 | X-H torsion
[ 10167 10162 10161 10158 ] final  -91.08 input  -65.29 | X-H torsion
[ 10718 10713 10712 10709 ] final -151.65 input   66.30 | X-H torsion
[ 10763 10752 10751 10750 ] final  -75.00 input  -60.55 | X-H torsion
[ 11005 11000 10999 10996 ] final -137.71 input  -57.11 | X-H torsion

> <Gold.Protein.ActiveResidues>
 VAL166  LYS551  ARG553  GLY616  TRP617  ASP618  TYR619  PRO620  LYS621  CYS622 
 ASP623  PHE694  ASN695  SER759  ASP760  ASP761  ALA762  ILE779  LEU786  VAL792 
 PHE793  MET794  SER795  GLU796  ALA797  LYS798  CYS799  TRP800  GLU811  SER814 

> <Gold.Protein.RotatedAtoms>
  152.0968  134.9369  160.0570 H   0  0  0  0  0  0  0  0  0  0  0  0  # atno 6907 bound_to 6896
  152.0599  133.4052  159.4421 H   0  0  0  0  0  0  0  0  0  0  0  0  # atno 6908 bound_to 6896
  150.6838  134.3132  159.4798 H   0  0  0  0  0  0  0  0  0  0  0  0  # atno 6909 bound_to 6896
  144.8658  139.5925  143.5909 H   0  0  0  0  0  0  0  0  0  0  0  0  # atno 7974 bound_to 7965
  154.4669  140.2018  156.0096 H   0  0  0  0  0  0  0  0  0  0  0  0  # atno 8008 bound_to 7997
  156.0942  140.3253  155.7827 H   0  0  0  0  0  0  0  0  0  0  0  0  # atno 8009 bound_to 7997
  155.4906  140.0546  157.2945 H   0  0  0  0  0  0  0  0  0  0  0  0  # atno 8010 bound_to 7997
  140.3485  143.2904  151.9753 H   0  0  0  0  0  0  0  0  0  0  0  0  # atno 10167 bound_to 10162
  156.4621  130.8218  151.2449 H   0  0  0  0  0  0  0  0  0  0  0  0  # atno 10718 bound_to 10713
  154.4807  135.5846  153.6387 H   0  0  0  0  0  0  0  0  0  0  0  0  # atno 10763 bound_to 10752
  152.9847  135.6089  154.3250 H   0  0  0  0  0  0  0  0  0  0  0  0  # atno 10764 bound_to 10752
  154.3141  135.2844  155.2531 H   0  0  0  0  0  0  0  0  0  0  0  0  # atno 10765 bound_to 10752
  140.8685  134.2080  157.4665 H   0  0  0  0  0  0  0  0  0  0  0  0  # atno 11005 bound_to 11000
  146.2895  139.7097  142.9171 LP  0  0  0  0  0  0  0  0  0  0  0  0  # atno 17320 bound_to 7965
  145.4224  141.0408  143.2956 LP  0  0  0  0  0  0  0  0  0  0  0  0  # atno 17321 bound_to 7965
  139.4830  144.6096  151.7458 LP  0  0  0  0  0  0  0  0  0  0  0  0  # atno 17342 bound_to 10162
  140.5241  144.0832  150.6032 LP  0  0  0  0  0  0  0  0  0  0  0  0  # atno 17343 bound_to 10162
  157.7497  131.0104  150.3303 LP  0  0  0  0  0  0  0  0  0  0  0  0  # atno 17370 bound_to 10713
  156.3705  130.3863  149.7179 LP  0  0  0  0  0  0  0  0  0  0  0  0  # atno 17371 bound_to 10713
  139.8710  134.9763  156.4916 LP  0  0  0  0  0  0  0  0  0  0  0  0  # atno 17394 bound_to 11000
  140.8600  133.8067  155.9256 LP  0  0  0  0  0  0  0  0  0  0  0  0  # atno 17395 bound_to 11000

$$$$
