AV-unprocessed.smi:3044|AV-procd|sdf|11608|dock3
  -GOLD-   2272016583D 1   1.00000     0.00000
 Structure written by MMmdl.
 41 42  0  0  0  0  0  0  0  0  1 V2000
  150.8454  144.6294  159.1697 C   0  0  0  0  0  0  0  0  0  0  0  0
  151.6249  143.6991  160.0828 C   0  0  0  0  0  0  0  0  0  0  0  0
  151.8951  144.1901  161.3130 N   0  0  0  0  0  0  0  0  0  0  0  0
  152.5887  143.4155  162.1722 C   0  0  0  0  0  0  0  0  0  0  0  0
  153.0494  142.1265  161.8469 C   0  0  0  0  0  0  0  0  0  0  0  0
  152.7675  141.6162  160.5659 C   0  0  0  0  0  0  0  0  0  0  0  0
  152.0258  142.4086  159.6554 C   0  0  0  0  0  0  0  0  0  0  0  0
  151.7075  141.9900  158.3319 N   0  0  0  0  0  0  0  0  0  0  0  0
  152.1887  140.9403  157.6403 C   0  0  0  0  0  0  0  0  0  0  0  0
  152.9908  140.1170  158.0793 O   0  0  0  0  0  0  0  0  0  0  0  0
  151.6507  140.7729  156.2214 C   0  0  0  0  0  0  0  0  0  0  0  0
  150.9094  139.5631  156.1649 O   0  0  0  0  0  0  0  0  0  0  0  0
  150.9820  138.8769  154.9199 C   0  0  1  0  0  0  0  0  0  0  0  0
  150.7792  137.3573  155.0986 C   0  0  0  0  0  0  0  0  0  0  0  0
  149.3632  137.0296  155.5975 C   0  0  0  0  0  0  0  0  0  0  0  0
  148.2955  137.6137  154.6599 C   0  0  0  0  0  0  0  0  0  0  0  0
  148.4705  139.1338  154.4807 C   0  0  2  0  0  0  0  0  0  0  0  0
  147.4096  139.7118  153.5332 C   0  0  0  0  0  0  0  0  0  0  0  0
  149.8981  139.4626  153.9957 C   0  0  0  0  0  0  0  0  0  0  0  0
  149.8912  144.1790  158.8959 H   0  0  0  0  0  0  0  0  0  0  0  0
  151.4086  144.8286  158.2578 H   0  0  0  0  0  0  0  0  0  0  0  0
  150.6398  145.5861  159.6518 H   0  0  0  0  0  0  0  0  0  0  0  0
  152.7890  143.8383  163.1455 H   0  0  0  0  0  0  0  0  0  0  0  0
  153.6116  141.5444  162.5620 H   0  0  0  0  0  0  0  0  0  0  0  0
  153.1387  140.6376  160.3051 H   0  0  0  0  0  0  0  0  0  0  0  0
  150.9814  142.5214  157.8739 H   0  0  0  0  0  0  0  0  0  0  0  0
  151.0181  141.6194  155.9484 H   0  0  0  0  0  0  0  0  0  0  0  0
  152.4945  140.7541  155.5319 H   0  0  0  0  0  0  0  0  0  0  0  0
  151.9546  139.0650  154.4621 H   0  0  0  0  0  0  0  0  0  0  0  0
  150.9408  136.8624  154.1402 H   0  0  0  0  0  0  0  0  0  0  0  0
  151.5207  136.9374  155.7767 H   0  0  0  0  0  0  0  0  0  0  0  0
  149.2377  135.9492  155.6742 H   0  0  0  0  0  0  0  0  0  0  0  0
  149.2272  137.4282  156.6037 H   0  0  0  0  0  0  0  0  0  0  0  0
  148.3543  137.1182  153.6899 H   0  0  0  0  0  0  0  0  0  0  0  0
  147.3034  137.3962  155.0571 H   0  0  0  0  0  0  0  0  0  0  0  0
  148.3277  139.6041  155.4548 H   0  0  0  0  0  0  0  0  0  0  0  0
  147.4948  139.2838  152.5337 H   0  0  0  0  0  0  0  0  0  0  0  0
  147.5115  140.7935  153.4421 H   0  0  0  0  0  0  0  0  0  0  0  0
  146.4032  139.5059  153.8987 H   0  0  0  0  0  0  0  0  0  0  0  0
  150.0277  140.5430  153.9192 H   0  0  0  0  0  0  0  0  0  0  0  0
  150.0371  139.0675  152.9886 H   0  0  0  0  0  0  0  0  0  0  0  0
  1  2  1  0  0  0  0
  1 20  1  0  0  0  0
  1 21  1  0  0  0  0
  1 22  1  0  0  0  0
  2  7  1  0  0  0  0
  2  3  2  0  0  0  0
  3  4  1  0  0  0  0
  4  5  2  0  0  0  0
  4 23  1  0  0  0  0
  5  6  1  0  0  0  0
  5 24  1  0  0  0  0
  6  7  2  0  0  0  0
  6 25  1  0  0  0  0
  7  8  1  0  0  0  0
  8  9  1  0  0  0  0
  8 26  1  0  0  0  0
  9 10  2  0  0  0  0
  9 11  1  0  0  0  0
 11 12  1  0  0  0  0
 11 27  1  0  0  0  0
 11 28  1  0  0  0  0
 12 13  1  0  0  0  0
 13 19  1  0  0  0  0
 13 14  1  0  0  0  0
 13 29  1  0  0  0  0
 14 15  1  0  0  0  0
 14 30  1  0  0  0  0
 14 31  1  0  0  0  0
 15 16  1  0  0  0  0
 15 32  1  0  0  0  0
 15 33  1  0  0  0  0
 16 17  1  0  0  0  0
 16 34  1  0  0  0  0
 16 35  1  0  0  0  0
 17 18  1  0  0  0  0
 17 19  1  0  0  0  0
 17 36  1  0  0  0  0
 18 37  1  0  0  0  0
 18 38  1  0  0  0  0
 18 39  1  0  0  0  0
 19 40  1  0  0  0  0
 19 41  1  0  0  0  0
M  END
> <s_m_source_file>
AV-unprocessed.smi

> <i_m_source_file_index>
3044

> <i_lp_mmshare_version>
43012

> <i_f3d_flags>
0

> <s_epik_input>
W0NIM11jMW5bY0hdW2NIXVtjSF1jMVtOSF1DKD1PKVtDSDJdT1tDQEBIXTJbQ0gyXVtDSDJdW0NIMl1bQ0BASF0oW0NIM10pW0NIMl0y

> <s_epik_cmdline>
J2VwaWtfcHl0aG9uJywgJy1waCcsICc3LjAnLCAnLXRuJywgJzgnLCAnLW1hJywgJzIwMCcsICctbWV0YWxfYmluZGluZycsICctaW1hZScsICc8aW5maWxlLm1hZT4nLCAnLW9tYWUnLCAnPG91dGZpbGUubWFlPic=

> <r_epik_Ionization_Penalty>
0.0077122

> <r_epik_Ionization_Penalty_Charging>
0

> <r_epik_Ionization_Penalty_Neutral>
0.0077122

> <r_epik_State_Penalty>
0.00577497

> <r_epik_Charging_Adjusted_Penalty>
0.00577497

> <i_epik_Tot_Q>
0

> <i_epik_Tot_abs_Q>
0

> <r_epik_Metal_State_Penalty>
-0

> <b_epik_Metal_Only>
0

> <s_lp_Force_Field>
OPLS_2005

> <r_lp_Energy>
18.191

> <b_lp_Chiralities_Consistent>
1

> <s_lp_Variant>
AV-unprocessed.smi:3044-4

> <Gold.Version>
5.8.1

> <Gold.Id.Protein>
6NUR|6NUR_protein|mol2

> <Gold.PLP.Fitness>
37.8540

> <Gold.PLP.PLP>
-36.0185

> <Gold.PLP.part.hbond>
-1.0000

> <Gold.PLP.part.metal>
0.0000

> <Gold.PLP.part.buried>
-3.0402

> <Gold.PLP.part.nonpolar>
-30.3805

> <Gold.PLP.part.repulsive>
0.2170

> <Gold.PLP.ligand.clash>
0.0000

> <Gold.PLP.ligand.torsion>
0.5905

> <Gold.PLP.Chemscore.Hbond>
1.0000

> <Gold.PLP.Chemscore.CHOScore>
0.0000

> <Gold.PLP.Chemscore.Metal>
0.0000

> <Gold.Chemscore.Hbonds>
donor molecule, donor type, donor heavy atom, donor atom, acceptor molecule, acceptor atom, score
      P1  H  7997  8008       L1    10  0.99

> <Gold.PLP.Chemscore.Internal.Correction>
0.0165

> <Gold.Rescore>
     Score         DG    S(hbond)    S(metal)    S(lipo)     H(rot)  DE(clash)    DE(int)     intcor
     14.50     -17.76       0.95        0.00     106.31       1.31       1.40       1.86       ----

> <Gold.Chemscore.Fitness>
14.4953

> <Gold.Chemscore.DG>
-17.7598

> <Gold.Chemscore.ZeroCoef>
-5.4800

> <Gold.Chemscore.Hbond>
0.9539

> <Gold.Chemscore.Metal>
0.0000

> <Gold.Chemscore.Lipo>
106.3101

> <Gold.Chemscore.Internal_Hbond>
0.0000

> <Gold.Chemscore.DEClash>
1.4003

> <Gold.Chemscore.DEInternal>
1.8643

> <Gold.Chemscore.Rot>
1.3064

> <Gold.Chemscore.Internal.Correction>
   9.000000E+99

> <Gold.Chemscore.Hbonds>
donor molecule, donor type, donor heavy atom, donor atom, acceptor molecule, acceptor atom, score
      P1  H  7997  8008       L1    10  0.57

> <Gold.Chemscore.Hbond.Weighted>
-3.1859

> <Gold.Chemscore.Metal.Weighted>
-0.0000

> <Gold.Chemscore.Lipo.Weighted>
-12.4383

> <Gold.Chemscore.Internal_Hbond.Weighted>
0.0000

> <Gold.Chemscore.DEClash.Weighted>
1.4003

> <Gold.Chemscore.DEInternal.Weighted>
1.8643

> <Gold.Chemscore.Rot.Weighted>
3.3443

> <Gold.Chemscore.Internal.Correction.Weighted>
   9.000000E+99

> <Gold.Protein.RotatedTorsions>
[ 6907 6896 6895 6894 ] final   37.73 input  -60.11 | X-H torsion
[ 7974 7965 7964 7962 ] final   -7.43 input  175.53 | X-H torsion
[ 8008 7997 7996 7995 ] final  -72.79 input   59.86 | X-H torsion
[ 10167 10162 10161 10158 ] final  -56.69 input  -65.29 | X-H torsion
[ 10718 10713 10712 10709 ] final  -68.39 input   66.30 | X-H torsion
[ 10763 10752 10751 10750 ] final  -43.16 input  -60.55 | X-H torsion
[ 11005 11000 10999 10996 ] final  107.72 input  -57.11 | X-H torsion

> <Gold.Protein.ActiveResidues>
 VAL166  LYS551  ARG553  GLY616  TRP617  ASP618  TYR619  PRO620  LYS621  CYS622 
 ASP623  PHE694  ASN695  SER759  ASP760  ASP761  ALA762  ILE779  LEU786  VAL792 
 PHE793  MET794  SER795  GLU796  ALA797  LYS798  CYS799  TRP800  GLU811  SER814 

> <Gold.Protein.RotatedAtoms>
  152.1471  134.9017  160.0550 H   0  0  0  0  0  0  0  0  0  0  0  0  # atno 6907 bound_to 6896
  152.0063  133.3839  159.4210 H   0  0  0  0  0  0  0  0  0  0  0  0  # atno 6908 bound_to 6896
  150.6871  134.3701  159.5032 H   0  0  0  0  0  0  0  0  0  0  0  0  # atno 6909 bound_to 6896
  146.2307  140.2319  142.8340 H   0  0  0  0  0  0  0  0  0  0  0  0  # atno 7974 bound_to 7965
  154.5194  140.0791  156.8144 H   0  0  0  0  0  0  0  0  0  0  0  0  # atno 8008 bound_to 7997
  155.3608  140.3418  155.4222 H   0  0  0  0  0  0  0  0  0  0  0  0  # atno 8009 bound_to 7997
  156.1665  140.1605  156.8510 H   0  0  0  0  0  0  0  0  0  0  0  0  # atno 8010 bound_to 7997
  140.6302  143.2456  151.5261 H   0  0  0  0  0  0  0  0  0  0  0  0  # atno 10167 bound_to 10162
  156.0508  130.4294  150.1994 H   0  0  0  0  0  0  0  0  0  0  0  0  # atno 10718 bound_to 10713
  153.9910  135.6705  153.4754 H   0  0  0  0  0  0  0  0  0  0  0  0  # atno 10763 bound_to 10752
  153.0705  135.4977  154.8291 H   0  0  0  0  0  0  0  0  0  0  0  0  # atno 10764 bound_to 10752
  154.7109  135.3097  154.9160 H   0  0  0  0  0  0  0  0  0  0  0  0  # atno 10765 bound_to 10752
  139.8832  134.9409  156.5862 H   0  0  0  0  0  0  0  0  0  0  0  0  # atno 11005 bound_to 11000
  144.9551  140.8219  143.5548 LP  0  0  0  0  0  0  0  0  0  0  0  0  # atno 17320 bound_to 7965
  145.2283  139.2126  143.5056 LP  0  0  0  0  0  0  0  0  0  0  0  0  # atno 17321 bound_to 7965
  139.5517  144.2378  152.1542 LP  0  0  0  0  0  0  0  0  0  0  0  0  # atno 17342 bound_to 10162
  140.1620  144.5017  150.6627 LP  0  0  0  0  0  0  0  0  0  0  0  0  # atno 17343 bound_to 10162
  157.0077  130.9941  151.3374 LP  0  0  0  0  0  0  0  0  0  0  0  0  # atno 17370 bound_to 10713
  157.5431  130.8133  149.8053 LP  0  0  0  0  0  0  0  0  0  0  0  0  # atno 17371 bound_to 10713
  140.7990  133.8521  155.8710 LP  0  0  0  0  0  0  0  0  0  0  0  0  # atno 17394 bound_to 11000
  140.9610  134.1656  157.4654 LP  0  0  0  0  0  0  0  0  0  0  0  0  # atno 17395 bound_to 11000

$$$$
