AV-unprocessed.smi:500|AV-procd|sdf|2734|dock8
  -GOLD-   2262023183D 1   1.00000     0.00000
 Structure written by MMmdl.
 45 47  0  0  0  0  0  0  0  0  1 V2000
  153.8153  136.4138  162.2710 C   0  0  0  0  0  0  0  0  0  0  0  0
  153.0517  137.4431  161.4263 C   0  0  0  0  0  0  0  0  0  0  0  0
  152.6521  136.9074  160.1724 O   0  0  0  0  0  0  0  0  0  0  0  0
  151.9925  137.8354  159.3252 C   0  0  0  0  0  0  0  0  0  0  0  0
  152.9927  138.9239  158.9168 C   0  0  0  0  0  0  0  0  0  0  0  0
  152.3496  139.9950  158.1702 N   0  0  0  0  0  0  0  0  0  0  0  0
  151.7839  139.9481  156.9352 C   0  0  0  0  0  0  0  0  0  0  0  0
  151.7384  138.6899  156.1034 C   0  0  2  0  0  0  0  0  0  0  0  0
  152.7530  138.7188  154.9520 C   0  0  0  0  0  0  0  0  0  0  0  0
  150.3830  138.5319  155.5821 N   0  0  0  0  0  0  0  0  0  0  0  0
  149.8002  139.3428  154.6844 C   0  0  0  0  0  0  0  0  0  0  0  0
  150.3469  140.3424  154.2181 O   0  0  0  0  0  0  0  0  0  0  0  0
  148.4324  138.9713  154.2767 C   0  0  0  0  0  0  0  0  0  0  0  0
  147.6470  137.8991  154.6104 C   0  0  0  0  0  0  0  0  0  0  0  0
  146.4238  138.0547  153.9017 C   0  0  0  0  0  0  0  0  0  0  0  0
  146.5500  139.2087  153.1833 C   0  0  0  0  0  0  0  0  0  0  0  0
  147.7675  139.7767  153.3980 O   0  0  0  0  0  0  0  0  0  0  0  0
  151.2527  141.0950  156.5028 N   0  0  0  0  0  0  0  0  0  0  0  0
  151.5049  141.9640  157.5446 C   0  0  0  0  0  0  0  0  0  0  0  0
  151.1917  143.3343  157.6919 C   0  0  0  0  0  0  0  0  0  0  0  0
  151.5582  144.0280  158.8635 C   0  0  0  0  0  0  0  0  0  0  0  0
  152.2414  143.3627  159.9019 C   0  0  0  0  0  0  0  0  0  0  0  0
  152.5621  141.9973  159.7752 C   0  0  0  0  0  0  0  0  0  0  0  0
  152.1930  141.3086  158.6037 C   0  0  0  0  0  0  0  0  0  0  0  0
  154.0278  136.8129  163.2631 H   0  0  0  0  0  0  0  0  0  0  0  0
  154.7689  136.1424  161.8190 H   0  0  0  0  0  0  0  0  0  0  0  0
  153.2310  135.5023  162.3980 H   0  0  0  0  0  0  0  0  0  0  0  0
  152.1469  137.7323  161.9611 H   0  0  0  0  0  0  0  0  0  0  0  0
  153.6368  138.3542  161.2937 H   0  0  0  0  0  0  0  0  0  0  0  0
  151.6132  137.3277  158.4370 H   0  0  0  0  0  0  0  0  0  0  0  0
  151.1407  138.2822  159.8369 H   0  0  0  0  0  0  0  0  0  0  0  0
  153.4979  139.3418  159.7873 H   0  0  0  0  0  0  0  0  0  0  0  0
  153.7790  138.4886  158.2997 H   0  0  0  0  0  0  0  0  0  0  0  0
  151.9737  137.8193  156.7136 H   0  0  0  0  0  0  0  0  0  0  0  0
  153.7694  138.8304  155.3304 H   0  0  0  0  0  0  0  0  0  0  0  0
  152.5606  139.5470  154.2690 H   0  0  0  0  0  0  0  0  0  0  0  0
  152.7161  137.7954  154.3734 H   0  0  0  0  0  0  0  0  0  0  0  0
  149.8597  137.7326  155.9086 H   0  0  0  0  0  0  0  0  0  0  0  0
  147.9187  137.0974  155.2816 H   0  0  0  0  0  0  0  0  0  0  0  0
  145.5620  137.4039  153.9144 H   0  0  0  0  0  0  0  0  0  0  0  0
  145.9050  139.7433  152.5018 H   0  0  0  0  0  0  0  0  0  0  0  0
  150.6688  143.8525  156.9017 H   0  0  0  0  0  0  0  0  0  0  0  0
  151.3147  145.0753  158.9656 H   0  0  0  0  0  0  0  0  0  0  0  0
  152.5192  143.9011  160.7962 H   0  0  0  0  0  0  0  0  0  0  0  0
  153.0860  141.4878  160.5702 H   0  0  0  0  0  0  0  0  0  0  0  0
  1  2  1  0  0  0  0
  1 25  1  0  0  0  0
  1 26  1  0  0  0  0
  1 27  1  0  0  0  0
  2  3  1  0  0  0  0
  2 28  1  0  0  0  0
  2 29  1  0  0  0  0
  3  4  1  0  0  0  0
  4  5  1  0  0  0  0
  4 30  1  0  0  0  0
  4 31  1  0  0  0  0
  5  6  1  0  0  0  0
  5 32  1  0  0  0  0
  5 33  1  0  0  0  0
  6 24  1  0  0  0  0
  6  7  1  0  0  0  0
  7  8  1  0  0  0  0
  7 18  2  0  0  0  0
  8  9  1  0  0  0  0
  8 10  1  0  0  0  0
  8 34  1  0  0  0  0
  9 35  1  0  0  0  0
  9 36  1  0  0  0  0
  9 37  1  0  0  0  0
 10 11  1  0  0  0  0
 10 38  1  0  0  0  0
 11 12  2  0  0  0  0
 11 13  1  0  0  0  0
 13 17  1  0  0  0  0
 13 14  2  0  0  0  0
 14 15  1  0  0  0  0
 14 39  1  0  0  0  0
 15 16  2  0  0  0  0
 15 40  1  0  0  0  0
 16 17  1  0  0  0  0
 16 41  1  0  0  0  0
 18 19  1  0  0  0  0
 19 24  2  0  0  0  0
 19 20  1  0  0  0  0
 20 21  2  0  0  0  0
 20 42  1  0  0  0  0
 21 22  1  0  0  0  0
 21 43  1  0  0  0  0
 22 23  2  0  0  0  0
 22 44  1  0  0  0  0
 23 24  1  0  0  0  0
 23 45  1  0  0  0  0
M  END
> <s_m_source_file>
AV-unprocessed.smi

> <i_m_source_file_index>
500

> <i_lp_mmshare_version>
43012

> <i_f3d_flags>
0

> <s_epik_input>
W0NIM11bQ0gyXU9bQ0gyXVtDSDJdbihjKGMxMilbY0hdW2NIXVtjSF1bY0hdMiljKG4xKVtDQEhdKFtDSDNdKVtOSF1DKD1PKWMzW2NIXVtjSF1bY0hdbzM=

> <s_epik_cmdline>
J2VwaWtfcHl0aG9uJywgJy1waCcsICc3LjAnLCAnLXRuJywgJzgnLCAnLW1hJywgJzIwMCcsICctbWV0YWxfYmluZGluZycsICctaW1hZScsICc8aW5maWxlLm1hZT4nLCAnLW9tYWUnLCAnPG91dGZpbGUubWFlPic=

> <r_epik_Ionization_Penalty>
0.109801

> <r_epik_Ionization_Penalty_Charging>
0

> <r_epik_Ionization_Penalty_Neutral>
0.109801

> <r_epik_State_Penalty>
0.0995533

> <r_epik_Charging_Adjusted_Penalty>
0.0995533

> <i_epik_Tot_Q>
0

> <i_epik_Tot_abs_Q>
0

> <r_epik_Metal_State_Penalty>
0.0918163

> <b_epik_Metal_Only>
0

> <s_lp_Force_Field>
OPLS_2005

> <r_lp_Energy>
8.25657

> <b_lp_Chiralities_Consistent>
1

> <s_lp_Variant>
AV-unprocessed.smi:500-1

> <Gold.Version>
5.8.1

> <Gold.Id.Protein>
6NUR|6NUR_protein|mol2

> <Gold.PLP.Fitness>
49.7309

> <Gold.PLP.PLP>
-41.5817

> <Gold.PLP.part.hbond>
-2.0000

> <Gold.PLP.part.metal>
0.0000

> <Gold.PLP.part.buried>
-6.7772

> <Gold.PLP.part.nonpolar>
-35.2181

> <Gold.PLP.part.repulsive>
1.0180

> <Gold.PLP.ligand.clash>
0.0000

> <Gold.PLP.ligand.torsion>
0.4499

> <Gold.PLP.Chemscore.Hbond>
1.9833

> <Gold.PLP.Chemscore.CHOScore>
1.0000

> <Gold.PLP.Chemscore.Metal>
0.0000

> <Gold.Chemscore.Hbonds>
donor molecule, donor type, donor heavy atom, donor atom, acceptor molecule, acceptor atom, score
      P1  H  6896  6909       L1     3  1.00
      P1  H  7989  7998       L1    12  0.98
      L1  C    16    41       P1 10175  1.00

> <Gold.PLP.Chemscore.Internal.Correction>
0.0993

> <Gold.Rescore>
     Score         DG    S(hbond)    S(metal)    S(lipo)     H(rot)  DE(clash)    DE(int)     intcor
     15.59     -20.00       1.95        0.00     110.31       1.92       0.18       4.22       ----

> <Gold.Chemscore.Fitness>
15.5898

> <Gold.Chemscore.DG>
-19.9952

> <Gold.Chemscore.ZeroCoef>
-5.4800

> <Gold.Chemscore.Hbond>
1.9501

> <Gold.Chemscore.Metal>
0.0000

> <Gold.Chemscore.Lipo>
110.3064

> <Gold.Chemscore.Internal_Hbond>
0.0000

> <Gold.Chemscore.DEClash>
0.1837

> <Gold.Chemscore.DEInternal>
4.2217

> <Gold.Chemscore.Rot>
1.9156

> <Gold.Chemscore.Internal.Correction>
   9.000000E+99

> <Gold.Chemscore.Hbonds>
donor molecule, donor type, donor heavy atom, donor atom, acceptor molecule, acceptor atom, score
      P1  H  6896  6909       L1     3  0.88
      P1  H  7989  7998       L1    12  0.90

> <Gold.Chemscore.Hbond.Weighted>
-6.5134

> <Gold.Chemscore.Metal.Weighted>
-0.0000

> <Gold.Chemscore.Lipo.Weighted>
-12.9058

> <Gold.Chemscore.Internal_Hbond.Weighted>
0.0000

> <Gold.Chemscore.DEClash.Weighted>
0.1837

> <Gold.Chemscore.DEInternal.Weighted>
4.2217

> <Gold.Chemscore.Rot.Weighted>
4.9041

> <Gold.Chemscore.Internal.Correction.Weighted>
   9.000000E+99

> <Gold.Protein.RotatedTorsions>
[ 6907 6896 6895 6894 ] final  144.28 input  -60.11 | X-H torsion
[ 7974 7965 7964 7962 ] final   53.91 input  175.53 | X-H torsion
[ 8008 7997 7996 7995 ] final  136.56 input   59.86 | X-H torsion
[ 10167 10162 10161 10158 ] final   14.85 input  -65.29 | X-H torsion
[ 10718 10713 10712 10709 ] final  173.39 input   66.30 | X-H torsion
[ 10763 10752 10751 10750 ] final -161.52 input  -60.55 | X-H torsion
[ 11005 11000 10999 10996 ] final  -61.25 input  -57.11 | X-H torsion

> <Gold.Protein.ActiveResidues>
 VAL166  LYS551  ARG553  GLY616  TRP617  ASP618  TYR619  PRO620  LYS621  CYS622 
 ASP623  PHE694  ASN695  SER759  ASP760  ASP761  ALA762  ILE779  LEU786  VAL792 
 PHE793  MET794  SER795  GLU796  ALA797  LYS798  CYS799  TRP800  GLU811  SER814 

> <Gold.Protein.RotatedAtoms>
  152.1957  133.4805  159.5031 H   0  0  0  0  0  0  0  0  0  0  0  0  # atno 6907 bound_to 6896
  150.6959  134.1655  159.4201 H   0  0  0  0  0  0  0  0  0  0  0  0  # atno 6908 bound_to 6896
  151.9571  135.0141  160.0596 H   0  0  0  0  0  0  0  0  0  0  0  0  # atno 6909 bound_to 6896
  145.9663  139.4107  143.0217 H   0  0  0  0  0  0  0  0  0  0  0  0  # atno 7974 bound_to 7965
  156.3004  140.2442  156.3765 H   0  0  0  0  0  0  0  0  0  0  0  0  # atno 8008 bound_to 7997
  154.8741  140.0415  157.1762 H   0  0  0  0  0  0  0  0  0  0  0  0  # atno 8009 bound_to 7997
  154.8765  140.2943  155.5454 H   0  0  0  0  0  0  0  0  0  0  0  0  # atno 8010 bound_to 7997
  140.5908  143.8799  150.6872 H   0  0  0  0  0  0  0  0  0  0  0  0  # atno 10167 bound_to 10162
  156.9650  131.0072  151.2918 H   0  0  0  0  0  0  0  0  0  0  0  0  # atno 10718 bound_to 10713
  154.7296  135.3043  154.8914 H   0  0  0  0  0  0  0  0  0  0  0  0  # atno 10763 bound_to 10752
  153.9761  135.6736  153.4752 H   0  0  0  0  0  0  0  0  0  0  0  0  # atno 10764 bound_to 10752
  153.0906  135.4961  154.8603 H   0  0  0  0  0  0  0  0  0  0  0  0  # atno 10765 bound_to 10752
  141.1317  133.6628  156.5346 H   0  0  0  0  0  0  0  0  0  0  0  0  # atno 11005 bound_to 11000
  145.7968  140.9789  143.1019 LP  0  0  0  0  0  0  0  0  0  0  0  0  # atno 17320 bound_to 7965
  144.6826  139.9752  143.7482 LP  0  0  0  0  0  0  0  0  0  0  0  0  # atno 17321 bound_to 7965
  140.2322  143.3727  152.1556 LP  0  0  0  0  0  0  0  0  0  0  0  0  # atno 17342 bound_to 10162
  139.5226  144.7061  151.5350 LP  0  0  0  0  0  0  0  0  0  0  0  0  # atno 17343 bound_to 10162
  157.5631  130.8259  149.8292 LP  0  0  0  0  0  0  0  0  0  0  0  0  # atno 17370 bound_to 10713
  156.0306  130.3766  150.1698 LP  0  0  0  0  0  0  0  0  0  0  0  0  # atno 17371 bound_to 10713
  140.4188  134.7206  157.4878 LP  0  0  0  0  0  0  0  0  0  0  0  0  # atno 17394 bound_to 11000
  140.0375  134.6316  155.9025 LP  0  0  0  0  0  0  0  0  0  0  0  0  # atno 17395 bound_to 11000

$$$$
