AV-unprocessed.smi:102|AV-procd|sdf|969|dock6
  -GOLD-   2262017513D 1   1.00000     0.00000
 Structure written by MMmdl.
 43 44  0  0  0  0  0  0  0  0  2 V2000
  146.3312  133.3309  151.3367 C   0  0  0  0  0  0  0  0  0  0  0  0
  147.0411  132.8091  152.5790 C   0  0  0  0  0  0  0  0  0  0  0  0
  146.4168  132.3045  153.5126 O   0  0  0  0  0  0  0  0  0  0  0  0
  148.3707  132.9737  152.5161 O   0  0  0  0  0  0  0  0  0  0  0  0
  149.1758  132.5897  153.6183 C   0  0  0  0  0  0  0  0  0  0  0  0
  148.9837  133.5881  154.7701 C   0  0  2  0  0  0  0  0  0  0  0  0
  149.5430  134.8562  154.4315 O   0  0  0  0  0  0  0  0  0  0  0  0
  150.6329  135.1415  155.2547 C   0  0  1  0  0  0  0  0  0  0  0  0
  150.8682  136.6452  155.2955 N   0  0  0  0  0  0  0  0  0  0  0  0
  149.9609  137.5359  154.7399 C   0  0  0  0  0  0  0  0  0  0  0  0
  150.1474  138.8696  154.8069 C   0  0  0  0  0  0  0  0  0  0  0  0
  149.2457  139.7000  154.2556 F   0  0  0  0  0  0  0  0  0  0  0  0
  151.3183  139.4005  155.4989 C   0  0  0  0  0  0  0  0  0  0  0  0
  151.5085  140.6157  155.5197 O   0  0  0  0  0  0  0  0  0  0  0  0
  152.1523  138.5104  156.1083 N   0  5  0  0  0  0  0  0  0  0  0  0
  151.9530  137.1600  156.0630 C   0  0  0  0  0  0  0  0  0  0  0  0
  152.6682  136.3641  156.6713 O   0  0  0  0  0  0  0  0  0  0  0  0
  150.2465  134.4886  156.5923 C   0  0  1  0  0  0  0  0  0  0  0  0
  149.2542  135.2430  157.2852 O   0  0  0  0  0  0  0  0  0  0  0  0
  149.6126  136.1511  158.2083 C   0  0  0  0  0  0  0  0  0  0  0  0
  148.4118  136.8661  158.8125 C   0  0  0  0  0  0  0  0  0  0  0  0
  150.7628  136.4138  158.5594 O   0  0  0  0  0  0  0  0  0  0  0  0
  149.6385  133.1818  156.1030 C   0  0  2  0  0  0  0  0  0  0  0  0
  150.6671  132.2107  155.9283 O   0  0  0  0  0  0  0  0  0  0  0  0
  151.3581  131.7503  156.9859 C   0  0  0  0  0  0  0  0  0  0  0  0
  152.5435  130.8887  156.5721 C   0  0  0  0  0  0  0  0  0  0  0  0
  151.1075  131.9731  158.1701 O   0  0  0  0  0  0  0  0  0  0  0  0
  146.8308  132.9763  150.4351 H   0  0  0  0  0  0  0  0  0  0  0  0
  146.3354  134.4209  151.3303 H   0  0  0  0  0  0  0  0  0  0  0  0
  145.2962  132.9890  151.3151 H   0  0  0  0  0  0  0  0  0  0  0  0
  148.8713  131.5922  153.9384 H   0  0  0  0  0  0  0  0  0  0  0  0
  150.2263  132.5373  153.3284 H   0  0  0  0  0  0  0  0  0  0  0  0
  147.9177  133.7411  154.9442 H   0  0  0  0  0  0  0  0  0  0  0  0
  151.5481  134.7239  154.8313 H   0  0  0  0  0  0  0  0  0  0  0  0
  149.0665  137.1773  154.2556 H   0  0  0  0  0  0  0  0  0  0  0  0
  151.1381  134.3488  157.2059 H   0  0  0  0  0  0  0  0  0  0  0  0
  147.8385  137.3675  158.0324 H   0  0  0  0  0  0  0  0  0  0  0  0
  148.7349  137.6132  159.5377 H   0  0  0  0  0  0  0  0  0  0  0  0
  147.7607  136.1525  159.3177 H   0  0  0  0  0  0  0  0  0  0  0  0
  148.8833  132.7981  156.7912 H   0  0  0  0  0  0  0  0  0  0  0  0
  152.2281  130.1234  155.8628 H   0  0  0  0  0  0  0  0  0  0  0  0
  152.9807  130.3959  157.4406 H   0  0  0  0  0  0  0  0  0  0  0  0
  153.3103  131.5038  156.1009 H   0  0  0  0  0  0  0  0  0  0  0  0
  1  2  1  0  0  0  0
  1 28  1  0  0  0  0
  1 29  1  0  0  0  0
  1 30  1  0  0  0  0
  2  3  2  0  0  0  0
  2  4  1  0  0  0  0
  4  5  1  0  0  0  0
  5  6  1  0  0  0  0
  5 31  1  0  0  0  0
  5 32  1  0  0  0  0
  6 23  1  0  0  0  0
  6  7  1  0  0  0  0
  6 33  1  0  0  0  0
  7  8  1  0  0  0  0
  8  9  1  0  0  0  0
  8 18  1  0  0  0  0
  8 34  1  0  0  0  0
  9 16  1  0  0  0  0
  9 10  1  0  0  0  0
 10 11  2  0  0  0  0
 10 35  1  0  0  0  0
 11 12  1  0  0  0  0
 11 13  1  0  0  0  0
 13 14  2  0  0  0  0
 13 15  1  0  0  0  0
 15 16  1  0  0  0  0
 16 17  2  0  0  0  0
 18 19  1  0  0  0  0
 18 23  1  0  0  0  0
 18 36  1  0  0  0  0
 19 20  1  0  0  0  0
 20 21  1  0  0  0  0
 20 22  2  0  0  0  0
 21 37  1  0  0  0  0
 21 38  1  0  0  0  0
 21 39  1  0  0  0  0
 23 24  1  0  0  0  0
 23 40  1  0  0  0  0
 24 25  1  0  0  0  0
 25 26  1  0  0  0  0
 25 27  2  0  0  0  0
 26 41  1  0  0  0  0
 26 42  1  0  0  0  0
 26 43  1  0  0  0  0
M  CHG  1  15  -1
M  END
> <s_m_source_file>
AV-unprocessed.smi

> <i_m_source_file_index>
102

> <i_lp_mmshare_version>
43012

> <i_f3d_flags>
0

> <s_epik_input>
W0NIM11DKD1PKU9bQ0gyXVtDQEBIXTFPW0NASF0oW0NAQEhdKE9DKD1PKVtDSDNdKVtDQEhdMU9DKD1PKVtDSDNdKW4yW2NIXWMoRiljKD1PKVtuSF1jMj1P

> <s_epik_cmdline>
J2VwaWtfcHl0aG9uJywgJy1waCcsICc3LjAnLCAnLXRuJywgJzgnLCAnLW1hJywgJzIwMCcsICctbWV0YWxfYmluZGluZycsICctaW1hZScsICc8aW5maWxlLm1hZT4nLCAnLW9tYWUnLCAnPG91dGZpbGUubWFlPic=

> <r_epik_Ionization_Penalty>
1.40304

> <r_epik_Ionization_Penalty_Charging>
1.43915e-08

> <r_epik_Ionization_Penalty_Neutral>
1.40304

> <r_epik_State_Penalty>
1.48536

> <r_epik_Charging_Adjusted_Penalty>
1.48536

> <i_epik_Tot_Q>
-1

> <i_epik_Tot_abs_Q>
1

> <r_epik_Metal_State_Penalty>
0.00663881

> <b_epik_Metal_Only>
0

> <s_epik_Chemistry_Notes>
This compound has an ester and may undergo hydrolysis at high or low pH. This compound contains an acetal/aminal-like group ( X-CH(R)-Y where X, Y are N, S, or O) that may be acid/base labile, releasing an aldehyde.

> <s_lp_Force_Field>
OPLS_2005

> <r_lp_Energy>
30.6684

> <b_lp_Chiralities_Consistent>
1

> <s_lp_Variant>
AV-unprocessed.smi:102-25

> <Gold.Version>
5.8.1

> <Gold.Id.Protein>
6NUR|6NUR_protein|mol2

> <Gold.PLP.Fitness>
45.6785

> <Gold.PLP.PLP>
-33.3413

> <Gold.PLP.part.hbond>
-4.0000

> <Gold.PLP.part.metal>
0.0000

> <Gold.PLP.part.buried>
-4.5453

> <Gold.PLP.part.nonpolar>
-27.7656

> <Gold.PLP.part.repulsive>
2.2480

> <Gold.PLP.ligand.clash>
0.0000

> <Gold.PLP.ligand.torsion>
0.6448

> <Gold.PLP.Chemscore.Hbond>
3.5672

> <Gold.PLP.Chemscore.CHOScore>
0.9156

> <Gold.PLP.Chemscore.Metal>
0.0000

> <Gold.Chemscore.Hbonds>
donor molecule, donor type, donor heavy atom, donor atom, acceptor molecule, acceptor atom, score
      P1  H  6896  6907       L1    22  0.78
      P1  H  6896  6909       L1    27  1.00
      P1  H  7989  7998       L1    14  0.65
      P1  H 10752 10763       L1    17  1.00
      L1  C    10    35       P1  7948  0.82

> <Gold.PLP.Chemscore.Internal.Correction>
0.1784

> <Gold.Rescore>
     Score         DG    S(hbond)    S(metal)    S(lipo)     H(rot)  DE(clash)    DE(int)     intcor
      8.23     -10.56       3.09        0.00      42.57       4.00       1.20       1.13       ----

> <Gold.Chemscore.Fitness>
8.2338

> <Gold.Chemscore.DG>
-10.5617

> <Gold.Chemscore.ZeroCoef>
-5.4800

> <Gold.Chemscore.Hbond>
3.0924

> <Gold.Chemscore.Metal>
0.0000

> <Gold.Chemscore.Lipo>
42.5696

> <Gold.Chemscore.Internal_Hbond>
0.0000

> <Gold.Chemscore.DEClash>
1.1972

> <Gold.Chemscore.DEInternal>
1.1307

> <Gold.Chemscore.Rot>
3.9951

> <Gold.Chemscore.Internal.Correction>
   9.000000E+99

> <Gold.Chemscore.Hbonds>
donor molecule, donor type, donor heavy atom, donor atom, acceptor molecule, acceptor atom, score
      P1  H  6896  6907       L1    22  0.15
      P1  H  6896  6909       L1    27  1.00
      P1  H  7989  7998       L1    14  0.10
      P1  H 10752 10763       L1    17  0.26

> <Gold.Chemscore.Hbond.Weighted>
-10.3285

> <Gold.Chemscore.Metal.Weighted>
-0.0000

> <Gold.Chemscore.Lipo.Weighted>
-4.9806

> <Gold.Chemscore.Internal_Hbond.Weighted>
0.0000

> <Gold.Chemscore.DEClash.Weighted>
1.1972

> <Gold.Chemscore.DEInternal.Weighted>
1.1307

> <Gold.Chemscore.Rot.Weighted>
10.2274

> <Gold.Chemscore.Internal.Correction.Weighted>
   9.000000E+99

> <Gold.Protein.RotatedTorsions>
[ 6907 6896 6895 6894 ] final  -37.89 input  -60.11 | X-H torsion
[ 7974 7965 7964 7962 ] final -179.70 input  175.53 | X-H torsion
[ 8008 7997 7996 7995 ] final   92.63 input   59.86 | X-H torsion
[ 10167 10162 10161 10158 ] final -106.31 input  -65.29 | X-H torsion
[ 10718 10713 10712 10709 ] final    2.00 input   66.30 | X-H torsion
[ 10763 10752 10751 10750 ] final  106.61 input  -60.55 | X-H torsion
[ 11005 11000 10999 10996 ] final  -81.71 input  -57.11 | X-H torsion

> <Gold.Protein.ActiveResidues>
 VAL166  LYS551  ARG553  GLY616  TRP617  ASP618  TYR619  PRO620  LYS621  CYS622 
 ASP623  PHE694  ASN695  SER759  ASP760  ASP761  ALA762  ILE779  LEU786  VAL792 
 PHE793  MET794  SER795  GLU796  ALA797  LYS798  CYS799  TRP800  GLU811  SER814 

> <Gold.Protein.RotatedAtoms>
  151.0091  134.9383  159.7996 H   0  0  0  0  0  0  0  0  0  0  0  0  # atno 6907 bound_to 6896
  152.5298  134.3052  159.9103 H   0  0  0  0  0  0  0  0  0  0  0  0  # atno 6908 bound_to 6896
  151.3058  133.4060  159.2677 H   0  0  0  0  0  0  0  0  0  0  0  0  # atno 6909 bound_to 6896
  144.7138  140.0677  143.6430 H   0  0  0  0  0  0  0  0  0  0  0  0  # atno 7974 bound_to 7965
  156.0375  140.3323  155.7207 H   0  0  0  0  0  0  0  0  0  0  0  0  # atno 8008 bound_to 7997
  155.5793  140.0635  157.2805 H   0  0  0  0  0  0  0  0  0  0  0  0  # atno 8009 bound_to 7997
  154.4379  140.1847  156.0948 H   0  0  0  0  0  0  0  0  0  0  0  0  # atno 8010 bound_to 7997
  140.1891  143.3906  152.1220 H   0  0  0  0  0  0  0  0  0  0  0  0  # atno 10167 bound_to 10162
  156.8565  130.5572  149.5666 H   0  0  0  0  0  0  0  0  0  0  0  0  # atno 10718 bound_to 10713
  153.3954  135.3871  155.1951 H   0  0  0  0  0  0  0  0  0  0  0  0  # atno 10763 bound_to 10752
  154.8724  135.3758  154.4685 H   0  0  0  0  0  0  0  0  0  0  0  0  # atno 10764 bound_to 10752
  153.5176  135.7087  153.5809 H   0  0  0  0  0  0  0  0  0  0  0  0  # atno 10765 bound_to 10752
  141.1665  133.7209  156.8463 H   0  0  0  0  0  0  0  0  0  0  0  0  # atno 11005 bound_to 11000
  145.9810  139.2941  143.1042 LP  0  0  0  0  0  0  0  0  0  0  0  0  # atno 17320 bound_to 7965
  145.9011  140.9242  143.0502 LP  0  0  0  0  0  0  0  0  0  0  0  0  # atno 17321 bound_to 7965
  139.5263  144.7106  151.5217 LP  0  0  0  0  0  0  0  0  0  0  0  0  # atno 17342 bound_to 10162
  140.6468  143.8779  150.6745 LP  0  0  0  0  0  0  0  0  0  0  0  0  # atno 17343 bound_to 10162
  156.0799  130.5812  150.9544 LP  0  0  0  0  0  0  0  0  0  0  0  0  # atno 17370 bound_to 10713
  157.6274  131.0924  150.8508 LP  0  0  0  0  0  0  0  0  0  0  0  0  # atno 17371 bound_to 10713
  140.1947  134.8940  157.3101 LP  0  0  0  0  0  0  0  0  0  0  0  0  # atno 17394 bound_to 11000
  140.2252  134.3976  155.7547 LP  0  0  0  0  0  0  0  0  0  0  0  0  # atno 17395 bound_to 11000

$$$$
