AV-unprocessed.smi:1575|AV-procd|sdf|6341|dock9
  -GOLD-   22720 6563D 1   1.00000     0.00000
 Structure written by MMmdl.
 40 40  0  0  0  0  0  0  0  0  2 V2000
  149.0655  133.3439  154.1960 C   0  0  0  0  0  0  0  0  0  0  0  0
  148.1211  134.3294  153.6931 N   0  0  0  0  0  0  0  0  0  0  0  0
  146.9801  134.6656  154.3118 C   0  0  0  0  0  0  0  0  0  0  0  0
  146.6242  134.1680  155.3817 O   0  0  0  0  0  0  0  0  0  0  0  0
  146.1256  135.7436  153.6234 C   0  0  2  0  0  0  0  0  0  0  0  0
  145.6088  135.1611  152.2855 C   0  0  0  0  0  0  0  0  0  0  0  0
  144.5116  134.0776  152.4114 C   0  0  0  0  0  0  0  0  0  0  0  0
  144.4128  133.1885  151.1610 C   0  0  0  0  0  0  0  0  0  0  0  0
  143.1519  134.7208  152.7228 C   0  0  0  0  0  0  0  0  0  0  0  0
  146.9354  136.9231  153.3303 N   0  0  0  0  0  0  0  0  0  0  0  0
  146.7465  138.1581  153.8243 C   0  0  0  0  0  0  0  0  0  0  0  0
  145.8679  138.4220  154.6447 O   0  0  0  0  0  0  0  0  0  0  0  0
  147.6700  139.2808  153.3208 C   0  0  0  0  0  0  0  0  0  0  0  0
  148.9425  139.4037  154.0570 N   0  0  0  0  0  0  0  0  0  0  0  0
  149.6106  138.2172  154.4076 C   0  0  0  0  0  0  0  0  0  0  0  0
  150.7892  138.2315  155.0590 C   0  0  0  0  0  0  0  0  0  0  0  0
  151.3733  139.5222  155.4017 C   0  0  0  0  0  0  0  0  0  0  0  0
  152.4496  139.5544  155.9952 O   0  0  0  0  0  0  0  0  0  0  0  0
  150.6866  140.6455  155.0404 N   0  5  0  0  0  0  0  0  0  0  0  0
  149.4895  140.6161  154.3768 C   0  0  0  0  0  0  0  0  0  0  0  0
  148.8929  141.6421  154.0487 O   0  0  0  0  0  0  0  0  0  0  0  0
  149.8841  133.2189  153.4876 H   0  0  0  0  0  0  0  0  0  0  0  0
  148.5826  132.3755  154.3340 H   0  0  0  0  0  0  0  0  0  0  0  0
  149.4857  133.6633  155.1505 H   0  0  0  0  0  0  0  0  0  0  0  0
  148.3452  134.7825  152.8190 H   0  0  0  0  0  0  0  0  0  0  0  0
  145.2887  136.0166  154.2683 H   0  0  0  0  0  0  0  0  0  0  0  0
  145.2173  135.9740  151.6704 H   0  0  0  0  0  0  0  0  0  0  0  0
  146.4482  134.7452  151.7258 H   0  0  0  0  0  0  0  0  0  0  0  0
  144.7510  133.4320  153.2572 H   0  0  0  0  0  0  0  0  0  0  0  0
  144.2185  133.7807  150.2665 H   0  0  0  0  0  0  0  0  0  0  0  0
  143.6054  132.4626  151.2612 H   0  0  0  0  0  0  0  0  0  0  0  0
  145.3299  132.6229  150.9980 H   0  0  0  0  0  0  0  0  0  0  0  0
  142.8326  135.3834  151.9179 H   0  0  0  0  0  0  0  0  0  0  0  0
  143.1954  135.3076  153.6409 H   0  0  0  0  0  0  0  0  0  0  0  0
  142.3797  133.9628  152.8571 H   0  0  0  0  0  0  0  0  0  0  0  0
  147.6840  136.8004  152.6635 H   0  0  0  0  0  0  0  0  0  0  0  0
  147.8657  139.1219  152.2589 H   0  0  0  0  0  0  0  0  0  0  0  0
  147.1157  140.2190  153.3688 H   0  0  0  0  0  0  0  0  0  0  0  0
  149.1147  137.3048  154.1107 H   0  0  0  0  0  0  0  0  0  0  0  0
  151.2916  137.3111  155.3179 H   0  0  0  0  0  0  0  0  0  0  0  0
  1  2  1  0  0  0  0
  1 22  1  0  0  0  0
  1 23  1  0  0  0  0
  1 24  1  0  0  0  0
  2  3  1  0  0  0  0
  2 25  1  0  0  0  0
  3  4  2  0  0  0  0
  3  5  1  0  0  0  0
  5  6  1  0  0  0  0
  5 10  1  0  0  0  0
  5 26  1  0  0  0  0
  6  7  1  0  0  0  0
  6 27  1  0  0  0  0
  6 28  1  0  0  0  0
  7  8  1  0  0  0  0
  7  9  1  0  0  0  0
  7 29  1  0  0  0  0
  8 30  1  0  0  0  0
  8 31  1  0  0  0  0
  8 32  1  0  0  0  0
  9 33  1  0  0  0  0
  9 34  1  0  0  0  0
  9 35  1  0  0  0  0
 10 11  1  0  0  0  0
 10 36  1  0  0  0  0
 11 12  2  0  0  0  0
 11 13  1  0  0  0  0
 13 14  1  0  0  0  0
 13 37  1  0  0  0  0
 13 38  1  0  0  0  0
 14 20  1  0  0  0  0
 14 15  1  0  0  0  0
 15 16  2  0  0  0  0
 15 39  1  0  0  0  0
 16 17  1  0  0  0  0
 16 40  1  0  0  0  0
 17 18  2  0  0  0  0
 17 19  1  0  0  0  0
 19 20  1  0  0  0  0
 20 21  2  0  0  0  0
M  CHG  1  19  -1
M  END
> <s_m_source_file>
AV-unprocessed.smi

> <i_m_source_file_index>
1575

> <i_lp_mmshare_version>
43012

> <i_f3d_flags>
0

> <s_epik_input>
W0NIM11bTkhdQyg9TylbQ0BIXShbQ0gyXVtDSF0oW0NIM10pW0NIM10pW05IXUMoPU8pW0NIMl1uMVtjSF1bY0hdYyg9TylbbkhdYzE9Tw==

> <s_epik_cmdline>
J2VwaWtfcHl0aG9uJywgJy1waCcsICc3LjAnLCAnLXRuJywgJzgnLCAnLW1hJywgJzIwMCcsICctbWV0YWxfYmluZGluZycsICctaW1hZScsICc8aW5maWxlLm1hZT4nLCAnLW9tYWUnLCAnPG91dGZpbGUubWFlPic=

> <r_lp_tautomer_probability>
0.999537

> <r_epik_Ionization_Penalty>
3.03017

> <r_epik_Ionization_Penalty_Charging>
2.35557e-08

> <r_epik_Ionization_Penalty_Neutral>
3.03017

> <r_epik_State_Penalty>
3.02913

> <r_epik_Charging_Adjusted_Penalty>
3.02913

> <i_epik_Tot_Q>
-1

> <i_epik_Tot_abs_Q>
1

> <r_epik_Metal_State_Penalty>
0.455824

> <b_epik_Metal_Only>
1

> <s_lp_Force_Field>
OPLS_2005

> <r_lp_Energy>
14.6611

> <b_lp_Chiralities_Consistent>
1

> <s_lp_Variant>
AV-unprocessed.smi:1575-3

> <Gold.Version>
5.8.1

> <Gold.Id.Protein>
6NUR|6NUR_protein|mol2

> <Gold.PLP.Fitness>
43.7441

> <Gold.PLP.PLP>
-30.6422

> <Gold.PLP.part.hbond>
-5.3829

> <Gold.PLP.part.metal>
0.0000

> <Gold.PLP.part.buried>
0.0589

> <Gold.PLP.part.nonpolar>
-25.0901

> <Gold.PLP.part.repulsive>
0.3686

> <Gold.PLP.ligand.clash>
0.0000

> <Gold.PLP.ligand.torsion>
0.9672

> <Gold.PLP.Chemscore.Hbond>
4.0070

> <Gold.PLP.Chemscore.CHOScore>
0.9893

> <Gold.PLP.Chemscore.Metal>
0.0000

> <Gold.Chemscore.Hbonds>
donor molecule, donor type, donor heavy atom, donor atom, acceptor molecule, acceptor atom, score
      L1  H     2    25       P1  7948  1.00
      L1  H    10    36       P1  7948  1.00
      P1  H  7989  7998       L1    19  0.42
      P1  H  7997  8010       L1    18  1.00
      P1  H  8011  8017       L1    21  0.51
      L1  C    15    39       P1  7948  0.98

> <Gold.PLP.Chemscore.Internal.Correction>
0.0474

> <Gold.Rescore>
     Score         DG    S(hbond)    S(metal)    S(lipo)     H(rot)  DE(clash)    DE(int)     intcor
     12.94     -14.33       3.21        0.00      43.90       2.74       0.12       1.27       ----

> <Gold.Chemscore.Fitness>
12.9359

> <Gold.Chemscore.DG>
-14.3302

> <Gold.Chemscore.ZeroCoef>
-5.4800

> <Gold.Chemscore.Hbond>
3.2147

> <Gold.Chemscore.Metal>
0.0000

> <Gold.Chemscore.Lipo>
43.8991

> <Gold.Chemscore.Internal_Hbond>
0.0000

> <Gold.Chemscore.DEClash>
0.1243

> <Gold.Chemscore.DEInternal>
1.2700

> <Gold.Chemscore.Rot>
2.7435

> <Gold.Chemscore.Internal.Correction>
   9.000000E+99

> <Gold.Chemscore.Hbonds>
donor molecule, donor type, donor heavy atom, donor atom, acceptor molecule, acceptor atom, score
      L1  H     2    25       P1  7948  0.54
      L1  H    10    36       P1  7948  0.99
      P1  H  7997  8010       L1    18  0.95
      P1  H  8011  8017       L1    21  0.35

> <Gold.Chemscore.Hbond.Weighted>
-10.7373

> <Gold.Chemscore.Metal.Weighted>
-0.0000

> <Gold.Chemscore.Lipo.Weighted>
-5.1362

> <Gold.Chemscore.Internal_Hbond.Weighted>
0.0000

> <Gold.Chemscore.DEClash.Weighted>
0.1243

> <Gold.Chemscore.DEInternal.Weighted>
1.2700

> <Gold.Chemscore.Rot.Weighted>
7.0233

> <Gold.Chemscore.Internal.Correction.Weighted>
   9.000000E+99

> <Gold.Protein.RotatedTorsions>
[ 6907 6896 6895 6894 ] final  -34.52 input  -60.11 | X-H torsion
[ 7974 7965 7964 7962 ] final  -54.36 input  175.53 | X-H torsion
[ 8008 7997 7996 7995 ] final   90.22 input   59.86 | X-H torsion
[ 10167 10162 10161 10158 ] final  133.17 input  -65.29 | X-H torsion
[ 10718 10713 10712 10709 ] final  -46.79 input   66.30 | X-H torsion
[ 10763 10752 10751 10750 ] final  163.26 input  -60.55 | X-H torsion
[ 11005 11000 10999 10996 ] final -146.91 input  -57.11 | X-H torsion

> <Gold.Protein.ActiveResidues>
 VAL166  LYS551  ARG553  GLY616  TRP617  ASP618  TYR619  PRO620  LYS621  CYS622 
 ASP623  PHE694  ASN695  SER759  ASP760  ASP761  ALA762  ILE779  LEU786  VAL792 
 PHE793  MET794  SER795  GLU796  ALA797  LYS798  CYS799  TRP800  GLU811  SER814 

> <Gold.Protein.RotatedAtoms>
  151.0516  134.9676  159.8213 H   0  0  0  0  0  0  0  0  0  0  0  0  # atno 6907 bound_to 6896
  152.5381  134.2530  159.8916 H   0  0  0  0  0  0  0  0  0  0  0  0  # atno 6908 bound_to 6896
  151.2546  133.4290  159.2647 H   0  0  0  0  0  0  0  0  0  0  0  0  # atno 6909 bound_to 6896
  145.8865  140.8104  142.9813 H   0  0  0  0  0  0  0  0  0  0  0  0  # atno 7974 bound_to 7965
  156.0093  140.3352  155.6924 H   0  0  0  0  0  0  0  0  0  0  0  0  # atno 8008 bound_to 7997
  155.6180  140.0672  157.2704 H   0  0  0  0  0  0  0  0  0  0  0  0  # atno 8009 bound_to 7997
  154.4276  140.1781  156.1330 H   0  0  0  0  0  0  0  0  0  0  0  0  # atno 8010 bound_to 7997
  139.5308  144.6628  151.4958 H   0  0  0  0  0  0  0  0  0  0  0  0  # atno 10167 bound_to 10162
  156.2148  130.4162  149.9068 H   0  0  0  0  0  0  0  0  0  0  0  0  # atno 10718 bound_to 10713
  154.2910  135.2761  155.2655 H   0  0  0  0  0  0  0  0  0  0  0  0  # atno 10763 bound_to 10752
  154.5134  135.5776  153.6626 H   0  0  0  0  0  0  0  0  0  0  0  0  # atno 10764 bound_to 10752
  152.9914  135.6186  154.3075 H   0  0  0  0  0  0  0  0  0  0  0  0  # atno 10765 bound_to 10752
  140.7772  134.3121  157.5057 H   0  0  0  0  0  0  0  0  0  0  0  0  # atno 11005 bound_to 11000
  144.6729  140.1463  143.7433 LP  0  0  0  0  0  0  0  0  0  0  0  0  # atno 17320 bound_to 7965
  145.8961  139.2403  143.1521 LP  0  0  0  0  0  0  0  0  0  0  0  0  # atno 17321 bound_to 7965
  140.6485  143.8746  150.6761 LP  0  0  0  0  0  0  0  0  0  0  0  0  # atno 17342 bound_to 10162
  140.2103  143.3889  152.1723 LP  0  0  0  0  0  0  0  0  0  0  0  0  # atno 17343 bound_to 10162
  156.6734  130.8829  151.3565 LP  0  0  0  0  0  0  0  0  0  0  0  0  # atno 17370 bound_to 10713
  157.7057  130.9383  150.0925 LP  0  0  0  0  0  0  0  0  0  0  0  0  # atno 17371 bound_to 10713
  139.8747  134.9296  156.3481 LP  0  0  0  0  0  0  0  0  0  0  0  0  # atno 17394 bound_to 11000
  140.9518  133.7446  156.0282 LP  0  0  0  0  0  0  0  0  0  0  0  0  # atno 17395 bound_to 11000

$$$$
