#       Name:                AV-unprocessed.smi:2485
#       Creating user name   scv26
#       Creation time:       Fri Mar 27 13:42:51 2020


#       File generated by GOLD software.
#

@<TRIPOS>MOLECULE
AV-unprocessed.smi:2485
    45    46     1
SMALL
NO_CHARGES


@<TRIPOS>ATOM
      1 ****        -4.0573   0.0662  -1.4343 C.3            1 S1                 0.0000
      2 ****        -2.9675  -1.0008  -1.2343 C.3            1 S1                 0.0000
      3 ****        -3.3505  -2.3173  -1.9273 C.3            1 S1                 0.0000
      4 ****        -1.5857  -0.4975  -1.6679 C.3            1 S1                 0.0000
      5 ****        -1.0349   0.1299  -0.4027 C.3            1 S1                 0.0000
      6 ****         0.4258   0.1760  -0.4195 N.am           1 S1                 0.0000
      7 ****         1.1787   1.0592   0.2510 C.2            1 S1                 0.0000
      8 ****         0.7120   1.9615   0.9464 O.2            1 S1                 0.0000
      9 ****         2.4881   0.8211   0.0627 N.am           1 S1                 0.0000
     10 ****         3.5930   1.5167   0.6202 C.ar           1 S1                 0.0000
     11 ****         4.8638   1.0365   0.2384 C.ar           1 S1                 0.0000
     12 ****         6.0021   1.6776   0.7565 C.ar           1 S1                 0.0000
     13 ****         5.7907   2.7615   1.6255 C.ar           1 S1                 0.0000
     14 ****         4.5548   3.1879   1.9642 N.ar           1 S1                 0.0000
     15 ****         3.4758   2.5728   1.4674 N.ar           1 S1                 0.0000
     16 ****        -1.6212  -0.7780   0.7012 C.3            1 S1                 0.0000
     17 ****        -0.7806  -2.0365   1.0036 C.3            1 S1                 0.0000
     18 ****        -1.9237  -0.0040   1.9941 C.3            1 S1                 0.0000
     19 ****        -2.8616  -1.2406   0.1683 O.3            1 S1                 0.0000
     20 ****        -4.1806   0.3121  -2.4894 H              1 S1                 0.0000
     21 ****        -3.8166   0.9885  -0.9050 H              1 S1                 0.0000
     22 ****        -5.0206  -0.2815  -1.0603 H              1 S1                 0.0000
     23 ****        -3.4231  -2.1880  -3.0076 H              1 S1                 0.0000
     24 ****        -4.3130  -2.6847  -1.5703 H              1 S1                 0.0000
     25 ****        -2.6118  -3.0957  -1.7338 H              1 S1                 0.0000
     26 ****        -0.9564  -1.3354  -1.9727 H              1 S1                 0.0000
     27 ****        -1.6266   0.2004  -2.5049 H              1 S1                 0.0000
     28 ****        -1.4462   1.1379  -0.3189 H              1 S1                 0.0000
     29 ****         0.8942  -0.5303  -0.9677 H              1 S1                 0.0000
     30 ****         2.7214   0.0468  -0.5406 H              1 S1                 0.0000
     31 ****         4.9669   0.1969  -0.4338 H              1 S1                 0.0000
     32 ****         6.9984   1.3508   0.4983 H              1 S1                 0.0000
     33 ****         6.6245   3.2953   2.0568 H              1 S1                 0.0000
     34 ****         0.1748  -1.7811   1.4627 H              1 S1                 0.0000
     35 ****        -0.5743  -2.6096   0.0996 H              1 S1                 0.0000
     36 ****        -1.3047  -2.6977   1.6943 H              1 S1                 0.0000
     37 ****        -1.0098   0.3734   2.4529 H              1 S1                 0.0000
     38 ****        -2.4224  -0.6393   2.7265 H              1 S1                 0.0000
     39 ****        -2.5760   0.8483   1.8022 H              1 S1                 0.0000
     40 ****        -0.2789   2.0641   1.0333 LP             1 S1                 0.0000
     41 ****         1.3238   2.5918   1.4242 LP             1 S1                 0.0000
     42 ****         4.4463   3.9633   2.5862 LP             1 S1                 0.0000
     43 ****         2.5652   2.8964   1.7244 LP             1 S1                 0.0000
     44 ****        -2.9366  -2.2240   0.3336 LP             1 S1                 0.0000
     45 ****        -3.6090  -0.7664   0.6335 LP             1 S1                 0.0000
@<TRIPOS>BOND
    1    1    2 1     
    2    1   20 1     
    3    1   21 1     
    4    1   22 1     
    5    2   19 1     
    6    2    3 1     
    7    2    4 1     
    8    3   23 1     
    9    3   24 1     
   10    3   25 1     
   11    4    5 1     
   12    4   26 1     
   13    4   27 1     
   14    5    6 1     
   15    5   16 1     
   16    5   28 1     
   17    6    7 am    
   18    6   29 1     
   19    7    8 2     
   20    7    9 am    
   21    9   10 1     
   22    9   30 1     
   23   10   15 ar    
   24   10   11 ar    
   25   11   12 ar    
   26   11   31 1     
   27   12   13 ar    
   28   12   32 1     
   29   13   14 ar    
   30   13   33 1     
   31   14   15 ar    
   32   16   17 1     
   33   16   18 1     
   34   16   19 1     
   35   17   34 1     
   36   17   35 1     
   37   17   36 1     
   38   18   37 1     
   39   18   38 1     
   40   18   39 1     
   41    8   40 1     
   42    8   41 1     
   43   14   42 1     
   44   15   43 1     
   45   19   44 1     
   46   19   45 1     
@<TRIPOS>SUBSTRUCTURE
      1 S1             1
@<TRIPOS>SET
LONE_PAIRS      STATIC     ATOMS    <user>   **** ""
6 40 41 42 43 44 45
DONOR_HYDROGENS      STATIC     ATOMS    <user>   **** ""
2 29 30
ATOM$BLUE        STATIC     ATOMS    COLORGROUP SYSTEM
6 40 41 42 43 44 45
ATOM$RED        STATIC     ATOMS    COLORGROUP SYSTEM
2 29 30
