AV-unprocessed.smi:3226|AV-procd|sdf|12315|dock10
  -GOLD-   2272018163D 1   1.00000     0.00000
 Structure written by MMmdl.
 41 43  0  0  0  0  0  0  0  0  2 V2000
  152.6353  139.1792  157.9859 C   0  0  0  0  0  0  0  0  0  0  0  0
  151.9334  139.8851  156.8203 C   0  0  0  0  0  0  0  0  0  0  0  0
  151.5701  138.9447  155.7126 C   0  0  0  0  0  0  0  0  0  0  0  0
  152.1449  137.7475  155.5471 N   0  0  0  0  0  0  0  0  0  0  0  0
  151.5232  137.1826  154.4518 N   0  0  0  0  0  0  0  0  0  0  0  0
  150.6274  138.0909  154.0702 C   0  0  0  0  0  0  0  0  0  0  0  0
  150.6056  139.2129  154.8067 N   0  0  0  0  0  0  0  0  0  0  0  0
  149.7533  140.3791  154.6462 C   0  0  0  0  0  0  0  0  0  0  0  0
  149.2333  140.9129  155.9909 C   0  0  0  0  0  0  0  0  0  0  0  0
  149.9676  142.1202  156.4207 N   0  3  0  0  0  0  0  0  0  0  0  0
  150.1397  142.2300  157.8822 C   0  0  0  0  0  0  0  0  0  0  0  0
  150.6605  143.6239  158.2801 C   0  0  2  0  0  0  0  0  0  0  0  0
  151.7507  144.1870  157.3174 C   0  0  0  0  0  0  0  0  0  0  0  0
  152.9032  144.5619  158.2776 C   0  0  2  0  0  0  0  0  0  0  0  0
  153.4730  143.2762  158.8372 C   0  0  0  0  0  0  0  0  0  0  0  0
  152.5600  142.7648  159.6643 C   0  0  0  0  0  0  0  0  0  0  0  0
  151.3702  143.7039  159.6596 C   0  0  1  0  0  0  0  0  0  0  0  0
  152.0961  145.0437  159.4875 C   0  0  0  0  0  0  0  0  0  0  0  0
  152.8874  139.8883  158.7745 H   0  0  0  0  0  0  0  0  0  0  0  0
  153.5601  138.7029  157.6582 H   0  0  0  0  0  0  0  0  0  0  0  0
  151.9985  138.4091  158.4219 H   0  0  0  0  0  0  0  0  0  0  0  0
  151.0410  140.3988  157.1763 H   0  0  0  0  0  0  0  0  0  0  0  0
  152.5873  140.6594  156.4171 H   0  0  0  0  0  0  0  0  0  0  0  0
  149.9711  137.9349  153.2266 H   0  0  0  0  0  0  0  0  0  0  0  0
  150.3131  141.1529  154.1190 H   0  0  0  0  0  0  0  0  0  0  0  0
  148.9167  140.1117  154.0000 H   0  0  0  0  0  0  0  0  0  0  0  0
  148.1754  141.1608  155.8949 H   0  0  0  0  0  0  0  0  0  0  0  0
  149.3113  140.1458  156.7622 H   0  0  0  0  0  0  0  0  0  0  0  0
  150.8812  142.1128  155.9899 H   0  0  0  0  0  0  0  0  0  0  0  0
  149.1944  142.0092  158.3793 H   0  0  0  0  0  0  0  0  0  0  0  0
  150.8510  141.4699  158.2082 H   0  0  0  0  0  0  0  0  0  0  0  0
  149.8162  144.3159  158.2836 H   0  0  0  0  0  0  0  0  0  0  0  0
  152.0721  143.4606  156.5692 H   0  0  0  0  0  0  0  0  0  0  0  0
  151.3802  145.0656  156.7875 H   0  0  0  0  0  0  0  0  0  0  0  0
  153.6444  145.2640  157.8951 H   0  0  0  0  0  0  0  0  0  0  0  0
  154.4332  142.8593  158.5713 H   0  0  0  0  0  0  0  0  0  0  0  0
  152.6145  141.8397  160.2191 H   0  0  0  0  0  0  0  0  0  0  0  0
  150.7288  143.6366  160.5388 H   0  0  0  0  0  0  0  0  0  0  0  0
  152.7241  145.3023  160.3428 H   0  0  0  0  0  0  0  0  0  0  0  0
  151.4341  145.8847  159.2708 H   0  0  0  0  0  0  0  0  0  0  0  0
  149.4646  142.9346  156.0983 H   0  0  0  0  0  0  0  0  0  0  0  0
  1  2  1  0  0  0  0
  1 19  1  0  0  0  0
  1 20  1  0  0  0  0
  1 21  1  0  0  0  0
  2  3  1  0  0  0  0
  2 22  1  0  0  0  0
  2 23  1  0  0  0  0
  3  7  1  0  0  0  0
  3  4  2  0  0  0  0
  4  5  1  0  0  0  0
  5  6  2  0  0  0  0
  6  7  1  0  0  0  0
  6 24  1  0  0  0  0
  7  8  1  0  0  0  0
  8  9  1  0  0  0  0
  8 25  1  0  0  0  0
  8 26  1  0  0  0  0
  9 10  1  0  0  0  0
  9 27  1  0  0  0  0
  9 28  1  0  0  0  0
 10 11  1  0  0  0  0
 10 29  1  0  0  0  0
 10 41  1  0  0  0  0
 11 12  1  0  0  0  0
 11 30  1  0  0  0  0
 11 31  1  0  0  0  0
 12 17  1  0  0  0  0
 12 13  1  0  0  0  0
 12 32  1  0  0  0  0
 13 14  1  0  0  0  0
 13 33  1  0  0  0  0
 13 34  1  0  0  0  0
 14 18  1  0  0  0  0
 14 15  1  0  0  0  0
 14 35  1  0  0  0  0
 15 16  2  0  0  0  0
 15 36  1  0  0  0  0
 16 17  1  0  0  0  0
 16 37  1  0  0  0  0
 17 18  1  0  0  0  0
 17 38  1  0  0  0  0
 18 39  1  0  0  0  0
 18 40  1  0  0  0  0
M  CHG  1  10   1
M  END
> <s_m_source_file>
AV-unprocessed.smi

> <i_m_source_file_index>
3226

> <i_lp_mmshare_version>
43012

> <i_f3d_flags>
0

> <s_epik_input>
W0NIM11bQ0gyXWMxbm5bY0hdbjFbQ0gyXVtDSDJdW05IXVtDSDJdW0NASF0oW0NIMl1bQ0BASF0yMylbQ0BASF0oW0NIMl0zKVtDSF09W0NIXTI=

> <s_epik_cmdline>
J2VwaWtfcHl0aG9uJywgJy1waCcsICc3LjAnLCAnLXRuJywgJzgnLCAnLW1hJywgJzIwMCcsICctbWV0YWxfYmluZGluZycsICctaW1hZScsICc8aW5maWxlLm1hZT4nLCAnLW9tYWUnLCAnPG91dGZpbGUubWFlPic=

> <r_lp_tautomer_probability>
1

> <r_epik_Ionization_Penalty>
0.00175008

> <r_epik_Ionization_Penalty_Charging>
0.00173932

> <r_epik_Ionization_Penalty_Neutral>
1.07546e-05

> <r_epik_State_Penalty>
-0

> <r_epik_Charging_Adjusted_Penalty>
0.00173932

> <i_epik_Tot_Q>
1

> <i_epik_Tot_abs_Q>
1

> <r_epik_Metal_State_Penalty>
-0

> <b_epik_Metal_Only>
0

> <s_lp_Force_Field>
OPLS_2005

> <r_lp_Energy>
64.9624

> <b_lp_Chiralities_Consistent>
1

> <s_lp_Variant>
AV-unprocessed.smi:3226-3

> <Gold.Version>
5.8.1

> <Gold.Id.Protein>
6NUR|6NUR_protein|mol2

> <Gold.PLP.Fitness>
53.4276

> <Gold.PLP.PLP>
-43.8278

> <Gold.PLP.part.hbond>
-2.0045

> <Gold.PLP.part.metal>
0.0000

> <Gold.PLP.part.buried>
-3.6631

> <Gold.PLP.part.nonpolar>
-38.5559

> <Gold.PLP.part.repulsive>
0.2206

> <Gold.PLP.ligand.clash>
0.0000

> <Gold.PLP.ligand.torsion>
1.3068

> <Gold.PLP.Chemscore.Hbond>
3.0000

> <Gold.PLP.Chemscore.CHOScore>
1.0519

> <Gold.PLP.Chemscore.Metal>
0.0000

> <Gold.Chemscore.Hbonds>
donor molecule, donor type, donor heavy atom, donor atom, acceptor molecule, acceptor atom, score
      L1  H    10    41       P1  8028  2.00
      P1  H 10752 10765       L1     5  0.47
      L1  C     6    24       P1  7948  1.00

> <Gold.PLP.Chemscore.Internal.Correction>
0.0576

> <Gold.Rescore>
     Score         DG    S(hbond)    S(metal)    S(lipo)     H(rot)  DE(clash)    DE(int)     intcor
     17.59     -18.70       1.71        0.00     109.33       2.06       0.10       1.02       ----

> <Gold.Chemscore.Fitness>
17.5852

> <Gold.Chemscore.DG>
-18.7042

> <Gold.Chemscore.ZeroCoef>
-5.4800

> <Gold.Chemscore.Hbond>
1.7102

> <Gold.Chemscore.Metal>
0.0000

> <Gold.Chemscore.Lipo>
109.3303

> <Gold.Chemscore.Internal_Hbond>
0.0000

> <Gold.Chemscore.DEClash>
0.0998

> <Gold.Chemscore.DEInternal>
1.0192

> <Gold.Chemscore.Rot>
2.0623

> <Gold.Chemscore.Internal.Correction>
   9.000000E+99

> <Gold.Chemscore.Hbonds>
donor molecule, donor type, donor heavy atom, donor atom, acceptor molecule, acceptor atom, score
      L1  H    10    41       P1  8028  1.00
      P1  H 10752 10765       L1     5  0.03

> <Gold.Chemscore.Hbond.Weighted>
-5.7121

> <Gold.Chemscore.Metal.Weighted>
-0.0000

> <Gold.Chemscore.Lipo.Weighted>
-12.7916

> <Gold.Chemscore.Internal_Hbond.Weighted>
0.0000

> <Gold.Chemscore.DEClash.Weighted>
0.0998

> <Gold.Chemscore.DEInternal.Weighted>
1.0192

> <Gold.Chemscore.Rot.Weighted>
5.2796

> <Gold.Chemscore.Internal.Correction.Weighted>
   9.000000E+99

> <Gold.Protein.RotatedTorsions>
[ 6907 6896 6895 6894 ] final   56.14 input  -60.11 | X-H torsion
[ 7974 7965 7964 7962 ] final -153.97 input  175.53 | X-H torsion
[ 8008 7997 7996 7995 ] final  -26.86 input   59.86 | X-H torsion
[ 10167 10162 10161 10158 ] final  176.82 input  -65.29 | X-H torsion
[ 10718 10713 10712 10709 ] final  -59.54 input   66.30 | X-H torsion
[ 10763 10752 10751 10750 ] final  168.30 input  -60.55 | X-H torsion
[ 11005 11000 10999 10996 ] final  111.08 input  -57.11 | X-H torsion

> <Gold.Protein.ActiveResidues>
 VAL166  LYS551  ARG553  GLY616  TRP617  ASP618  TYR619  PRO620  LYS621  CYS622 
 ASP623  PHE694  ASN695  SER759  ASP760  ASP761  ALA762  ILE779  LEU786  VAL792 
 PHE793  MET794  SER795  GLU796  ALA797  LYS798  CYS799  TRP800  GLU811  SER814 

> <Gold.Protein.RotatedAtoms>
  152.3607  134.6876  160.0207 H   0  0  0  0  0  0  0  0  0  0  0  0  # atno 6907 bound_to 6896
  151.7201  133.3309  159.3321 H   0  0  0  0  0  0  0  0  0  0  0  0  # atno 6908 bound_to 6896
  150.7602  134.6390  159.6271 H   0  0  0  0  0  0  0  0  0  0  0  0  # atno 6909 bound_to 6896
  144.7713  140.4452  143.5905 H   0  0  0  0  0  0  0  0  0  0  0  0  # atno 7974 bound_to 7965
  154.4405  140.1888  156.0841 H   0  0  0  0  0  0  0  0  0  0  0  0  # atno 8008 bound_to 7997
  156.0416  140.3319  155.7224 H   0  0  0  0  0  0  0  0  0  0  0  0  # atno 8009 bound_to 7997
  155.5691  140.0611  157.2801 H   0  0  0  0  0  0  0  0  0  0  0  0  # atno 8010 bound_to 7997
  139.5229  144.2871  152.0496 H   0  0  0  0  0  0  0  0  0  0  0  0  # atno 10167 bound_to 10162
  156.1055  130.4181  150.0729 H   0  0  0  0  0  0  0  0  0  0  0  0  # atno 10718 bound_to 10713
  154.3665  135.2753  155.2291 H   0  0  0  0  0  0  0  0  0  0  0  0  # atno 10763 bound_to 10752
  154.4456  135.5943  153.6161 H   0  0  0  0  0  0  0  0  0  0  0  0  # atno 10764 bound_to 10752
  152.9840  135.6029  154.3891 H   0  0  0  0  0  0  0  0  0  0  0  0  # atno 10765 bound_to 10752
  139.8895  134.9499  156.6377 H   0  0  0  0  0  0  0  0  0  0  0  0  # atno 11005 bound_to 11000
  145.6316  139.1537  143.2966 LP  0  0  0  0  0  0  0  0  0  0  0  0  # atno 17320 bound_to 7965
  146.1861  140.6419  142.9167 LP  0  0  0  0  0  0  0  0  0  0  0  0  # atno 17321 bound_to 7965
  140.2324  144.4355  150.6294 LP  0  0  0  0  0  0  0  0  0  0  0  0  # atno 17342 bound_to 10162
  140.6346  143.2193  151.6421 LP  0  0  0  0  0  0  0  0  0  0  0  0  # atno 17343 bound_to 10162
  156.8705  130.9523  151.3609 LP  0  0  0  0  0  0  0  0  0  0  0  0  # atno 17370 bound_to 10713
  157.6231  130.8670  149.9142 LP  0  0  0  0  0  0  0  0  0  0  0  0  # atno 17371 bound_to 10713
  140.7618  133.8811  155.8424 LP  0  0  0  0  0  0  0  0  0  0  0  0  # atno 17394 bound_to 11000
  140.9916  134.1271  157.4403 LP  0  0  0  0  0  0  0  0  0  0  0  0  # atno 17395 bound_to 11000

$$$$
