AV-unprocessed.smi:2238|AV-procd|sdf|9055|dock4
  -GOLD-   2272012263D 1   1.00000     0.00000
 Structure written by MMmdl.
 38 39  0  0  0  0  0  0  0  0  1 V2000
  150.7347  145.1931  159.9164 C   0  0  0  0  0  0  0  0  0  0  0  0
  151.6486  144.0676  160.3559 C   0  0  0  0  0  0  0  0  0  0  0  0
  152.3006  144.1263  161.6032 C   0  0  0  0  0  0  0  0  0  0  0  0
  153.1498  143.0780  162.0012 C   0  0  0  0  0  0  0  0  0  0  0  0
  153.3503  141.9694  161.1558 C   0  0  0  0  0  0  0  0  0  0  0  0
  154.3986  140.6959  161.6698 Cl  0  0  0  0  0  0  0  0  0  0  0  0
  152.7039  141.8948  159.9019 C   0  0  0  0  0  0  0  0  0  0  0  0
  152.9474  140.7788  159.1281 O   0  0  0  0  0  0  0  0  0  0  0  0
  152.1773  140.5913  157.9487 C   0  0  0  0  0  0  0  0  0  0  0  0
  152.2968  139.1211  157.5099 C   0  0  1  0  0  0  0  0  0  0  0  0
  153.6153  138.6888  157.7752 O   0  0  0  0  0  0  0  0  0  0  0  0
  151.3454  138.1648  158.2664 C   0  0  0  0  0  0  0  0  0  0  0  0
  150.7096  137.1641  157.3905 N   0  0  0  0  0  0  0  0  0  0  0  0
  149.3027  137.0859  157.4329 C   0  0  0  0  0  0  0  0  0  0  0  0
  148.6433  136.2411  156.7056 N   0  0  0  0  0  0  0  0  0  0  0  0
  149.3353  135.3752  155.8534 C   0  0  0  0  0  0  0  0  0  0  0  0
  148.5156  134.4139  155.0179 C   0  0  0  0  0  0  0  0  0  0  0  0
  150.6859  135.4032  155.7818 C   0  0  0  0  0  0  0  0  0  0  0  0
  151.4573  136.3418  156.5973 C   0  0  0  0  0  0  0  0  0  0  0  0
  152.6874  136.3864  156.5699 O   0  0  0  0  0  0  0  0  0  0  0  0
  151.8501  142.9578  159.5100 C   0  0  0  0  0  0  0  0  0  0  0  0
  150.5411  145.8897  160.7328 H   0  0  0  0  0  0  0  0  0  0  0  0
  149.7779  144.7958  159.5761 H   0  0  0  0  0  0  0  0  0  0  0  0
  151.1886  145.7473  159.0946 H   0  0  0  0  0  0  0  0  0  0  0  0
  152.1533  144.9728  162.2579 H   0  0  0  0  0  0  0  0  0  0  0  0
  153.6485  143.1255  162.9582 H   0  0  0  0  0  0  0  0  0  0  0  0
  151.1319  140.8661  158.0995 H   0  0  0  0  0  0  0  0  0  0  0  0
  152.5870  141.2427  157.1768 H   0  0  0  0  0  0  0  0  0  0  0  0
  152.1221  139.0413  156.4365 H   0  0  0  0  0  0  0  0  0  0  0  0
  153.7922  138.8190  158.6947 H   0  0  0  0  0  0  0  0  0  0  0  0
  151.9036  137.6366  159.0419 H   0  0  0  0  0  0  0  0  0  0  0  0
  150.6030  138.7489  158.8143 H   0  0  0  0  0  0  0  0  0  0  0  0
  148.8127  137.7856  158.1118 H   0  0  0  0  0  0  0  0  0  0  0  0
  148.9260  133.4058  155.0827 H   0  0  0  0  0  0  0  0  0  0  0  0
  148.5245  134.7224  153.9722 H   0  0  0  0  0  0  0  0  0  0  0  0
  147.4792  134.3801  155.3561 H   0  0  0  0  0  0  0  0  0  0  0  0
  151.2056  134.7283  155.1170 H   0  0  0  0  0  0  0  0  0  0  0  0
  151.3369  142.9449  158.5604 H   0  0  0  0  0  0  0  0  0  0  0  0
  1  2  1  0  0  0  0
  1 22  1  0  0  0  0
  1 23  1  0  0  0  0
  1 24  1  0  0  0  0
  2 21  1  0  0  0  0
  2  3  2  0  0  0  0
  3  4  1  0  0  0  0
  3 25  1  0  0  0  0
  4  5  2  0  0  0  0
  4 26  1  0  0  0  0
  5  6  1  0  0  0  0
  5  7  1  0  0  0  0
  7  8  1  0  0  0  0
  7 21  2  0  0  0  0
  8  9  1  0  0  0  0
  9 10  1  0  0  0  0
  9 27  1  0  0  0  0
  9 28  1  0  0  0  0
 10 11  1  0  0  0  0
 10 12  1  0  0  0  0
 10 29  1  0  0  0  0
 11 30  1  0  0  0  0
 12 13  1  0  0  0  0
 12 31  1  0  0  0  0
 12 32  1  0  0  0  0
 13 19  1  0  0  0  0
 13 14  1  0  0  0  0
 14 15  2  0  0  0  0
 14 33  1  0  0  0  0
 15 16  1  0  0  0  0
 16 17  1  0  0  0  0
 16 18  2  0  0  0  0
 17 34  1  0  0  0  0
 17 35  1  0  0  0  0
 17 36  1  0  0  0  0
 18 19  1  0  0  0  0
 18 37  1  0  0  0  0
 19 20  2  0  0  0  0
 21 38  1  0  0  0  0
M  END
> <s_m_source_file>
AV-unprocessed.smi

> <i_m_source_file_index>
2238

> <i_lp_mmshare_version>
43012

> <i_f3d_flags>
0

> <s_epik_input>
W0NIM11jMVtjSF1bY0hdYyhDbCljKFtjSF0xKU9bQ0gyXVtDQEhdKFtPSF0pW0NIMl1uMltjSF1uYyhbQ0gzXSlbY0hdYzI9Tw==

> <s_epik_cmdline>
J2VwaWtfcHl0aG9uJywgJy1waCcsICc3LjAnLCAnLXRuJywgJzgnLCAnLW1hJywgJzIwMCcsICctbWV0YWxfYmluZGluZycsICctaW1hZScsICc8aW5maWxlLm1hZT4nLCAnLW9tYWUnLCAnPG91dGZpbGUubWFlPic=

> <r_lp_tautomer_probability>
1

> <r_epik_Ionization_Penalty>
1.78029e-05

> <r_epik_Ionization_Penalty_Charging>
3.78421e-08

> <r_epik_Ionization_Penalty_Neutral>
1.7765e-05

> <r_epik_State_Penalty>
-0

> <r_epik_Charging_Adjusted_Penalty>
3.78421e-08

> <i_epik_Tot_Q>
0

> <i_epik_Tot_abs_Q>
0

> <r_epik_Metal_State_Penalty>
-0

> <b_epik_Metal_Only>
0

> <s_lp_Force_Field>
OPLS_2005

> <r_lp_Energy>
22.1977

> <b_lp_Chiralities_Consistent>
1

> <s_lp_Variant>
AV-unprocessed.smi:2238-2

> <Gold.Version>
5.8.1

> <Gold.Id.Protein>
6NUR|6NUR_protein|mol2

> <Gold.PLP.Fitness>
43.1811

> <Gold.PLP.PLP>
-39.3383

> <Gold.PLP.part.hbond>
-2.0000

> <Gold.PLP.part.metal>
0.0000

> <Gold.PLP.part.buried>
-5.7173

> <Gold.PLP.part.nonpolar>
-31.4469

> <Gold.PLP.part.repulsive>
0.0205

> <Gold.PLP.ligand.clash>
0.0000

> <Gold.PLP.ligand.torsion>
1.0074

> <Gold.PLP.Chemscore.Hbond>
1.9280

> <Gold.PLP.Chemscore.CHOScore>
0.0000

> <Gold.PLP.Chemscore.Metal>
0.0000

> <Gold.Chemscore.Hbonds>
donor molecule, donor type, donor heavy atom, donor atom, acceptor molecule, acceptor atom, score
      P1  H  7997  8008       L1    11  1.00
      P1  H 10752 10765       L1    20  0.91

> <Gold.PLP.Chemscore.Internal.Correction>
0.0737

> <Gold.Rescore>
     Score         DG    S(hbond)    S(metal)    S(lipo)     H(rot)  DE(clash)    DE(int)     intcor
     12.53     -16.37       1.26        0.00     111.06       2.47       0.10       3.74       ----

> <Gold.Chemscore.Fitness>
12.5284

> <Gold.Chemscore.DG>
-16.3664

> <Gold.Chemscore.ZeroCoef>
-5.4800

> <Gold.Chemscore.Hbond>
1.2634

> <Gold.Chemscore.Metal>
0.0000

> <Gold.Chemscore.Lipo>
111.0641

> <Gold.Chemscore.Internal_Hbond>
0.0000

> <Gold.Chemscore.DEClash>
0.1000

> <Gold.Chemscore.DEInternal>
3.7381

> <Gold.Chemscore.Rot>
2.4718

> <Gold.Chemscore.Internal.Correction>
   9.000000E+99

> <Gold.Chemscore.Hbonds>
donor molecule, donor type, donor heavy atom, donor atom, acceptor molecule, acceptor atom, score
      P1  H  7997  8008       L1    11  0.12
      P1  H 10752 10765       L1    20  0.40

> <Gold.Chemscore.Hbond.Weighted>
-4.2198

> <Gold.Chemscore.Metal.Weighted>
-0.0000

> <Gold.Chemscore.Lipo.Weighted>
-12.9945

> <Gold.Chemscore.Internal_Hbond.Weighted>
0.0000

> <Gold.Chemscore.DEClash.Weighted>
0.1000

> <Gold.Chemscore.DEInternal.Weighted>
3.7381

> <Gold.Chemscore.Rot.Weighted>
6.3279

> <Gold.Chemscore.Internal.Correction.Weighted>
   9.000000E+99

> <Gold.Protein.RotatedTorsions>
[ 6907 6896 6895 6894 ] final   96.18 input  -60.11 | X-H torsion
[ 7974 7965 7964 7962 ] final  -82.09 input  175.53 | X-H torsion
[ 8008 7997 7996 7995 ] final  -88.20 input   59.86 | X-H torsion
[ 10167 10162 10161 10158 ] final   87.81 input  -65.29 | X-H torsion
[ 10718 10713 10712 10709 ] final -161.29 input   66.30 | X-H torsion
[ 10763 10752 10751 10750 ] final -155.14 input  -60.55 | X-H torsion
[ 11005 11000 10999 10996 ] final   24.17 input  -57.11 | X-H torsion

> <Gold.Protein.ActiveResidues>
 VAL166  LYS551  ARG553  GLY616  TRP617  ASP618  TYR619  PRO620  LYS621  CYS622 
 ASP623  PHE694  ASN695  SER759  ASP760  ASP761  ALA762  ILE779  LEU786  VAL792 
 PHE793  MET794  SER795  GLU796  ALA797  LYS798  CYS799  TRP800  GLU811  SER814 

> <Gold.Protein.RotatedAtoms>
  152.5437  134.0925  159.8282 H   0  0  0  0  0  0  0  0  0  0  0  0  # atno 6907 bound_to 6896
  151.1013  133.5234  159.2617 H   0  0  0  0  0  0  0  0  0  0  0  0  # atno 6908 bound_to 6896
  151.1988  135.0443  159.8918 H   0  0  0  0  0  0  0  0  0  0  0  0  # atno 6909 bound_to 6896
  145.5380  140.9513  143.1567 H   0  0  0  0  0  0  0  0  0  0  0  0  # atno 7974 bound_to 7965
  154.6720  140.0556  157.0176 H   0  0  0  0  0  0  0  0  0  0  0  0  # atno 8008 bound_to 7997
  155.1074  140.3235  155.4512 H   0  0  0  0  0  0  0  0  0  0  0  0  # atno 8009 bound_to 7997
  156.2661  140.2020  156.6199 H   0  0  0  0  0  0  0  0  0  0  0  0  # atno 8010 bound_to 7997
  139.8736  144.6479  150.8922 H   0  0  0  0  0  0  0  0  0  0  0  0  # atno 10167 bound_to 10162
  156.5941  130.8783  151.2897 H   0  0  0  0  0  0  0  0  0  0  0  0  # atno 10718 bound_to 10713
  154.7809  135.3174  154.7992 H   0  0  0  0  0  0  0  0  0  0  0  0  # atno 10763 bound_to 10752
  153.8704  135.6845  153.4779 H   0  0  0  0  0  0  0  0  0  0  0  0  # atno 10764 bound_to 10752
  153.1445  135.4725  154.9483 H   0  0  0  0  0  0  0  0  0  0  0  0  # atno 10765 bound_to 10752
  140.3616  134.2119  155.7672 H   0  0  0  0  0  0  0  0  0  0  0  0  # atno 11005 bound_to 11000
  144.7592  139.6999  143.7241 LP  0  0  0  0  0  0  0  0  0  0  0  0  # atno 17320 bound_to 7965
  146.2000  139.5289  142.9749 LP  0  0  0  0  0  0  0  0  0  0  0  0  # atno 17321 bound_to 7965
  140.7756  143.3643  151.1768 LP  0  0  0  0  0  0  0  0  0  0  0  0  # atno 17342 bound_to 10162
  139.7261  143.9146  152.3003 LP  0  0  0  0  0  0  0  0  0  0  0  0  # atno 17343 bound_to 10162
  157.7296  130.9673  150.1795 LP  0  0  0  0  0  0  0  0  0  0  0  0  # atno 17370 bound_to 10713
  156.2524  130.3702  149.8218 LP  0  0  0  0  0  0  0  0  0  0  0  0  # atno 17371 bound_to 10713
  141.1982  133.8041  157.0592 LP  0  0  0  0  0  0  0  0  0  0  0  0  # atno 17394 bound_to 11000
  140.0622  134.9748  157.1324 LP  0  0  0  0  0  0  0  0  0  0  0  0  # atno 17395 bound_to 11000

$$$$
