AV-unprocessed.smi:949|AV-procd|sdf|4242|dock2
  -GOLD-   22720 2153D 1   1.00000     0.00000
 Structure written by MMmdl.
 33 34  0  0  0  0  0  0  0  0  2 V2000
  152.0914  140.8707  158.1274 C   0  0  0  0  0  0  0  0  0  0  0  0
  150.8346  141.6198  157.6464 C   0  0  2  0  0  0  0  0  0  0  0  0
  150.8245  141.7087  156.1907 N   0  0  0  0  0  0  0  0  0  0  0  0
  150.3773  140.6646  155.3614 C   0  0  0  0  0  0  0  0  0  0  0  0
  151.1012  139.4564  155.1980 C   0  0  0  0  0  0  0  0  0  0  0  0
  150.5974  138.4489  154.3516 C   0  0  0  0  0  0  0  0  0  0  0  0
  149.4305  138.6374  153.7015 N   0  3  0  0  0  0  0  0  0  0  0  0
  148.7035  139.7677  153.8227 C   0  0  0  0  0  0  0  0  0  0  0  0
  149.1543  140.8135  154.6555 C   0  0  0  0  0  0  0  0  0  0  0  0
  148.3822  141.9725  154.7653 N   0  0  0  0  0  0  0  0  0  0  0  0
  150.7556  143.0362  158.2487 C   0  0  2  0  0  0  0  0  0  0  0  0
  151.8217  144.0098  157.7415 C   0  0  0  0  0  0  0  0  0  0  0  0
  151.9786  145.0057  158.8808 C   0  0  0  0  0  0  0  0  0  0  0  0
  151.2765  144.3337  160.0628 C   0  0  0  0  0  0  0  0  0  0  0  0
  151.0430  142.9984  159.6387 O   0  0  0  0  0  0  0  0  0  0  0  0
  152.0911  140.7481  159.2104 H   0  0  0  0  0  0  0  0  0  0  0  0
  152.9995  141.4096  157.8555 H   0  0  0  0  0  0  0  0  0  0  0  0
  152.1596  139.8732  157.6940 H   0  0  0  0  0  0  0  0  0  0  0  0
  149.9485  141.0757  157.9739 H   0  0  0  0  0  0  0  0  0  0  0  0
  151.0207  142.6077  155.7747 H   0  0  0  0  0  0  0  0  0  0  0  0
  152.0380  139.2826  155.7049 H   0  0  0  0  0  0  0  0  0  0  0  0
  151.0910  137.5042  154.1763 H   0  0  0  0  0  0  0  0  0  0  0  0
  147.7869  139.7996  153.2516 H   0  0  0  0  0  0  0  0  0  0  0  0
  148.6673  142.7448  155.3507 H   0  0  0  0  0  0  0  0  0  0  0  0
  147.5712  142.1209  154.1816 H   0  0  0  0  0  0  0  0  0  0  0  0
  149.7616  143.4645  158.1016 H   0  0  0  0  0  0  0  0  0  0  0  0
  152.7659  143.4861  157.5849 H   0  0  0  0  0  0  0  0  0  0  0  0
  151.5424  144.4864  156.8014 H   0  0  0  0  0  0  0  0  0  0  0  0
  153.0323  145.1910  159.0913 H   0  0  0  0  0  0  0  0  0  0  0  0
  151.5095  145.9619  158.6468 H   0  0  0  0  0  0  0  0  0  0  0  0
  151.8728  144.3582  160.9750 H   0  0  0  0  0  0  0  0  0  0  0  0
  150.3207  144.8184  160.2671 H   0  0  0  0  0  0  0  0  0  0  0  0
  149.0831  137.8950  153.0937 H   0  0  0  0  0  0  0  0  0  0  0  0
  1  2  1  0  0  0  0
  1 16  1  0  0  0  0
  1 17  1  0  0  0  0
  1 18  1  0  0  0  0
  2  3  1  0  0  0  0
  2 11  1  0  0  0  0
  2 19  1  0  0  0  0
  3  4  1  0  0  0  0
  3 20  1  0  0  0  0
  4  9  1  0  0  0  0
  4  5  2  0  0  0  0
  5  6  1  0  0  0  0
  5 21  1  0  0  0  0
  6  7  2  0  0  0  0
  6 22  1  0  0  0  0
  7  8  1  0  0  0  0
  7 33  1  0  0  0  0
  8  9  2  0  0  0  0
  8 23  1  0  0  0  0
  9 10  1  0  0  0  0
 10 24  1  0  0  0  0
 10 25  1  0  0  0  0
 11 15  1  0  0  0  0
 11 12  1  0  0  0  0
 11 26  1  0  0  0  0
 12 13  1  0  0  0  0
 12 27  1  0  0  0  0
 12 28  1  0  0  0  0
 13 14  1  0  0  0  0
 13 29  1  0  0  0  0
 13 30  1  0  0  0  0
 14 15  1  0  0  0  0
 14 31  1  0  0  0  0
 14 32  1  0  0  0  0
M  CHG  1   7   1
M  END
> <s_m_source_file>
AV-unprocessed.smi

> <i_m_source_file_index>
949

> <i_lp_mmshare_version>
43012

> <i_f3d_flags>
0

> <s_epik_input>
TzFbQ0gyXVtDSDJdW0NIMl1bQ0BIXTFbQ0BIXShbQ0gzXSlbTkhdYzJbY0hdW2NIXW5bY0hdYzJbTkgyXQ==

> <s_epik_cmdline>
J2VwaWtfcHl0aG9uJywgJy1waCcsICc3LjAnLCAnLXRuJywgJzgnLCAnLW1hJywgJzIwMCcsICctbWV0YWxfYmluZGluZycsICctaW1hZScsICc8aW5maWxlLm1hZT4nLCAnLW9tYWUnLCAnPG91dGZpbGUubWFlPic=

> <r_epik_Ionization_Penalty>
0.000849261

> <r_epik_Ionization_Penalty_Charging>
0.000847912

> <r_epik_Ionization_Penalty_Neutral>
1.34939e-06

> <r_epik_State_Penalty>
0.000546618

> <r_epik_Charging_Adjusted_Penalty>
0.00139453

> <i_epik_Tot_Q>
1

> <i_epik_Tot_abs_Q>
1

> <r_epik_Metal_State_Penalty>
0.526583

> <b_epik_Metal_Only>
0

> <s_lp_Force_Field>
OPLS_2005

> <r_lp_Energy>
30.4105

> <b_lp_Chiralities_Consistent>
1

> <s_lp_Variant>
AV-unprocessed.smi:949-1

> <Gold.Version>
5.8.1

> <Gold.Id.Protein>
6NUR|6NUR_protein|mol2

> <Gold.PLP.Fitness>
41.9044

> <Gold.PLP.PLP>
-35.1059

> <Gold.PLP.part.hbond>
-3.4760

> <Gold.PLP.part.metal>
0.0000

> <Gold.PLP.part.buried>
-1.8304

> <Gold.PLP.part.nonpolar>
-30.7701

> <Gold.PLP.part.repulsive>
0.4076

> <Gold.PLP.ligand.clash>
0.0000

> <Gold.PLP.ligand.torsion>
1.1159

> <Gold.PLP.Chemscore.Hbond>
3.0000

> <Gold.PLP.Chemscore.CHOScore>
0.0000

> <Gold.PLP.Chemscore.Metal>
0.0000

> <Gold.Chemscore.Hbonds>
donor molecule, donor type, donor heavy atom, donor atom, acceptor molecule, acceptor atom, score
      L1  H     7    33       P1  7948  1.92
      L1  H    10    24       P1  8028  0.99

> <Gold.PLP.Chemscore.Internal.Correction>
0.0303

> <Gold.Rescore>
     Score         DG    S(hbond)    S(metal)    S(lipo)     H(rot)  DE(clash)    DE(int)     intcor
     17.73     -19.25       1.78        0.00      93.98       1.23       0.42       1.10       ----

> <Gold.Chemscore.Fitness>
17.7313

> <Gold.Chemscore.DG>
-19.2548

> <Gold.Chemscore.ZeroCoef>
-5.4800

> <Gold.Chemscore.Hbond>
1.7785

> <Gold.Chemscore.Metal>
0.0000

> <Gold.Chemscore.Lipo>
93.9798

> <Gold.Chemscore.Internal_Hbond>
0.0000

> <Gold.Chemscore.DEClash>
0.4229

> <Gold.Chemscore.DEInternal>
1.1005

> <Gold.Chemscore.Rot>
1.2347

> <Gold.Chemscore.Internal.Correction>
   9.000000E+99

> <Gold.Chemscore.Hbonds>
donor molecule, donor type, donor heavy atom, donor atom, acceptor molecule, acceptor atom, score
      L1  H     7    33       P1  7948  0.91
      L1  H    10    24       P1  8028  0.91

> <Gold.Chemscore.Hbond.Weighted>
-5.9401

> <Gold.Chemscore.Metal.Weighted>
-0.0000

> <Gold.Chemscore.Lipo.Weighted>
-10.9956

> <Gold.Chemscore.Internal_Hbond.Weighted>
0.0000

> <Gold.Chemscore.DEClash.Weighted>
0.4229

> <Gold.Chemscore.DEInternal.Weighted>
1.1005

> <Gold.Chemscore.Rot.Weighted>
3.1609

> <Gold.Chemscore.Internal.Correction.Weighted>
   9.000000E+99

> <Gold.Protein.RotatedTorsions>
[ 6907 6896 6895 6894 ] final  105.08 input  -60.11 | X-H torsion
[ 7974 7965 7964 7962 ] final   40.47 input  175.53 | X-H torsion
[ 8008 7997 7996 7995 ] final   51.98 input   59.86 | X-H torsion
[ 10167 10162 10161 10158 ] final  130.05 input  -65.29 | X-H torsion
[ 10718 10713 10712 10709 ] final   70.49 input   66.30 | X-H torsion
[ 10763 10752 10751 10750 ] final  179.28 input  -60.55 | X-H torsion
[ 11005 11000 10999 10996 ] final -129.39 input  -57.11 | X-H torsion

> <Gold.Protein.ActiveResidues>
 VAL166  LYS551  ARG553  GLY616  TRP617  ASP618  TYR619  PRO620  LYS621  CYS622 
 ASP623  PHE694  ASN695  SER759  ASP760  ASP761  ALA762  ILE779  LEU786  VAL792 
 PHE793  MET794  SER795  GLU796  ALA797  LYS798  CYS799  TRP800  GLU811  SER814 

> <Gold.Protein.RotatedAtoms>
  152.5243  133.9581  159.7703 H   0  0  0  0  0  0  0  0  0  0  0  0  # atno 6907 bound_to 6896
  150.9877  133.6172  159.2720 H   0  0  0  0  0  0  0  0  0  0  0  0  # atno 6908 bound_to 6896
  151.3327  135.0851  159.9397 H   0  0  0  0  0  0  0  0  0  0  0  0  # atno 6909 bound_to 6896
  146.0902  139.5529  142.9481 H   0  0  0  0  0  0  0  0  0  0  0  0  # atno 7974 bound_to 7965
  155.4442  140.3455  155.4293 H   0  0  0  0  0  0  0  0  0  0  0  0  # atno 8008 bound_to 7997
  156.1260  140.1500  156.9165 H   0  0  0  0  0  0  0  0  0  0  0  0  # atno 8009 bound_to 7997
  154.4858  140.0855  156.7464 H   0  0  0  0  0  0  0  0  0  0  0  0  # atno 8010 bound_to 7997
  139.5448  144.6763  151.4508 H   0  0  0  0  0  0  0  0  0  0  0  0  # atno 10167 bound_to 10162
  157.6403  130.9480  150.0658 H   0  0  0  0  0  0  0  0  0  0  0  0  # atno 10718 bound_to 10713
  154.5186  135.2792  155.1281 H   0  0  0  0  0  0  0  0  0  0  0  0  # atno 10763 bound_to 10752
  154.2848  135.6278  153.5365 H   0  0  0  0  0  0  0  0  0  0  0  0  # atno 10764 bound_to 10752
  152.9932  135.5660  154.5670 H   0  0  0  0  0  0  0  0  0  0  0  0  # atno 10765 bound_to 10752
  140.9435  134.1161  157.4128 H   0  0  0  0  0  0  0  0  0  0  0  0  # atno 11005 bound_to 11000
  145.6054  141.0348  143.1996 LP  0  0  0  0  0  0  0  0  0  0  0  0  # atno 17320 bound_to 7965
  144.7354  139.7600  143.7331 LP  0  0  0  0  0  0  0  0  0  0  0  0  # atno 17321 bound_to 7965
  140.6692  143.8331  150.6979 LP  0  0  0  0  0  0  0  0  0  0  0  0  # atno 17342 bound_to 10162
  140.1750  143.4163  152.1974 LP  0  0  0  0  0  0  0  0  0  0  0  0  # atno 17343 bound_to 10162
  156.1677  130.3645  149.9209 LP  0  0  0  0  0  0  0  0  0  0  0  0  # atno 17370 bound_to 10713
  156.7192  130.9000  151.3616 LP  0  0  0  0  0  0  0  0  0  0  0  0  # atno 17371 bound_to 10713
  139.8827  135.0044  156.6247 LP  0  0  0  0  0  0  0  0  0  0  0  0  # atno 17394 bound_to 11000
  140.7701  133.8745  155.8485 LP  0  0  0  0  0  0  0  0  0  0  0  0  # atno 17395 bound_to 11000

$$$$
