AV-unprocessed.smi:2717|AV-procd|sdf|10485|dock3
  -GOLD-   2272014533D 1   1.00000     0.00000
 Structure written by MMmdl.
 43 44  0  0  0  0  0  0  0  0  1 V2000
  152.6069  139.0291  158.6917 C   0  0  0  0  0  0  0  0  0  0  0  0
  151.3204  139.3757  157.9343 C   0  0  0  0  0  0  0  0  0  0  0  0
  151.1414  138.5540  156.7018 C   0  0  0  0  0  0  0  0  0  0  0  0
  150.9781  137.2282  156.7177 N   0  0  0  0  0  0  0  0  0  0  0  0
  150.8006  136.6930  155.4383 C   0  0  0  0  0  0  0  0  0  0  0  0
  150.6278  135.2125  155.2608 C   0  0  0  0  0  0  0  0  0  0  0  0
  149.1621  134.7457  155.3752 C   0  0  0  0  0  0  0  0  0  0  0  0
  148.4784  134.6928  154.0861 N   0  0  0  0  0  0  0  0  0  0  0  0
  147.6823  133.6954  153.6783 C   0  0  0  0  0  0  0  0  0  0  0  0
  147.4594  132.6777  154.3346 O   0  0  0  0  0  0  0  0  0  0  0  0
  147.1410  133.9519  152.4796 N   0  0  0  0  0  0  0  0  0  0  0  0
  146.1842  133.0938  151.7884 C   0  0  2  0  0  0  0  0  0  0  0  0
  146.5590  132.9993  150.2983 C   0  0  0  0  0  0  0  0  0  0  0  0
  145.5452  132.1485  149.5132 C   0  0  0  0  0  0  0  0  0  0  0  0
  144.1000  132.6507  149.6917 C   0  0  2  0  0  0  0  0  0  0  0  0
  143.9313  133.8898  149.0318 O   0  0  0  0  0  0  0  0  0  0  0  0
  143.7290  132.7925  151.1797 C   0  0  0  0  0  0  0  0  0  0  0  0
  144.7516  133.6390  151.9579 C   0  0  0  0  0  0  0  0  0  0  0  0
  150.8159  137.6426  154.4469 C   0  0  0  0  0  0  0  0  0  0  0  0
  151.0587  139.2446  155.0851 S   0  0  0  0  0  0  0  0  0  0  0  0
  152.7089  139.6437  159.5863 H   0  0  0  0  0  0  0  0  0  0  0  0
  153.4869  139.1967  158.0700 H   0  0  0  0  0  0  0  0  0  0  0  0
  152.6099  137.9840  159.0029 H   0  0  0  0  0  0  0  0  0  0  0  0
  150.4560  139.2259  158.5818 H   0  0  0  0  0  0  0  0  0  0  0  0
  151.3247  140.4308  157.6574 H   0  0  0  0  0  0  0  0  0  0  0  0
  151.0246  134.9045  154.2929 H   0  0  0  0  0  0  0  0  0  0  0  0
  151.2299  134.6840  156.0007 H   0  0  0  0  0  0  0  0  0  0  0  0
  149.1355  133.7402  155.7958 H   0  0  0  0  0  0  0  0  0  0  0  0
  148.6110  135.3843  156.0671 H   0  0  0  0  0  0  0  0  0  0  0  0
  148.5951  135.4892  153.4766 H   0  0  0  0  0  0  0  0  0  0  0  0
  147.3868  134.8179  152.0226 H   0  0  0  0  0  0  0  0  0  0  0  0
  146.2332  132.0895  152.2145 H   0  0  0  0  0  0  0  0  0  0  0  0
  146.6076  133.9993  149.8646 H   0  0  0  0  0  0  0  0  0  0  0  0
  147.5558  132.5696  150.1909 H   0  0  0  0  0  0  0  0  0  0  0  0
  145.8114  132.1285  148.4557 H   0  0  0  0  0  0  0  0  0  0  0  0
  145.6075  131.1165  149.8605 H   0  0  0  0  0  0  0  0  0  0  0  0
  143.4163  131.9440  149.2202 H   0  0  0  0  0  0  0  0  0  0  0  0
  144.7776  134.1935  148.7415 H   0  0  0  0  0  0  0  0  0  0  0  0
  142.7319  133.2223  151.2823 H   0  0  0  0  0  0  0  0  0  0  0  0
  143.6785  131.7999  151.6290 H   0  0  0  0  0  0  0  0  0  0  0  0
  144.4780  133.6575  153.0136 H   0  0  0  0  0  0  0  0  0  0  0  0
  144.7063  134.6729  151.6125 H   0  0  0  0  0  0  0  0  0  0  0  0
  150.7040  137.4948  153.3828 H   0  0  0  0  0  0  0  0  0  0  0  0
  1  2  1  0  0  0  0
  1 21  1  0  0  0  0
  1 22  1  0  0  0  0
  1 23  1  0  0  0  0
  2  3  1  0  0  0  0
  2 24  1  0  0  0  0
  2 25  1  0  0  0  0
  3 20  1  0  0  0  0
  3  4  2  0  0  0  0
  4  5  1  0  0  0  0
  5  6  1  0  0  0  0
  5 19  2  0  0  0  0
  6  7  1  0  0  0  0
  6 26  1  0  0  0  0
  6 27  1  0  0  0  0
  7  8  1  0  0  0  0
  7 28  1  0  0  0  0
  7 29  1  0  0  0  0
  8  9  1  0  0  0  0
  8 30  1  0  0  0  0
  9 10  2  0  0  0  0
  9 11  1  0  0  0  0
 11 12  1  0  0  0  0
 11 31  1  0  0  0  0
 12 18  1  0  0  0  0
 12 13  1  0  0  0  0
 12 32  1  0  0  0  0
 13 14  1  0  0  0  0
 13 33  1  0  0  0  0
 13 34  1  0  0  0  0
 14 15  1  0  0  0  0
 14 35  1  0  0  0  0
 14 36  1  0  0  0  0
 15 16  1  0  0  0  0
 15 17  1  0  0  0  0
 15 37  1  0  0  0  0
 16 38  1  0  0  0  0
 17 18  1  0  0  0  0
 17 39  1  0  0  0  0
 17 40  1  0  0  0  0
 18 41  1  0  0  0  0
 18 42  1  0  0  0  0
 19 20  1  0  0  0  0
 19 43  1  0  0  0  0
M  END
> <s_m_source_file>
AV-unprocessed.smi

> <i_m_source_file_index>
2717

> <i_lp_mmshare_version>
43012

> <i_f3d_flags>
0

> <s_epik_input>
W0NIM11bQ0gyXWMxbmMoW2NIXXMxKVtDSDJdW0NIMl1bTkhdQyg9TylbTkhdW0NAQEhdMltDSDJdW0NIMl1bQ0BASF0oW09IXSlbQ0gyXVtDSDJdMg==

> <s_epik_cmdline>
J2VwaWtfcHl0aG9uJywgJy1waCcsICc3LjAnLCAnLXRuJywgJzgnLCAnLW1hJywgJzIwMCcsICctbWV0YWxfYmluZGluZycsICctaW1hZScsICc8aW5maWxlLm1hZT4nLCAnLW9tYWUnLCAnPG91dGZpbGUubWFlPic=

> <r_epik_Ionization_Penalty>
0.00202099

> <r_epik_Ionization_Penalty_Charging>
0

> <r_epik_Ionization_Penalty_Neutral>
0.00202099

> <r_epik_State_Penalty>
0.00133629

> <r_epik_Charging_Adjusted_Penalty>
0.00133629

> <i_epik_Tot_Q>
0

> <i_epik_Tot_abs_Q>
0

> <r_epik_Metal_State_Penalty>
-0

> <b_epik_Metal_Only>
0

> <s_lp_Force_Field>
OPLS_2005

> <r_lp_Energy>
0.0101123

> <b_lp_Chiralities_Consistent>
1

> <s_lp_Variant>
AV-unprocessed.smi:2717-2

> <Gold.Version>
5.8.1

> <Gold.Id.Protein>
6NUR|6NUR_protein|mol2

> <Gold.PLP.Fitness>
47.1441

> <Gold.PLP.PLP>
-36.8678

> <Gold.PLP.part.hbond>
-3.5429

> <Gold.PLP.part.metal>
0.0000

> <Gold.PLP.part.buried>
-4.8627

> <Gold.PLP.part.nonpolar>
-28.5577

> <Gold.PLP.part.repulsive>
0.0443

> <Gold.PLP.ligand.clash>
0.0000

> <Gold.PLP.ligand.torsion>
0.9440

> <Gold.PLP.Chemscore.Hbond>
2.9280

> <Gold.PLP.Chemscore.CHOScore>
1.1181

> <Gold.PLP.Chemscore.Metal>
0.0000

> <Gold.Chemscore.Hbonds>
donor molecule, donor type, donor heavy atom, donor atom, acceptor molecule, acceptor atom, score
      L1  H     8    30       P1  7948  1.00
      L1  H    11    31       P1  7948  0.74
      L1  H    16    38       P1  7921  1.00
      L1  C    19    43       P1  7948  0.40
      L1  C    19    43       P1  7949  0.74

> <Gold.PLP.Chemscore.Internal.Correction>
0.0261

> <Gold.Rescore>
     Score         DG    S(hbond)    S(metal)    S(lipo)     H(rot)  DE(clash)    DE(int)     intcor
     18.70     -19.74       2.73        0.00      92.17       2.21       0.01       1.03       ----

> <Gold.Chemscore.Fitness>
18.6992

> <Gold.Chemscore.DG>
-19.7381

> <Gold.Chemscore.ZeroCoef>
-5.4800

> <Gold.Chemscore.Hbond>
2.7328

> <Gold.Chemscore.Metal>
0.0000

> <Gold.Chemscore.Lipo>
92.1706

> <Gold.Chemscore.Internal_Hbond>
0.0000

> <Gold.Chemscore.DEClash>
0.0095

> <Gold.Chemscore.DEInternal>
1.0294

> <Gold.Chemscore.Rot>
2.2084

> <Gold.Chemscore.Internal.Correction>
   9.000000E+99

> <Gold.Chemscore.Hbonds>
donor molecule, donor type, donor heavy atom, donor atom, acceptor molecule, acceptor atom, score
      L1  H     8    30       P1  7948  0.92
      L1  H    11    31       P1  7948  0.62
      L1  H    16    38       P1  7921  1.00

> <Gold.Chemscore.Hbond.Weighted>
-9.1276

> <Gold.Chemscore.Metal.Weighted>
-0.0000

> <Gold.Chemscore.Lipo.Weighted>
-10.7840

> <Gold.Chemscore.Internal_Hbond.Weighted>
0.0000

> <Gold.Chemscore.DEClash.Weighted>
0.0095

> <Gold.Chemscore.DEInternal.Weighted>
1.0294

> <Gold.Chemscore.Rot.Weighted>
5.6535

> <Gold.Chemscore.Internal.Correction.Weighted>
   9.000000E+99

> <Gold.Protein.RotatedTorsions>
[ 6907 6896 6895 6894 ] final   51.44 input  -60.11 | X-H torsion
[ 7974 7965 7964 7962 ] final   67.93 input  175.53 | X-H torsion
[ 8008 7997 7996 7995 ] final   37.85 input   59.86 | X-H torsion
[ 10167 10162 10161 10158 ] final   39.11 input  -65.29 | X-H torsion
[ 10718 10713 10712 10709 ] final -113.12 input   66.30 | X-H torsion
[ 10763 10752 10751 10750 ] final -124.63 input  -60.55 | X-H torsion
[ 11005 11000 10999 10996 ] final  -27.02 input  -57.11 | X-H torsion

> <Gold.Protein.ActiveResidues>
 VAL166  LYS551  ARG553  GLY616  TRP617  ASP618  TYR619  PRO620  LYS621  CYS622 
 ASP623  PHE694  ASN695  SER759  ASP760  ASP761  ALA762  ILE779  LEU786  VAL792 
 PHE793  MET794  SER795  GLU796  ALA797  LYS798  CYS799  TRP800  GLU811  SER814 

> <Gold.Protein.RotatedAtoms>
  152.3126  134.7478  160.0332 H   0  0  0  0  0  0  0  0  0  0  0  0  # atno 6907 bound_to 6896
  151.7954  133.3358  159.3519 H   0  0  0  0  0  0  0  0  0  0  0  0  # atno 6908 bound_to 6896
  150.7328  134.5734  159.5946 H   0  0  0  0  0  0  0  0  0  0  0  0  # atno 6909 bound_to 6896
  145.8087  139.3021  143.1112 H   0  0  0  0  0  0  0  0  0  0  0  0  # atno 7974 bound_to 7965
  155.2105  140.3323  155.4329 H   0  0  0  0  0  0  0  0  0  0  0  0  # atno 8008 bound_to 7997
  156.2372  140.1878  156.7135 H   0  0  0  0  0  0  0  0  0  0  0  0  # atno 8009 bound_to 7997
  154.6081  140.0613  156.9443 H   0  0  0  0  0  0  0  0  0  0  0  0  # atno 8010 bound_to 7997
  140.3871  144.1902  150.6130 H   0  0  0  0  0  0  0  0  0  0  0  0  # atno 10167 bound_to 10162
  156.0747  130.5956  150.8600 H   0  0  0  0  0  0  0  0  0  0  0  0  # atno 10718 bound_to 10713
  154.8726  135.4057  154.3138 H   0  0  0  0  0  0  0  0  0  0  0  0  # atno 10763 bound_to 10752
  153.3977  135.7017  153.6454 H   0  0  0  0  0  0  0  0  0  0  0  0  # atno 10764 bound_to 10752
  153.5210  135.3687  155.2603 H   0  0  0  0  0  0  0  0  0  0  0  0  # atno 10765 bound_to 10752
  140.9081  133.7479  156.0634 H   0  0  0  0  0  0  0  0  0  0  0  0  # atno 11005 bound_to 11000
  145.9800  140.8690  143.0119 LP  0  0  0  0  0  0  0  0  0  0  0  0  # atno 17320 bound_to 7965
  144.6760  140.2067  143.7381 LP  0  0  0  0  0  0  0  0  0  0  0  0  # atno 17321 bound_to 7965
  140.4878  143.2357  151.8862 LP  0  0  0  0  0  0  0  0  0  0  0  0  # atno 17342 bound_to 10162
  139.4791  144.5199  151.8816 LP  0  0  0  0  0  0  0  0  0  0  0  0  # atno 17343 bound_to 10162
  157.5836  131.0946  150.9231 LP  0  0  0  0  0  0  0  0  0  0  0  0  # atno 17370 bound_to 10713
  156.9422  130.5388  149.5280 LP  0  0  0  0  0  0  0  0  0  0  0  0  # atno 17371 bound_to 10713
  140.8144  134.3361  157.5401 LP  0  0  0  0  0  0  0  0  0  0  0  0  # atno 17394 bound_to 11000
  139.8753  134.9273  156.3422 LP  0  0  0  0  0  0  0  0  0  0  0  0  # atno 17395 bound_to 11000

$$$$
