AV-unprocessed.smi:661|AV-procd|sdf|3240|dock1
  -GOLD-   22720 0183D 1   1.00000     0.00000
 Structure written by MMmdl.
 31 32  0  0  0  0  0  0  0  0  2 V2000
  147.7109  141.6993  154.7093 C   0  0  0  0  0  0  0  0  0  0  0  0
  148.7521  142.0287  155.6990 N   0  3  0  0  0  0  0  0  0  0  0  0
  150.0949  141.5360  155.3363 C   0  0  0  0  0  0  0  0  0  0  0  0
  150.8868  141.7369  156.5944 C   0  0  0  0  0  0  0  0  0  0  0  0
  150.9711  142.9342  157.1763 N   0  0  0  0  0  0  0  0  0  0  0  0
  151.7550  142.6817  158.2850 C   0  0  0  0  0  0  0  0  0  0  0  0
  152.2040  143.5472  159.3076 C   0  0  0  0  0  0  0  0  0  0  0  0
  153.0041  143.0545  160.3591 C   0  0  0  0  0  0  0  0  0  0  0  0
  153.3646  141.6923  160.4032 C   0  0  0  0  0  0  0  0  0  0  0  0
  152.9282  140.8130  159.3936 C   0  0  0  0  0  0  0  0  0  0  0  0
  152.1309  141.3098  158.3447 C   0  0  0  0  0  0  0  0  0  0  0  0
  151.5484  140.7293  157.2210 N   0  0  0  0  0  0  0  0  0  0  0  0
  151.6496  139.3289  156.8361 C   0  0  0  0  0  0  0  0  0  0  0  0
  152.1520  139.1665  155.3945 C   0  0  0  0  0  0  0  0  0  0  0  0
  153.5527  139.0014  155.3920 O   0  0  0  0  0  0  0  0  0  0  0  0
  146.7493  142.0973  155.0334 H   0  0  0  0  0  0  0  0  0  0  0  0
  147.6129  140.6190  154.5967 H   0  0  0  0  0  0  0  0  0  0  0  0
  147.9505  142.1315  153.7372 H   0  0  0  0  0  0  0  0  0  0  0  0
  148.8003  143.0329  155.7993 H   0  0  0  0  0  0  0  0  0  0  0  0
  150.0654  140.4934  155.0240 H   0  0  0  0  0  0  0  0  0  0  0  0
  150.5213  142.1286  154.5259 H   0  0  0  0  0  0  0  0  0  0  0  0
  151.9327  144.5924  159.2845 H   0  0  0  0  0  0  0  0  0  0  0  0
  153.3420  143.7244  161.1362 H   0  0  0  0  0  0  0  0  0  0  0  0
  153.9770  141.3227  161.2128 H   0  0  0  0  0  0  0  0  0  0  0  0
  153.2043  139.7696  159.4284 H   0  0  0  0  0  0  0  0  0  0  0  0
  152.2946  138.8046  157.5408 H   0  0  0  0  0  0  0  0  0  0  0  0
  150.6654  138.8700  156.9380 H   0  0  0  0  0  0  0  0  0  0  0  0
  151.6936  138.2966  154.9230 H   0  0  0  0  0  0  0  0  0  0  0  0
  151.8995  140.0373  154.7902 H   0  0  0  0  0  0  0  0  0  0  0  0
  153.7697  138.2386  154.8783 H   0  0  0  0  0  0  0  0  0  0  0  0
  148.4922  141.6281  156.5888 H   0  0  0  0  0  0  0  0  0  0  0  0
  1  2  1  0  0  0  0
  1 16  1  0  0  0  0
  1 17  1  0  0  0  0
  1 18  1  0  0  0  0
  2  3  1  0  0  0  0
  2 19  1  0  0  0  0
  2 31  1  0  0  0  0
  3  4  1  0  0  0  0
  3 20  1  0  0  0  0
  3 21  1  0  0  0  0
  4 12  1  0  0  0  0
  4  5  2  0  0  0  0
  5  6  1  0  0  0  0
  6 11  2  0  0  0  0
  6  7  1  0  0  0  0
  7  8  2  0  0  0  0
  7 22  1  0  0  0  0
  8  9  1  0  0  0  0
  8 23  1  0  0  0  0
  9 10  2  0  0  0  0
  9 24  1  0  0  0  0
 10 11  1  0  0  0  0
 10 25  1  0  0  0  0
 11 12  1  0  0  0  0
 12 13  1  0  0  0  0
 13 14  1  0  0  0  0
 13 26  1  0  0  0  0
 13 27  1  0  0  0  0
 14 15  1  0  0  0  0
 14 28  1  0  0  0  0
 14 29  1  0  0  0  0
 15 30  1  0  0  0  0
M  CHG  1   2   1
M  END
> <s_m_source_file>
AV-unprocessed.smi

> <i_m_source_file_index>
661

> <i_lp_mmshare_version>
43012

> <i_f3d_flags>
0

> <s_epik_input>
W0NIM11bTkhdW0NIMl1jKG4xKW4oW0NIMl1bQ0gyXVtPSF0pYyhjMTIpW2NIXVtjSF1bY0hdW2NIXTI=

> <s_epik_cmdline>
J2VwaWtfcHl0aG9uJywgJy1waCcsICc3LjAnLCAnLXRuJywgJzgnLCAnLW1hJywgJzIwMCcsICctbWV0YWxfYmluZGluZycsICctaW1hZScsICc8aW5maWxlLm1hZT4nLCAnLW9tYWUnLCAnPG91dGZpbGUubWFlPic=

> <r_epik_Ionization_Penalty>
0.0286345

> <r_epik_Ionization_Penalty_Charging>
0.0274522

> <r_epik_Ionization_Penalty_Neutral>
0.00118227

> <r_epik_State_Penalty>
0.0285474

> <r_epik_Charging_Adjusted_Penalty>
0.0559996

> <i_epik_Tot_Q>
1

> <i_epik_Tot_abs_Q>
1

> <r_epik_Metal_State_Penalty>
0.0289981

> <b_epik_Metal_Only>
0

> <s_lp_Force_Field>
OPLS_2005

> <r_lp_Energy>
8.55155

> <b_lp_Chiralities_Consistent>
1

> <s_lp_Variant>
AV-unprocessed.smi:661-1

> <Gold.Version>
5.8.1

> <Gold.Id.Protein>
6NUR|6NUR_protein|mol2

> <Gold.PLP.Fitness>
43.5798

> <Gold.PLP.PLP>
-35.1972

> <Gold.PLP.part.hbond>
-1.8570

> <Gold.PLP.part.metal>
0.0000

> <Gold.PLP.part.buried>
-4.6863

> <Gold.PLP.part.nonpolar>
-28.8242

> <Gold.PLP.part.repulsive>
0.2666

> <Gold.PLP.ligand.clash>
0.0000

> <Gold.PLP.ligand.torsion>
0.3112

> <Gold.PLP.Chemscore.Hbond>
3.0000

> <Gold.PLP.Chemscore.CHOScore>
0.0000

> <Gold.PLP.Chemscore.Metal>
0.0000

> <Gold.Chemscore.Hbonds>
donor molecule, donor type, donor heavy atom, donor atom, acceptor molecule, acceptor atom, score
      L1  H     2    19       P1  8028  2.00
      P1  H  7997  8009       L1    15  1.00

> <Gold.PLP.Chemscore.Internal.Correction>
0.0050

> <Gold.Rescore>
     Score         DG    S(hbond)    S(metal)    S(lipo)     H(rot)  DE(clash)    DE(int)     intcor
     15.86     -16.21       1.98        0.00      88.02       2.41       0.10       0.25       ----

> <Gold.Chemscore.Fitness>
15.8628

> <Gold.Chemscore.DG>
-16.2086

> <Gold.Chemscore.ZeroCoef>
-5.4800

> <Gold.Chemscore.Hbond>
1.9755

> <Gold.Chemscore.Metal>
0.0000

> <Gold.Chemscore.Lipo>
88.0221

> <Gold.Chemscore.Internal_Hbond>
0.0000

> <Gold.Chemscore.DEClash>
0.0998

> <Gold.Chemscore.DEInternal>
0.2459

> <Gold.Chemscore.Rot>
2.4094

> <Gold.Chemscore.Internal.Correction>
   9.000000E+99

> <Gold.Chemscore.Hbonds>
donor molecule, donor type, donor heavy atom, donor atom, acceptor molecule, acceptor atom, score
      L1  H     2    19       P1  8028  1.00
      P1  H  7997  8009       L1    15  0.87

> <Gold.Chemscore.Hbond.Weighted>
-6.5981

> <Gold.Chemscore.Metal.Weighted>
-0.0000

> <Gold.Chemscore.Lipo.Weighted>
-10.2986

> <Gold.Chemscore.Internal_Hbond.Weighted>
0.0000

> <Gold.Chemscore.DEClash.Weighted>
0.0998

> <Gold.Chemscore.DEInternal.Weighted>
0.2459

> <Gold.Chemscore.Rot.Weighted>
6.1681

> <Gold.Chemscore.Internal.Correction.Weighted>
   9.000000E+99

> <Gold.Protein.RotatedTorsions>
[ 6907 6896 6895 6894 ] final  149.42 input  -60.11 | X-H torsion
[ 7974 7965 7964 7962 ] final  178.34 input  175.53 | X-H torsion
[ 8008 7997 7996 7995 ] final -142.64 input   59.86 | X-H torsion
[ 10167 10162 10161 10158 ] final -131.38 input  -65.29 | X-H torsion
[ 10718 10713 10712 10709 ] final -106.67 input   66.30 | X-H torsion
[ 10763 10752 10751 10750 ] final  -40.87 input  -60.55 | X-H torsion
[ 11005 11000 10999 10996 ] final  -62.73 input  -57.11 | X-H torsion

> <Gold.Protein.ActiveResidues>
 VAL166  LYS551  ARG553  GLY616  TRP617  ASP618  TYR619  PRO620  LYS621  CYS622 
 ASP623  PHE694  ASN695  SER759  ASP760  ASP761  ALA762  ILE779  LEU786  VAL792 
 PHE793  MET794  SER795  GLU796  ALA797  LYS798  CYS799  TRP800  GLU811  SER814 

> <Gold.Protein.RotatedAtoms>
  152.1283  133.4393  159.4708 H   0  0  0  0  0  0  0  0  0  0  0  0  # atno 6907 bound_to 6896
  150.6876  134.2452  159.4497 H   0  0  0  0  0  0  0  0  0  0  0  0  # atno 6908 bound_to 6896
  152.0334  134.9754  160.0623 H   0  0  0  0  0  0  0  0  0  0  0  0  # atno 6909 bound_to 6896
  144.7157  140.0383  143.6438 H   0  0  0  0  0  0  0  0  0  0  0  0  # atno 7974 bound_to 7965
  155.4975  140.0573  157.2944 H   0  0  0  0  0  0  0  0  0  0  0  0  # atno 8008 bound_to 7997
  154.4599  140.1991  156.0223 H   0  0  0  0  0  0  0  0  0  0  0  0  # atno 8009 bound_to 7997
  156.0871  140.3239  155.7772 H   0  0  0  0  0  0  0  0  0  0  0  0  # atno 8010 bound_to 7997
  139.9195  143.6399  152.2557 H   0  0  0  0  0  0  0  0  0  0  0  0  # atno 10167 bound_to 10162
  156.0401  130.5624  150.7714 H   0  0  0  0  0  0  0  0  0  0  0  0  # atno 10718 bound_to 10713
  153.9531  135.6748  153.4744 H   0  0  0  0  0  0  0  0  0  0  0  0  # atno 10763 bound_to 10752
  153.0875  135.4891  154.8622 H   0  0  0  0  0  0  0  0  0  0  0  0  # atno 10764 bound_to 10752
  154.7314  135.3139  154.8843 H   0  0  0  0  0  0  0  0  0  0  0  0  # atno 10765 bound_to 10752
  141.1370  133.6643  156.5573 H   0  0  0  0  0  0  0  0  0  0  0  0  # atno 11005 bound_to 11000
  146.0045  139.3118  143.0907 LP  0  0  0  0  0  0  0  0  0  0  0  0  # atno 17320 bound_to 7965
  145.8754  140.9395  143.0629 LP  0  0  0  0  0  0  0  0  0  0  0  0  # atno 17321 bound_to 7965
  139.6874  144.7650  151.1499 LP  0  0  0  0  0  0  0  0  0  0  0  0  # atno 17342 bound_to 10162
  140.7666  143.5638  150.9070 LP  0  0  0  0  0  0  0  0  0  0  0  0  # atno 17343 bound_to 10162
  157.5207  131.0931  151.0082 LP  0  0  0  0  0  0  0  0  0  0  0  0  # atno 17370 bound_to 10713
  157.0414  130.5750  149.5356 LP  0  0  0  0  0  0  0  0  0  0  0  0  # atno 17371 bound_to 10713
  140.4016  134.7351  157.4783 LP  0  0  0  0  0  0  0  0  0  0  0  0  # atno 17394 bound_to 11000
  140.0492  134.6156  155.8883 LP  0  0  0  0  0  0  0  0  0  0  0  0  # atno 17395 bound_to 11000

$$$$
