AV-unprocessed.smi:339|AV-procd|sdf|2379|dock1
  -GOLD-   2262022303D 1   1.00000     0.00000
 Structure written by MMmdl.
 45 46  0  0  0  0  0  0  0  0  1 V2000
  154.1043  141.7355  160.8568 C   0  0  0  0  0  0  0  0  0  0  0  0
  153.0133  142.0378  159.8465 C   0  0  0  0  0  0  0  0  0  0  0  0
  152.2827  143.2393  159.9520 C   0  0  0  0  0  0  0  0  0  0  0  0
  151.2613  143.5312  159.0292 C   0  0  0  0  0  0  0  0  0  0  0  0
  150.9602  142.6192  158.0008 C   0  0  0  0  0  0  0  0  0  0  0  0
  151.6838  141.4144  157.8858 C   0  0  0  0  0  0  0  0  0  0  0  0
  151.3377  140.4359  156.7785 C   0  0  0  0  0  0  0  0  0  0  0  0
  152.7240  141.1287  158.8016 C   0  0  0  0  0  0  0  0  0  0  0  0
  153.4343  139.9616  158.6890 O   0  0  0  0  0  0  0  0  0  0  0  0
  152.6930  138.8089  159.0607 C   0  0  0  0  0  0  0  0  0  0  0  0
  153.4218  137.5581  158.5447 C   0  0  1  0  0  0  0  0  0  0  0  0
  153.4418  137.6408  157.1327 O   0  0  0  0  0  0  0  0  0  0  0  0
  154.8848  137.5017  159.0385 C   0  0  0  0  0  0  0  0  0  0  0  0
  154.9708  137.4701  160.5034 N   0  0  0  0  0  0  0  0  0  0  0  0
  155.2952  138.6859  161.0712 N   0  0  0  0  0  0  0  0  0  0  0  0
  155.4232  138.8187  162.3505 C   0  0  0  0  0  0  0  0  0  0  0  0
  155.7789  140.1914  162.8543 C   0  0  0  0  0  0  0  0  0  0  0  0
  155.2218  137.6646  163.2211 C   0  0  0  0  0  0  0  0  0  0  0  0
  155.3851  137.8787  164.7197 C   0  0  0  0  0  0  0  0  0  0  0  0
  154.8940  136.4778  162.6514 C   0  0  0  0  0  0  0  0  0  0  0  0
  154.6656  135.2988  163.4226 C   0  0  0  0  0  0  0  0  0  0  0  0
  154.5003  134.3425  164.0539 N   0  0  0  0  0  0  0  0  0  0  0  0
  154.7506  136.3200  161.2024 C   0  0  0  0  0  0  0  0  0  0  0  0
  154.4635  135.2552  160.6531 O   0  0  0  0  0  0  0  0  0  0  0  0
  153.9630  142.3123  161.7712 H   0  0  0  0  0  0  0  0  0  0  0  0
  155.0814  141.9855  160.4441 H   0  0  0  0  0  0  0  0  0  0  0  0
  154.1034  140.6791  161.1263 H   0  0  0  0  0  0  0  0  0  0  0  0
  152.5027  143.9417  160.7426 H   0  0  0  0  0  0  0  0  0  0  0  0
  150.7047  144.4529  159.1135 H   0  0  0  0  0  0  0  0  0  0  0  0
  150.1696  142.8476  157.3013 H   0  0  0  0  0  0  0  0  0  0  0  0
  151.3627  139.4095  157.1459 H   0  0  0  0  0  0  0  0  0  0  0  0
  152.0493  140.5253  155.9578 H   0  0  0  0  0  0  0  0  0  0  0  0
  150.3386  140.6250  156.3853 H   0  0  0  0  0  0  0  0  0  0  0  0
  152.5283  138.7533  160.1385 H   0  0  0  0  0  0  0  0  0  0  0  0
  151.7097  138.8819  158.5948 H   0  0  0  0  0  0  0  0  0  0  0  0
  152.8776  136.6663  158.8581 H   0  0  0  0  0  0  0  0  0  0  0  0
  153.8912  136.8819  156.7936 H   0  0  0  0  0  0  0  0  0  0  0  0
  155.4063  136.6500  158.5971 H   0  0  0  0  0  0  0  0  0  0  0  0
  155.4322  138.3758  158.6808 H   0  0  0  0  0  0  0  0  0  0  0  0
  155.0738  140.5194  163.6181 H   0  0  0  0  0  0  0  0  0  0  0  0
  155.7651  140.9340  162.0552 H   0  0  0  0  0  0  0  0  0  0  0  0
  156.7779  140.1947  163.2909 H   0  0  0  0  0  0  0  0  0  0  0  0
  155.3729  136.9400  165.2726 H   0  0  0  0  0  0  0  0  0  0  0  0
  154.5761  138.5005  165.1036 H   0  0  0  0  0  0  0  0  0  0  0  0
  156.3330  138.3701  164.9417 H   0  0  0  0  0  0  0  0  0  0  0  0
  1  2  1  0  0  0  0
  1 25  1  0  0  0  0
  1 26  1  0  0  0  0
  1 27  1  0  0  0  0
  2  8  1  0  0  0  0
  2  3  2  0  0  0  0
  3  4  1  0  0  0  0
  3 28  1  0  0  0  0
  4  5  2  0  0  0  0
  4 29  1  0  0  0  0
  5  6  1  0  0  0  0
  5 30  1  0  0  0  0
  6  7  1  0  0  0  0
  6  8  2  0  0  0  0
  7 31  1  0  0  0  0
  7 32  1  0  0  0  0
  7 33  1  0  0  0  0
  8  9  1  0  0  0  0
  9 10  1  0  0  0  0
 10 11  1  0  0  0  0
 10 34  1  0  0  0  0
 10 35  1  0  0  0  0
 11 12  1  0  0  0  0
 11 13  1  0  0  0  0
 11 36  1  0  0  0  0
 12 37  1  0  0  0  0
 13 14  1  0  0  0  0
 13 38  1  0  0  0  0
 13 39  1  0  0  0  0
 14 23  1  0  0  0  0
 14 15  1  0  0  0  0
 15 16  2  0  0  0  0
 16 17  1  0  0  0  0
 16 18  1  0  0  0  0
 17 40  1  0  0  0  0
 17 41  1  0  0  0  0
 17 42  1  0  0  0  0
 18 19  1  0  0  0  0
 18 20  2  0  0  0  0
 19 43  1  0  0  0  0
 19 44  1  0  0  0  0
 19 45  1  0  0  0  0
 20 21  1  0  0  0  0
 20 23  1  0  0  0  0
 21 22  3  0  0  0  0
 23 24  2  0  0  0  0
M  END
> <s_m_source_file>
AV-unprocessed.smi

> <i_m_source_file_index>
339

> <i_lp_mmshare_version>
43012

> <i_f3d_flags>
0

> <s_epik_input>
W0NIM11jMVtjSF1bY0hdW2NIXWMoW0NIM10pYzFPW0NIMl1bQ0BIXShbT0hdKVtDSDJdbjJuYyhbQ0gzXSljKFtDSDNdKWMoQyNOKWMyPU8=

> <s_epik_cmdline>
J2VwaWtfcHl0aG9uJywgJy1waCcsICc3LjAnLCAnLXRuJywgJzgnLCAnLW1hJywgJzIwMCcsICctbWV0YWxfYmluZGluZycsICctaW1hZScsICc8aW5maWxlLm1hZT4nLCAnLW9tYWUnLCAnPG91dGZpbGUubWFlPic=

> <r_lp_tautomer_probability>
1

> <r_epik_Ionization_Penalty>
1.17331e-07

> <r_epik_Ionization_Penalty_Charging>
1.57223e-10

> <r_epik_Ionization_Penalty_Neutral>
1.17174e-07

> <r_epik_State_Penalty>
-0

> <r_epik_Charging_Adjusted_Penalty>
1.57223e-10

> <i_epik_Tot_Q>
0

> <i_epik_Tot_abs_Q>
0

> <r_epik_Metal_State_Penalty>
-0

> <b_epik_Metal_Only>
0

> <s_lp_Force_Field>
OPLS_2005

> <r_lp_Energy>
35.8185

> <b_lp_Chiralities_Consistent>
1

> <s_lp_Variant>
AV-unprocessed.smi:339-2

> <Gold.Version>
5.8.1

> <Gold.Id.Protein>
6NUR|6NUR_protein|mol2

> <Gold.PLP.Fitness>
46.3408

> <Gold.PLP.PLP>
-41.2888

> <Gold.PLP.part.hbond>
-2.0000

> <Gold.PLP.part.metal>
0.0000

> <Gold.PLP.part.buried>
-5.3742

> <Gold.PLP.part.nonpolar>
-34.4921

> <Gold.PLP.part.repulsive>
0.0580

> <Gold.PLP.ligand.clash>
0.0000

> <Gold.PLP.ligand.torsion>
0.4558

> <Gold.PLP.Chemscore.Hbond>
1.9588

> <Gold.PLP.Chemscore.CHOScore>
0.0000

> <Gold.PLP.Chemscore.Metal>
0.0000

> <Gold.Chemscore.Hbonds>
donor molecule, donor type, donor heavy atom, donor atom, acceptor molecule, acceptor atom, score
      P1  H  6896  6907       L1    24  0.65
      P1  H  7997  8010       L1     9  1.00

> <Gold.PLP.Chemscore.Internal.Correction>
0.0874

> <Gold.Rescore>
     Score         DG    S(hbond)    S(metal)    S(lipo)     H(rot)  DE(clash)    DE(int)     intcor
     18.59     -19.08       1.88        0.00     112.66       2.29       0.08       0.41       ----

> <Gold.Chemscore.Fitness>
18.5918

> <Gold.Chemscore.DG>
-19.0798

> <Gold.Chemscore.ZeroCoef>
-5.4800

> <Gold.Chemscore.Hbond>
1.8809

> <Gold.Chemscore.Metal>
0.0000

> <Gold.Chemscore.Lipo>
112.6601

> <Gold.Chemscore.Internal_Hbond>
0.0000

> <Gold.Chemscore.DEClash>
0.0766

> <Gold.Chemscore.DEInternal>
0.4115

> <Gold.Chemscore.Rot>
2.2905

> <Gold.Chemscore.Internal.Correction>
   9.000000E+99

> <Gold.Chemscore.Hbonds>
donor molecule, donor type, donor heavy atom, donor atom, acceptor molecule, acceptor atom, score
      P1  H  6896  6907       L1    24  0.64
      P1  H  7997  8010       L1     9  0.73

> <Gold.Chemscore.Hbond.Weighted>
-6.2822

> <Gold.Chemscore.Metal.Weighted>
-0.0000

> <Gold.Chemscore.Lipo.Weighted>
-13.1812

> <Gold.Chemscore.Internal_Hbond.Weighted>
0.0000

> <Gold.Chemscore.DEClash.Weighted>
0.0766

> <Gold.Chemscore.DEInternal.Weighted>
0.4115

> <Gold.Chemscore.Rot.Weighted>
5.8636

> <Gold.Chemscore.Internal.Correction.Weighted>
   9.000000E+99

> <Gold.Protein.RotatedTorsions>
[ 6907 6896 6895 6894 ] final   63.42 input  -60.11 | X-H torsion
[ 7974 7965 7964 7962 ] final  123.95 input  175.53 | X-H torsion
[ 8008 7997 7996 7995 ] final   27.03 input   59.86 | X-H torsion
[ 10167 10162 10161 10158 ] final  133.78 input  -65.29 | X-H torsion
[ 10718 10713 10712 10709 ] final   48.83 input   66.30 | X-H torsion
[ 10763 10752 10751 10750 ] final   70.50 input  -60.55 | X-H torsion
[ 11005 11000 10999 10996 ] final   19.05 input  -57.11 | X-H torsion

> <Gold.Protein.ActiveResidues>
 VAL166  LYS551  ARG553  GLY616  TRP617  ASP618  TYR619  PRO620  LYS621  CYS622 
 ASP623  PHE694  ASN695  SER759  ASP760  ASP761  ALA762  ILE779  LEU786  VAL792 
 PHE793  MET794  SER795  GLU796  ALA797  LYS798  CYS799  TRP800  GLU811  SER814 

> <Gold.Protein.RotatedAtoms>
  152.4251  134.5883  159.9966 H   0  0  0  0  0  0  0  0  0  0  0  0  # atno 6907 bound_to 6896
  151.6022  133.3349  159.3057 H   0  0  0  0  0  0  0  0  0  0  0  0  # atno 6908 bound_to 6896
  150.8140  134.7349  159.6779 H   0  0  0  0  0  0  0  0  0  0  0  0  # atno 6909 bound_to 6896
  145.0900  139.3594  143.4865 H   0  0  0  0  0  0  0  0  0  0  0  0  # atno 7974 bound_to 7965
  155.0366  140.3164  155.4739 H   0  0  0  0  0  0  0  0  0  0  0  0  # atno 8008 bound_to 7997
  156.2863  140.2170  156.5432 H   0  0  0  0  0  0  0  0  0  0  0  0  # atno 8009 bound_to 7997
  154.7325  140.0480  157.0727 H   0  0  0  0  0  0  0  0  0  0  0  0  # atno 8010 bound_to 7997
  139.5283  144.6599  151.5046 H   0  0  0  0  0  0  0  0  0  0  0  0  # atno 10167 bound_to 10162
  157.4726  130.8265  149.8004 H   0  0  0  0  0  0  0  0  0  0  0  0  # atno 10718 bound_to 10713
  153.0345  135.5171  154.7451 H   0  0  0  0  0  0  0  0  0  0  0  0  # atno 10763 bound_to 10752
  154.6438  135.2916  155.0073 H   0  0  0  0  0  0  0  0  0  0  0  0  # atno 10764 bound_to 10752
  154.0981  135.6640  153.4916 H   0  0  0  0  0  0  0  0  0  0  0  0  # atno 10765 bound_to 10752
  140.4180  134.1548  155.7671 H   0  0  0  0  0  0  0  0  0  0  0  0  # atno 11005 bound_to 11000
  146.3531  140.0730  142.8622 LP  0  0  0  0  0  0  0  0  0  0  0  0  # atno 17320 bound_to 7965
  145.1077  140.9385  143.4675 LP  0  0  0  0  0  0  0  0  0  0  0  0  # atno 17321 bound_to 7965
  140.6442  143.8828  150.6721 LP  0  0  0  0  0  0  0  0  0  0  0  0  # atno 17342 bound_to 10162
  140.2172  143.3837  152.1672 LP  0  0  0  0  0  0  0  0  0  0  0  0  # atno 17343 bound_to 10162
  156.0081  130.3846  150.2361 LP  0  0  0  0  0  0  0  0  0  0  0  0  # atno 17370 bound_to 10713
  157.0544  131.0072  151.3243 LP  0  0  0  0  0  0  0  0  0  0  0  0  # atno 17371 bound_to 10713
  141.1795  133.8443  157.1307 LP  0  0  0  0  0  0  0  0  0  0  0  0  # atno 17394 bound_to 11000
  140.0220  134.9941  157.0611 LP  0  0  0  0  0  0  0  0  0  0  0  0  # atno 17395 bound_to 11000

$$$$
