AV-unprocessed.smi:2298|AV-procd|sdf|9224|dock6
  -GOLD-   2272012443D 1   1.00000     0.00000
 Structure written by MMmdl.
 37 38  0  0  0  0  0  0  0  0  1 V2000
  146.0314  130.6103  151.8881 C   0  0  0  0  0  0  0  0  0  0  0  0
  145.4695  132.0182  151.8267 C   0  0  0  0  0  0  0  0  0  0  0  0
  144.1705  132.1136  151.4691 N   0  0  0  0  0  0  0  0  0  0  0  0
  143.6226  133.3433  151.3916 C   0  0  0  0  0  0  0  0  0  0  0  0
  144.3327  134.5268  151.6685 C   0  0  0  0  0  0  0  0  0  0  0  0
  145.6902  134.4310  152.0591 C   0  0  0  0  0  0  0  0  0  0  0  0
  146.5096  135.5594  152.3471 N   0  0  0  0  0  0  0  0  0  0  0  0
  146.1857  136.7068  152.9682 C   0  0  0  0  0  0  0  0  0  0  0  0
  145.0751  136.9879  153.4181 O   0  0  0  0  0  0  0  0  0  0  0  0
  147.2453  137.5243  153.0546 N   0  0  0  0  0  0  0  0  0  0  0  0
  147.2408  138.8474  153.6718 C   0  0  1  0  0  0  0  0  0  0  0  0
  148.6336  139.1521  154.2555 C   0  0  0  0  0  0  0  0  0  0  0  0
  148.6903  140.5619  154.8660 C   0  0  0  0  0  0  0  0  0  0  0  0
  148.2829  141.6283  153.8348 C   0  0  2  0  0  0  0  0  0  0  0  0
  148.2799  142.9005  154.4470 O   0  0  0  0  0  0  0  0  0  0  0  0
  146.8892  141.3331  153.2543 C   0  0  0  0  0  0  0  0  0  0  0  0
  146.8298  139.9232  152.6452 C   0  0  0  0  0  0  0  0  0  0  0  0
  146.2731  133.1434  152.1274 C   0  0  0  0  0  0  0  0  0  0  0  0
  147.9350  132.9458  152.5749 Cl  0  0  0  0  0  0  0  0  0  0  0  0
  146.5231  138.8538  154.4949 H   0  0  0  0  0  0  0  0  0  0  0  0
  149.0148  141.6471  153.0263 H   0  0  0  0  0  0  0  0  0  0  0  0
  146.3809  130.3861  152.8959 H   0  0  0  0  0  0  0  0  0  0  0  0
  146.8704  130.5064  151.1998 H   0  0  0  0  0  0  0  0  0  0  0  0
  145.2808  129.8660  151.6184 H   0  0  0  0  0  0  0  0  0  0  0  0
  142.5857  133.3866  151.0927 H   0  0  0  0  0  0  0  0  0  0  0  0
  143.8260  135.4732  151.5639 H   0  0  0  0  0  0  0  0  0  0  0  0
  147.4828  135.4524  152.1008 H   0  0  0  0  0  0  0  0  0  0  0  0
  148.1211  137.2103  152.6625 H   0  0  0  0  0  0  0  0  0  0  0  0
  148.8898  138.4135  155.0160 H   0  0  0  0  0  0  0  0  0  0  0  0
  149.3901  139.0670  153.4739 H   0  0  0  0  0  0  0  0  0  0  0  0
  148.0262  140.6076  155.7304 H   0  0  0  0  0  0  0  0  0  0  0  0
  149.6960  140.7633  155.2368 H   0  0  0  0  0  0  0  0  0  0  0  0
  148.9342  142.9079  155.1288 H   0  0  0  0  0  0  0  0  0  0  0  0
  146.1338  141.4190  154.0370 H   0  0  0  0  0  0  0  0  0  0  0  0
  146.6343  142.0733  152.4950 H   0  0  0  0  0  0  0  0  0  0  0  0
  147.4893  139.8769  151.7772 H   0  0  0  0  0  0  0  0  0  0  0  0
  145.8218  139.7281  152.2771 H   0  0  0  0  0  0  0  0  0  0  0  0
  1  2  1  0  0  0  0
  1 22  1  0  0  0  0
  1 23  1  0  0  0  0
  1 24  1  0  0  0  0
  2 18  1  0  0  0  0
  2  3  2  0  0  0  0
  3  4  1  0  0  0  0
  4  5  2  0  0  0  0
  4 25  1  0  0  0  0
  5  6  1  0  0  0  0
  5 26  1  0  0  0  0
  6  7  1  0  0  0  0
  6 18  2  0  0  0  0
  7  8  1  0  0  0  0
  7 27  1  0  0  0  0
  8  9  2  0  0  0  0
  8 10  1  0  0  0  0
 10 11  1  0  0  0  0
 10 28  1  0  0  0  0
 11 20  1  0  0  0  0
 11 17  1  0  0  0  0
 11 12  1  0  0  0  0
 12 13  1  0  0  0  0
 12 29  1  0  0  0  0
 12 30  1  0  0  0  0
 13 14  1  0  0  0  0
 13 31  1  0  0  0  0
 13 32  1  0  0  0  0
 14 21  1  0  0  0  0
 14 15  1  0  0  0  0
 14 16  1  0  0  0  0
 15 33  1  0  0  0  0
 16 17  1  0  0  0  0
 16 34  1  0  0  0  0
 16 35  1  0  0  0  0
 17 36  1  0  0  0  0
 17 37  1  0  0  0  0
 18 19  1  0  0  0  0
M  END
> <s_m_source_file>
AV-unprocessed.smi

> <i_m_source_file_index>
2298

> <i_lp_mmshare_version>
43012

> <i_f3d_flags>
0

> <s_epik_input>
W0NIM11jMW5bY0hdW2NIXWMoYzFDbClbTkhdQyg9TylbTkhdW0NASF0yW0NIMl1bQ0gyXVtDQEhdKFtPSF0pW0NIMl1bQ0gyXTI=

> <s_epik_cmdline>
J2VwaWtfcHl0aG9uJywgJy1waCcsICc3LjAnLCAnLXRuJywgJzgnLCAnLW1hJywgJzIwMCcsICctbWV0YWxfYmluZGluZycsICctaW1hZScsICc8aW5maWxlLm1hZT4nLCAnLW9tYWUnLCAnPG91dGZpbGUubWFlPic=

> <r_epik_Ionization_Penalty>
0.00999805

> <r_epik_Ionization_Penalty_Charging>
0

> <r_epik_Ionization_Penalty_Neutral>
0.00999805

> <r_epik_State_Penalty>
0.00759022

> <r_epik_Charging_Adjusted_Penalty>
0.00759022

> <i_epik_Tot_Q>
0

> <i_epik_Tot_abs_Q>
0

> <r_epik_Metal_State_Penalty>
0.00746447

> <b_epik_Metal_Only>
0

> <s_lp_Force_Field>
OPLS_2005

> <r_lp_Energy>
13.5765

> <b_lp_Chiralities_Consistent>
1

> <s_lp_Variant>
AV-unprocessed.smi:2298-1

> <Gold.Version>
5.8.1

> <Gold.Id.Protein>
6NUR|6NUR_protein|mol2

> <Gold.PLP.Fitness>
39.7830

> <Gold.PLP.PLP>
-29.3064

> <Gold.PLP.part.hbond>
-3.7788

> <Gold.PLP.part.metal>
0.0000

> <Gold.PLP.part.buried>
-0.2124

> <Gold.PLP.part.nonpolar>
-25.3906

> <Gold.PLP.part.repulsive>
0.3861

> <Gold.PLP.ligand.clash>
0.0000

> <Gold.PLP.ligand.torsion>
0.6413

> <Gold.PLP.Chemscore.Hbond>
2.9185

> <Gold.PLP.Chemscore.CHOScore>
1.0000

> <Gold.PLP.Chemscore.Metal>
0.0000

> <Gold.Chemscore.Hbonds>
donor molecule, donor type, donor heavy atom, donor atom, acceptor molecule, acceptor atom, score
      L1  H     7    27       P1  7948  0.94
      L1  H    10    28       P1  7948  0.94
      P1  H  8022  8030       L1    15  0.93
      L1  C     4    25       P1 10186  1.00

> <Gold.PLP.Chemscore.Internal.Correction>
0.0036

> <Gold.Rescore>
     Score         DG    S(hbond)    S(metal)    S(lipo)     H(rot)  DE(clash)    DE(int)     intcor
     18.55     -19.72       2.38        0.00      84.92       1.42       0.53       0.64       ----

> <Gold.Chemscore.Fitness>
18.5481

> <Gold.Chemscore.DG>
-19.7162

> <Gold.Chemscore.ZeroCoef>
-5.4800

> <Gold.Chemscore.Hbond>
2.3759

> <Gold.Chemscore.Metal>
0.0000

> <Gold.Chemscore.Lipo>
84.9184

> <Gold.Chemscore.Internal_Hbond>
0.0000

> <Gold.Chemscore.DEClash>
0.5250

> <Gold.Chemscore.DEInternal>
0.6430

> <Gold.Chemscore.Rot>
1.4199

> <Gold.Chemscore.Internal.Correction>
   9.000000E+99

> <Gold.Chemscore.Hbonds>
donor molecule, donor type, donor heavy atom, donor atom, acceptor molecule, acceptor atom, score
      L1  H     7    27       P1  7948  0.91
      L1  H    10    28       P1  7948  0.87
      L1  H    15    33       P1  8028  0.06
      P1  H  8022  8030       L1    15  0.26

> <Gold.Chemscore.Hbond.Weighted>
-7.9356

> <Gold.Chemscore.Metal.Weighted>
-0.0000

> <Gold.Chemscore.Lipo.Weighted>
-9.9355

> <Gold.Chemscore.Internal_Hbond.Weighted>
0.0000

> <Gold.Chemscore.DEClash.Weighted>
0.5250

> <Gold.Chemscore.DEInternal.Weighted>
0.6430

> <Gold.Chemscore.Rot.Weighted>
3.6349

> <Gold.Chemscore.Internal.Correction.Weighted>
   9.000000E+99

> <Gold.Protein.RotatedTorsions>
[ 6907 6896 6895 6894 ] final   99.80 input  -60.11 | X-H torsion
[ 7974 7965 7964 7962 ] final  -76.46 input  175.53 | X-H torsion
[ 8008 7997 7996 7995 ] final  -40.16 input   59.86 | X-H torsion
[ 10167 10162 10161 10158 ] final -150.11 input  -65.29 | X-H torsion
[ 10718 10713 10712 10709 ] final -116.05 input   66.30 | X-H torsion
[ 10763 10752 10751 10750 ] final    5.91 input  -60.55 | X-H torsion
[ 11005 11000 10999 10996 ] final   87.98 input  -57.11 | X-H torsion

> <Gold.Protein.ActiveResidues>
 VAL166  LYS551  ARG553  GLY616  TRP617  ASP618  TYR619  PRO620  LYS621  CYS622 
 ASP623  PHE694  ASN695  SER759  ASP760  ASP761  ALA762  ILE779  LEU786  VAL792 
 PHE793  MET794  SER795  GLU796  ALA797  LYS798  CYS799  TRP800  GLU811  SER814 

> <Gold.Protein.RotatedAtoms>
  152.5385  134.0373  159.8051 H   0  0  0  0  0  0  0  0  0  0  0  0  # atno 6907 bound_to 6896
  151.0534  133.5597  159.2647 H   0  0  0  0  0  0  0  0  0  0  0  0  # atno 6908 bound_to 6896
  151.2522  135.0634  159.9120 H   0  0  0  0  0  0  0  0  0  0  0  0  # atno 6909 bound_to 6896
  145.6126  140.9383  143.1181 H   0  0  0  0  0  0  0  0  0  0  0  0  # atno 7974 bound_to 7965
  154.4015  140.1532  156.2982 H   0  0  0  0  0  0  0  0  0  0  0  0  # atno 8008 bound_to 7997
  155.8724  140.3448  155.5809 H   0  0  0  0  0  0  0  0  0  0  0  0  # atno 8009 bound_to 7997
  155.7759  140.0837  157.2074 H   0  0  0  0  0  0  0  0  0  0  0  0  # atno 8010 bound_to 7997
  139.7383  143.8701  152.2555 H   0  0  0  0  0  0  0  0  0  0  0  0  # atno 10167 bound_to 10162
  156.0937  130.6114  150.8985 H   0  0  0  0  0  0  0  0  0  0  0  0  # atno 10718 bound_to 10713
  153.2539  135.6916  153.7650 H   0  0  0  0  0  0  0  0  0  0  0  0  # atno 10763 bound_to 10752
  153.6734  135.3340  155.3160 H   0  0  0  0  0  0  0  0  0  0  0  0  # atno 10764 bound_to 10752
  154.8405  135.4505  154.1505 H   0  0  0  0  0  0  0  0  0  0  0  0  # atno 10765 bound_to 10752
  139.8907  134.8458  156.2936 H   0  0  0  0  0  0  0  0  0  0  0  0  # atno 11005 bound_to 11000
  144.7263  139.7864  143.7363 LP  0  0  0  0  0  0  0  0  0  0  0  0  # atno 17320 bound_to 7965
  146.1492  139.4571  143.0059 LP  0  0  0  0  0  0  0  0  0  0  0  0  # atno 17321 bound_to 7965
  139.8644  144.7100  150.9061 LP  0  0  0  0  0  0  0  0  0  0  0  0  # atno 17342 bound_to 10162
  140.7782  143.3790  151.1511 LP  0  0  0  0  0  0  0  0  0  0  0  0  # atno 17343 bound_to 10162
  157.6093  131.0937  150.8824 LP  0  0  0  0  0  0  0  0  0  0  0  0  # atno 17370 bound_to 10713
  156.8967  130.5232  149.5284 LP  0  0  0  0  0  0  0  0  0  0  0  0  # atno 17371 bound_to 10713
  140.9960  133.7180  156.0886 LP  0  0  0  0  0  0  0  0  0  0  0  0  # atno 17394 bound_to 11000
  140.7562  134.3990  157.5533 LP  0  0  0  0  0  0  0  0  0  0  0  0  # atno 17395 bound_to 11000

$$$$
