AV-unprocessed.smi:1006|AV-procd|sdf|4395|dock6
  -GOLD-   22720 2323D 1   1.00000     0.00000
 Structure written by MMmdl.
 46 48  0  0  0  0  0  0  0  0  2 V2000
  151.7176  137.6979  154.5648 C   0  0  0  0  0  0  0  0  0  0  0  0
  150.7109  138.8019  154.8073 C   0  0  0  0  0  0  0  0  0  0  0  0
  151.1054  140.0663  155.2951 C   0  0  0  0  0  0  0  0  0  0  0  0
  150.0750  141.0109  155.4825 C   0  0  0  0  0  0  0  0  0  0  0  0
  150.3578  142.2889  155.9577 N   0  0  0  0  0  0  0  0  0  0  0  0
  148.7849  140.7205  155.2105 N   0  0  0  0  0  0  0  0  0  0  0  0
  148.5328  139.4929  154.7507 C   0  0  0  0  0  0  0  0  0  0  0  0
  146.8161  139.1510  154.4038 S   0  0  0  0  0  0  0  0  0  0  0  0
  146.8675  138.5758  152.6782 C   0  0  0  0  0  0  0  0  0  0  0  0
  145.8903  137.4167  152.4263 C   0  0  1  0  0  0  0  0  0  0  0  0
  144.5631  137.8981  152.5217 O   0  0  0  0  0  0  0  0  0  0  0  0
  146.1150  136.7660  151.0476 C   0  0  0  0  0  0  0  0  0  0  0  0
  145.2658  135.5857  150.8314 N   0  0  0  0  0  0  0  0  0  0  0  0
  144.0760  135.4827  150.1795 C   0  0  0  0  0  0  0  0  0  0  0  0
  143.6836  134.1803  150.2429 N   0  3  0  0  0  0  0  0  0  0  0  0
  144.6372  133.4399  150.9445 C   0  0  0  0  0  0  0  0  0  0  0  0
  144.6837  132.0882  151.2645 C   0  0  0  0  0  0  0  0  0  0  0  0
  145.8067  131.6361  151.9933 C   0  0  0  0  0  0  0  0  0  0  0  0
  145.8900  130.1633  152.3576 C   0  0  0  0  0  0  0  0  0  0  0  0
  146.8375  132.5328  152.3765 C   0  0  0  0  0  0  0  0  0  0  0  0
  148.0425  132.0351  153.1565 C   0  0  0  0  0  0  0  0  0  0  0  0
  146.7702  133.9046  152.0433 C   0  0  0  0  0  0  0  0  0  0  0  0
  145.6564  134.3348  151.3252 C   0  0  0  0  0  0  0  0  0  0  0  0
  149.4185  138.5150  154.5354 N   0  0  0  0  0  0  0  0  0  0  0  0
  152.7383  138.0746  154.6370 H   0  0  0  0  0  0  0  0  0  0  0  0
  151.5834  137.2702  153.5708 H   0  0  0  0  0  0  0  0  0  0  0  0
  151.5924  136.9042  155.3016 H   0  0  0  0  0  0  0  0  0  0  0  0
  152.1382  140.2970  155.5128 H   0  0  0  0  0  0  0  0  0  0  0  0
  151.3003  142.5743  156.1801 H   0  0  0  0  0  0  0  0  0  0  0  0
  149.6271  142.9738  156.0866 H   0  0  0  0  0  0  0  0  0  0  0  0
  146.6405  139.4095  152.0123 H   0  0  0  0  0  0  0  0  0  0  0  0
  147.8850  138.2532  152.4553 H   0  0  0  0  0  0  0  0  0  0  0  0
  146.0277  136.6593  153.1994 H   0  0  0  0  0  0  0  0  0  0  0  0
  144.5577  138.8143  152.2908 H   0  0  0  0  0  0  0  0  0  0  0  0
  145.9563  137.4805  150.2398 H   0  0  0  0  0  0  0  0  0  0  0  0
  147.1503  136.4339  150.9601 H   0  0  0  0  0  0  0  0  0  0  0  0
  143.5413  136.2881  149.6969 H   0  0  0  0  0  0  0  0  0  0  0  0
  143.8963  131.4109  150.9675 H   0  0  0  0  0  0  0  0  0  0  0  0
  145.9601  130.0380  153.4384 H   0  0  0  0  0  0  0  0  0  0  0  0
  146.7659  129.7051  151.8974 H   0  0  0  0  0  0  0  0  0  0  0  0
  145.0100  129.6176  152.0160 H   0  0  0  0  0  0  0  0  0  0  0  0
  148.7556  132.8382  153.3454 H   0  0  0  0  0  0  0  0  0  0  0  0
  148.5625  131.2535  152.6026 H   0  0  0  0  0  0  0  0  0  0  0  0
  147.7333  131.6308  154.1204 H   0  0  0  0  0  0  0  0  0  0  0  0
  147.5577  134.5839  152.3327 H   0  0  0  0  0  0  0  0  0  0  0  0
  142.8287  133.8252  149.8340 H   0  0  0  0  0  0  0  0  0  0  0  0
  1  2  1  0  0  0  0
  1 25  1  0  0  0  0
  1 26  1  0  0  0  0
  1 27  1  0  0  0  0
  2 24  1  0  0  0  0
  2  3  2  0  0  0  0
  3  4  1  0  0  0  0
  3 28  1  0  0  0  0
  4  5  1  0  0  0  0
  4  6  2  0  0  0  0
  5 29  1  0  0  0  0
  5 30  1  0  0  0  0
  6  7  1  0  0  0  0
  7  8  1  0  0  0  0
  7 24  2  0  0  0  0
  8  9  1  0  0  0  0
  9 10  1  0  0  0  0
  9 31  1  0  0  0  0
  9 32  1  0  0  0  0
 10 11  1  0  0  0  0
 10 12  1  0  0  0  0
 10 33  1  0  0  0  0
 11 34  1  0  0  0  0
 12 13  1  0  0  0  0
 12 35  1  0  0  0  0
 12 36  1  0  0  0  0
 13 23  1  0  0  0  0
 13 14  1  0  0  0  0
 14 15  2  0  0  0  0
 14 37  1  0  0  0  0
 15 16  1  0  0  0  0
 15 46  1  0  0  0  0
 16 23  2  0  0  0  0
 16 17  1  0  0  0  0
 17 18  2  0  0  0  0
 17 38  1  0  0  0  0
 18 19  1  0  0  0  0
 18 20  1  0  0  0  0
 19 39  1  0  0  0  0
 19 40  1  0  0  0  0
 19 41  1  0  0  0  0
 20 21  1  0  0  0  0
 20 22  2  0  0  0  0
 21 42  1  0  0  0  0
 21 43  1  0  0  0  0
 21 44  1  0  0  0  0
 22 23  1  0  0  0  0
 22 45  1  0  0  0  0
M  CHG  1  15   1
M  END
> <s_m_source_file>
AV-unprocessed.smi

> <i_m_source_file_index>
1006

> <i_lp_mmshare_version>
43012

> <i_f3d_flags>
0

> <s_epik_input>
W0NIM11jMVtjSF1jKFtOSDJdKW5jKG4xKVNbQ0gyXVtDQEhdKFtPSF0pW0NIMl1uKFtjSF1uMiljKGMyMylbY0hdYyhbQ0gzXSljKFtjSF0zKVtDSDNd

> <s_epik_cmdline>
J2VwaWtfcHl0aG9uJywgJy1waCcsICc3LjAnLCAnLXRuJywgJzgnLCAnLW1hJywgJzIwMCcsICctbWV0YWxfYmluZGluZycsICctaW1hZScsICc8aW5maWxlLm1hZT4nLCAnLW9tYWUnLCAnPG91dGZpbGUubWFlPic=

> <r_epik_Ionization_Penalty>
1.4378

> <r_epik_Ionization_Penalty_Charging>
1.06724

> <r_epik_Ionization_Penalty_Neutral>
0.370564

> <r_epik_State_Penalty>
1.48666

> <r_epik_Charging_Adjusted_Penalty>
2.5539

> <i_epik_Tot_Q>
1

> <i_epik_Tot_abs_Q>
1

> <r_epik_Metal_State_Penalty>
1.38026

> <b_epik_Metal_Only>
0

> <s_lp_Force_Field>
OPLS_2005

> <r_lp_Energy>
7.15152

> <b_lp_Chiralities_Consistent>
1

> <s_lp_Variant>
AV-unprocessed.smi:1006-6

> <Gold.Version>
5.8.1

> <Gold.Id.Protein>
6NUR|6NUR_protein|mol2

> <Gold.PLP.Fitness>
55.7209

> <Gold.PLP.PLP>
-43.9512

> <Gold.PLP.part.hbond>
-4.0000

> <Gold.PLP.part.metal>
0.0000

> <Gold.PLP.part.buried>
0.1457

> <Gold.PLP.part.nonpolar>
-41.1292

> <Gold.PLP.part.repulsive>
0.4364

> <Gold.PLP.ligand.clash>
0.0000

> <Gold.PLP.ligand.torsion>
0.6869

> <Gold.PLP.Chemscore.Hbond>
3.3760

> <Gold.PLP.Chemscore.CHOScore>
1.0000

> <Gold.PLP.Chemscore.Metal>
0.0000

> <Gold.Chemscore.Hbonds>
donor molecule, donor type, donor heavy atom, donor atom, acceptor molecule, acceptor atom, score
      L1  H     5    30       P1  8028  0.98
      L1  H    11    34       P1 10175  0.93
      L1  H    15    46       P1 10186  1.54
      L1  C    14    37       P1 10171  1.00

> <Gold.PLP.Chemscore.Internal.Correction>
0.0155

> <Gold.Rescore>
     Score         DG    S(hbond)    S(metal)    S(lipo)     H(rot)  DE(clash)    DE(int)     intcor
     16.83     -18.57       2.89        0.00      92.47       2.89       1.12       0.62       ----

> <Gold.Chemscore.Fitness>
16.8251

> <Gold.Chemscore.DG>
-18.5653

> <Gold.Chemscore.ZeroCoef>
-5.4800

> <Gold.Chemscore.Hbond>
2.8942

> <Gold.Chemscore.Metal>
0.0000

> <Gold.Chemscore.Lipo>
92.4735

> <Gold.Chemscore.Internal_Hbond>
0.0000

> <Gold.Chemscore.DEClash>
1.1192

> <Gold.Chemscore.DEInternal>
0.6209

> <Gold.Chemscore.Rot>
2.8910

> <Gold.Chemscore.Internal.Correction>
   9.000000E+99

> <Gold.Chemscore.Hbonds>
donor molecule, donor type, donor heavy atom, donor atom, acceptor molecule, acceptor atom, score
      L1  H     5    30       P1  8028  0.93
      L1  H    11    34       P1 10175  0.90
      L1  H    15    46       P1 10186  0.75

> <Gold.Chemscore.Hbond.Weighted>
-9.6668

> <Gold.Chemscore.Metal.Weighted>
-0.0000

> <Gold.Chemscore.Lipo.Weighted>
-10.8194

> <Gold.Chemscore.Internal_Hbond.Weighted>
0.0000

> <Gold.Chemscore.DEClash.Weighted>
1.1192

> <Gold.Chemscore.DEInternal.Weighted>
0.6209

> <Gold.Chemscore.Rot.Weighted>
7.4009

> <Gold.Chemscore.Internal.Correction.Weighted>
   9.000000E+99

> <Gold.Protein.RotatedTorsions>
[ 6907 6896 6895 6894 ] final  112.24 input  -60.11 | X-H torsion
[ 7974 7965 7964 7962 ] final -150.63 input  175.53 | X-H torsion
[ 8008 7997 7996 7995 ] final  168.14 input   59.86 | X-H torsion
[ 10167 10162 10161 10158 ] final   69.62 input  -65.29 | X-H torsion
[ 10718 10713 10712 10709 ] final  156.26 input   66.30 | X-H torsion
[ 10763 10752 10751 10750 ] final   90.21 input  -60.55 | X-H torsion
[ 11005 11000 10999 10996 ] final   60.92 input  -57.11 | X-H torsion

> <Gold.Protein.ActiveResidues>
 VAL166  LYS551  ARG553  GLY616  TRP617  ASP618  TYR619  PRO620  LYS621  CYS622 
 ASP623  PHE694  ASN695  SER759  ASP760  ASP761  ALA762  ILE779  LEU786  VAL792 
 PHE793  MET794  SER795  GLU796  ALA797  LYS798  CYS799  TRP800  GLU811  SER814 

> <Gold.Protein.RotatedAtoms>
  152.4927  133.8543  159.7217 H   0  0  0  0  0  0  0  0  0  0  0  0  # atno 6907 bound_to 6896
  150.9072  133.7034  159.2870 H   0  0  0  0  0  0  0  0  0  0  0  0  # atno 6908 bound_to 6896
  151.4456  135.1029  159.9735 H   0  0  0  0  0  0  0  0  0  0  0  0  # atno 6909 bound_to 6896
  144.7896  140.4906  143.5782 H   0  0  0  0  0  0  0  0  0  0  0  0  # atno 7974 bound_to 7965
  156.1572  140.1598  156.8672 H   0  0  0  0  0  0  0  0  0  0  0  0  # atno 8008 bound_to 7997
  154.5126  140.0797  156.8056 H   0  0  0  0  0  0  0  0  0  0  0  0  # atno 8009 bound_to 7997
  155.3779  140.3403  155.4248 H   0  0  0  0  0  0  0  0  0  0  0  0  # atno 8010 bound_to 7997
  140.0658  144.5194  150.7262 H   0  0  0  0  0  0  0  0  0  0  0  0  # atno 10167 bound_to 10162
  157.2073  131.0689  151.1990 H   0  0  0  0  0  0  0  0  0  0  0  0  # atno 10718 bound_to 10713
  153.1952  135.4442  155.0198 H   0  0  0  0  0  0  0  0  0  0  0  0  # atno 10763 bound_to 10752
  154.8114  135.3296  154.7297 H   0  0  0  0  0  0  0  0  0  0  0  0  # atno 10764 bound_to 10752
  153.7747  135.6982  153.4955 H   0  0  0  0  0  0  0  0  0  0  0  0  # atno 10765 bound_to 10752
  140.0198  134.6170  155.9657 H   0  0  0  0  0  0  0  0  0  0  0  0  # atno 11005 bound_to 11000
  145.5829  139.1490  143.3225 LP  0  0  0  0  0  0  0  0  0  0  0  0  # atno 17320 bound_to 7965
  146.2143  140.5958  142.9045 LP  0  0  0  0  0  0  0  0  0  0  0  0  # atno 17321 bound_to 7965
  140.7150  143.2536  151.4464 LP  0  0  0  0  0  0  0  0  0  0  0  0  # atno 17342 bound_to 10162
  139.5866  144.1591  152.2036 LP  0  0  0  0  0  0  0  0  0  0  0  0  # atno 17343 bound_to 10162
  157.3707  130.7180  149.6563 LP  0  0  0  0  0  0  0  0  0  0  0  0  # atno 17370 bound_to 10713
  155.9694  130.4199  150.4399 LP  0  0  0  0  0  0  0  0  0  0  0  0  # atno 17371 bound_to 10713
  141.1766  133.6541  156.4854 LP  0  0  0  0  0  0  0  0  0  0  0  0  # atno 17394 bound_to 11000
  140.4408  134.7018  157.4990 LP  0  0  0  0  0  0  0  0  0  0  0  0  # atno 17395 bound_to 11000

$$$$
