#       Name:                AV-unprocessed.smi:2292
#       Creating user name   scv26
#       Creation time:       Fri Mar 27 12:43:22 2020


#       File generated by GOLD software.
#

@<TRIPOS>MOLECULE
AV-unprocessed.smi:2292
    36    37     1
SMALL
NO_CHARGES


@<TRIPOS>ATOM
      1 ****        -3.7861   3.6114   0.0808 C.3            1 S1                 0.0000
      2 ****        -3.1159   2.2570  -0.0167 C.ar           1 S1                 0.0000
      3 ****        -3.8757   1.0715  -0.0157 C.ar           1 S1                 0.0000
      4 ****        -3.1918  -0.1563  -0.1112 C.ar           1 S1                 0.0000
      5 ****        -3.9449  -1.4700  -0.1129 C.3            1 S1                 0.0000
      6 ****        -1.8477  -0.2458  -0.2033 N.ar           1 S1                 0.0000
      7 ****        -1.1057   0.8894  -0.2051 C.ar           1 S1                 0.0000
      8 ****         0.3117   0.9041  -0.2943 N.am           1 S1                 0.0000
      9 ****         1.1458  -0.1392  -0.4500 C.2            1 S1                 0.0000
     10 ****         0.8014  -1.3156  -0.5680 O.2            1 S1                 0.0000
     11 ****         2.4251   0.2617  -0.4678 N.am           1 S1                 0.0000
     12 ****         3.5740  -0.6214  -0.6204 C.3            1 S1                 0.0000
     13 ****         3.9376  -1.4201   0.6169 C.3            1 S1                 0.0000
     14 ****         4.9387  -2.5483   0.5278 C.3            1 S1                 0.0000
     15 ****         3.4832  -2.8520   0.7851 C.3            1 S1                 0.0000
     16 ****        -1.7128   2.1617  -0.1104 C.ar           1 S1                 0.0000
     17 ****        -4.8721   3.5167   0.1052 H              1 S1                 0.0000
     18 ****        -3.5175   4.2282  -0.7771 H              1 S1                 0.0000
     19 ****        -3.4676   4.1255   0.9878 H              1 S1                 0.0000
     20 ****        -4.9532   1.1022   0.0565 H              1 S1                 0.0000
     21 ****        -5.0235  -1.3091  -0.1191 H              1 S1                 0.0000
     22 ****        -3.6919  -2.0512   0.7741 H              1 S1                 0.0000
     23 ****        -3.6839  -2.0568  -0.9941 H              1 S1                 0.0000
     24 ****         0.7404   1.8154  -0.2316 H              1 S1                 0.0000
     25 ****         2.6192   1.2468  -0.3636 H              1 S1                 0.0000
     26 ****         3.4140  -1.2976  -1.4621 H              1 S1                 0.0000
     27 ****         4.4301  -0.0011  -0.8864 H              1 S1                 0.0000
     28 ****         3.9934  -0.8211   1.5241 H              1 S1                 0.0000
     29 ****         5.3365  -2.7973  -0.4542 H              1 S1                 0.0000
     30 ****         5.6322  -2.6720   1.3572 H              1 S1                 0.0000
     31 ****         3.2032  -3.1738   1.7859 H              1 S1                 0.0000
     32 ****         2.9128  -3.3018  -0.0254 H              1 S1                 0.0000
     33 ****        -1.1103   3.0588  -0.1119 H              1 S1                 0.0000
     34 ****        -1.4041  -1.1396  -0.2695 LP             1 S1                 0.0000
     35 ****        -0.1690  -1.5565  -0.5519 LP             1 S1                 0.0000
     36 ****         1.4922  -2.0300  -0.6800 LP             1 S1                 0.0000
@<TRIPOS>BOND
    1    1    2 1     
    2    1   17 1     
    3    1   18 1     
    4    1   19 1     
    5    2   16 ar    
    6    2    3 ar    
    7    3    4 ar    
    8    3   20 1     
    9    4    5 1     
   10    4    6 ar    
   11    5   21 1     
   12    5   22 1     
   13    5   23 1     
   14    6    7 ar    
   15    7    8 1     
   16    7   16 ar    
   17    8    9 am    
   18    8   24 1     
   19    9   10 2     
   20    9   11 am    
   21   11   12 1     
   22   11   25 1     
   23   12   13 1     
   24   12   26 1     
   25   12   27 1     
   26   13   15 1     
   27   13   14 1     
   28   13   28 1     
   29   14   15 1     
   30   14   29 1     
   31   14   30 1     
   32   15   31 1     
   33   15   32 1     
   34   16   33 1     
   35    6   34 1     
   36   10   35 1     
   37   10   36 1     
@<TRIPOS>SUBSTRUCTURE
      1 S1             1
@<TRIPOS>SET
LONE_PAIRS      STATIC     ATOMS    <user>   **** ""
3 34 35 36
DONOR_HYDROGENS      STATIC     ATOMS    <user>   **** ""
2 24 25
ATOM$BLUE        STATIC     ATOMS    COLORGROUP SYSTEM
3 34 35 36
ATOM$RED        STATIC     ATOMS    COLORGROUP SYSTEM
2 24 25
