AV-unprocessed.smi:1033|AV-procd|sdf|4491|dock6
  -GOLD-   22720 2473D 1   1.00000     0.00000
 Structure written by MMmdl.
 56 58  0  0  0  0  0  0  0  0  2 V2000
  151.9404  143.8173  159.1870 C   0  0  0  0  0  0  0  0  0  0  0  0
  152.6732  142.6833  159.8824 C   0  0  0  0  0  0  0  0  0  0  0  0
  153.2103  141.6333  159.1042 C   0  0  0  0  0  0  0  0  0  0  0  0
  153.8991  140.5608  159.7114 C   0  0  0  0  0  0  0  0  0  0  0  0
  154.4923  139.4419  159.1524 N   0  0  0  0  0  0  0  0  0  0  0  0
  154.9642  138.8217  160.2296 C   0  0  0  0  0  0  0  0  0  0  0  0
  154.7387  139.4024  161.4237 N   0  0  0  0  0  0  0  0  0  0  0  0
  155.1455  138.9037  162.7247 C   0  0  0  0  0  0  0  0  0  0  0  0
  155.3910  137.3823  162.7204 C   0  0  1  0  0  0  0  0  0  0  0  0
  156.7442  137.1617  163.0633 O   0  0  0  0  0  0  0  0  0  0  0  0
  154.4925  136.6091  163.7112 C   0  0  0  0  0  0  0  0  0  0  0  0
  154.9607  135.2193  163.9420 N   0  3  0  0  0  0  0  0  0  0  0  0
  154.8663  134.3520  162.7363 C   0  0  0  0  0  0  0  0  0  0  0  0
  155.4188  132.9473  163.0487 C   0  0  0  0  0  0  0  0  0  0  0  0
  154.7325  132.2943  164.1636 N   0  0  0  0  0  0  0  0  0  0  0  0
  153.3487  131.8837  163.8912 C   0  0  0  0  0  0  0  0  0  0  0  0
  152.6405  131.1049  165.0224 C   0  0  2  0  0  0  0  0  0  0  0  0
  153.3445  129.7889  165.3955 C   0  0  0  0  0  0  0  0  0  0  0  0
  151.3496  130.7487  164.5722 O   0  0  0  0  0  0  0  0  0  0  0  0
  154.8404  133.1594  165.3386 C   0  0  0  0  0  0  0  0  0  0  0  0
  154.2864  134.5809  165.1024 C   0  0  0  0  0  0  0  0  0  0  0  0
  154.0375  140.5676  161.1304 C   0  0  0  0  0  0  0  0  0  0  0  0
  153.5077  141.6069  161.9156 C   0  0  0  0  0  0  0  0  0  0  0  0
  152.8226  142.6709  161.2925 C   0  0  0  0  0  0  0  0  0  0  0  0
  152.2556  143.7900  162.1482 C   0  0  0  0  0  0  0  0  0  0  0  0
  151.8788  143.6516  158.1111 H   0  0  0  0  0  0  0  0  0  0  0  0
  152.4581  144.7627  159.3510 H   0  0  0  0  0  0  0  0  0  0  0  0
  150.9235  143.9079  159.5691 H   0  0  0  0  0  0  0  0  0  0  0  0
  153.0974  141.6432  158.0298 H   0  0  0  0  0  0  0  0  0  0  0  0
  155.4991  137.8867  160.1474 H   0  0  0  0  0  0  0  0  0  0  0  0
  156.0526  139.4323  163.0214 H   0  0  0  0  0  0  0  0  0  0  0  0
  154.3794  139.1676  163.4550 H   0  0  0  0  0  0  0  0  0  0  0  0
  155.2404  137.0163  161.7053 H   0  0  0  0  0  0  0  0  0  0  0  0
  156.8787  136.2346  163.1915 H   0  0  0  0  0  0  0  0  0  0  0  0
  154.4708  137.1546  164.6560 H   0  0  0  0  0  0  0  0  0  0  0  0
  153.4601  136.5701  163.3621 H   0  0  0  0  0  0  0  0  0  0  0  0
  153.8319  134.2952  162.3949 H   0  0  0  0  0  0  0  0  0  0  0  0
  155.4409  134.7806  161.9164 H   0  0  0  0  0  0  0  0  0  0  0  0
  155.3911  132.3163  162.1622 H   0  0  0  0  0  0  0  0  0  0  0  0
  156.4778  133.0389  163.2941 H   0  0  0  0  0  0  0  0  0  0  0  0
  152.7767  132.7950  163.7085 H   0  0  0  0  0  0  0  0  0  0  0  0
  153.2809  131.3193  162.9613 H   0  0  0  0  0  0  0  0  0  0  0  0
  152.5185  131.7354  165.9041 H   0  0  0  0  0  0  0  0  0  0  0  0
  154.3507  129.9511  165.7768 H   0  0  0  0  0  0  0  0  0  0  0  0
  153.4261  129.1255  164.5337 H   0  0  0  0  0  0  0  0  0  0  0  0
  152.7904  129.2561  166.1692 H   0  0  0  0  0  0  0  0  0  0  0  0
  151.2532  131.0337  163.6762 H   0  0  0  0  0  0  0  0  0  0  0  0
  154.3316  132.6997  166.1868 H   0  0  0  0  0  0  0  0  0  0  0  0
  155.8892  133.2343  165.6292 H   0  0  0  0  0  0  0  0  0  0  0  0
  154.4553  135.1829  165.9959 H   0  0  0  0  0  0  0  0  0  0  0  0
  153.2081  134.5589  164.9395 H   0  0  0  0  0  0  0  0  0  0  0  0
  153.6273  141.5867  162.9887 H   0  0  0  0  0  0  0  0  0  0  0  0
  152.4919  143.6442  163.2026 H   0  0  0  0  0  0  0  0  0  0  0  0
  151.1705  143.8330  162.0504 H   0  0  0  0  0  0  0  0  0  0  0  0
  152.6695  144.7516  161.8437 H   0  0  0  0  0  0  0  0  0  0  0  0
  155.9394  135.2822  164.1846 H   0  0  0  0  0  0  0  0  0  0  0  0
  1  2  1  0  0  0  0
  1 26  1  0  0  0  0
  1 27  1  0  0  0  0
  1 28  1  0  0  0  0
  2 24  1  0  0  0  0
  2  3  2  0  0  0  0
  3  4  1  0  0  0  0
  3 29  1  0  0  0  0
  4 22  2  0  0  0  0
  4  5  1  0  0  0  0
  5  6  2  0  0  0  0
  6  7  1  0  0  0  0
  6 30  1  0  0  0  0
  7  8  1  0  0  0  0
  7 22  1  0  0  0  0
  8  9  1  0  0  0  0
  8 31  1  0  0  0  0
  8 32  1  0  0  0  0
  9 10  1  0  0  0  0
  9 11  1  0  0  0  0
  9 33  1  0  0  0  0
 10 34  1  0  0  0  0
 11 12  1  0  0  0  0
 11 35  1  0  0  0  0
 11 36  1  0  0  0  0
 12 21  1  0  0  0  0
 12 13  1  0  0  0  0
 12 56  1  0  0  0  0
 13 14  1  0  0  0  0
 13 37  1  0  0  0  0
 13 38  1  0  0  0  0
 14 15  1  0  0  0  0
 14 39  1  0  0  0  0
 14 40  1  0  0  0  0
 15 16  1  0  0  0  0
 15 20  1  0  0  0  0
 16 17  1  0  0  0  0
 16 41  1  0  0  0  0
 16 42  1  0  0  0  0
 17 18  1  0  0  0  0
 17 19  1  0  0  0  0
 17 43  1  0  0  0  0
 18 44  1  0  0  0  0
 18 45  1  0  0  0  0
 18 46  1  0  0  0  0
 19 47  1  0  0  0  0
 20 21  1  0  0  0  0
 20 48  1  0  0  0  0
 20 49  1  0  0  0  0
 21 50  1  0  0  0  0
 21 51  1  0  0  0  0
 22 23  1  0  0  0  0
 23 24  2  0  0  0  0
 23 52  1  0  0  0  0
 24 25  1  0  0  0  0
 25 53  1  0  0  0  0
 25 54  1  0  0  0  0
 25 55  1  0  0  0  0
M  CHG  1  12   1
M  END
> <s_m_source_file>
AV-unprocessed.smi

> <i_m_source_file_index>
1033

> <i_lp_mmshare_version>
43012

> <i_f3d_flags>
0

> <s_epik_input>
W0NIM11jKFtjSF0xKWMoW0NIM10pW2NIXWMoYzEyKW4oW2NIXW4yKVtDSDJdW0NASF0oW09IXSlbQ0gyXU4zW0NIMl1bQ0gyXU4oW0NIMl1bQ0gyXTMpW0NIMl1bQ0BIXShbQ0gzXSlbT0hd

> <s_epik_cmdline>
J2VwaWtfcHl0aG9uJywgJy1waCcsICc3LjAnLCAnLXRuJywgJzgnLCAnLW1hJywgJzIwMCcsICctbWV0YWxfYmluZGluZycsICctaW1hZScsICc8aW5maWxlLm1hZT4nLCAnLW9tYWUnLCAnPG91dGZpbGUubWFlPic=

> <r_epik_Ionization_Penalty>
0.131893

> <r_epik_Ionization_Penalty_Charging>
0.00208556

> <r_epik_Ionization_Penalty_Neutral>
0.129808

> <r_epik_State_Penalty>
0.452125

> <r_epik_Charging_Adjusted_Penalty>
0.454211

> <i_epik_Tot_Q>
1

> <i_epik_Tot_abs_Q>
1

> <r_epik_Metal_State_Penalty>
0.376389

> <b_epik_Metal_Only>
0

> <s_lp_Force_Field>
OPLS_2005

> <r_lp_Energy>
35.7629

> <b_lp_Chiralities_Consistent>
1

> <s_lp_Variant>
AV-unprocessed.smi:1033-2

> <Gold.Version>
5.8.1

> <Gold.Id.Protein>
6NUR|6NUR_protein|mol2

> <Gold.PLP.Fitness>
50.0888

> <Gold.PLP.PLP>
-49.4807

> <Gold.PLP.part.hbond>
-2.0000

> <Gold.PLP.part.metal>
0.0000

> <Gold.PLP.part.buried>
-2.7466

> <Gold.PLP.part.nonpolar>
-44.2724

> <Gold.PLP.part.repulsive>
0.0000

> <Gold.PLP.ligand.clash>
0.0000

> <Gold.PLP.ligand.torsion>
1.2256

> <Gold.PLP.Chemscore.Hbond>
1.0000

> <Gold.PLP.Chemscore.CHOScore>
0.0000

> <Gold.PLP.Chemscore.Metal>
0.0000

> <Gold.Chemscore.Hbonds>
donor molecule, donor type, donor heavy atom, donor atom, acceptor molecule, acceptor atom, score
      P1  H  7997  8008       L1     5  1.00

> <Gold.PLP.Chemscore.Internal.Correction>
0.0592

> <Gold.Rescore>
     Score         DG    S(hbond)    S(metal)    S(lipo)     H(rot)  DE(clash)    DE(int)     intcor
     16.60     -17.94       0.91        0.00     147.56       3.07       0.13       1.21       ----

> <Gold.Chemscore.Fitness>
16.6040

> <Gold.Chemscore.DG>
-17.9373

> <Gold.Chemscore.ZeroCoef>
-5.4800

> <Gold.Chemscore.Hbond>
0.9098

> <Gold.Chemscore.Metal>
0.0000

> <Gold.Chemscore.Lipo>
147.5641

> <Gold.Chemscore.Internal_Hbond>
0.0000

> <Gold.Chemscore.DEClash>
0.1262

> <Gold.Chemscore.DEInternal>
1.2070

> <Gold.Chemscore.Rot>
3.0650

> <Gold.Chemscore.Internal.Correction>
   9.000000E+99

> <Gold.Chemscore.Hbonds>
donor molecule, donor type, donor heavy atom, donor atom, acceptor molecule, acceptor atom, score
      P1  H  7997  8008       L1     5  0.48

> <Gold.Chemscore.Hbond.Weighted>
-3.0387

> <Gold.Chemscore.Metal.Weighted>
-0.0000

> <Gold.Chemscore.Lipo.Weighted>
-17.2650

> <Gold.Chemscore.Internal_Hbond.Weighted>
0.0000

> <Gold.Chemscore.DEClash.Weighted>
0.1262

> <Gold.Chemscore.DEInternal.Weighted>
1.2070

> <Gold.Chemscore.Rot.Weighted>
7.8465

> <Gold.Chemscore.Internal.Correction.Weighted>
   9.000000E+99

> <Gold.Protein.RotatedTorsions>
[ 6907 6896 6895 6894 ] final   71.91 input  -60.11 | X-H torsion
[ 7974 7965 7964 7962 ] final -153.80 input  175.53 | X-H torsion
[ 8008 7997 7996 7995 ] final -117.48 input   59.86 | X-H torsion
[ 10167 10162 10161 10158 ] final  150.56 input  -65.29 | X-H torsion
[ 10718 10713 10712 10709 ] final  -27.18 input   66.30 | X-H torsion
[ 10763 10752 10751 10750 ] final  -53.55 input  -60.55 | X-H torsion
[ 11005 11000 10999 10996 ] final  149.63 input  -57.11 | X-H torsion

> <Gold.Protein.ActiveResidues>
 VAL166  LYS551  ARG553  GLY616  TRP617  ASP618  TYR619  PRO620  LYS621  CYS622 
 ASP623  PHE694  ASN695  SER759  ASP760  ASP761  ALA762  ILE779  LEU786  VAL792 
 PHE793  MET794  SER795  GLU796  ALA797  LYS798  CYS799  TRP800  GLU811  SER814 

> <Gold.Protein.RotatedAtoms>
  152.4837  134.4650  159.9617 H   0  0  0  0  0  0  0  0  0  0  0  0  # atno 6907 bound_to 6896
  151.4651  133.3577  159.2823 H   0  0  0  0  0  0  0  0  0  0  0  0  # atno 6908 bound_to 6896
  150.8930  134.8361  159.7367 H   0  0  0  0  0  0  0  0  0  0  0  0  # atno 6909 bound_to 6896
  144.7722  140.4476  143.5899 H   0  0  0  0  0  0  0  0  0  0  0  0  # atno 7974 bound_to 7965
  155.0844  140.0394  157.2649 H   0  0  0  0  0  0  0  0  0  0  0  0  # atno 8008 bound_to 7997
  154.6881  140.2647  155.6815 H   0  0  0  0  0  0  0  0  0  0  0  0  # atno 8009 bound_to 7997
  156.2719  140.2765  156.1449 H   0  0  0  0  0  0  0  0  0  0  0  0  # atno 8010 bound_to 7997
  139.4849  144.5512  151.7396 H   0  0  0  0  0  0  0  0  0  0  0  0  # atno 10167 bound_to 10162
  156.4415  130.4465  149.7050 H   0  0  0  0  0  0  0  0  0  0  0  0  # atno 10718 bound_to 10713
  154.1606  135.6475  153.4985 H   0  0  0  0  0  0  0  0  0  0  0  0  # atno 10763 bound_to 10752
  153.0112  135.5360  154.6715 H   0  0  0  0  0  0  0  0  0  0  0  0  # atno 10764 bound_to 10752
  154.6027  135.2945  155.0489 H   0  0  0  0  0  0  0  0  0  0  0  0  # atno 10765 bound_to 10752
  140.1061  134.8953  157.1868 H   0  0  0  0  0  0  0  0  0  0  0  0  # atno 11005 bound_to 11000
  145.6290  139.1534  143.2979 LP  0  0  0  0  0  0  0  0  0  0  0  0  # atno 17320 bound_to 7965
  146.1877  140.6395  142.9160 LP  0  0  0  0  0  0  0  0  0  0  0  0  # atno 17321 bound_to 7965
  140.5067  144.1087  150.5984 LP  0  0  0  0  0  0  0  0  0  0  0  0  # atno 17342 bound_to 10162
  140.3999  143.2709  151.9960 LP  0  0  0  0  0  0  0  0  0  0  0  0  # atno 17343 bound_to 10162
  156.3912  130.7628  151.2629 LP  0  0  0  0  0  0  0  0  0  0  0  0  # atno 17370 bound_to 10713
  157.7506  131.0267  150.3974 LP  0  0  0  0  0  0  0  0  0  0  0  0  # atno 17371 bound_to 10713
  140.3153  134.2977  155.7257 LP  0  0  0  0  0  0  0  0  0  0  0  0  # atno 17394 bound_to 11000
  141.2118  133.7676  156.9835 LP  0  0  0  0  0  0  0  0  0  0  0  0  # atno 17395 bound_to 11000

$$$$
