AV-unprocessed.smi:3279|AV-procd|sdf|12551|dock2
  -GOLD-   2272018473D 1   1.00000     0.00000
 Structure written by MMmdl.
 36 36  0  0  0  0  0  0  0  0  1 V2000
  148.0317  138.5566  153.7682 C   0  0  0  0  0  0  0  0  0  0  0  0
  149.0228  139.6139  154.2861 C   0  0  1  0  0  0  0  0  0  0  0  0
  148.7357  140.0748  155.7311 C   0  0  0  0  0  0  0  0  0  0  0  0
  149.8648  140.7891  156.3199 N   0  0  0  0  0  0  0  0  0  0  0  0
  149.8358  141.4950  157.4613 C   0  0  0  0  0  0  0  0  0  0  0  0
  148.8323  141.6153  158.1634 O   0  0  0  0  0  0  0  0  0  0  0  0
  151.1433  142.1660  157.8734 C   0  0  0  0  0  0  0  0  0  0  0  0
  150.8777  143.0216  158.9815 O   0  0  0  0  0  0  0  0  0  0  0  0
  151.9178  143.8955  159.4270 C   0  0  0  0  0  0  0  0  0  0  0  0
  152.9838  142.9522  160.0069 C   0  0  0  0  0  0  0  0  0  0  0  0
  151.4039  144.8344  160.5363 C   0  0  0  0  0  0  0  0  0  0  0  0
  152.5205  144.6945  158.2542 C   0  0  0  0  0  0  0  0  0  0  0  0
  150.4362  139.1381  154.1449 C   0  0  0  0  0  0  0  0  0  0  0  0
  151.5278  139.7751  154.5529 N   0  0  0  0  0  0  0  0  0  0  0  0
  152.5597  138.9230  154.1947 N   0  0  0  0  0  0  0  0  0  0  0  0
  152.1082  137.8473  153.6141 N   0  0  0  0  0  0  0  0  0  0  0  0
  150.7626  137.9739  153.5790 N   0  0  0  0  0  0  0  0  0  0  0  0
  150.1478  137.2784  153.1815 H   0  0  0  0  0  0  0  0  0  0  0  0
  148.2640  138.2751  152.7406 H   0  0  0  0  0  0  0  0  0  0  0  0
  147.0064  138.9260  153.7764 H   0  0  0  0  0  0  0  0  0  0  0  0
  148.0642  137.6518  154.3762 H   0  0  0  0  0  0  0  0  0  0  0  0
  148.9182  140.4893  153.6425 H   0  0  0  0  0  0  0  0  0  0  0  0
  147.8265  140.6776  155.7655 H   0  0  0  0  0  0  0  0  0  0  0  0
  148.5441  139.2042  156.3593 H   0  0  0  0  0  0  0  0  0  0  0  0
  150.7386  140.7532  155.8150 H   0  0  0  0  0  0  0  0  0  0  0  0
  151.8713  141.3972  158.1326 H   0  0  0  0  0  0  0  0  0  0  0  0
  151.5273  142.7206  157.0177 H   0  0  0  0  0  0  0  0  0  0  0  0
  153.8416  143.5071  160.3888 H   0  0  0  0  0  0  0  0  0  0  0  0
  153.3500  142.2580  159.2496 H   0  0  0  0  0  0  0  0  0  0  0  0
  152.5820  142.3586  160.8287 H   0  0  0  0  0  0  0  0  0  0  0  0
  150.9186  144.2727  161.3350 H   0  0  0  0  0  0  0  0  0  0  0  0
  150.6879  145.5637  160.1583 H   0  0  0  0  0  0  0  0  0  0  0  0
  152.2244  145.3977  160.9818 H   0  0  0  0  0  0  0  0  0  0  0  0
  153.4043  145.2483  158.5729 H   0  0  0  0  0  0  0  0  0  0  0  0
  151.8184  145.4244  157.8513 H   0  0  0  0  0  0  0  0  0  0  0  0
  152.8216  144.0351  157.4397 H   0  0  0  0  0  0  0  0  0  0  0  0
  1  2  1  0  0  0  0
  1 19  1  0  0  0  0
  1 20  1  0  0  0  0
  1 21  1  0  0  0  0
  2  3  1  0  0  0  0
  2 13  1  0  0  0  0
  2 22  1  0  0  0  0
  3  4  1  0  0  0  0
  3 23  1  0  0  0  0
  3 24  1  0  0  0  0
  4  5  1  0  0  0  0
  4 25  1  0  0  0  0
  5  6  2  0  0  0  0
  5  7  1  0  0  0  0
  7  8  1  0  0  0  0
  7 26  1  0  0  0  0
  7 27  1  0  0  0  0
  8  9  1  0  0  0  0
  9 10  1  0  0  0  0
  9 11  1  0  0  0  0
  9 12  1  0  0  0  0
 10 28  1  0  0  0  0
 10 29  1  0  0  0  0
 10 30  1  0  0  0  0
 11 31  1  0  0  0  0
 11 32  1  0  0  0  0
 11 33  1  0  0  0  0
 12 34  1  0  0  0  0
 12 35  1  0  0  0  0
 12 36  1  0  0  0  0
 13 17  1  0  0  0  0
 13 14  2  0  0  0  0
 14 15  1  0  0  0  0
 15 16  2  0  0  0  0
 16 17  1  0  0  0  0
 17 18  1  0  0  0  0
M  END
> <s_m_source_file>
AV-unprocessed.smi

> <i_m_source_file_index>
3279

> <i_lp_mmshare_version>
43012

> <i_f3d_flags>
0

> <s_epik_input>
W25IXTFubm5jMVtDQEhdKFtDSDNdKVtDSDJdW05IXUMoPU8pW0NIMl1PQyhbQ0gzXSkoW0NIM10pW0NIM10=

> <s_epik_cmdline>
J2VwaWtfcHl0aG9uJywgJy1waCcsICc3LjAnLCAnLXRuJywgJzgnLCAnLW1hJywgJzIwMCcsICctbWV0YWxfYmluZGluZycsICctaW1hZScsICc8aW5maWxlLm1hZT4nLCAnLW9tYWUnLCAnPG91dGZpbGUubWFlPic=

> <r_lp_tautomer_probability>
0.3

> <r_epik_Ionization_Penalty>
1.45055

> <r_epik_Ionization_Penalty_Charging>
0

> <r_epik_Ionization_Penalty_Neutral>
1.45055

> <r_epik_State_Penalty>
2.31845

> <r_epik_Charging_Adjusted_Penalty>
2.31845

> <i_epik_Tot_Q>
0

> <i_epik_Tot_abs_Q>
0

> <r_epik_Metal_State_Penalty>
2.36898

> <b_epik_Metal_Only>
0

> <s_lp_Force_Field>
OPLS_2005

> <r_lp_Energy>
7.01933

> <b_lp_Chiralities_Consistent>
1

> <s_lp_Variant>
AV-unprocessed.smi:3279-4

> <Gold.Version>
5.8.1

> <Gold.Id.Protein>
6NUR|6NUR_protein|mol2

> <Gold.PLP.Fitness>
41.9624

> <Gold.PLP.PLP>
-34.5746

> <Gold.PLP.part.hbond>
-4.0000

> <Gold.PLP.part.metal>
0.0000

> <Gold.PLP.part.buried>
-5.4176

> <Gold.PLP.part.nonpolar>
-26.6819

> <Gold.PLP.part.repulsive>
1.0520

> <Gold.PLP.ligand.clash>
0.0000

> <Gold.PLP.ligand.torsion>
0.4734

> <Gold.PLP.Chemscore.Hbond>
2.7277

> <Gold.PLP.Chemscore.CHOScore>
0.0000

> <Gold.PLP.Chemscore.Metal>
0.0000

> <Gold.Chemscore.Hbonds>
donor molecule, donor type, donor heavy atom, donor atom, acceptor molecule, acceptor atom, score
      L1  H    17    18       P1  7948  0.80
      P1  H  7989  7998       L1    14  0.96
      P1  H 10752 10765       L1    16  0.14

> <Gold.PLP.Chemscore.Internal.Correction>
0.1516

> <Gold.Rescore>
     Score         DG    S(hbond)    S(metal)    S(lipo)     H(rot)  DE(clash)    DE(int)     intcor
     10.98     -13.07       1.74        0.00      74.50       2.71       0.17       1.91       ----

> <Gold.Chemscore.Fitness>
10.9781

> <Gold.Chemscore.DG>
-13.0671

> <Gold.Chemscore.ZeroCoef>
-5.4800

> <Gold.Chemscore.Hbond>
1.7383

> <Gold.Chemscore.Metal>
0.0000

> <Gold.Chemscore.Lipo>
74.5042

> <Gold.Chemscore.Internal_Hbond>
0.0000

> <Gold.Chemscore.DEClash>
0.1747

> <Gold.Chemscore.DEInternal>
1.9144

> <Gold.Chemscore.Rot>
2.7094

> <Gold.Chemscore.Internal.Correction>
   9.000000E+99

> <Gold.Chemscore.Hbonds>
donor molecule, donor type, donor heavy atom, donor atom, acceptor molecule, acceptor atom, score
      L1  H    17    18       P1  7948  0.11
      P1  H  7989  7998       L1    14  0.08
      P1  H 10752 10765       L1    16  0.14

> <Gold.Chemscore.Hbond.Weighted>
-5.8061

> <Gold.Chemscore.Metal.Weighted>
-0.0000

> <Gold.Chemscore.Lipo.Weighted>
-8.7170

> <Gold.Chemscore.Internal_Hbond.Weighted>
0.0000

> <Gold.Chemscore.DEClash.Weighted>
0.1747

> <Gold.Chemscore.DEInternal.Weighted>
1.9144

> <Gold.Chemscore.Rot.Weighted>
6.9360

> <Gold.Chemscore.Internal.Correction.Weighted>
   9.000000E+99

> <Gold.Protein.RotatedTorsions>
[ 6907 6896 6895 6894 ] final -122.73 input  -60.11 | X-H torsion
[ 7974 7965 7964 7962 ] final  -49.32 input  175.53 | X-H torsion
[ 8008 7997 7996 7995 ] final   65.33 input   59.86 | X-H torsion
[ 10167 10162 10161 10158 ] final  -73.60 input  -65.29 | X-H torsion
[ 10718 10713 10712 10709 ] final  107.03 input   66.30 | X-H torsion
[ 10763 10752 10751 10750 ] final  151.02 input  -60.55 | X-H torsion
[ 11005 11000 10999 10996 ] final  -34.92 input  -57.11 | X-H torsion

> <Gold.Protein.ActiveResidues>
 VAL166  LYS551  ARG553  GLY616  TRP617  ASP618  TYR619  PRO620  LYS621  CYS622 
 ASP623  PHE694  ASN695  SER759  ASP760  ASP761  ALA762  ILE779  LEU786  VAL792 
 PHE793  MET794  SER795  GLU796  ALA797  LYS798  CYS799  TRP800  GLU811  SER814 

> <Gold.Protein.RotatedAtoms>
  150.8603  133.7653  159.2994 H   0  0  0  0  0  0  0  0  0  0  0  0  # atno 6907 bound_to 6896
  151.5297  135.1066  159.9909 H   0  0  0  0  0  0  0  0  0  0  0  0  # atno 6908 bound_to 6896
  152.4621  133.7801  159.6902 H   0  0  0  0  0  0  0  0  0  0  0  0  # atno 6909 bound_to 6896
  145.9418  140.7655  142.9548 H   0  0  0  0  0  0  0  0  0  0  0  0  # atno 7974 bound_to 7965
  155.6601  140.3497  155.4779 H   0  0  0  0  0  0  0  0  0  0  0  0  # atno 8008 bound_to 7997
  155.9776  140.1168  157.0779 H   0  0  0  0  0  0  0  0  0  0  0  0  # atno 8009 bound_to 7997
  154.4183  140.1144  156.5377 H   0  0  0  0  0  0  0  0  0  0  0  0  # atno 8010 bound_to 7997
  140.5097  143.2347  151.7615 H   0  0  0  0  0  0  0  0  0  0  0  0  # atno 10167 bound_to 10162
  157.6645  131.0864  150.6096 H   0  0  0  0  0  0  0  0  0  0  0  0  # atno 10718 bound_to 10713
  154.0970  135.2848  155.3260 H   0  0  0  0  0  0  0  0  0  0  0  0  # atno 10763 bound_to 10752
  154.6581  135.5344  153.7988 H   0  0  0  0  0  0  0  0  0  0  0  0  # atno 10764 bound_to 10752
  153.0393  135.6527  154.1135 H   0  0  0  0  0  0  0  0  0  0  0  0  # atno 10765 bound_to 10752
  140.9754  133.7086  156.1594 H   0  0  0  0  0  0  0  0  0  0  0  0  # atno 11005 bound_to 11000
  144.6780  140.2292  143.7357 LP  0  0  0  0  0  0  0  0  0  0  0  0  # atno 17320 bound_to 7965
  145.8290  139.2077  143.1894 LP  0  0  0  0  0  0  0  0  0  0  0  0  # atno 17321 bound_to 7965
  139.4893  144.4408  151.9766 LP  0  0  0  0  0  0  0  0  0  0  0  0  # atno 17342 bound_to 10162
  140.3500  144.3100  150.5951 LP  0  0  0  0  0  0  0  0  0  0  0  0  # atno 17343 bound_to 10162
  156.6397  130.4455  149.5757 LP  0  0  0  0  0  0  0  0  0  0  0  0  # atno 17370 bound_to 10713
  156.2219  130.6742  151.1376 LP  0  0  0  0  0  0  0  0  0  0  0  0  # atno 17371 bound_to 10713
  140.7266  134.4300  157.5570 LP  0  0  0  0  0  0  0  0  0  0  0  0  # atno 17394 bound_to 11000
  139.8929  134.8744  156.2251 LP  0  0  0  0  0  0  0  0  0  0  0  0  # atno 17395 bound_to 11000

$$$$
