AV-unprocessed.smi:1451|AV-procd|sdf|5900|dock2
  -GOLD-   22720 5583D 1   1.00000     0.00000
 Structure written by MMmdl.
 47 48  0  0  0  0  0  0  0  0  2 V2000
  146.7917  138.4340  151.8412 C   0  0  0  0  0  0  0  0  0  0  0  0
  146.8208  139.1095  153.2235 C   0  0  1  0  0  0  0  0  0  0  0  0
  146.0501  138.3119  154.2918 C   0  0  0  0  0  0  0  0  0  0  0  0
  146.8278  137.0590  154.7178 C   0  0  0  0  0  0  0  0  0  0  0  0
  148.2545  137.4196  155.1602 C   0  0  0  0  0  0  0  0  0  0  0  0
  148.9735  138.1585  154.0916 N   0  3  2  0  0  0  0  0  0  0  0  0
  150.4052  138.3848  154.4198 C   0  0  0  0  0  0  0  0  0  0  0  0
  150.6463  139.6853  155.2108 C   0  0  0  0  0  0  0  0  0  0  0  0
  151.6537  139.4935  156.2503 N   0  0  0  0  0  0  0  0  0  0  0  0
  151.4226  139.4496  157.5739 C   0  0  0  0  0  0  0  0  0  0  0  0
  150.2921  139.5030  158.0551 O   0  0  0  0  0  0  0  0  0  0  0  0
  152.6322  139.3768  158.5210 C   0  0  0  0  0  0  0  0  0  0  0  0
  152.7981  140.5512  159.3959 N   0  0  0  0  0  0  0  0  0  0  0  0
  152.2804  141.7719  158.9197 C   0  0  0  0  0  0  0  0  0  0  0  0
  152.3671  142.9242  159.6100 C   0  0  0  0  0  0  0  0  0  0  0  0
  151.8438  144.2302  159.0338 C   0  0  0  0  0  0  0  0  0  0  0  0
  151.9920  145.2376  159.8942 F   0  0  0  0  0  0  0  0  0  0  0  0
  152.4935  144.5397  157.9110 F   0  0  0  0  0  0  0  0  0  0  0  0
  150.5490  144.1135  158.7429 F   0  0  0  0  0  0  0  0  0  0  0  0
  153.0438  142.8599  160.8910 C   0  0  0  0  0  0  0  0  0  0  0  0
  153.5581  141.7036  161.3539 C   0  0  0  0  0  0  0  0  0  0  0  0
  153.4583  140.4586  160.5889 C   0  0  0  0  0  0  0  0  0  0  0  0
  153.9465  139.4022  160.9891 O   0  0  0  0  0  0  0  0  0  0  0  0
  148.2580  139.4031  153.7018 C   0  0  0  0  0  0  0  0  0  0  0  0
  147.3174  137.4791  151.8415 H   0  0  0  0  0  0  0  0  0  0  0  0
  147.2610  139.0669  151.0879 H   0  0  0  0  0  0  0  0  0  0  0  0
  145.7675  138.2482  151.5171 H   0  0  0  0  0  0  0  0  0  0  0  0
  146.3132  140.0680  153.1062 H   0  0  0  0  0  0  0  0  0  0  0  0
  145.8888  138.9444  155.1657 H   0  0  0  0  0  0  0  0  0  0  0  0
  145.0596  138.0377  153.9269 H   0  0  0  0  0  0  0  0  0  0  0  0
  146.3036  136.5556  155.5305 H   0  0  0  0  0  0  0  0  0  0  0  0
  146.8664  136.3474  153.8927 H   0  0  0  0  0  0  0  0  0  0  0  0
  148.2282  138.0237  156.0686 H   0  0  0  0  0  0  0  0  0  0  0  0
  148.7924  136.5023  155.4028 H   0  0  0  0  0  0  0  0  0  0  0  0
  150.8101  137.5253  154.9555 H   0  0  0  0  0  0  0  0  0  0  0  0
  150.9715  138.4582  153.4903 H   0  0  0  0  0  0  0  0  0  0  0  0
  150.9206  140.4968  154.5355 H   0  0  0  0  0  0  0  0  0  0  0  0
  149.7180  139.9986  155.6891 H   0  0  0  0  0  0  0  0  0  0  0  0
  152.6126  139.4226  155.9410 H   0  0  0  0  0  0  0  0  0  0  0  0
  152.5277  138.4811  159.1356 H   0  0  0  0  0  0  0  0  0  0  0  0
  153.5276  139.2012  157.9223 H   0  0  0  0  0  0  0  0  0  0  0  0
  151.8176  141.7137  157.9447 H   0  0  0  0  0  0  0  0  0  0  0  0
  153.1387  143.7512  161.4940 H   0  0  0  0  0  0  0  0  0  0  0  0
  154.0543  141.6923  162.3135 H   0  0  0  0  0  0  0  0  0  0  0  0
  148.8022  139.9248  152.9147 H   0  0  0  0  0  0  0  0  0  0  0  0
  148.2308  140.0790  154.5580 H   0  0  0  0  0  0  0  0  0  0  0  0
  148.9650  137.5552  153.2816 H   0  0  0  0  0  0  0  0  0  0  0  0
  1  2  1  0  0  0  0
  1 25  1  0  0  0  0
  1 26  1  0  0  0  0
  1 27  1  0  0  0  0
  2 24  1  0  0  0  0
  2  3  1  0  0  0  0
  2 28  1  0  0  0  0
  3  4  1  0  0  0  0
  3 29  1  0  0  0  0
  3 30  1  0  0  0  0
  4  5  1  0  0  0  0
  4 31  1  0  0  0  0
  4 32  1  0  0  0  0
  5  6  1  0  0  0  0
  5 33  1  0  0  0  0
  5 34  1  0  0  0  0
  6  7  1  0  0  0  0
  6 24  1  0  0  0  0
  6 47  1  0  0  0  0
  7  8  1  0  0  0  0
  7 35  1  0  0  0  0
  7 36  1  0  0  0  0
  8  9  1  0  0  0  0
  8 37  1  0  0  0  0
  8 38  1  0  0  0  0
  9 10  1  0  0  0  0
  9 39  1  0  0  0  0
 10 11  2  0  0  0  0
 10 12  1  0  0  0  0
 12 13  1  0  0  0  0
 12 40  1  0  0  0  0
 12 41  1  0  0  0  0
 13 22  1  0  0  0  0
 13 14  1  0  0  0  0
 14 15  2  0  0  0  0
 14 42  1  0  0  0  0
 15 16  1  0  0  0  0
 15 20  1  0  0  0  0
 16 17  1  0  0  0  0
 16 18  1  0  0  0  0
 16 19  1  0  0  0  0
 20 21  2  0  0  0  0
 20 43  1  0  0  0  0
 21 22  1  0  0  0  0
 21 44  1  0  0  0  0
 22 23  2  0  0  0  0
 24 45  1  0  0  0  0
 24 46  1  0  0  0  0
M  CHG  1   6   1
M  END
> <s_m_source_file>
AV-unprocessed.smi

> <i_m_source_file_index>
1451

> <i_lp_mmshare_version>
43012

> <i_f3d_flags>
0

> <s_epik_input>
W0NIM11bQ0BASF0xW0NIMl1bQ0gyXVtDSDJdTihbQ0gyXTEpW0NIMl1bQ0gyXVtOSF1DKD1PKVtDSDJdbjJbY0hdYyhDKEYpKEYpRilbY0hdW2NIXWMyPU8=

> <s_epik_cmdline>
J2VwaWtfcHl0aG9uJywgJy1waCcsICc3LjAnLCAnLXRuJywgJzgnLCAnLW1hJywgJzIwMCcsICctbWV0YWxfYmluZGluZycsICctaW1hZScsICc8aW5maWxlLm1hZT4nLCAnLW9tYWUnLCAnPG91dGZpbGUubWFlPic=

> <r_lp_tautomer_probability>
1

> <r_epik_Ionization_Penalty>
0.00192452

> <r_epik_Ionization_Penalty_Charging>
0.00192444

> <r_epik_Ionization_Penalty_Neutral>
8.16761e-08

> <r_epik_State_Penalty>
0.00131115

> <r_epik_Charging_Adjusted_Penalty>
0.00323559

> <i_epik_Tot_Q>
1

> <i_epik_Tot_abs_Q>
1

> <r_epik_Metal_State_Penalty>
-0

> <b_epik_Metal_Only>
0

> <s_lp_Force_Field>
OPLS_2005

> <r_lp_Energy>
37.139

> <b_lp_Chiralities_Consistent>
1

> <s_lp_Variant>
AV-unprocessed.smi:1451-2

> <Gold.Version>
5.8.1

> <Gold.Id.Protein>
6NUR|6NUR_protein|mol2

> <Gold.PLP.Fitness>
57.1857

> <Gold.PLP.PLP>
-53.1922

> <Gold.PLP.part.hbond>
-1.1419

> <Gold.PLP.part.metal>
0.0000

> <Gold.PLP.part.buried>
-2.5092

> <Gold.PLP.part.nonpolar>
-49.0649

> <Gold.PLP.part.repulsive>
0.1661

> <Gold.PLP.ligand.clash>
0.0000

> <Gold.PLP.ligand.torsion>
1.0245

> <Gold.PLP.Chemscore.Hbond>
2.0000

> <Gold.PLP.Chemscore.CHOScore>
0.0000

> <Gold.PLP.Chemscore.Metal>
0.0000

> <Gold.Chemscore.Hbonds>
donor molecule, donor type, donor heavy atom, donor atom, acceptor molecule, acceptor atom, score
      L1  H     6    47       P1  7948  2.00

> <Gold.PLP.Chemscore.Internal.Correction>
0.0424

> <Gold.Rescore>
     Score         DG    S(hbond)    S(metal)    S(lipo)     H(rot)  DE(clash)    DE(int)     intcor
     13.93     -15.00       1.00        0.00      98.40       2.08       0.16       0.91       ----

> <Gold.Chemscore.Fitness>
13.9253

> <Gold.Chemscore.DG>
-15.0026

> <Gold.Chemscore.ZeroCoef>
-5.4800

> <Gold.Chemscore.Hbond>
0.9953

> <Gold.Chemscore.Metal>
0.0000

> <Gold.Chemscore.Lipo>
98.4034

> <Gold.Chemscore.Internal_Hbond>
0.0000

> <Gold.Chemscore.DEClash>
0.1630

> <Gold.Chemscore.DEInternal>
0.9143

> <Gold.Chemscore.Rot>
2.0762

> <Gold.Chemscore.Internal.Correction>
   9.000000E+99

> <Gold.Chemscore.Hbonds>
donor molecule, donor type, donor heavy atom, donor atom, acceptor molecule, acceptor atom, score
      L1  H     6    47       P1  7948  1.00

> <Gold.Chemscore.Hbond.Weighted>
-3.3244

> <Gold.Chemscore.Metal.Weighted>
-0.0000

> <Gold.Chemscore.Lipo.Weighted>
-11.5132

> <Gold.Chemscore.Internal_Hbond.Weighted>
0.0000

> <Gold.Chemscore.DEClash.Weighted>
0.1630

> <Gold.Chemscore.DEInternal.Weighted>
0.9143

> <Gold.Chemscore.Rot.Weighted>
5.3150

> <Gold.Chemscore.Internal.Correction.Weighted>
   9.000000E+99

> <Gold.Protein.RotatedTorsions>
[ 6907 6896 6895 6894 ] final  125.47 input  -60.11 | X-H torsion
[ 7974 7965 7964 7962 ] final  -85.04 input  175.53 | X-H torsion
[ 8008 7997 7996 7995 ] final   50.65 input   59.86 | X-H torsion
[ 10167 10162 10161 10158 ] final  156.86 input  -65.29 | X-H torsion
[ 10718 10713 10712 10709 ] final -103.92 input   66.30 | X-H torsion
[ 10763 10752 10751 10750 ] final  -98.30 input  -60.55 | X-H torsion
[ 11005 11000 10999 10996 ] final -172.12 input  -57.11 | X-H torsion

> <Gold.Protein.ActiveResidues>
 VAL166  LYS551  ARG553  GLY616  TRP617  ASP618  TYR619  PRO620  LYS621  CYS622 
 ASP623  PHE694  ASN695  SER759  ASP760  ASP761  ALA762  ILE779  LEU786  VAL792 
 PHE793  MET794  SER795  GLU796  ALA797  LYS798  CYS799  TRP800  GLU811  SER814 

> <Gold.Protein.RotatedAtoms>
  152.3989  133.6788  159.6299 H   0  0  0  0  0  0  0  0  0  0  0  0  # atno 6907 bound_to 6896
  150.7883  133.8826  159.3299 H   0  0  0  0  0  0  0  0  0  0  0  0  # atno 6908 bound_to 6896
  151.6596  135.0992  160.0228 H   0  0  0  0  0  0  0  0  0  0  0  0  # atno 6909 bound_to 6896
  145.4985  140.9548  143.1773 H   0  0  0  0  0  0  0  0  0  0  0  0  # atno 7974 bound_to 7965
  155.4223  140.3447  155.4272 H   0  0  0  0  0  0  0  0  0  0  0  0  # atno 8008 bound_to 7997
  156.1386  140.1535  156.8987 H   0  0  0  0  0  0  0  0  0  0  0  0  # atno 8009 bound_to 7997
  154.4952  140.0830  156.7661 H   0  0  0  0  0  0  0  0  0  0  0  0  # atno 8010 bound_to 7997
  139.4822  144.4970  151.8224 H   0  0  0  0  0  0  0  0  0  0  0  0  # atno 10167 bound_to 10162
  156.0284  130.5490  150.7322 H   0  0  0  0  0  0  0  0  0  0  0  0  # atno 10718 bound_to 10713
  154.7403  135.5014  153.9111 H   0  0  0  0  0  0  0  0  0  0  0  0  # atno 10763 bound_to 10752
  153.1036  135.6691  153.9635 H   0  0  0  0  0  0  0  0  0  0  0  0  # atno 10764 bound_to 10752
  153.9414  135.3067  155.3421 H   0  0  0  0  0  0  0  0  0  0  0  0  # atno 10765 bound_to 10752
  140.5005  134.5898  157.4986 H   0  0  0  0  0  0  0  0  0  0  0  0  # atno 11005 bound_to 11000
  144.7793  139.6560  143.7161 LP  0  0  0  0  0  0  0  0  0  0  0  0  # atno 17320 bound_to 7965
  146.2240  139.5689  142.9599 LP  0  0  0  0  0  0  0  0  0  0  0  0  # atno 17321 bound_to 7965
  140.4460  144.1921  150.5894 LP  0  0  0  0  0  0  0  0  0  0  0  0  # atno 17342 bound_to 10162
  140.4634  143.2440  151.9188 LP  0  0  0  0  0  0  0  0  0  0  0  0  # atno 17343 bound_to 10162
  157.4912  131.0911  151.0425 LP  0  0  0  0  0  0  0  0  0  0  0  0  # atno 17370 bound_to 10713
  157.0831  130.5911  149.5424 LP  0  0  0  0  0  0  0  0  0  0  0  0  # atno 17371 bound_to 10713
  139.9716  134.7283  156.0030 LP  0  0  0  0  0  0  0  0  0  0  0  0  # atno 17394 bound_to 11000
  141.1438  133.6560  156.3806 LP  0  0  0  0  0  0  0  0  0  0  0  0  # atno 17395 bound_to 11000

$$$$
