AV-unprocessed.smi:2317|AV-procd|sdf|9273|dock10
  -GOLD-   2272012493D 1   1.00000     0.00000
 Structure written by MMmdl.
 37 38  0  0  0  0  0  0  0  0  1 V2000
  144.6876  137.0324  152.3839 O   0  0  0  0  0  0  0  0  0  0  0  0
  145.8971  136.8072  152.3528 C   0  0  0  0  0  0  0  0  0  0  0  0
  146.8203  137.6895  152.7583 N   0  0  0  0  0  0  0  0  0  0  0  0
  146.5213  139.0146  153.2891 C   0  0  0  0  0  0  0  0  0  0  0  0
  147.5320  139.4389  154.3755 C   0  0  2  0  0  0  0  0  0  0  0  0
  147.8149  140.9549  154.3150 C   0  0  0  0  0  0  0  0  0  0  0  0
  148.7732  141.4007  155.4308 C   0  0  0  0  0  0  0  0  0  0  0  0
  150.0886  140.6102  155.3842 C   0  0  0  0  0  0  0  0  0  0  0  0
  149.8294  139.0952  155.4479 C   0  0  0  0  0  0  0  0  0  0  0  0
  148.8525  138.6242  154.3527 C   0  0  2  0  0  0  0  0  0  0  0  0
  149.4874  138.7184  153.0912 O   0  0  0  0  0  0  0  0  0  0  0  0
  146.4710  135.6773  151.9046 N   0  0  0  0  0  0  0  0  0  0  0  0
  145.8567  134.5091  151.3743 C   0  0  0  0  0  0  0  0  0  0  0  0
  144.5962  134.4918  150.7285 C   0  0  0  0  0  0  0  0  0  0  0  0
  144.0942  133.2606  150.2610 C   0  0  0  0  0  0  0  0  0  0  0  0
  144.7483  132.0881  150.4011 N   0  0  0  0  0  0  0  0  0  0  0  0
  145.9432  132.1062  151.0286 C   0  0  0  0  0  0  0  0  0  0  0  0
  146.5343  133.2815  151.5338 C   0  0  0  0  0  0  0  0  0  0  0  0
  147.7357  133.2280  152.1585 F   0  0  0  0  0  0  0  0  0  0  0  0
  147.7937  137.4286  152.6973 H   0  0  0  0  0  0  0  0  0  0  0  0
  146.5107  139.7484  152.4813 H   0  0  0  0  0  0  0  0  0  0  0  0
  145.5136  138.9958  153.7063 H   0  0  0  0  0  0  0  0  0  0  0  0
  147.0572  139.2465  155.3393 H   0  0  0  0  0  0  0  0  0  0  0  0
  148.2391  141.2153  153.3444 H   0  0  0  0  0  0  0  0  0  0  0  0
  146.8807  141.5111  154.3988 H   0  0  0  0  0  0  0  0  0  0  0  0
  148.9779  142.4679  155.3405 H   0  0  0  0  0  0  0  0  0  0  0  0
  148.2961  141.2586  156.4012 H   0  0  0  0  0  0  0  0  0  0  0  0
  150.6295  140.8545  154.4690 H   0  0  0  0  0  0  0  0  0  0  0  0
  150.7324  140.9114  156.2109 H   0  0  0  0  0  0  0  0  0  0  0  0
  150.7716  138.5509  155.3740 H   0  0  0  0  0  0  0  0  0  0  0  0
  149.4136  138.8489  156.4257 H   0  0  0  0  0  0  0  0  0  0  0  0
  148.6352  137.5690  154.5213 H   0  0  0  0  0  0  0  0  0  0  0  0
  149.1561  138.0295  152.5356 H   0  0  0  0  0  0  0  0  0  0  0  0
  147.4804  135.6726  151.8863 H   0  0  0  0  0  0  0  0  0  0  0  0
  144.0032  135.3826  150.5924 H   0  0  0  0  0  0  0  0  0  0  0  0
  143.1359  133.2162  149.7649 H   0  0  0  0  0  0  0  0  0  0  0  0
  146.4434  131.1549  151.1330 H   0  0  0  0  0  0  0  0  0  0  0  0
  1  2  2  0  0  0  0
  2  3  1  0  0  0  0
  2 12  1  0  0  0  0
  3  4  1  0  0  0  0
  3 20  1  0  0  0  0
  4  5  1  0  0  0  0
  4 21  1  0  0  0  0
  4 22  1  0  0  0  0
  5 10  1  0  0  0  0
  5  6  1  0  0  0  0
  5 23  1  0  0  0  0
  6  7  1  0  0  0  0
  6 24  1  0  0  0  0
  6 25  1  0  0  0  0
  7  8  1  0  0  0  0
  7 26  1  0  0  0  0
  7 27  1  0  0  0  0
  8  9  1  0  0  0  0
  8 28  1  0  0  0  0
  8 29  1  0  0  0  0
  9 10  1  0  0  0  0
  9 30  1  0  0  0  0
  9 31  1  0  0  0  0
 10 11  1  0  0  0  0
 10 32  1  0  0  0  0
 11 33  1  0  0  0  0
 12 13  1  0  0  0  0
 12 34  1  0  0  0  0
 13 18  1  0  0  0  0
 13 14  2  0  0  0  0
 14 15  1  0  0  0  0
 14 35  1  0  0  0  0
 15 16  2  0  0  0  0
 15 36  1  0  0  0  0
 16 17  1  0  0  0  0
 17 18  2  0  0  0  0
 17 37  1  0  0  0  0
 18 19  1  0  0  0  0
M  END
> <s_m_source_file>
AV-unprocessed.smi

> <i_m_source_file_index>
2317

> <i_lp_mmshare_version>
43012

> <i_f3d_flags>
0

> <s_epik_input>
RmMxW2NIXW5bY0hdW2NIXWMxW05IXUMoPU8pW05IXVtDSDJdW0NAQEhdMltDSDJdW0NIMl1bQ0gyXVtDSDJdW0NASF0yW09IXQ==

> <s_epik_cmdline>
J2VwaWtfcHl0aG9uJywgJy1waCcsICc3LjAnLCAnLXRuJywgJzgnLCAnLW1hJywgJzIwMCcsICctbWV0YWxfYmluZGluZycsICctaW1hZScsICc8aW5maWxlLm1hZT4nLCAnLW9tYWUnLCAnPG91dGZpbGUubWFlPic=

> <r_epik_Ionization_Penalty>
0.00317647

> <r_epik_Ionization_Penalty_Charging>
0

> <r_epik_Ionization_Penalty_Neutral>
0.00317647

> <r_epik_State_Penalty>
0.0022093

> <r_epik_Charging_Adjusted_Penalty>
0.0022093

> <i_epik_Tot_Q>
0

> <i_epik_Tot_abs_Q>
0

> <r_epik_Metal_State_Penalty>
-0

> <b_epik_Metal_Only>
0

> <s_lp_Force_Field>
OPLS_2005

> <r_lp_Energy>
20.2731

> <b_lp_Chiralities_Consistent>
1

> <s_lp_Variant>
AV-unprocessed.smi:2317-3

> <Gold.Version>
5.8.1

> <Gold.Id.Protein>
6NUR|6NUR_protein|mol2

> <Gold.PLP.Fitness>
42.5371

> <Gold.PLP.PLP>
-31.5200

> <Gold.PLP.part.hbond>
-3.3502

> <Gold.PLP.part.metal>
0.0000

> <Gold.PLP.part.buried>
-4.6296

> <Gold.PLP.part.nonpolar>
-24.3988

> <Gold.PLP.part.repulsive>
0.8947

> <Gold.PLP.ligand.clash>
0.1129

> <Gold.PLP.ligand.torsion>
0.8730

> <Gold.PLP.Chemscore.Hbond>
2.8480

> <Gold.PLP.Chemscore.CHOScore>
1.4403

> <Gold.PLP.Chemscore.Metal>
0.0000

> <Gold.Chemscore.Hbonds>
donor molecule, donor type, donor heavy atom, donor atom, acceptor molecule, acceptor atom, score
      L1  H     3    20       P1  7948  0.85
      L1  H    11    33       P1  7948  1.00
      L1  H    12    34       P1  7948  1.00
      L1  C    15    36       P1 10186  1.00
      L1  C    17    37       P1 10747  0.49

> <Gold.PLP.Chemscore.Internal.Correction>
0.0109

> <Gold.Rescore>
     Score         DG    S(hbond)    S(metal)    S(lipo)     H(rot)  DE(clash)    DE(int)     intcor
     15.77     -18.73       2.85        0.00      70.96       1.79       0.01       2.96       ----

> <Gold.Chemscore.Fitness>
15.7661

> <Gold.Chemscore.DG>
-18.7321

> <Gold.Chemscore.ZeroCoef>
-5.4800

> <Gold.Chemscore.Hbond>
2.8505

> <Gold.Chemscore.Metal>
0.0000

> <Gold.Chemscore.Lipo>
70.9561

> <Gold.Chemscore.Internal_Hbond>
0.0000

> <Gold.Chemscore.DEClash>
0.0106

> <Gold.Chemscore.DEInternal>
2.9553

> <Gold.Chemscore.Rot>
1.7853

> <Gold.Chemscore.Internal.Correction>
   9.000000E+99

> <Gold.Chemscore.Hbonds>
donor molecule, donor type, donor heavy atom, donor atom, acceptor molecule, acceptor atom, score
      L1  H     3    20       P1  7948  0.83
      L1  H    11    33       P1  7948  0.95
      L1  H    12    34       P1  7948  0.94

> <Gold.Chemscore.Hbond.Weighted>
-9.5206

> <Gold.Chemscore.Metal.Weighted>
-0.0000

> <Gold.Chemscore.Lipo.Weighted>
-8.3019

> <Gold.Chemscore.Internal_Hbond.Weighted>
0.0000

> <Gold.Chemscore.DEClash.Weighted>
0.0106

> <Gold.Chemscore.DEInternal.Weighted>
2.9553

> <Gold.Chemscore.Rot.Weighted>
4.5704

> <Gold.Chemscore.Internal.Correction.Weighted>
   9.000000E+99

> <Gold.Protein.RotatedTorsions>
[ 6907 6896 6895 6894 ] final  153.80 input  -60.11 | X-H torsion
[ 7974 7965 7964 7962 ] final   74.32 input  175.53 | X-H torsion
[ 8008 7997 7996 7995 ] final  -74.14 input   59.86 | X-H torsion
[ 10167 10162 10161 10158 ] final -168.75 input  -65.29 | X-H torsion
[ 10718 10713 10712 10709 ] final  -10.80 input   66.30 | X-H torsion
[ 10763 10752 10751 10750 ] final  -45.16 input  -60.55 | X-H torsion
[ 11005 11000 10999 10996 ] final   77.53 input  -57.11 | X-H torsion

> <Gold.Protein.ActiveResidues>
 VAL166  LYS551  ARG553  GLY616  TRP617  ASP618  TYR619  PRO620  LYS621  CYS622 
 ASP623  PHE694  ASN695  SER759  ASP760  ASP761  ALA762  ILE779  LEU786  VAL792 
 PHE793  MET794  SER795  GLU796  ALA797  LYS798  CYS799  TRP800  GLU811  SER814 

> <Gold.Protein.RotatedAtoms>
  152.0676  133.4091  159.4444 H   0  0  0  0  0  0  0  0  0  0  0  0  # atno 6907 bound_to 6896
  150.6864  134.3129  159.4763 H   0  0  0  0  0  0  0  0  0  0  0  0  # atno 6908 bound_to 6896
  152.0957  134.9376  160.0621 H   0  0  0  0  0  0  0  0  0  0  0  0  # atno 6909 bound_to 6896
  145.7297  139.2679  143.1548 H   0  0  0  0  0  0  0  0  0  0  0  0  # atno 7974 bound_to 7965
  154.5305  140.0767  156.8337 H   0  0  0  0  0  0  0  0  0  0  0  0  # atno 8008 bound_to 7997
  155.3384  140.3406  155.4221 H   0  0  0  0  0  0  0  0  0  0  0  0  # atno 8009 bound_to 7997
  156.1776  140.1641  156.8320 H   0  0  0  0  0  0  0  0  0  0  0  0  # atno 8010 bound_to 7997
  139.5966  144.1100  152.1695 H   0  0  0  0  0  0  0  0  0  0  0  0  # atno 10167 bound_to 10162
  156.6683  130.5002  149.6008 H   0  0  0  0  0  0  0  0  0  0  0  0  # atno 10718 bound_to 10713
  154.0239  135.6665  153.4775 H   0  0  0  0  0  0  0  0  0  0  0  0  # atno 10763 bound_to 10752
  153.0568  135.5051  154.7997 H   0  0  0  0  0  0  0  0  0  0  0  0  # atno 10764 bound_to 10752
  154.6920  135.3063  154.9430 H   0  0  0  0  0  0  0  0  0  0  0  0  # atno 10765 bound_to 10752
  139.9250  134.7691  156.1534 H   0  0  0  0  0  0  0  0  0  0  0  0  # atno 11005 bound_to 11000
  146.0549  140.8032  142.9763 LP  0  0  0  0  0  0  0  0  0  0  0  0  # atno 17320 bound_to 7965
  144.6896  140.3108  143.7248 LP  0  0  0  0  0  0  0  0  0  0  0  0  # atno 17321 bound_to 7965
  140.0686  144.5797  150.7208 LP  0  0  0  0  0  0  0  0  0  0  0  0  # atno 17342 bound_to 10162
  140.7216  143.2595  151.4258 LP  0  0  0  0  0  0  0  0  0  0  0  0  # atno 17343 bound_to 10162
  156.1958  130.6589  151.1113 LP  0  0  0  0  0  0  0  0  0  0  0  0  # atno 17370 bound_to 10713
  157.7086  131.0745  150.6580 LP  0  0  0  0  0  0  0  0  0  0  0  0  # atno 17371 bound_to 10713
  141.0801  133.6758  156.2319 LP  0  0  0  0  0  0  0  0  0  0  0  0  # atno 17394 bound_to 11000
  140.6362  134.5213  157.5565 LP  0  0  0  0  0  0  0  0  0  0  0  0  # atno 17395 bound_to 11000

$$$$
