AV-unprocessed.smi:2079|AV-procd|sdf|8485|dock2
  -GOLD-   2272011193D 1   1.00000     0.00000
 Structure written by MMmdl.
 41 42  0  0  0  0  0  0  0  0  3 V2000
  156.1748  136.6474  163.8348 C   0  0  0  0  0  0  0  0  0  0  0  0
  155.6553  137.0414  162.4948 C   0  0  0  0  0  0  0  0  0  0  0  0
  155.0040  138.1528  162.0392 C   0  0  0  0  0  0  0  0  0  0  0  0
  154.8109  137.8696  160.6607 C   0  0  0  0  0  0  0  0  0  0  0  0
  154.1557  138.8031  159.8144 N   0  0  0  0  0  0  0  0  0  0  0  0
  154.2020  138.9015  158.4732 C   0  0  0  0  0  0  0  0  0  0  0  0
  154.8728  138.1012  157.8101 O   0  0  0  0  0  0  0  0  0  0  0  0
  153.4490  139.9355  158.0050 N   0  5  0  0  0  0  0  0  0  0  0  0
  152.1336  140.3110  158.5212 C   0  0  0  0  0  0  0  0  0  0  0  0
  151.5928  141.5452  157.7702 C   0  0  0  0  0  0  0  0  0  0  0  0
  151.3853  142.7029  158.6821 N   0  3  2  0  0  0  0  0  0  0  0  0
  151.3367  144.0245  157.9921 C   0  0  0  0  0  0  0  0  0  0  0  0
  150.8837  145.1325  158.9570 C   0  0  0  0  0  0  0  0  0  0  0  0
  151.7823  145.1892  160.1987 C   0  0  0  0  0  0  0  0  0  0  0  0
  151.8509  143.8071  160.8657 C   0  0  0  0  0  0  0  0  0  0  0  0
  152.2837  142.7054  159.8754 C   0  0  2  0  0  0  0  0  0  0  0  0
  153.7823  142.7956  159.5130 C   0  0  0  0  0  0  0  0  0  0  0  0
  155.2977  136.6887  160.3088 N   0  0  0  0  0  0  0  0  0  0  0  0
  155.8420  136.1527  161.4818 O   0  0  0  0  0  0  0  0  0  0  0  0
  155.8300  137.3377  164.6048 H   0  0  0  0  0  0  0  0  0  0  0  0
  157.2647  136.6497  163.8411 H   0  0  0  0  0  0  0  0  0  0  0  0
  155.8363  135.6463  164.1022 H   0  0  0  0  0  0  0  0  0  0  0  0
  154.7158  139.0283  162.6019 H   0  0  0  0  0  0  0  0  0  0  0  0
  153.5891  139.4939  160.2839 H   0  0  0  0  0  0  0  0  0  0  0  0
  151.4244  139.4910  158.4077 H   0  0  0  0  0  0  0  0  0  0  0  0
  152.1561  140.5261  159.5906 H   0  0  0  0  0  0  0  0  0  0  0  0
  152.3197  141.8130  157.0020 H   0  0  0  0  0  0  0  0  0  0  0  0
  150.6659  141.3120  157.2436 H   0  0  0  0  0  0  0  0  0  0  0  0
  152.3117  144.2637  157.5669 H   0  0  0  0  0  0  0  0  0  0  0  0
  150.6405  143.9853  157.1539 H   0  0  0  0  0  0  0  0  0  0  0  0
  150.8902  146.0966  158.4475 H   0  0  0  0  0  0  0  0  0  0  0  0
  149.8519  144.9509  159.2610 H   0  0  0  0  0  0  0  0  0  0  0  0
  152.7818  145.5216  159.9176 H   0  0  0  0  0  0  0  0  0  0  0  0
  151.4000  145.9276  160.9039 H   0  0  0  0  0  0  0  0  0  0  0  0
  152.5273  143.8363  161.7207 H   0  0  0  0  0  0  0  0  0  0  0  0
  150.8674  143.5589  161.2675 H   0  0  0  0  0  0  0  0  0  0  0  0
  152.1361  141.7522  160.3856 H   0  0  0  0  0  0  0  0  0  0  0  0
  154.3972  142.7569  160.4123 H   0  0  0  0  0  0  0  0  0  0  0  0
  154.0306  143.7201  158.9931 H   0  0  0  0  0  0  0  0  0  0  0  0
  154.0964  141.9674  158.8780 H   0  0  0  0  0  0  0  0  0  0  0  0
  150.4595  142.5592  159.0599 H   0  0  0  0  0  0  0  0  0  0  0  0
  1  2  1  0  0  0  0
  1 20  1  0  0  0  0
  1 21  1  0  0  0  0
  1 22  1  0  0  0  0
  2 19  1  0  0  0  0
  2  3  2  0  0  0  0
  3  4  1  0  0  0  0
  3 23  1  0  0  0  0
  4  5  1  0  0  0  0
  4 18  2  0  0  0  0
  5  6  1  0  0  0  0
  5 24  1  0  0  0  0
  6  7  2  0  0  0  0
  6  8  1  0  0  0  0
  8  9  1  0  0  0  0
  9 10  1  0  0  0  0
  9 25  1  0  0  0  0
  9 26  1  0  0  0  0
 10 11  1  0  0  0  0
 10 27  1  0  0  0  0
 10 28  1  0  0  0  0
 11 16  1  0  0  0  0
 11 12  1  0  0  0  0
 11 41  1  0  0  0  0
 12 13  1  0  0  0  0
 12 29  1  0  0  0  0
 12 30  1  0  0  0  0
 13 14  1  0  0  0  0
 13 31  1  0  0  0  0
 13 32  1  0  0  0  0
 14 15  1  0  0  0  0
 14 33  1  0  0  0  0
 14 34  1  0  0  0  0
 15 16  1  0  0  0  0
 15 35  1  0  0  0  0
 15 36  1  0  0  0  0
 16 17  1  0  0  0  0
 16 37  1  0  0  0  0
 17 38  1  0  0  0  0
 17 39  1  0  0  0  0
 17 40  1  0  0  0  0
 18 19  1  0  0  0  0
M  CHG  1   8  -1
M  CHG  1  11   1
M  END
> <s_m_source_file>
AV-unprocessed.smi

> <i_m_source_file_index>
2079

> <i_lp_mmshare_version>
43012

> <i_f3d_flags>
0

> <s_epik_input>
W0NIM11jMVtjSF1jKG5vMSlbTkhdQyg9TylbTkhdW0NIMl1bQ0gyXU4yW0NIMl1bQ0gyXVtDSDJdW0NIMl1bQ0BIXTJbQ0gzXQ==

> <s_epik_cmdline>
J2VwaWtfcHl0aG9uJywgJy1waCcsICc3LjAnLCAnLXRuJywgJzgnLCAnLW1hJywgJzIwMCcsICctbWV0YWxfYmluZGluZycsICctaW1hZScsICc8aW5maWxlLm1hZT4nLCAnLW9tYWUnLCAnPG91dGZpbGUubWFlPic=

> <r_epik_Ionization_Penalty>
6.7666

> <r_epik_Ionization_Penalty_Charging>
6.7666

> <r_epik_Ionization_Penalty_Neutral>
5.77131e-06

> <r_epik_State_Penalty>
6.79217

> <r_epik_Charging_Adjusted_Penalty>
13.5588

> <i_epik_Tot_Q>
0

> <i_epik_Tot_abs_Q>
2

> <r_epik_Metal_State_Penalty>
2.72569

> <b_epik_Metal_Only>
1

> <s_lp_Force_Field>
OPLS_2005

> <r_lp_Energy>
14.7709

> <b_lp_Chiralities_Consistent>
1

> <s_lp_Variant>
AV-unprocessed.smi:2079-11

> <Gold.Version>
5.8.1

> <Gold.Id.Protein>
6NUR|6NUR_protein|mol2

> <Gold.PLP.Fitness>
46.0492

> <Gold.PLP.PLP>
-40.2329

> <Gold.PLP.part.hbond>
-1.6424

> <Gold.PLP.part.metal>
0.0000

> <Gold.PLP.part.buried>
-5.6350

> <Gold.PLP.part.nonpolar>
-33.9501

> <Gold.PLP.part.repulsive>
0.1230

> <Gold.PLP.ligand.clash>
0.0000

> <Gold.PLP.ligand.torsion>
1.0887

> <Gold.PLP.Chemscore.Hbond>
2.6216

> <Gold.PLP.Chemscore.CHOScore>
0.0000

> <Gold.PLP.Chemscore.Metal>
0.0000

> <Gold.Chemscore.Hbonds>
donor molecule, donor type, donor heavy atom, donor atom, acceptor molecule, acceptor atom, score
      P1  H  7997  8009       L1     8  0.81

> <Gold.PLP.Chemscore.Internal.Correction>
0.1291

> <Gold.Rescore>
     Score         DG    S(hbond)    S(metal)    S(lipo)     H(rot)  DE(clash)    DE(int)     intcor
     15.63     -17.78       1.03        0.00     109.56       1.54       0.08       2.07       ----

> <Gold.Chemscore.Fitness>
15.6292

> <Gold.Chemscore.DG>
-17.7794

> <Gold.Chemscore.ZeroCoef>
-5.4800

> <Gold.Chemscore.Hbond>
1.0257

> <Gold.Chemscore.Metal>
0.0000

> <Gold.Chemscore.Lipo>
109.5583

> <Gold.Chemscore.Internal_Hbond>
0.0000

> <Gold.Chemscore.DEClash>
0.0758

> <Gold.Chemscore.DEInternal>
2.0744

> <Gold.Chemscore.Rot>
1.5409

> <Gold.Chemscore.Internal.Correction>
   9.000000E+99

> <Gold.Chemscore.Hbonds>
donor molecule, donor type, donor heavy atom, donor atom, acceptor molecule, acceptor atom, score
      P1  H  7997  8009       L1     8  0.01

> <Gold.Chemscore.Hbond.Weighted>
-3.4257

> <Gold.Chemscore.Metal.Weighted>
-0.0000

> <Gold.Chemscore.Lipo.Weighted>
-12.8183

> <Gold.Chemscore.Internal_Hbond.Weighted>
0.0000

> <Gold.Chemscore.DEClash.Weighted>
0.0758

> <Gold.Chemscore.DEInternal.Weighted>
2.0744

> <Gold.Chemscore.Rot.Weighted>
3.9446

> <Gold.Chemscore.Internal.Correction.Weighted>
   9.000000E+99

> <Gold.Protein.RotatedTorsions>
[ 6907 6896 6895 6894 ] final  172.73 input  -60.11 | X-H torsion
[ 7974 7965 7964 7962 ] final  157.05 input  175.53 | X-H torsion
[ 8008 7997 7996 7995 ] final  172.60 input   59.86 | X-H torsion
[ 10167 10162 10161 10158 ] final -153.84 input  -65.29 | X-H torsion
[ 10718 10713 10712 10709 ] final -103.43 input   66.30 | X-H torsion
[ 10763 10752 10751 10750 ] final  -77.14 input  -60.55 | X-H torsion
[ 11005 11000 10999 10996 ] final   15.86 input  -57.11 | X-H torsion

> <Gold.Protein.ActiveResidues>
 VAL166  LYS551  ARG553  GLY616  TRP617  ASP618  TYR619  PRO620  LYS621  CYS622 
 ASP623  PHE694  ASN695  SER759  ASP760  ASP761  ALA762  ILE779  LEU786  VAL792 
 PHE793  MET794  SER795  GLU796  ALA797  LYS798  CYS799  TRP800  GLU811  SER814 

> <Gold.Protein.RotatedAtoms>
  151.7796  133.3348  159.3467 H   0  0  0  0  0  0  0  0  0  0  0  0  # atno 6907 bound_to 6896
  150.7431  134.5943  159.6013 H   0  0  0  0  0  0  0  0  0  0  0  0  # atno 6908 bound_to 6896
  152.3285  134.7291  160.0347 H   0  0  0  0  0  0  0  0  0  0  0  0  # atno 6909 bound_to 6896
  144.7926  139.7287  143.6215 H   0  0  0  0  0  0  0  0  0  0  0  0  # atno 7974 bound_to 7965
  156.1158  140.1482  156.9274 H   0  0  0  0  0  0  0  0  0  0  0  0  # atno 8008 bound_to 7997
  154.4800  140.0882  156.7396 H   0  0  0  0  0  0  0  0  0  0  0  0  # atno 8009 bound_to 7997
  155.4515  140.3435  155.4303 H   0  0  0  0  0  0  0  0  0  0  0  0  # atno 8010 bound_to 7997
  139.7063  143.9180  152.2450 H   0  0  0  0  0  0  0  0  0  0  0  0  # atno 10167 bound_to 10162
  156.0265  130.5467  150.7252 H   0  0  0  0  0  0  0  0  0  0  0  0  # atno 10718 bound_to 10713
  154.5090  135.5774  153.6590 H   0  0  0  0  0  0  0  0  0  0  0  0  # atno 10763 bound_to 10752
  152.9893  135.6154  154.2903 H   0  0  0  0  0  0  0  0  0  0  0  0  # atno 10764 bound_to 10752
  154.2817  135.2851  155.2674 H   0  0  0  0  0  0  0  0  0  0  0  0  # atno 10765 bound_to 10752
  140.4536  134.1199  155.7706 H   0  0  0  0  0  0  0  0  0  0  0  0  # atno 11005 bound_to 11000
  146.2184  139.5590  142.9635 LP  0  0  0  0  0  0  0  0  0  0  0  0  # atno 17320 bound_to 7965
  145.5754  141.0389  143.2151 LP  0  0  0  0  0  0  0  0  0  0  0  0  # atno 17321 bound_to 7965
  139.9037  144.6897  150.8637 LP  0  0  0  0  0  0  0  0  0  0  0  0  # atno 17342 bound_to 10162
  140.7722  143.3494  151.2044 LP  0  0  0  0  0  0  0  0  0  0  0  0  # atno 17343 bound_to 10162
  157.4858  131.0906  151.0484 LP  0  0  0  0  0  0  0  0  0  0  0  0  # atno 17370 bound_to 10713
  157.0905  130.5940  149.5438 LP  0  0  0  0  0  0  0  0  0  0  0  0  # atno 17371 bound_to 10713
  141.1653  133.8715  157.1732 LP  0  0  0  0  0  0  0  0  0  0  0  0  # atno 17394 bound_to 11000
  139.9990  135.0035  157.0148 LP  0  0  0  0  0  0  0  0  0  0  0  0  # atno 17395 bound_to 11000

$$$$
