AV-unprocessed.smi:219|AV-procd|sdf|1678|dock7
  -GOLD-   2262020113D 1   1.00000     0.00000
 Structure written by MMmdl.
 50 53  0  0  0  0  0  0  0  0  1 V2000
  154.3217  137.5395  158.8462 N   0  0  0  0  0  0  0  0  0  0  0  0
  154.2400  138.8570  158.6426 C   0  0  0  0  0  0  0  0  0  0  0  0
  155.2282  139.5421  158.3882 O   0  0  0  0  0  0  0  0  0  0  0  0
  152.8457  139.4929  158.7379 C   0  0  0  0  0  0  0  0  0  0  0  0
  152.8022  141.0409  158.5641 C   0  0  2  0  0  0  0  0  0  0  0  0
  152.9087  141.7045  159.9567 C   0  0  0  0  0  0  0  0  0  0  0  0
  152.8600  143.2363  159.8732 C   0  0  0  0  0  0  0  0  0  0  0  0
  151.5953  143.6792  159.1301 C   0  0  0  0  0  0  0  0  0  0  0  0
  151.5300  143.0108  157.7508 C   0  0  0  0  0  0  0  0  0  0  0  0
  151.6076  141.5526  157.8623 N   0  0  0  0  0  0  0  0  0  0  0  0
  151.2889  140.9440  156.6975 C   0  0  0  0  0  0  0  0  0  0  0  0
  152.2163  140.1954  156.0437 N   0  0  0  0  0  0  0  0  0  0  0  0
  151.8821  139.5545  154.9196 C   0  0  0  0  0  0  0  0  0  0  0  0
  150.7023  139.5224  154.2957 N   0  0  0  0  0  0  0  0  0  0  0  0
  149.7738  140.2779  154.9500 C   0  0  0  0  0  0  0  0  0  0  0  0
  149.9859  141.0253  156.1410 C   0  0  0  0  0  0  0  0  0  0  0  0
  148.8161  141.6730  156.5159 N   0  0  0  0  0  0  0  0  0  0  0  0
  147.9557  141.3220  155.5998 C   0  0  0  0  0  0  0  0  0  0  0  0
  148.4408  140.4703  154.6322 N   0  0  0  0  0  0  0  0  0  0  0  0
  147.6984  139.9003  153.5193 C   0  0  0  0  0  0  0  0  0  0  0  0
  146.5733  138.9376  153.9668 C   0  0  1  0  0  0  0  0  0  0  0  0
  145.6129  139.6605  154.7176 O   0  0  0  0  0  0  0  0  0  0  0  0
  145.8558  138.2389  152.8141 C   0  0  0  0  0  0  0  0  0  0  0  0
  145.4971  136.8830  153.4058 C   0  0  0  0  0  0  0  0  0  0  0  0
  146.6449  136.5734  154.1769 O   0  0  0  0  0  0  0  0  0  0  0  0
  147.0832  137.7627  154.8258 C   0  0  0  0  0  0  0  0  0  0  0  0
  155.2178  137.0785  158.7811 H   0  0  0  0  0  0  0  0  0  0  0  0
  153.4887  137.0074  159.0523 H   0  0  0  0  0  0  0  0  0  0  0  0
  152.1564  139.0163  158.0392 H   0  0  0  0  0  0  0  0  0  0  0  0
  152.4815  139.2325  159.7323 H   0  0  0  0  0  0  0  0  0  0  0  0
  153.6738  141.3558  157.9878 H   0  0  0  0  0  0  0  0  0  0  0  0
  152.0938  141.3535  160.5918 H   0  0  0  0  0  0  0  0  0  0  0  0
  153.8342  141.4014  160.4476 H   0  0  0  0  0  0  0  0  0  0  0  0
  152.8808  143.6696  160.8735 H   0  0  0  0  0  0  0  0  0  0  0  0
  153.7440  143.6061  159.3521 H   0  0  0  0  0  0  0  0  0  0  0  0
  150.7115  143.4123  159.7111 H   0  0  0  0  0  0  0  0  0  0  0  0
  151.5829  144.7640  159.0220 H   0  0  0  0  0  0  0  0  0  0  0  0
  150.6035  143.2965  157.2499 H   0  0  0  0  0  0  0  0  0  0  0  0
  152.3521  143.3739  157.1322 H   0  0  0  0  0  0  0  0  0  0  0  0
  152.6707  138.9780  154.4589 H   0  0  0  0  0  0  0  0  0  0  0  0
  146.9322  141.6675  155.6131 H   0  0  0  0  0  0  0  0  0  0  0  0
  147.2800  140.7215  152.9359 H   0  0  0  0  0  0  0  0  0  0  0  0
  148.4002  139.3844  152.8624 H   0  0  0  0  0  0  0  0  0  0  0  0
  144.9227  139.9378  154.1346 H   0  0  0  0  0  0  0  0  0  0  0  0
  144.9918  138.7859  152.4337 H   0  0  0  0  0  0  0  0  0  0  0  0
  146.5426  138.0827  151.9814 H   0  0  0  0  0  0  0  0  0  0  0  0
  144.6228  136.9539  154.0546 H   0  0  0  0  0  0  0  0  0  0  0  0
  145.3054  136.1262  152.6448 H   0  0  0  0  0  0  0  0  0  0  0  0
  148.1706  137.7460  154.9069 H   0  0  0  0  0  0  0  0  0  0  0  0
  146.6813  137.7913  155.8401 H   0  0  0  0  0  0  0  0  0  0  0  0
  1  2  1  0  0  0  0
  1 27  1  0  0  0  0
  1 28  1  0  0  0  0
  2  3  2  0  0  0  0
  2  4  1  0  0  0  0
  4  5  1  0  0  0  0
  4 29  1  0  0  0  0
  4 30  1  0  0  0  0
  5 10  1  0  0  0  0
  5  6  1  0  0  0  0
  5 31  1  0  0  0  0
  6  7  1  0  0  0  0
  6 32  1  0  0  0  0
  6 33  1  0  0  0  0
  7  8  1  0  0  0  0
  7 34  1  0  0  0  0
  7 35  1  0  0  0  0
  8  9  1  0  0  0  0
  8 36  1  0  0  0  0
  8 37  1  0  0  0  0
  9 10  1  0  0  0  0
  9 38  1  0  0  0  0
  9 39  1  0  0  0  0
 10 11  1  0  0  0  0
 11 16  1  0  0  0  0
 11 12  2  0  0  0  0
 12 13  1  0  0  0  0
 13 14  2  0  0  0  0
 13 40  1  0  0  0  0
 14 15  1  0  0  0  0
 15 19  1  0  0  0  0
 15 16  2  0  0  0  0
 16 17  1  0  0  0  0
 17 18  2  0  0  0  0
 18 19  1  0  0  0  0
 18 41  1  0  0  0  0
 19 20  1  0  0  0  0
 20 21  1  0  0  0  0
 20 42  1  0  0  0  0
 20 43  1  0  0  0  0
 21 26  1  0  0  0  0
 21 22  1  0  0  0  0
 21 23  1  0  0  0  0
 22 44  1  0  0  0  0
 23 24  1  0  0  0  0
 23 45  1  0  0  0  0
 23 46  1  0  0  0  0
 24 25  1  0  0  0  0
 24 47  1  0  0  0  0
 24 48  1  0  0  0  0
 25 26  1  0  0  0  0
 26 49  1  0  0  0  0
 26 50  1  0  0  0  0
M  END
> <s_m_source_file>
AV-unprocessed.smi

> <i_m_source_file_index>
219

> <i_lp_mmshare_version>
43012

> <i_f3d_flags>
0

> <s_epik_input>
W05IMl1DKD1PKVtDSDJdW0NAQEhdMVtDSDJdW0NIMl1bQ0gyXVtDSDJdTjFjKG5bY0hdbjIpYyhjMjMpbltjSF1uM1tDSDJdW0NAQF00KFtPSF0pW0NIMl1bQ0gyXU9bQ0gyXTQ=

> <s_epik_cmdline>
J2VwaWtfcHl0aG9uJywgJy1waCcsICc3LjAnLCAnLXRuJywgJzgnLCAnLW1hJywgJzIwMCcsICctbWV0YWxfYmluZGluZycsICctaW1hZScsICc8aW5maWxlLm1hZT4nLCAnLW9tYWUnLCAnPG91dGZpbGUubWFlPic=

> <r_lp_tautomer_probability>
1

> <r_epik_Ionization_Penalty>
0.00228532

> <r_epik_Ionization_Penalty_Charging>
0

> <r_epik_Ionization_Penalty_Neutral>
0.00228532

> <r_epik_State_Penalty>
0.00140978

> <r_epik_Charging_Adjusted_Penalty>
0.00140978

> <i_epik_Tot_Q>
0

> <i_epik_Tot_abs_Q>
0

> <r_epik_Metal_State_Penalty>
-0

> <b_epik_Metal_Only>
0

> <s_lp_Force_Field>
OPLS_2005

> <r_lp_Energy>
33.2766

> <b_lp_Chiralities_Consistent>
1

> <s_lp_Variant>
AV-unprocessed.smi:219-1

> <Gold.Version>
5.8.1

> <Gold.Id.Protein>
6NUR|6NUR_protein|mol2

> <Gold.PLP.Fitness>
47.4893

> <Gold.PLP.PLP>
-41.0009

> <Gold.PLP.part.hbond>
-4.0000

> <Gold.PLP.part.metal>
0.0000

> <Gold.PLP.part.buried>
1.0236

> <Gold.PLP.part.nonpolar>
-40.2709

> <Gold.PLP.part.repulsive>
2.5147

> <Gold.PLP.ligand.clash>
0.0000

> <Gold.PLP.ligand.torsion>
0.7740

> <Gold.PLP.Chemscore.Hbond>
2.5812

> <Gold.PLP.Chemscore.CHOScore>
0.0000

> <Gold.PLP.Chemscore.Metal>
0.0000

> <Gold.Chemscore.Hbonds>
donor molecule, donor type, donor heavy atom, donor atom, acceptor molecule, acceptor atom, score
      L1  H    22    44       P1 10175  0.73
      P1  H  7997  8008       L1     3  0.10
      P1  H  7997  8009       L1    12  0.62

> <Gold.PLP.Chemscore.Internal.Correction>
0.2929

> <Gold.Rescore>
     Score         DG    S(hbond)    S(metal)    S(lipo)     H(rot)  DE(clash)    DE(int)     intcor
      9.72     -12.52       1.90        0.00      79.70       3.37       0.23       2.57       ----

> <Gold.Chemscore.Fitness>
9.7189

> <Gold.Chemscore.DG>
-12.5156

> <Gold.Chemscore.ZeroCoef>
-5.4800

> <Gold.Chemscore.Hbond>
1.8973

> <Gold.Chemscore.Metal>
0.0000

> <Gold.Chemscore.Lipo>
79.7015

> <Gold.Chemscore.Internal_Hbond>
0.0000

> <Gold.Chemscore.DEClash>
0.2295

> <Gold.Chemscore.DEInternal>
2.5673

> <Gold.Chemscore.Rot>
3.3697

> <Gold.Chemscore.Internal.Correction>
   9.000000E+99

> <Gold.Chemscore.Hbonds>
donor molecule, donor type, donor heavy atom, donor atom, acceptor molecule, acceptor atom, score
      L1  H    22    44       P1 10175  0.73
      P1  H  7997  8008       L1     3  0.13
      P1  H  7997  8009       L1    12  0.27

> <Gold.Chemscore.Hbond.Weighted>
-6.3369

> <Gold.Chemscore.Metal.Weighted>
-0.0000

> <Gold.Chemscore.Lipo.Weighted>
-9.3251

> <Gold.Chemscore.Internal_Hbond.Weighted>
0.0000

> <Gold.Chemscore.DEClash.Weighted>
0.2295

> <Gold.Chemscore.DEInternal.Weighted>
2.5673

> <Gold.Chemscore.Rot.Weighted>
8.6264

> <Gold.Chemscore.Internal.Correction.Weighted>
   9.000000E+99

> <Gold.Protein.RotatedTorsions>
[ 6907 6896 6895 6894 ] final  158.19 input  -60.11 | X-H torsion
[ 7974 7965 7964 7962 ] final  160.88 input  175.53 | X-H torsion
[ 8008 7997 7996 7995 ] final -142.48 input   59.86 | X-H torsion
[ 10167 10162 10161 10158 ] final  169.23 input  -65.29 | X-H torsion
[ 10718 10713 10712 10709 ] final  -48.79 input   66.30 | X-H torsion
[ 10763 10752 10751 10750 ] final   -5.18 input  -60.55 | X-H torsion
[ 11005 11000 10999 10996 ] final   94.36 input  -57.11 | X-H torsion

> <Gold.Protein.ActiveResidues>
 VAL166  LYS551  ARG553  GLY616  TRP617  ASP618  TYR619  PRO620  LYS621  CYS622 
 ASP623  PHE694  ASN695  SER759  ASP760  ASP761  ALA762  ILE779  LEU786  VAL792 
 PHE793  MET794  SER795  GLU796  ALA797  LYS798  CYS799  TRP800  GLU811  SER814 

> <Gold.Protein.RotatedAtoms>
  152.0040  133.3836  159.4192 H   0  0  0  0  0  0  0  0  0  0  0  0  # atno 6907 bound_to 6896
  150.6907  134.3803  159.5040 H   0  0  0  0  0  0  0  0  0  0  0  0  # atno 6908 bound_to 6896
  152.1554  134.8955  160.0596 H   0  0  0  0  0  0  0  0  0  0  0  0  # atno 6909 bound_to 6896
  144.7714  139.7820  143.6295 H   0  0  0  0  0  0  0  0  0  0  0  0  # atno 7974 bound_to 7965
  155.4948  140.0571  157.2948 H   0  0  0  0  0  0  0  0  0  0  0  0  # atno 8008 bound_to 7997
  154.4609  140.1996  156.0198 H   0  0  0  0  0  0  0  0  0  0  0  0  # atno 8009 bound_to 7997
  156.0888  140.3236  155.7793 H   0  0  0  0  0  0  0  0  0  0  0  0  # atno 8010 bound_to 7997
  139.4987  144.3728  151.9706 H   0  0  0  0  0  0  0  0  0  0  0  0  # atno 10167 bound_to 10162
  156.1954  130.4154  149.9313 H   0  0  0  0  0  0  0  0  0  0  0  0  # atno 10718 bound_to 10713
  153.3949  135.7003  153.6467 H   0  0  0  0  0  0  0  0  0  0  0  0  # atno 10763 bound_to 10752
  153.5024  135.3649  155.2547 H   0  0  0  0  0  0  0  0  0  0  0  0  # atno 10764 bound_to 10752
  154.8705  135.4115  154.3273 H   0  0  0  0  0  0  0  0  0  0  0  0  # atno 10765 bound_to 10752
  139.8799  134.8841  156.3852 H   0  0  0  0  0  0  0  0  0  0  0  0  # atno 11005 bound_to 11000
  146.1863  139.5080  142.9834 LP  0  0  0  0  0  0  0  0  0  0  0  0  # atno 17320 bound_to 7965
  145.6313  141.0303  143.1861 LP  0  0  0  0  0  0  0  0  0  0  0  0  # atno 17321 bound_to 7965
  140.3164  144.3478  150.6020 LP  0  0  0  0  0  0  0  0  0  0  0  0  # atno 17342 bound_to 10162
  140.5757  143.2176  151.7518 LP  0  0  0  0  0  0  0  0  0  0  0  0  # atno 17343 bound_to 10162
  156.7039  130.8944  151.3602 LP  0  0  0  0  0  0  0  0  0  0  0  0  # atno 17370 bound_to 10713
  157.6954  130.9277  150.0631 LP  0  0  0  0  0  0  0  0  0  0  0  0  # atno 17371 bound_to 10713
  140.9371  133.7540  156.0098 LP  0  0  0  0  0  0  0  0  0  0  0  0  # atno 17394 bound_to 11000
  140.8263  134.3230  157.5364 LP  0  0  0  0  0  0  0  0  0  0  0  0  # atno 17395 bound_to 11000

$$$$
