AV-unprocessed.smi:2568|AV-procd|sdf|10101|dock10
  -GOLD-   2272014113D 1   1.00000     0.00000
 Structure written by MMmdl.
 23 24  0  0  0  0  0  0  0  0  2 V2000
  154.0464  138.4411  154.3682 C   0  0  0  0  0  0  0  0  0  0  0  0
  152.5404  138.4086  154.4885 C   0  0  0  0  0  0  0  0  0  0  0  0
  151.7708  137.3061  154.4727 N   0  5  0  0  0  0  0  0  0  0  0  0
  150.5040  137.6459  154.5983 N   0  0  0  0  0  0  0  0  0  0  0  0
  150.4991  138.9856  154.6827 C   0  0  0  0  0  0  0  0  0  0  0  0
  149.2522  139.8270  154.8732 C   0  0  1  0  0  0  0  0  0  0  0  0
  149.6084  141.3194  155.0282 C   0  0  0  0  0  0  0  0  0  0  0  0
  148.3988  142.1239  155.2028 N   0  0  0  0  0  0  0  0  0  0  0  0
  147.4497  141.8965  154.1153 C   0  0  0  0  0  0  0  0  0  0  0  0
  147.1411  140.3955  153.9826 C   0  0  0  0  0  0  0  0  0  0  0  0
  148.3531  139.6794  153.7756 O   0  0  0  0  0  0  0  0  0  0  0  0
  151.7499  139.4676  154.6287 N   0  0  0  0  0  0  0  0  0  0  0  0
  154.4509  137.4301  154.3163 H   0  0  0  0  0  0  0  0  0  0  0  0
  154.4839  138.9450  155.2299 H   0  0  0  0  0  0  0  0  0  0  0  0
  154.3402  138.9780  153.4663 H   0  0  0  0  0  0  0  0  0  0  0  0
  148.7597  139.4712  155.7803 H   0  0  0  0  0  0  0  0  0  0  0  0
  150.2722  141.4581  155.8819 H   0  0  0  0  0  0  0  0  0  0  0  0
  150.1556  141.6591  154.1478 H   0  0  0  0  0  0  0  0  0  0  0  0
  148.6484  143.1068  155.2371 H   0  0  0  0  0  0  0  0  0  0  0  0
  146.5309  142.4538  154.2979 H   0  0  0  0  0  0  0  0  0  0  0  0
  147.8628  142.2694  153.1773 H   0  0  0  0  0  0  0  0  0  0  0  0
  146.6259  140.0202  154.8684 H   0  0  0  0  0  0  0  0  0  0  0  0
  146.4803  140.2225  153.1332 H   0  0  0  0  0  0  0  0  0  0  0  0
  1 13  1  0  0  0  0
  1 14  1  0  0  0  0
  1 15  1  0  0  0  0
  1  2  1  0  0  0  0
  2 12  2  0  0  0  0
  2  3  1  0  0  0  0
  3  4  1  0  0  0  0
  4  5  2  0  0  0  0
  5 12  1  0  0  0  0
  5  6  1  0  0  0  0
  6 11  1  0  0  0  0
  6  7  1  0  0  0  0
  6 16  1  0  0  0  0
  7  8  1  0  0  0  0
  7 17  1  0  0  0  0
  7 18  1  0  0  0  0
  8  9  1  0  0  0  0
  8 19  1  0  0  0  0
  9 10  1  0  0  0  0
  9 20  1  0  0  0  0
  9 21  1  0  0  0  0
 10 11  1  0  0  0  0
 10 22  1  0  0  0  0
 10 23  1  0  0  0  0
M  CHG  1   3  -1
M  END
> <s_m_source_file>
AV-unprocessed.smi

> <i_m_source_file_index>
2568

> <i_lp_mmshare_version>
43012

> <i_f3d_flags>
0

> <s_epik_input>
W0NIM11jMW5bbkhdYyhuMSlbQ0BASF0yW0NIMl1bTkhdW0NIMl1bQ0gyXU8y

> <s_epik_cmdline>
J2VwaWtfcHl0aG9uJywgJy1waCcsICc3LjAnLCAnLXRuJywgJzgnLCAnLW1hJywgJzIwMCcsICctbWV0YWxfYmluZGluZycsICctaW1hZScsICc8aW5maWxlLm1hZT4nLCAnLW9tYWUnLCAnPG91dGZpbGUubWFlPic=

> <r_epik_Ionization_Penalty>
17.7898

> <r_epik_Ionization_Penalty_Charging>
16.2165

> <r_epik_Ionization_Penalty_Neutral>
1.5733

> <r_epik_State_Penalty>
6.78491

> <r_epik_Charging_Adjusted_Penalty>
23.0014

> <i_epik_Tot_Q>
-1

> <i_epik_Tot_abs_Q>
1

> <r_epik_Metal_State_Penalty>
3.02615

> <b_epik_Metal_Only>
1

> <s_lp_Force_Field>
OPLS_2005

> <r_lp_Energy>
14.4772

> <b_lp_Chiralities_Consistent>
1

> <s_lp_Variant>
AV-unprocessed.smi:2568-14

> <Gold.Version>
5.8.1

> <Gold.Id.Protein>
6NUR|6NUR_protein|mol2

> <Gold.PLP.Fitness>
33.6673

> <Gold.PLP.PLP>
-21.6802

> <Gold.PLP.part.hbond>
-3.0000

> <Gold.PLP.part.metal>
0.0000

> <Gold.PLP.part.buried>
-3.4495

> <Gold.PLP.part.nonpolar>
-16.9032

> <Gold.PLP.part.repulsive>
1.7997

> <Gold.PLP.ligand.clash>
0.0000

> <Gold.PLP.ligand.torsion>
0.0116

> <Gold.PLP.Chemscore.Hbond>
4.0000

> <Gold.PLP.Chemscore.CHOScore>
0.0000

> <Gold.PLP.Chemscore.Metal>
0.0000

> <Gold.Chemscore.Hbonds>
donor molecule, donor type, donor heavy atom, donor atom, acceptor molecule, acceptor atom, score
      L1  H     8    19       P1  8028  1.00
      P1  H  7989  7998       L1    12  1.00
      P1  H 10752 10764       L1     3  2.00

> <Gold.PLP.Chemscore.Internal.Correction>
0.0103

> <Gold.Rescore>
     Score         DG    S(hbond)    S(metal)    S(lipo)     H(rot)  DE(clash)    DE(int)     intcor
     14.91     -15.58       2.61        0.00      33.75       1.00       0.60       0.06       ----

> <Gold.Chemscore.Fitness>
14.9138

> <Gold.Chemscore.DG>
-15.5756

> <Gold.Chemscore.ZeroCoef>
-5.4800

> <Gold.Chemscore.Hbond>
2.6069

> <Gold.Chemscore.Metal>
0.0000

> <Gold.Chemscore.Lipo>
33.7470

> <Gold.Chemscore.Internal_Hbond>
0.0000

> <Gold.Chemscore.DEClash>
0.5993

> <Gold.Chemscore.DEInternal>
0.0624

> <Gold.Chemscore.Rot>
1.0000

> <Gold.Chemscore.Internal.Correction>
   9.000000E+99

> <Gold.Chemscore.Hbonds>
donor molecule, donor type, donor heavy atom, donor atom, acceptor molecule, acceptor atom, score
      L1  H     8    19       P1  8028  1.00
      P1  H  7989  7998       L1    12  0.48
      P1  H 10752 10764       L1     3  0.62

> <Gold.Chemscore.Hbond.Weighted>
-8.7072

> <Gold.Chemscore.Metal.Weighted>
-0.0000

> <Gold.Chemscore.Lipo.Weighted>
-3.9484

> <Gold.Chemscore.Internal_Hbond.Weighted>
0.0000

> <Gold.Chemscore.DEClash.Weighted>
0.5993

> <Gold.Chemscore.DEInternal.Weighted>
0.0624

> <Gold.Chemscore.Rot.Weighted>
2.5600

> <Gold.Chemscore.Internal.Correction.Weighted>
   9.000000E+99

> <Gold.Protein.RotatedTorsions>
[ 6907 6896 6895 6894 ] final   11.25 input  -60.11 | X-H torsion
[ 7974 7965 7964 7962 ] final -144.33 input  175.53 | X-H torsion
[ 8008 7997 7996 7995 ] final -106.58 input   59.86 | X-H torsion
[ 10167 10162 10161 10158 ] final  -22.80 input  -65.29 | X-H torsion
[ 10718 10713 10712 10709 ] final   47.34 input   66.30 | X-H torsion
[ 10763 10752 10751 10750 ] final  -80.26 input  -60.55 | X-H torsion
[ 11005 11000 10999 10996 ] final  110.25 input  -57.11 | X-H torsion

> <Gold.Protein.ActiveResidues>
 VAL166  LYS551  ARG553  GLY616  TRP617  ASP618  TYR619  PRO620  LYS621  CYS622 
 ASP623  PHE694  ASN695  SER759  ASP760  ASP761  ALA762  ILE779  LEU786  VAL792 
 PHE793  MET794  SER795  GLU796  ALA797  LYS798  CYS799  TRP800  GLU811  SER814 

> <Gold.Protein.RotatedAtoms>
  151.7514  135.0832  160.0331 H   0  0  0  0  0  0  0  0  0  0  0  0  # atno 6907 bound_to 6896
  152.3414  133.6067  159.5888 H   0  0  0  0  0  0  0  0  0  0  0  0  # atno 6908 bound_to 6896
  150.7482  133.9632  159.3564 H   0  0  0  0  0  0  0  0  0  0  0  0  # atno 6909 bound_to 6896
  144.8305  140.5723  143.5518 H   0  0  0  0  0  0  0  0  0  0  0  0  # atno 7974 bound_to 7965
  154.9166  140.0408  157.1975 H   0  0  0  0  0  0  0  0  0  0  0  0  # atno 8008 bound_to 7997
  154.8295  140.2897  155.5710 H   0  0  0  0  0  0  0  0  0  0  0  0  # atno 8009 bound_to 7997
  156.2986  140.2503  156.3218 H   0  0  0  0  0  0  0  0  0  0  0  0  # atno 8010 bound_to 7997
  140.7287  143.4501  151.0529 H   0  0  0  0  0  0  0  0  0  0  0  0  # atno 10167 bound_to 10162
  157.4575  130.8176  149.7851 H   0  0  0  0  0  0  0  0  0  0  0  0  # atno 10718 bound_to 10713
  154.5490  135.5667  153.6905 H   0  0  0  0  0  0  0  0  0  0  0  0  # atno 10763 bound_to 10752
  152.9984  135.6246  154.2400 H   0  0  0  0  0  0  0  0  0  0  0  0  # atno 10764 bound_to 10752
  154.2334  135.2865  155.2861 H   0  0  0  0  0  0  0  0  0  0  0  0  # atno 10765 bound_to 10752
  139.8878  134.9479  156.6250 H   0  0  0  0  0  0  0  0  0  0  0  0  # atno 11005 bound_to 11000
  145.4906  139.1489  143.3712 LP  0  0  0  0  0  0  0  0  0  0  0  0  # atno 17320 bound_to 7965
  146.2608  140.5044  142.8854 LP  0  0  0  0  0  0  0  0  0  0  0  0  # atno 17321 bound_to 7965
  139.8176  143.7864  152.3175 LP  0  0  0  0  0  0  0  0  0  0  0  0  # atno 17342 bound_to 10162
  139.7935  144.7401  150.9922 LP  0  0  0  0  0  0  0  0  0  0  0  0  # atno 17343 bound_to 10162
  156.0013  130.3878  150.2593 LP  0  0  0  0  0  0  0  0  0  0  0  0  # atno 17370 bound_to 10713
  157.0769  131.0132  151.3170 LP  0  0  0  0  0  0  0  0  0  0  0  0  # atno 17371 bound_to 10713
  140.7710  133.8738  155.8492 LP  0  0  0  0  0  0  0  0  0  0  0  0  # atno 17394 bound_to 11000
  140.9842  134.1365  157.4467 LP  0  0  0  0  0  0  0  0  0  0  0  0  # atno 17395 bound_to 11000

$$$$
