AV-unprocessed.smi:2215|AV-procd|sdf|8960|dock1
  -GOLD-   2272012173D 1   1.00000     0.00000
 Structure written by MMmdl.
 40 41  0  0  0  0  0  0  0  0  1 V2000
  145.4590  128.9739  152.0576 C   0  0  0  0  0  0  0  0  0  0  0  0
  146.2245  130.2382  152.3874 C   0  0  0  0  0  0  0  0  0  0  0  0
  145.9531  131.4497  151.7241 C   0  0  0  0  0  0  0  0  0  0  0  0
  146.6973  132.5941  152.0696 C   0  0  0  0  0  0  0  0  0  0  0  0
  147.6943  132.5009  153.0667 C   0  0  0  0  0  0  0  0  0  0  0  0
  148.3908  133.7095  153.3342 N   0  0  0  0  0  0  0  0  0  0  0  0
  149.2098  133.9878  154.3638 C   0  0  0  0  0  0  0  0  0  0  0  0
  149.4852  133.2181  155.2848 O   0  0  0  0  0  0  0  0  0  0  0  0
  149.7021  135.2313  154.2685 N   0  0  0  0  0  0  0  0  0  0  0  0
  150.6260  135.8425  155.2193 C   0  0  0  0  0  0  0  0  0  0  0  0
  150.9798  137.3062  154.8600 C   0  0  2  0  0  0  0  0  0  0  0  0
  152.1095  137.8548  155.7633 C   0  0  0  0  0  0  0  0  0  0  0  0
  152.4490  139.3185  155.4425 C   0  0  0  0  0  0  0  0  0  0  0  0
  151.2055  140.2111  155.5475 C   0  0  0  0  0  0  0  0  0  0  0  0
  150.0876  139.6956  154.6312 C   0  0  0  0  0  0  0  0  0  0  0  0
  149.7377  138.2283  154.9413 C   0  0  1  0  0  0  0  0  0  0  0  0
  148.7558  137.8125  154.0133 O   0  0  0  0  0  0  0  0  0  0  0  0
  147.9465  131.3295  153.7023 N   0  0  0  0  0  0  0  0  0  0  0  0
  147.2320  130.2335  153.3714 C   0  0  0  0  0  0  0  0  0  0  0  0
  144.8312  129.1103  151.1766 H   0  0  0  0  0  0  0  0  0  0  0  0
  144.8192  128.6909  152.8937 H   0  0  0  0  0  0  0  0  0  0  0  0
  146.1490  128.1533  151.8594 H   0  0  0  0  0  0  0  0  0  0  0  0
  145.1890  131.5058  150.9627 H   0  0  0  0  0  0  0  0  0  0  0  0
  146.5024  133.5316  151.5694 H   0  0  0  0  0  0  0  0  0  0  0  0
  148.2593  134.4443  152.6552 H   0  0  0  0  0  0  0  0  0  0  0  0
  149.4232  135.7959  153.4796 H   0  0  0  0  0  0  0  0  0  0  0  0
  150.1945  135.7812  156.2197 H   0  0  0  0  0  0  0  0  0  0  0  0
  151.5325  135.2373  155.2434 H   0  0  0  0  0  0  0  0  0  0  0  0
  151.3415  137.3269  153.8305 H   0  0  0  0  0  0  0  0  0  0  0  0
  151.8140  137.7744  156.8104 H   0  0  0  0  0  0  0  0  0  0  0  0
  153.0122  137.2535  155.6520 H   0  0  0  0  0  0  0  0  0  0  0  0
  153.2224  139.6776  156.1219 H   0  0  0  0  0  0  0  0  0  0  0  0
  152.8655  139.3858  154.4366 H   0  0  0  0  0  0  0  0  0  0  0  0
  150.8542  140.2337  156.5800 H   0  0  0  0  0  0  0  0  0  0  0  0
  151.4598  141.2382  155.2838 H   0  0  0  0  0  0  0  0  0  0  0  0
  149.2027  140.3234  154.7439 H   0  0  0  0  0  0  0  0  0  0  0  0
  150.4036  139.7900  153.5912 H   0  0  0  0  0  0  0  0  0  0  0  0
  149.3040  138.1681  155.9404 H   0  0  0  0  0  0  0  0  0  0  0  0
  149.1594  137.2258  153.3919 H   0  0  0  0  0  0  0  0  0  0  0  0
  147.4736  129.3271  153.9072 H   0  0  0  0  0  0  0  0  0  0  0  0
  1  2  1  0  0  0  0
  1 20  1  0  0  0  0
  1 21  1  0  0  0  0
  1 22  1  0  0  0  0
  2 19  1  0  0  0  0
  2  3  2  0  0  0  0
  3  4  1  0  0  0  0
  3 23  1  0  0  0  0
  4  5  2  0  0  0  0
  4 24  1  0  0  0  0
  5  6  1  0  0  0  0
  5 18  1  0  0  0  0
  6  7  1  0  0  0  0
  6 25  1  0  0  0  0
  7  8  2  0  0  0  0
  7  9  1  0  0  0  0
  9 10  1  0  0  0  0
  9 26  1  0  0  0  0
 10 11  1  0  0  0  0
 10 27  1  0  0  0  0
 10 28  1  0  0  0  0
 11 16  1  0  0  0  0
 11 12  1  0  0  0  0
 11 29  1  0  0  0  0
 12 13  1  0  0  0  0
 12 30  1  0  0  0  0
 12 31  1  0  0  0  0
 13 14  1  0  0  0  0
 13 32  1  0  0  0  0
 13 33  1  0  0  0  0
 14 15  1  0  0  0  0
 14 34  1  0  0  0  0
 14 35  1  0  0  0  0
 15 16  1  0  0  0  0
 15 36  1  0  0  0  0
 15 37  1  0  0  0  0
 16 17  1  0  0  0  0
 16 38  1  0  0  0  0
 17 39  1  0  0  0  0
 18 19  2  0  0  0  0
 19 40  1  0  0  0  0
M  END
> <s_m_source_file>
AV-unprocessed.smi

> <i_m_source_file_index>
2215

> <i_lp_mmshare_version>
43012

> <i_f3d_flags>
0

> <s_epik_input>
W0NIM11jMVtjSF1bY0hdYyhuW2NIXTEpW05IXUMoPU8pW05IXVtDSDJdW0NAQEhdMltDSDJdW0NIMl1bQ0gyXVtDSDJdW0NASF0yW09IXQ==

> <s_epik_cmdline>
J2VwaWtfcHl0aG9uJywgJy1waCcsICc3LjAnLCAnLXRuJywgJzgnLCAnLW1hJywgJzIwMCcsICctbWV0YWxfYmluZGluZycsICctaW1hZScsICc8aW5maWxlLm1hZT4nLCAnLW9tYWUnLCAnPG91dGZpbGUubWFlPic=

> <r_lp_tautomer_probability>
1

> <r_epik_Ionization_Penalty>
6.08491e-05

> <r_epik_Ionization_Penalty_Charging>
0

> <r_epik_Ionization_Penalty_Neutral>
6.08491e-05

> <r_epik_State_Penalty>
-0

> <r_epik_Charging_Adjusted_Penalty>
0

> <i_epik_Tot_Q>
0

> <i_epik_Tot_abs_Q>
0

> <r_epik_Metal_State_Penalty>
-0

> <b_epik_Metal_Only>
0

> <s_lp_Force_Field>
OPLS_2005

> <r_lp_Energy>
13.8041

> <b_lp_Chiralities_Consistent>
1

> <s_lp_Variant>
AV-unprocessed.smi:2215-1

> <Gold.Version>
5.8.1

> <Gold.Id.Protein>
6NUR|6NUR_protein|mol2

> <Gold.PLP.Fitness>
44.7129

> <Gold.PLP.PLP>
-36.0437

> <Gold.PLP.part.hbond>
-3.6135

> <Gold.PLP.part.metal>
0.0000

> <Gold.PLP.part.buried>
-2.0594

> <Gold.PLP.part.nonpolar>
-30.7405

> <Gold.PLP.part.repulsive>
0.1561

> <Gold.PLP.ligand.clash>
0.0000

> <Gold.PLP.ligand.torsion>
0.0601

> <Gold.PLP.Chemscore.Hbond>
2.9280

> <Gold.PLP.Chemscore.CHOScore>
0.0000

> <Gold.PLP.Chemscore.Metal>
0.0000

> <Gold.Chemscore.Hbonds>
donor molecule, donor type, donor heavy atom, donor atom, acceptor molecule, acceptor atom, score
      L1  H     6    25       P1  7948  0.94
      L1  H     9    26       P1  7948  1.00
      L1  H    17    39       P1  7948  0.96

> <Gold.PLP.Chemscore.Internal.Correction>
0.0054

> <Gold.Rescore>
     Score         DG    S(hbond)    S(metal)    S(lipo)     H(rot)  DE(clash)    DE(int)     intcor
     14.89     -18.06       2.09        0.00      85.83       1.73       0.44       2.74       ----

> <Gold.Chemscore.Fitness>
14.8856

> <Gold.Chemscore.DG>
-18.0587

> <Gold.Chemscore.ZeroCoef>
-5.4800

> <Gold.Chemscore.Hbond>
2.0883

> <Gold.Chemscore.Metal>
0.0000

> <Gold.Chemscore.Lipo>
85.8324

> <Gold.Chemscore.Internal_Hbond>
0.0000

> <Gold.Chemscore.DEClash>
0.4358

> <Gold.Chemscore.DEInternal>
2.7373

> <Gold.Chemscore.Rot>
1.7339

> <Gold.Chemscore.Internal.Correction>
   9.000000E+99

> <Gold.Chemscore.Hbonds>
donor molecule, donor type, donor heavy atom, donor atom, acceptor molecule, acceptor atom, score
      L1  H     6    25       P1  7948  0.22
      L1  H     9    26       P1  7948  0.34
      L1  H    17    39       P1  7948  0.92

> <Gold.Chemscore.Hbond.Weighted>
-6.9750

> <Gold.Chemscore.Metal.Weighted>
-0.0000

> <Gold.Chemscore.Lipo.Weighted>
-10.0424

> <Gold.Chemscore.Internal_Hbond.Weighted>
0.0000

> <Gold.Chemscore.DEClash.Weighted>
0.4358

> <Gold.Chemscore.DEInternal.Weighted>
2.7373

> <Gold.Chemscore.Rot.Weighted>
4.4387

> <Gold.Chemscore.Internal.Correction.Weighted>
   9.000000E+99

> <Gold.Protein.RotatedTorsions>
[ 6907 6896 6895 6894 ] final  174.10 input  -60.11 | X-H torsion
[ 7974 7965 7964 7962 ] final  119.84 input  175.53 | X-H torsion
[ 8008 7997 7996 7995 ] final    7.33 input   59.86 | X-H torsion
[ 10167 10162 10161 10158 ] final  -92.95 input  -65.29 | X-H torsion
[ 10718 10713 10712 10709 ] final -168.21 input   66.30 | X-H torsion
[ 10763 10752 10751 10750 ] final -149.44 input  -60.55 | X-H torsion
[ 11005 11000 10999 10996 ] final   93.19 input  -57.11 | X-H torsion

> <Gold.Protein.ActiveResidues>
 VAL166  LYS551  ARG553  GLY616  TRP617  ASP618  TYR619  PRO620  LYS621  CYS622 
 ASP623  PHE694  ASN695  SER759  ASP760  ASP761  ALA762  ILE779  LEU786  VAL792 
 PHE793  MET794  SER795  GLU796  ALA797  LYS798  CYS799  TRP800  GLU811  SER814 

> <Gold.Protein.RotatedAtoms>
  151.7578  133.3331  159.3408 H   0  0  0  0  0  0  0  0  0  0  0  0  # atno 6907 bound_to 6896
  150.7510  134.6134  159.6107 H   0  0  0  0  0  0  0  0  0  0  0  0  # atno 6908 bound_to 6896
  152.3426  134.7116  160.0311 H   0  0  0  0  0  0  0  0  0  0  0  0  # atno 6909 bound_to 6896
  145.1384  139.3283  143.4629 H   0  0  0  0  0  0  0  0  0  0  0  0  # atno 7974 bound_to 7965
  154.7525  140.2769  155.6281 H   0  0  0  0  0  0  0  0  0  0  0  0  # atno 8008 bound_to 7997
  156.2898  140.2675  156.2209 H   0  0  0  0  0  0  0  0  0  0  0  0  # atno 8009 bound_to 7997
  155.0119  140.0372  157.2392 H   0  0  0  0  0  0  0  0  0  0  0  0  # atno 8010 bound_to 7997
  140.3296  143.3002  151.9956 H   0  0  0  0  0  0  0  0  0  0  0  0  # atno 10167 bound_to 10162
  156.6936  130.9169  151.3072 H   0  0  0  0  0  0  0  0  0  0  0  0  # atno 10718 bound_to 10713
  154.8177  135.3309  154.7129 H   0  0  0  0  0  0  0  0  0  0  0  0  # atno 10763 bound_to 10752
  153.7767  135.6921  153.4900 H   0  0  0  0  0  0  0  0  0  0  0  0  # atno 10764 bound_to 10752
  153.2008  135.4517  155.0212 H   0  0  0  0  0  0  0  0  0  0  0  0  # atno 10765 bound_to 10752
  139.8813  134.8776  156.3682 H   0  0  0  0  0  0  0  0  0  0  0  0  # atno 11005 bound_to 11000
  146.3507  140.1410  142.8594 LP  0  0  0  0  0  0  0  0  0  0  0  0  # atno 17320 bound_to 7965
  145.0559  140.9052  143.4967 LP  0  0  0  0  0  0  0  0  0  0  0  0  # atno 17321 bound_to 7965
  139.4859  144.6245  151.7190 LP  0  0  0  0  0  0  0  0  0  0  0  0  # atno 17342 bound_to 10162
  140.5409  144.0581  150.6088 LP  0  0  0  0  0  0  0  0  0  0  0  0  # atno 17343 bound_to 10162
  157.7000  130.9322  150.0756 LP  0  0  0  0  0  0  0  0  0  0  0  0  # atno 17370 bound_to 10713
  156.1780  130.3649  149.9074 LP  0  0  0  0  0  0  0  0  0  0  0  0  # atno 17371 bound_to 10713
  140.9482  133.7468  156.0237 LP  0  0  0  0  0  0  0  0  0  0  0  0  # atno 17394 bound_to 11000
  140.8137  134.3369  157.5404 LP  0  0  0  0  0  0  0  0  0  0  0  0  # atno 17395 bound_to 11000

$$$$
