AV-unprocessed.smi:1684|AV-procd|sdf|6756|dock7
  -GOLD-   22720 7513D 1   1.00000     0.00000
 Structure written by MMmdl.
 43 44  0  0  0  0  0  0  0  0  2 V2000
  151.6623  144.2621  157.7011 C   0  0  0  0  0  0  0  0  0  0  0  0
  152.1828  143.1645  158.6155 C   0  0  0  0  0  0  0  0  0  0  0  0
  152.8428  143.5187  159.8115 C   0  0  0  0  0  0  0  0  0  0  0  0
  153.3261  142.5036  160.6547 C   0  0  0  0  0  0  0  0  0  0  0  0
  153.1284  141.1686  160.2637 C   0  0  0  0  0  0  0  0  0  0  0  0
  152.4988  140.8210  159.1225 N   0  0  0  0  0  0  0  0  0  0  0  0
  152.0232  141.7888  158.2987 C   0  0  0  0  0  0  0  0  0  0  0  0
  151.3504  141.4948  157.0788 N   0  0  0  0  0  0  0  0  0  0  0  0
  151.0793  140.2910  156.5447 C   0  0  0  0  0  0  0  0  0  0  0  0
  151.3379  139.2055  157.0650 O   0  0  0  0  0  0  0  0  0  0  0  0
  150.4966  140.4114  155.3418 N   0  0  0  0  0  0  0  0  0  0  0  0
  150.0711  139.3082  154.4782 C   0  0  1  0  0  0  0  0  0  0  0  0
  151.2227  138.3018  154.3502 C   0  0  0  0  0  0  0  0  0  0  0  0
  148.7908  138.6280  155.0177 C   0  0  0  0  0  0  0  0  0  0  0  0
  147.9205  138.0877  153.9426 N   0  3  0  0  0  0  0  0  0  0  0  0
  146.8729  137.1609  154.4353 C   0  0  0  0  0  0  0  0  0  0  0  0
  146.0828  136.5800  153.2511 C   0  0  0  0  0  0  0  0  0  0  0  0
  145.5168  137.6412  152.4907 O   0  0  0  0  0  0  0  0  0  0  0  0
  146.5128  138.5004  151.9490 C   0  0  0  0  0  0  0  0  0  0  0  0
  147.3206  139.1407  153.0910 C   0  0  0  0  0  0  0  0  0  0  0  0
  151.8981  145.2512  158.0948 H   0  0  0  0  0  0  0  0  0  0  0  0
  150.5790  144.1916  157.5979 H   0  0  0  0  0  0  0  0  0  0  0  0
  152.1120  144.1808  156.7109 H   0  0  0  0  0  0  0  0  0  0  0  0
  152.9794  144.5556  160.0821 H   0  0  0  0  0  0  0  0  0  0  0  0
  153.8349  142.7422  161.5771 H   0  0  0  0  0  0  0  0  0  0  0  0
  153.4849  140.3577  160.8814 H   0  0  0  0  0  0  0  0  0  0  0  0
  151.0623  142.2993  156.5417 H   0  0  0  0  0  0  0  0  0  0  0  0
  150.3208  141.3440  154.9966 H   0  0  0  0  0  0  0  0  0  0  0  0
  149.8774  139.6941  153.4765 H   0  0  0  0  0  0  0  0  0  0  0  0
  150.9528  137.4800  153.6863 H   0  0  0  0  0  0  0  0  0  0  0  0
  151.4884  137.8742  155.3177 H   0  0  0  0  0  0  0  0  0  0  0  0
  152.1150  138.7752  153.9392 H   0  0  0  0  0  0  0  0  0  0  0  0
  149.0421  137.8310  155.7193 H   0  0  0  0  0  0  0  0  0  0  0  0
  148.2312  139.3693  155.5907 H   0  0  0  0  0  0  0  0  0  0  0  0
  147.3210  136.3478  155.0056 H   0  0  0  0  0  0  0  0  0  0  0  0
  146.1990  137.6908  155.1103 H   0  0  0  0  0  0  0  0  0  0  0  0
  146.7247  135.9642  152.6188 H   0  0  0  0  0  0  0  0  0  0  0  0
  145.2805  135.9370  153.6131 H   0  0  0  0  0  0  0  0  0  0  0  0
  147.1659  137.9409  151.2770 H   0  0  0  0  0  0  0  0  0  0  0  0
  146.0280  139.2728  151.3518 H   0  0  0  0  0  0  0  0  0  0  0  0
  146.6770  139.7809  153.6965 H   0  0  0  0  0  0  0  0  0  0  0  0
  148.1048  139.7731  152.6730 H   0  0  0  0  0  0  0  0  0  0  0  0
  148.5232  137.5481  153.3372 H   0  0  0  0  0  0  0  0  0  0  0  0
  1  2  1  0  0  0  0
  1 21  1  0  0  0  0
  1 22  1  0  0  0  0
  1 23  1  0  0  0  0
  2  7  1  0  0  0  0
  2  3  2  0  0  0  0
  3  4  1  0  0  0  0
  3 24  1  0  0  0  0
  4  5  2  0  0  0  0
  4 25  1  0  0  0  0
  5  6  1  0  0  0  0
  5 26  1  0  0  0  0
  6  7  2  0  0  0  0
  7  8  1  0  0  0  0
  8  9  1  0  0  0  0
  8 27  1  0  0  0  0
  9 10  2  0  0  0  0
  9 11  1  0  0  0  0
 11 12  1  0  0  0  0
 11 28  1  0  0  0  0
 12 13  1  0  0  0  0
 12 14  1  0  0  0  0
 12 29  1  0  0  0  0
 13 30  1  0  0  0  0
 13 31  1  0  0  0  0
 13 32  1  0  0  0  0
 14 15  1  0  0  0  0
 14 33  1  0  0  0  0
 14 34  1  0  0  0  0
 15 20  1  0  0  0  0
 15 16  1  0  0  0  0
 15 43  1  0  0  0  0
 16 17  1  0  0  0  0
 16 35  1  0  0  0  0
 16 36  1  0  0  0  0
 17 18  1  0  0  0  0
 17 37  1  0  0  0  0
 17 38  1  0  0  0  0
 18 19  1  0  0  0  0
 19 20  1  0  0  0  0
 19 39  1  0  0  0  0
 19 40  1  0  0  0  0
 20 41  1  0  0  0  0
 20 42  1  0  0  0  0
M  CHG  1  15   1
M  END
> <s_m_source_file>
AV-unprocessed.smi

> <i_m_source_file_index>
1684

> <i_lp_mmshare_version>
43012

> <i_f3d_flags>
0

> <s_epik_input>
W0NIM11jMVtjSF1bY0hdW2NIXW5jMVtOSF1DKD1PKVtOSF1bQ0BIXShbQ0gzXSlbQ0gyXU4yW0NIMl1bQ0gyXU9bQ0gyXVtDSDJdMg==

> <s_epik_cmdline>
J2VwaWtfcHl0aG9uJywgJy1waCcsICc3LjAnLCAnLXRuJywgJzgnLCAnLW1hJywgJzIwMCcsICctbWV0YWxfYmluZGluZycsICctaW1hZScsICc8aW5maWxlLm1hZT4nLCAnLW9tYWUnLCAnPG91dGZpbGUubWFlPic=

> <r_epik_Ionization_Penalty>
0.602571

> <r_epik_Ionization_Penalty_Charging>
0.602531

> <r_epik_Ionization_Penalty_Neutral>
4.09763e-05

> <r_epik_State_Penalty>
0.617039

> <r_epik_Charging_Adjusted_Penalty>
1.21957

> <i_epik_Tot_Q>
1

> <i_epik_Tot_abs_Q>
1

> <r_epik_Metal_State_Penalty>
0.617043

> <b_epik_Metal_Only>
0

> <s_lp_Force_Field>
OPLS_2005

> <r_lp_Energy>
24.8229

> <b_lp_Chiralities_Consistent>
1

> <s_lp_Variant>
AV-unprocessed.smi:1684-4

> <Gold.Version>
5.8.1

> <Gold.Id.Protein>
6NUR|6NUR_protein|mol2

> <Gold.PLP.Fitness>
42.8652

> <Gold.PLP.PLP>
-38.0032

> <Gold.PLP.part.hbond>
-1.0000

> <Gold.PLP.part.metal>
0.0000

> <Gold.PLP.part.buried>
-4.4861

> <Gold.PLP.part.nonpolar>
-34.4381

> <Gold.PLP.part.repulsive>
0.4607

> <Gold.PLP.ligand.clash>
0.0000

> <Gold.PLP.ligand.torsion>
0.5910

> <Gold.PLP.Chemscore.Hbond>
2.0000

> <Gold.PLP.Chemscore.CHOScore>
0.0000

> <Gold.PLP.Chemscore.Metal>
0.0000

> <Gold.Chemscore.Hbonds>
donor molecule, donor type, donor heavy atom, donor atom, acceptor molecule, acceptor atom, score
      L1  H    15    43       P1  7948  2.00

> <Gold.PLP.Chemscore.Internal.Correction>
0.0439

> <Gold.Rescore>
     Score         DG    S(hbond)    S(metal)    S(lipo)     H(rot)  DE(clash)    DE(int)     intcor
     13.52     -16.31       0.97        0.00      97.82       1.51       0.02       2.77       ----

> <Gold.Chemscore.Fitness>
13.5242

> <Gold.Chemscore.DG>
-16.3137

> <Gold.Chemscore.ZeroCoef>
-5.4800

> <Gold.Chemscore.Hbond>
0.9715

> <Gold.Chemscore.Metal>
0.0000

> <Gold.Chemscore.Lipo>
97.8166

> <Gold.Chemscore.Internal_Hbond>
0.0000

> <Gold.Chemscore.DEClash>
0.0209

> <Gold.Chemscore.DEInternal>
2.7686

> <Gold.Chemscore.Rot>
1.5061

> <Gold.Chemscore.Internal.Correction>
   9.000000E+99

> <Gold.Chemscore.Hbonds>
donor molecule, donor type, donor heavy atom, donor atom, acceptor molecule, acceptor atom, score
      L1  H    15    43       P1  7948  0.94

> <Gold.Chemscore.Hbond.Weighted>
-3.2449

> <Gold.Chemscore.Metal.Weighted>
-0.0000

> <Gold.Chemscore.Lipo.Weighted>
-11.4445

> <Gold.Chemscore.Internal_Hbond.Weighted>
0.0000

> <Gold.Chemscore.DEClash.Weighted>
0.0209

> <Gold.Chemscore.DEInternal.Weighted>
2.7686

> <Gold.Chemscore.Rot.Weighted>
3.8557

> <Gold.Chemscore.Internal.Correction.Weighted>
   9.000000E+99

> <Gold.Protein.RotatedTorsions>
[ 6907 6896 6895 6894 ] final  -28.25 input  -60.11 | X-H torsion
[ 7974 7965 7964 7962 ] final   91.74 input  175.53 | X-H torsion
[ 8008 7997 7996 7995 ] final   56.28 input   59.86 | X-H torsion
[ 10167 10162 10161 10158 ] final  162.35 input  -65.29 | X-H torsion
[ 10718 10713 10712 10709 ] final   53.90 input   66.30 | X-H torsion
[ 10763 10752 10751 10750 ] final   47.98 input  -60.55 | X-H torsion
[ 11005 11000 10999 10996 ] final   83.09 input  -57.11 | X-H torsion

> <Gold.Protein.ActiveResidues>
 VAL166  LYS551  ARG553  GLY616  TRP617  ASP618  TYR619  PRO620  LYS621  CYS622 
 ASP623  PHE694  ASN695  SER759  ASP760  ASP761  ALA762  ILE779  LEU786  VAL792 
 PHE793  MET794  SER795  GLU796  ALA797  LYS798  CYS799  TRP800  GLU811  SER814 

> <Gold.Protein.RotatedAtoms>
  151.1356  135.0153  159.8602 H   0  0  0  0  0  0  0  0  0  0  0  0  # atno 6907 bound_to 6896
  152.5452  134.1559  159.8548 H   0  0  0  0  0  0  0  0  0  0  0  0  # atno 6908 bound_to 6896
  151.1630  133.4788  159.2627 H   0  0  0  0  0  0  0  0  0  0  0  0  # atno 6909 bound_to 6896
  145.5016  139.2276  143.2774 H   0  0  0  0  0  0  0  0  0  0  0  0  # atno 7974 bound_to 7965
  155.5150  140.3478  155.4395 H   0  0  0  0  0  0  0  0  0  0  0  0  # atno 8008 bound_to 7997
  156.0824  140.1390  156.9723 H   0  0  0  0  0  0  0  0  0  0  0  0  # atno 8009 bound_to 7997
  154.4587  140.0943  156.6808 H   0  0  0  0  0  0  0  0  0  0  0  0  # atno 8010 bound_to 7997
  139.4859  144.4446  151.8908 H   0  0  0  0  0  0  0  0  0  0  0  0  # atno 10167 bound_to 10162
  157.5208  130.8564  149.8556 H   0  0  0  0  0  0  0  0  0  0  0  0  # atno 10718 bound_to 10713
  152.9795  135.5959  154.3851 H   0  0  0  0  0  0  0  0  0  0  0  0  # atno 10763 bound_to 10752
  154.3512  135.2767  155.2373 H   0  0  0  0  0  0  0  0  0  0  0  0  # atno 10764 bound_to 10752
  154.4411  135.6013  153.6185 H   0  0  0  0  0  0  0  0  0  0  0  0  # atno 10765 bound_to 10752
  139.9042  134.8119  156.2263 H   0  0  0  0  0  0  0  0  0  0  0  0  # atno 11005 bound_to 11000
  146.2222  140.5818  142.9012 LP  0  0  0  0  0  0  0  0  0  0  0  0  # atno 17320 bound_to 7965
  144.7777  140.5773  143.6627 LP  0  0  0  0  0  0  0  0  0  0  0  0  # atno 17321 bound_to 7965
  140.3900  144.2628  150.5900 LP  0  0  0  0  0  0  0  0  0  0  0  0  # atno 17342 bound_to 10162
  140.5155  143.2279  151.8470 LP  0  0  0  0  0  0  0  0  0  0  0  0  # atno 17343 bound_to 10162
  156.0352  130.3753  150.1579 LP  0  0  0  0  0  0  0  0  0  0  0  0  # atno 17370 bound_to 10713
  156.9767  130.9851  151.3446 LP  0  0  0  0  0  0  0  0  0  0  0  0  # atno 17371 bound_to 10713
  141.0374  133.6956  156.1536 LP  0  0  0  0  0  0  0  0  0  0  0  0  # atno 17394 bound_to 11000
  140.7007  134.4567  157.5586 LP  0  0  0  0  0  0  0  0  0  0  0  0  # atno 17395 bound_to 11000

$$$$
