AV-unprocessed.smi:1872|AV-procd|sdf|7605|dock6
  -GOLD-   22720 9323D 1   1.00000     0.00000
 Structure written by MMmdl.
 40 42  0  0  0  0  0  0  0  0  2 V2000
  148.9792  141.3192  155.1110 C   0  0  0  0  0  0  0  0  0  0  0  0
  150.0085  141.6784  156.1294 C   0  0  0  0  0  0  0  0  0  0  0  0
  150.4157  142.9388  156.4492 N   0  3  0  0  0  0  0  0  0  0  0  0
  151.3939  142.8811  157.4429 C   0  0  0  0  0  0  0  0  0  0  0  0
  152.1014  143.8938  158.0834 C   0  0  0  0  0  0  0  0  0  0  0  0
  153.0355  143.4926  159.0607 C   0  0  0  0  0  0  0  0  0  0  0  0
  153.2356  142.1313  159.3696 C   0  0  0  0  0  0  0  0  0  0  0  0
  152.5122  141.1138  158.7136 C   0  0  0  0  0  0  0  0  0  0  0  0
  151.5922  141.5181  157.7459 C   0  0  0  0  0  0  0  0  0  0  0  0
  150.7167  140.8136  156.9100 N   0  0  0  0  0  0  0  0  0  0  0  0
  150.6703  139.3439  156.9690 C   0  0  0  0  0  0  0  0  0  0  0  0
  149.2738  138.8006  157.3313 C   0  0  2  0  0  0  0  0  0  0  0  0
  149.0952  138.8117  158.7345 O   0  0  0  0  0  0  0  0  0  0  0  0
  149.0500  137.4207  156.7338 C   0  0  0  0  0  0  0  0  0  0  0  0
  147.8137  136.7664  156.9139 C   0  0  0  0  0  0  0  0  0  0  0  0
  147.5959  135.4934  156.3531 C   0  0  0  0  0  0  0  0  0  0  0  0
  148.6084  134.8530  155.6108 C   0  0  0  0  0  0  0  0  0  0  0  0
  148.3294  133.6159  155.0758 O   0  0  0  0  0  0  0  0  0  0  0  0
  149.2854  132.9709  154.3557 C   0  0  0  0  0  0  0  0  0  0  0  0
  150.2644  132.5332  155.1838 F   0  0  0  0  0  0  0  0  0  0  0  0
  148.7598  131.8868  153.7344 F   0  0  0  0  0  0  0  0  0  0  0  0
  149.8438  135.5169  155.4190 C   0  0  0  0  0  0  0  0  0  0  0  0
  150.0622  136.7904  155.9787 C   0  0  0  0  0  0  0  0  0  0  0  0
  148.5780  142.2159  154.6383 H   0  0  0  0  0  0  0  0  0  0  0  0
  148.1580  140.7768  155.5796 H   0  0  0  0  0  0  0  0  0  0  0  0
  149.4190  140.6873  154.3391 H   0  0  0  0  0  0  0  0  0  0  0  0
  151.9484  144.9372  157.8494 H   0  0  0  0  0  0  0  0  0  0  0  0
  153.6086  144.2436  159.5850 H   0  0  0  0  0  0  0  0  0  0  0  0
  153.9580  141.8614  160.1262 H   0  0  0  0  0  0  0  0  0  0  0  0
  152.6705  140.0754  158.9637 H   0  0  0  0  0  0  0  0  0  0  0  0
  150.9653  138.9749  155.9859 H   0  0  0  0  0  0  0  0  0  0  0  0
  151.4297  138.9855  157.6640 H   0  0  0  0  0  0  0  0  0  0  0  0
  148.5204  139.4737  156.9202 H   0  0  0  0  0  0  0  0  0  0  0  0
  149.3873  139.6474  159.0659 H   0  0  0  0  0  0  0  0  0  0  0  0
  147.0246  137.2390  157.4805 H   0  0  0  0  0  0  0  0  0  0  0  0
  146.6440  135.0028  156.4957 H   0  0  0  0  0  0  0  0  0  0  0  0
  149.7442  133.6268  153.6154 H   0  0  0  0  0  0  0  0  0  0  0  0
  150.6320  135.0631  154.8371 H   0  0  0  0  0  0  0  0  0  0  0  0
  151.0097  137.2844  155.8205 H   0  0  0  0  0  0  0  0  0  0  0  0
  150.0494  143.7775  156.0172 H   0  0  0  0  0  0  0  0  0  0  0  0
  1  2  1  0  0  0  0
  1 24  1  0  0  0  0
  1 25  1  0  0  0  0
  1 26  1  0  0  0  0
  2 10  1  0  0  0  0
  2  3  2  0  0  0  0
  3  4  1  0  0  0  0
  3 40  1  0  0  0  0
  4  9  2  0  0  0  0
  4  5  1  0  0  0  0
  5  6  2  0  0  0  0
  5 27  1  0  0  0  0
  6  7  1  0  0  0  0
  6 28  1  0  0  0  0
  7  8  2  0  0  0  0
  7 29  1  0  0  0  0
  8  9  1  0  0  0  0
  8 30  1  0  0  0  0
  9 10  1  0  0  0  0
 10 11  1  0  0  0  0
 11 12  1  0  0  0  0
 11 31  1  0  0  0  0
 11 32  1  0  0  0  0
 12 13  1  0  0  0  0
 12 14  1  0  0  0  0
 12 33  1  0  0  0  0
 13 34  1  0  0  0  0
 14 23  1  0  0  0  0
 14 15  2  0  0  0  0
 15 16  1  0  0  0  0
 15 35  1  0  0  0  0
 16 17  2  0  0  0  0
 16 36  1  0  0  0  0
 17 18  1  0  0  0  0
 17 22  1  0  0  0  0
 18 19  1  0  0  0  0
 19 20  1  0  0  0  0
 19 21  1  0  0  0  0
 19 37  1  0  0  0  0
 22 23  2  0  0  0  0
 22 38  1  0  0  0  0
 23 39  1  0  0  0  0
M  CHG  1   3   1
M  END
> <s_m_source_file>
AV-unprocessed.smi

> <i_m_source_file_index>
1872

> <i_lp_mmshare_version>
43012

> <i_f3d_flags>
0

> <s_epik_input>
W2NIXTFbY0hdW2NIXVtjSF1jKGMxMiluKGMobjIpW0NIM10pW0NIMl1bQ0BIXShbT0hdKWMzW2NIXVtjSF1jKE9bQ0hdKEYpRilbY0hdW2NIXTM=

> <s_epik_cmdline>
J2VwaWtfcHl0aG9uJywgJy1waCcsICc3LjAnLCAnLXRuJywgJzgnLCAnLW1hJywgJzIwMCcsICctbWV0YWxfYmluZGluZycsICctaW1hZScsICc8aW5maWxlLm1hZT4nLCAnLW9tYWUnLCAnPG91dGZpbGUubWFlPic=

> <r_lp_tautomer_probability>
1

> <r_epik_Ionization_Penalty>
0.963868

> <r_epik_Ionization_Penalty_Charging>
0.963868

> <r_epik_Ionization_Penalty_Neutral>
2.50501e-07

> <r_epik_State_Penalty>
1.00924

> <r_epik_Charging_Adjusted_Penalty>
1.9731

> <i_epik_Tot_Q>
1

> <i_epik_Tot_abs_Q>
1

> <r_epik_Metal_State_Penalty>
4.98304

> <b_epik_Metal_Only>
0

> <s_lp_Force_Field>
OPLS_2005

> <r_lp_Energy>
14.3509

> <b_lp_Chiralities_Consistent>
1

> <s_lp_Variant>
AV-unprocessed.smi:1872-3

> <Gold.Version>
5.8.1

> <Gold.Id.Protein>
6NUR|6NUR_protein|mol2

> <Gold.PLP.Fitness>
44.8269

> <Gold.PLP.PLP>
-39.5639

> <Gold.PLP.part.hbond>
-1.8366

> <Gold.PLP.part.metal>
0.0000

> <Gold.PLP.part.buried>
-6.0525

> <Gold.PLP.part.nonpolar>
-32.8269

> <Gold.PLP.part.repulsive>
0.1388

> <Gold.PLP.ligand.clash>
0.0000

> <Gold.PLP.ligand.torsion>
0.3660

> <Gold.PLP.Chemscore.Hbond>
1.9840

> <Gold.PLP.Chemscore.CHOScore>
0.0000

> <Gold.PLP.Chemscore.Metal>
0.0000

> <Gold.Chemscore.Hbonds>
donor molecule, donor type, donor heavy atom, donor atom, acceptor molecule, acceptor atom, score
      L1  H     3    40       P1  8028  2.00

> <Gold.PLP.Chemscore.Internal.Correction>
0.0429

> <Gold.Rescore>
     Score         DG    S(hbond)    S(metal)    S(lipo)     H(rot)  DE(clash)    DE(int)     intcor
     13.13     -13.61       0.98        0.00      92.25       2.32       0.01       0.47       ----

> <Gold.Chemscore.Fitness>
13.1251

> <Gold.Chemscore.DG>
-13.6095

> <Gold.Chemscore.ZeroCoef>
-5.4800

> <Gold.Chemscore.Hbond>
0.9804

> <Gold.Chemscore.Metal>
0.0000

> <Gold.Chemscore.Lipo>
92.2457

> <Gold.Chemscore.Internal_Hbond>
0.0000

> <Gold.Chemscore.DEClash>
0.0149

> <Gold.Chemscore.DEInternal>
0.4696

> <Gold.Chemscore.Rot>
2.3195

> <Gold.Chemscore.Internal.Correction>
   9.000000E+99

> <Gold.Chemscore.Hbonds>
donor molecule, donor type, donor heavy atom, donor atom, acceptor molecule, acceptor atom, score
      L1  H     3    40       P1  8028  0.91

> <Gold.Chemscore.Hbond.Weighted>
-3.2747

> <Gold.Chemscore.Metal.Weighted>
-0.0000

> <Gold.Chemscore.Lipo.Weighted>
-10.7927

> <Gold.Chemscore.Internal_Hbond.Weighted>
0.0000

> <Gold.Chemscore.DEClash.Weighted>
0.0149

> <Gold.Chemscore.DEInternal.Weighted>
0.4696

> <Gold.Chemscore.Rot.Weighted>
5.9379

> <Gold.Chemscore.Internal.Correction.Weighted>
   9.000000E+99

> <Gold.Protein.RotatedTorsions>
[ 6907 6896 6895 6894 ] final  168.51 input  -60.11 | X-H torsion
[ 7974 7965 7964 7962 ] final -127.76 input  175.53 | X-H torsion
[ 8008 7997 7996 7995 ] final -138.04 input   59.86 | X-H torsion
[ 10167 10162 10161 10158 ] final   53.96 input  -65.29 | X-H torsion
[ 10718 10713 10712 10709 ] final  -36.01 input   66.30 | X-H torsion
[ 10763 10752 10751 10750 ] final   66.13 input  -60.55 | X-H torsion
[ 11005 11000 10999 10996 ] final  -64.22 input  -57.11 | X-H torsion

> <Gold.Protein.ActiveResidues>
 VAL166  LYS551  ARG553  GLY616  TRP617  ASP618  TYR619  PRO620  LYS621  CYS622 
 ASP623  PHE694  ASN695  SER759  ASP760  ASP761  ALA762  ILE779  LEU786  VAL792 
 PHE793  MET794  SER795  GLU796  ALA797  LYS798  CYS799  TRP800  GLU811  SER814 

> <Gold.Protein.RotatedAtoms>
  151.8465  133.3432  159.3659 H   0  0  0  0  0  0  0  0  0  0  0  0  # atno 6907 bound_to 6896
  150.7219  134.5341  159.5724 H   0  0  0  0  0  0  0  0  0  0  0  0  # atno 6908 bound_to 6896
  152.2825  134.7813  160.0445 H   0  0  0  0  0  0  0  0  0  0  0  0  # atno 6909 bound_to 6896
  144.9738  140.7572  143.4654 H   0  0  0  0  0  0  0  0  0  0  0  0  # atno 7974 bound_to 7965
  155.4218  140.0519  157.3025 H   0  0  0  0  0  0  0  0  0  0  0  0  # atno 8008 bound_to 7997
  154.4899  140.2116  155.9530 H   0  0  0  0  0  0  0  0  0  0  0  0  # atno 8009 bound_to 7997
  156.1328  140.3168  155.8379 H   0  0  0  0  0  0  0  0  0  0  0  0  # atno 8010 bound_to 7997
  140.2352  144.3644  150.6400 H   0  0  0  0  0  0  0  0  0  0  0  0  # atno 10167 bound_to 10162
  156.3319  130.4280  149.7865 H   0  0  0  0  0  0  0  0  0  0  0  0  # atno 10718 bound_to 10713
  153.0126  135.5332  154.6775 H   0  0  0  0  0  0  0  0  0  0  0  0  # atno 10763 bound_to 10752
  154.5944  135.2862  155.0604 H   0  0  0  0  0  0  0  0  0  0  0  0  # atno 10764 bound_to 10752
  154.1685  135.6536  153.5056 H   0  0  0  0  0  0  0  0  0  0  0  0  # atno 10765 bound_to 10752
  141.1418  133.6662  156.5799 H   0  0  0  0  0  0  0  0  0  0  0  0  # atno 11005 bound_to 11000
  145.2519  139.2028  143.4938 LP  0  0  0  0  0  0  0  0  0  0  0  0  # atno 17320 bound_to 7965
  146.3390  140.2434  142.8596 LP  0  0  0  0  0  0  0  0  0  0  0  0  # atno 17321 bound_to 7965
  140.6155  143.2172  151.6800 LP  0  0  0  0  0  0  0  0  0  0  0  0  # atno 17342 bound_to 10162
  139.5096  144.3571  152.0597 LP  0  0  0  0  0  0  0  0  0  0  0  0  # atno 17343 bound_to 10162
  156.5134  130.8182  151.3177 LP  0  0  0  0  0  0  0  0  0  0  0  0  # atno 17370 bound_to 10713
  157.7432  130.9906  150.2572 LP  0  0  0  0  0  0  0  0  0  0  0  0  # atno 17371 bound_to 10713
  140.3846  134.7494  157.4683 LP  0  0  0  0  0  0  0  0  0  0  0  0  # atno 17394 bound_to 11000
  140.0612  134.5993  155.8747 LP  0  0  0  0  0  0  0  0  0  0  0  0  # atno 17395 bound_to 11000

$$$$
