AV-unprocessed.smi:2214|AV-procd|sdf|8959|dock7
  -GOLD-   2272012173D 1   1.00000     0.00000
 Structure written by MMmdl.
 41 42  0  0  0  0  0  0  0  0  1 V2000
  153.1778  140.9797  159.4352 C   0  0  0  0  0  0  0  0  0  0  0  0
  152.1533  141.2273  158.3470 C   0  0  0  0  0  0  0  0  0  0  0  0
  151.2282  142.2831  158.4671 C   0  0  0  0  0  0  0  0  0  0  0  0
  150.2822  142.5068  157.4502 C   0  0  0  0  0  0  0  0  0  0  0  0
  150.2573  141.6781  156.3119 C   0  0  0  0  0  0  0  0  0  0  0  0
  149.0833  141.9703  155.0781 Cl  0  0  0  0  0  0  0  0  0  0  0  0
  151.1773  140.6149  156.1777 C   0  0  0  0  0  0  0  0  0  0  0  0
  151.0923  139.8477  155.0359 O   0  0  0  0  0  0  0  0  0  0  0  0
  151.9492  138.7215  154.9068 C   0  0  0  0  0  0  0  0  0  0  0  0
  151.0768  137.4906  154.6195 C   0  0  1  0  0  0  0  0  0  0  0  0
  151.8524  136.5945  153.8500 O   0  0  0  0  0  0  0  0  0  0  0  0
  150.6202  136.7808  155.9161 C   0  0  0  0  0  0  0  0  0  0  0  0
  150.5010  135.3262  155.7289 N   0  0  0  0  0  0  0  0  0  0  0  0
  149.5593  134.8953  154.7786 C   0  0  0  0  0  0  0  0  0  0  0  0
  149.3786  133.6411  154.5227 N   0  0  0  0  0  0  0  0  0  0  0  0
  150.1340  132.6768  155.1962 C   0  0  0  0  0  0  0  0  0  0  0  0
  149.8424  131.2351  154.8190 C   0  0  0  0  0  0  0  0  0  0  0  0
  151.0671  133.0292  156.1227 C   0  0  0  0  0  0  0  0  0  0  0  0
  151.9198  132.0233  156.8859 C   0  0  0  0  0  0  0  0  0  0  0  0
  151.2871  134.4537  156.4217 C   0  0  0  0  0  0  0  0  0  0  0  0
  152.1221  134.8433  157.2403 O   0  0  0  0  0  0  0  0  0  0  0  0
  152.1278  140.3976  157.2073 C   0  0  0  0  0  0  0  0  0  0  0  0
  153.0214  141.6414  160.2875 H   0  0  0  0  0  0  0  0  0  0  0  0
  154.1841  141.1494  159.0514 H   0  0  0  0  0  0  0  0  0  0  0  0
  153.1137  139.9503  159.7885 H   0  0  0  0  0  0  0  0  0  0  0  0
  151.2396  142.9246  159.3363 H   0  0  0  0  0  0  0  0  0  0  0  0
  149.5735  143.3163  157.5451 H   0  0  0  0  0  0  0  0  0  0  0  0
  152.6434  138.8860  154.0809 H   0  0  0  0  0  0  0  0  0  0  0  0
  152.5309  138.5675  155.8174 H   0  0  0  0  0  0  0  0  0  0  0  0
  150.2202  137.8031  154.0203 H   0  0  0  0  0  0  0  0  0  0  0  0
  151.3487  136.3315  153.0949 H   0  0  0  0  0  0  0  0  0  0  0  0
  151.2779  137.0302  156.7511 H   0  0  0  0  0  0  0  0  0  0  0  0
  149.6502  137.1716  156.2307 H   0  0  0  0  0  0  0  0  0  0  0  0
  149.0036  135.6885  154.2748 H   0  0  0  0  0  0  0  0  0  0  0  0
  149.5027  130.6726  155.6892 H   0  0  0  0  0  0  0  0  0  0  0  0
  150.7376  130.7567  154.4211 H   0  0  0  0  0  0  0  0  0  0  0  0
  149.0644  131.1735  154.0571 H   0  0  0  0  0  0  0  0  0  0  0  0
  152.9768  132.1936  156.6789 H   0  0  0  0  0  0  0  0  0  0  0  0
  151.6970  130.9889  156.6294 H   0  0  0  0  0  0  0  0  0  0  0  0
  151.7629  132.1356  157.9595 H   0  0  0  0  0  0  0  0  0  0  0  0
  152.8519  139.5996  157.1422 H   0  0  0  0  0  0  0  0  0  0  0  0
  1  2  1  0  0  0  0
  1 23  1  0  0  0  0
  1 24  1  0  0  0  0
  1 25  1  0  0  0  0
  2 22  1  0  0  0  0
  2  3  2  0  0  0  0
  3  4  1  0  0  0  0
  3 26  1  0  0  0  0
  4  5  2  0  0  0  0
  4 27  1  0  0  0  0
  5  6  1  0  0  0  0
  5  7  1  0  0  0  0
  7  8  1  0  0  0  0
  7 22  2  0  0  0  0
  8  9  1  0  0  0  0
  9 10  1  0  0  0  0
  9 28  1  0  0  0  0
  9 29  1  0  0  0  0
 10 11  1  0  0  0  0
 10 12  1  0  0  0  0
 10 30  1  0  0  0  0
 11 31  1  0  0  0  0
 12 13  1  0  0  0  0
 12 32  1  0  0  0  0
 12 33  1  0  0  0  0
 13 20  1  0  0  0  0
 13 14  1  0  0  0  0
 14 15  2  0  0  0  0
 14 34  1  0  0  0  0
 15 16  1  0  0  0  0
 16 17  1  0  0  0  0
 16 18  2  0  0  0  0
 17 35  1  0  0  0  0
 17 36  1  0  0  0  0
 17 37  1  0  0  0  0
 18 19  1  0  0  0  0
 18 20  1  0  0  0  0
 19 38  1  0  0  0  0
 19 39  1  0  0  0  0
 19 40  1  0  0  0  0
 20 21  2  0  0  0  0
 22 41  1  0  0  0  0
M  END
> <s_m_source_file>
AV-unprocessed.smi

> <i_m_source_file_index>
2214

> <i_lp_mmshare_version>
43012

> <i_f3d_flags>
0

> <s_epik_input>
W0NIM11jMVtjSF1bY0hdYyhDbCljKFtjSF0xKU9bQ0gyXVtDQEhdKFtPSF0pW0NIMl1uMltjSF1uYyhbQ0gzXSljKFtDSDNdKWMyPU8=

> <s_epik_cmdline>
J2VwaWtfcHl0aG9uJywgJy1waCcsICc3LjAnLCAnLXRuJywgJzgnLCAnLW1hJywgJzIwMCcsICctbWV0YWxfYmluZGluZycsICctaW1hZScsICc8aW5maWxlLm1hZT4nLCAnLW9tYWUnLCAnPG91dGZpbGUubWFlPic=

> <r_lp_tautomer_probability>
1

> <r_epik_Ionization_Penalty>
3.50205e-05

> <r_epik_Ionization_Penalty_Charging>
7.87908e-08

> <r_epik_Ionization_Penalty_Neutral>
3.49418e-05

> <r_epik_State_Penalty>
-0

> <r_epik_Charging_Adjusted_Penalty>
7.87908e-08

> <i_epik_Tot_Q>
0

> <i_epik_Tot_abs_Q>
0

> <r_epik_Metal_State_Penalty>
-0

> <b_epik_Metal_Only>
0

> <s_lp_Force_Field>
OPLS_2005

> <r_lp_Energy>
22.3765

> <b_lp_Chiralities_Consistent>
1

> <s_lp_Variant>
AV-unprocessed.smi:2214-2

> <Gold.Version>
5.8.1

> <Gold.Id.Protein>
6NUR|6NUR_protein|mol2

> <Gold.PLP.Fitness>
49.0637

> <Gold.PLP.PLP>
-39.4594

> <Gold.PLP.part.hbond>
-3.6679

> <Gold.PLP.part.metal>
0.0000

> <Gold.PLP.part.buried>
-1.7953

> <Gold.PLP.part.nonpolar>
-34.6961

> <Gold.PLP.part.repulsive>
0.1706

> <Gold.PLP.ligand.clash>
0.0000

> <Gold.PLP.ligand.torsion>
1.1723

> <Gold.PLP.Chemscore.Hbond>
2.9913

> <Gold.PLP.Chemscore.CHOScore>
0.9745

> <Gold.PLP.Chemscore.Metal>
0.0000

> <Gold.Chemscore.Hbonds>
donor molecule, donor type, donor heavy atom, donor atom, acceptor molecule, acceptor atom, score
      L1  H    11    31       P1  7949  1.00
      P1  H  7989  7998       L1     8  1.00
      P1  H 10752 10765       L1    11  1.00
      L1  C    14    34       P1  7948  0.94

> <Gold.PLP.Chemscore.Internal.Correction>
0.0516

> <Gold.Rescore>
     Score         DG    S(hbond)    S(metal)    S(lipo)     H(rot)  DE(clash)    DE(int)     intcor
     15.67     -18.17       2.11        0.00      99.48       2.35       1.39       1.11       ----

> <Gold.Chemscore.Fitness>
15.6680

> <Gold.Chemscore.DG>
-18.1691

> <Gold.Chemscore.ZeroCoef>
-5.4800

> <Gold.Chemscore.Hbond>
2.1148

> <Gold.Chemscore.Metal>
0.0000

> <Gold.Chemscore.Lipo>
99.4792

> <Gold.Chemscore.Internal_Hbond>
0.0000

> <Gold.Chemscore.DEClash>
1.3899

> <Gold.Chemscore.DEInternal>
1.1113

> <Gold.Chemscore.Rot>
2.3490

> <Gold.Chemscore.Internal.Correction>
   9.000000E+99

> <Gold.Chemscore.Hbonds>
donor molecule, donor type, donor heavy atom, donor atom, acceptor molecule, acceptor atom, score
      L1  H    11    31       P1  7949  0.72
      P1  H  7989  7998       L1     8  0.19
      P1  H 10752 10765       L1    11  0.87

> <Gold.Chemscore.Hbond.Weighted>
-7.0636

> <Gold.Chemscore.Metal.Weighted>
-0.0000

> <Gold.Chemscore.Lipo.Weighted>
-11.6391

> <Gold.Chemscore.Internal_Hbond.Weighted>
0.0000

> <Gold.Chemscore.DEClash.Weighted>
1.3899

> <Gold.Chemscore.DEInternal.Weighted>
1.1113

> <Gold.Chemscore.Rot.Weighted>
6.0136

> <Gold.Chemscore.Internal.Correction.Weighted>
   9.000000E+99

> <Gold.Protein.RotatedTorsions>
[ 6907 6896 6895 6894 ] final -149.42 input  -60.11 | X-H torsion
[ 7974 7965 7964 7962 ] final   27.32 input  175.53 | X-H torsion
[ 8008 7997 7996 7995 ] final  165.57 input   59.86 | X-H torsion
[ 10167 10162 10161 10158 ] final  157.33 input  -65.29 | X-H torsion
[ 10718 10713 10712 10709 ] final  102.12 input   66.30 | X-H torsion
[ 10763 10752 10751 10750 ] final  168.66 input  -60.55 | X-H torsion
[ 11005 11000 10999 10996 ] final   57.08 input  -57.11 | X-H torsion

> <Gold.Protein.ActiveResidues>
 VAL166  LYS551  ARG553  GLY616  TRP617  ASP618  TYR619  PRO620  LYS621  CYS622 
 ASP623  PHE694  ASN695  SER759  ASP760  ASP761  ALA762  ILE779  LEU786  VAL792 
 PHE793  MET794  SER795  GLU796  ALA797  LYS798  CYS799  TRP800  GLU811  SER814 

> <Gold.Protein.RotatedAtoms>
  151.1838  133.4708  159.2594 H   0  0  0  0  0  0  0  0  0  0  0  0  # atno 6907 bound_to 6896
  151.1232  135.0090  159.8558 H   0  0  0  0  0  0  0  0  0  0  0  0  # atno 6908 bound_to 6896
  152.5457  134.1748  159.8664 H   0  0  0  0  0  0  0  0  0  0  0  0  # atno 6909 bound_to 6896
  146.1790  139.7207  142.8914 H   0  0  0  0  0  0  0  0  0  0  0  0  # atno 7974 bound_to 7965
  156.1789  140.1666  156.8310 H   0  0  0  0  0  0  0  0  0  0  0  0  # atno 8008 bound_to 7997
  154.5338  140.0751  156.8425 H   0  0  0  0  0  0  0  0  0  0  0  0  # atno 8009 bound_to 7997
  155.3353  140.3381  155.4241 H   0  0  0  0  0  0  0  0  0  0  0  0  # atno 8010 bound_to 7997
  139.4823  144.4927  151.8284 H   0  0  0  0  0  0  0  0  0  0  0  0  # atno 10167 bound_to 10162
  157.6811  131.0744  150.5356 H   0  0  0  0  0  0  0  0  0  0  0  0  # atno 10718 bound_to 10713
  154.3719  135.2753  155.2261 H   0  0  0  0  0  0  0  0  0  0  0  0  # atno 10763 bound_to 10752
  154.4405  135.5955  153.6130 H   0  0  0  0  0  0  0  0  0  0  0  0  # atno 10764 bound_to 10752
  152.9838  135.6017  154.3951 H   0  0  0  0  0  0  0  0  0  0  0  0  # atno 10765 bound_to 10752
  140.0480  134.5778  155.9299 H   0  0  0  0  0  0  0  0  0  0  0  0  # atno 11005 bound_to 11000
  145.4130  141.0398  143.3007 LP  0  0  0  0  0  0  0  0  0  0  0  0  # atno 17320 bound_to 7965
  144.8284  139.5671  143.6955 LP  0  0  0  0  0  0  0  0  0  0  0  0  # atno 17321 bound_to 7965
  140.4413  144.1982  150.5891 LP  0  0  0  0  0  0  0  0  0  0  0  0  # atno 17342 bound_to 10162
  140.4680  143.2423  151.9129 LP  0  0  0  0  0  0  0  0  0  0  0  0  # atno 17343 bound_to 10162
  156.5665  130.4269  149.6039 LP  0  0  0  0  0  0  0  0  0  0  0  0  # atno 17370 bound_to 10713
  156.2777  130.7053  151.1868 LP  0  0  0  0  0  0  0  0  0  0  0  0  # atno 17371 bound_to 10713
  141.1916  133.6572  156.5465 LP  0  0  0  0  0  0  0  0  0  0  0  0  # atno 17394 bound_to 11000
  140.3963  134.7396  157.4752 LP  0  0  0  0  0  0  0  0  0  0  0  0  # atno 17395 bound_to 11000

$$$$
