AV-unprocessed.smi:2664|AV-procd|sdf|10327|dock2
  -GOLD-   2272014343D 1   1.00000     0.00000
 Structure written by MMmdl.
 43 44  0  0  0  0  0  0  0  0  1 V2000
  144.3795  136.6053  151.9437 O   0  0  0  0  0  0  0  0  0  0  0  0
  145.5808  136.3590  152.0482 C   0  0  0  0  0  0  0  0  0  0  0  0
  146.1944  135.2623  151.5709 N   0  0  0  0  0  0  0  0  0  0  0  0
  145.6251  134.1372  150.9145 C   0  0  0  0  0  0  0  0  0  0  0  0
  146.4913  133.0884  150.5419 C   0  0  0  0  0  0  0  0  0  0  0  0
  145.9504  131.9528  149.9066 C   0  0  0  0  0  0  0  0  0  0  0  0
  144.6354  131.8081  149.6402 N   0  0  0  0  0  0  0  0  0  0  0  0
  143.8055  132.8069  150.0092 C   0  0  0  0  0  0  0  0  0  0  0  0
  144.2427  133.9838  150.6492 C   0  0  0  0  0  0  0  0  0  0  0  0
  146.4589  137.1785  152.6467 N   0  0  0  0  0  0  0  0  0  0  0  0
  146.1467  138.4615  153.2828 C   0  0  1  0  0  0  0  0  0  0  0  0
  145.4450  138.1912  154.6385 C   0  0  0  0  0  0  0  0  0  0  0  0
  144.0726  137.4984  154.5394 C   0  0  0  0  0  0  0  0  0  0  0  0
  143.2016  138.2380  153.7101 O   0  0  0  0  0  0  0  0  0  0  0  0
  147.4385  139.3208  153.4100 C   0  0  0  0  0  0  0  0  0  0  0  0
  148.5029  138.6591  154.3199 C   0  0  0  0  0  0  0  0  0  0  0  0
  149.7727  139.5147  154.4574 C   0  0  0  0  0  0  0  0  0  0  0  0
  149.4468  140.9222  154.9711 C   0  0  0  0  0  0  0  0  0  0  0  0
  148.4150  141.6032  154.0641 C   0  0  0  0  0  0  0  0  0  0  0  0
  147.1427  140.7516  153.9303 C   0  0  0  0  0  0  0  0  0  0  0  0
  147.1998  135.2464  151.6578 H   0  0  0  0  0  0  0  0  0  0  0  0
  147.5526  133.1503  150.7333 H   0  0  0  0  0  0  0  0  0  0  0  0
  146.5919  131.1373  149.6069 H   0  0  0  0  0  0  0  0  0  0  0  0
  142.7572  132.6608  149.7941 H   0  0  0  0  0  0  0  0  0  0  0  0
  143.5137  134.7280  150.9303 H   0  0  0  0  0  0  0  0  0  0  0  0
  147.4264  136.8917  152.6721 H   0  0  0  0  0  0  0  0  0  0  0  0
  145.4482  139.0206  152.6579 H   0  0  0  0  0  0  0  0  0  0  0  0
  146.0994  137.5798  155.2608 H   0  0  0  0  0  0  0  0  0  0  0  0
  145.2990  139.1230  155.1826 H   0  0  0  0  0  0  0  0  0  0  0  0
  144.1596  136.4797  154.1620 H   0  0  0  0  0  0  0  0  0  0  0  0
  143.6225  137.4278  155.5299 H   0  0  0  0  0  0  0  0  0  0  0  0
  143.6648  138.9951  153.3851 H   0  0  0  0  0  0  0  0  0  0  0  0
  147.8712  139.4187  152.4130 H   0  0  0  0  0  0  0  0  0  0  0  0
  148.0790  138.4777  155.3086 H   0  0  0  0  0  0  0  0  0  0  0  0
  148.7995  137.6879  153.9276 H   0  0  0  0  0  0  0  0  0  0  0  0
  150.4757  139.0278  155.1339 H   0  0  0  0  0  0  0  0  0  0  0  0
  150.2728  139.5842  153.4904 H   0  0  0  0  0  0  0  0  0  0  0  0
  149.0590  140.8616  155.9886 H   0  0  0  0  0  0  0  0  0  0  0  0
  150.3559  141.5223  155.0195 H   0  0  0  0  0  0  0  0  0  0  0  0
  148.1630  142.5861  154.4630 H   0  0  0  0  0  0  0  0  0  0  0  0
  148.8476  141.7721  153.0773 H   0  0  0  0  0  0  0  0  0  0  0  0
  146.4572  141.2739  153.2634 H   0  0  0  0  0  0  0  0  0  0  0  0
  146.6420  140.6920  154.8978 H   0  0  0  0  0  0  0  0  0  0  0  0
  1  2  2  0  0  0  0
  2  3  1  0  0  0  0
  2 10  1  0  0  0  0
  3  4  1  0  0  0  0
  3 21  1  0  0  0  0
  4  9  1  0  0  0  0
  4  5  2  0  0  0  0
  5  6  1  0  0  0  0
  5 22  1  0  0  0  0
  6  7  2  0  0  0  0
  6 23  1  0  0  0  0
  7  8  1  0  0  0  0
  8  9  2  0  0  0  0
  8 24  1  0  0  0  0
  9 25  1  0  0  0  0
 10 11  1  0  0  0  0
 10 26  1  0  0  0  0
 11 12  1  0  0  0  0
 11 15  1  0  0  0  0
 11 27  1  0  0  0  0
 12 13  1  0  0  0  0
 12 28  1  0  0  0  0
 12 29  1  0  0  0  0
 13 14  1  0  0  0  0
 13 30  1  0  0  0  0
 13 31  1  0  0  0  0
 14 32  1  0  0  0  0
 15 20  1  0  0  0  0
 15 16  1  0  0  0  0
 15 33  1  0  0  0  0
 16 17  1  0  0  0  0
 16 34  1  0  0  0  0
 16 35  1  0  0  0  0
 17 18  1  0  0  0  0
 17 36  1  0  0  0  0
 17 37  1  0  0  0  0
 18 19  1  0  0  0  0
 18 38  1  0  0  0  0
 18 39  1  0  0  0  0
 19 20  1  0  0  0  0
 19 40  1  0  0  0  0
 19 41  1  0  0  0  0
 20 42  1  0  0  0  0
 20 43  1  0  0  0  0
M  END
> <s_m_source_file>
AV-unprocessed.smi

> <i_m_source_file_index>
2664

> <i_lp_mmshare_version>
43012

> <i_f3d_flags>
0

> <s_epik_input>
W2NIXTFbY0hdbltjSF1bY0hdYzFbTkhdQyg9TylbTkhdW0NASF0oW0NIMl1bQ0gyXVtPSF0pW0NIXTJbQ0gyXVtDSDJdW0NIMl1bQ0gyXVtDSDJdMg==

> <s_epik_cmdline>
J2VwaWtfcHl0aG9uJywgJy1waCcsICc3LjAnLCAnLXRuJywgJzgnLCAnLW1hJywgJzIwMCcsICctbWV0YWxfYmluZGluZycsICctaW1hZScsICc8aW5maWxlLm1hZT4nLCAnLW9tYWUnLCAnPG91dGZpbGUubWFlPic=

> <r_epik_Ionization_Penalty>
0.119281

> <r_epik_Ionization_Penalty_Charging>
0

> <r_epik_Ionization_Penalty_Neutral>
0.119281

> <r_epik_State_Penalty>
0.108806

> <r_epik_Charging_Adjusted_Penalty>
0.108806

> <i_epik_Tot_Q>
0

> <i_epik_Tot_abs_Q>
0

> <r_epik_Metal_State_Penalty>
0.0904205

> <b_epik_Metal_Only>
0

> <s_lp_Force_Field>
OPLS_2005

> <r_lp_Energy>
21.6864

> <b_lp_Chiralities_Consistent>
1

> <s_lp_Variant>
AV-unprocessed.smi:2664-2

> <Gold.Version>
5.8.1

> <Gold.Id.Protein>
6NUR|6NUR_protein|mol2

> <Gold.PLP.Fitness>
49.9315

> <Gold.PLP.PLP>
-35.7338

> <Gold.PLP.part.hbond>
-3.9885

> <Gold.PLP.part.metal>
0.0000

> <Gold.PLP.part.buried>
-4.5677

> <Gold.PLP.part.nonpolar>
-29.0746

> <Gold.PLP.part.repulsive>
0.9773

> <Gold.PLP.ligand.clash>
0.0000

> <Gold.PLP.ligand.torsion>
0.2696

> <Gold.PLP.Chemscore.Hbond>
3.0589

> <Gold.PLP.Chemscore.CHOScore>
1.8389

> <Gold.PLP.Chemscore.Metal>
0.0000

> <Gold.Chemscore.Hbonds>
donor molecule, donor type, donor heavy atom, donor atom, acceptor molecule, acceptor atom, score
      L1  H     3    21       P1  7948  1.00
      L1  H    10    26       P1  7948  1.00
      L1  H    14    32       P1 10175  0.96
      P1  H 10785 10796       L1     7  0.08
      L1  C     6    23       P1 10747  0.93
      L1  C     8    24       P1 10186  0.96

> <Gold.PLP.Chemscore.Internal.Correction>
0.0433

> <Gold.Rescore>
     Score         DG    S(hbond)    S(metal)    S(lipo)     H(rot)  DE(clash)    DE(int)     intcor
     16.78     -19.79       2.91        0.00      87.99       2.23       0.07       2.95       ----

> <Gold.Chemscore.Fitness>
16.7752

> <Gold.Chemscore.DG>
-19.7937

> <Gold.Chemscore.ZeroCoef>
-5.4800

> <Gold.Chemscore.Hbond>
2.9087

> <Gold.Chemscore.Metal>
0.0000

> <Gold.Chemscore.Lipo>
87.9900

> <Gold.Chemscore.Internal_Hbond>
0.0000

> <Gold.Chemscore.DEClash>
0.0697

> <Gold.Chemscore.DEInternal>
2.9489

> <Gold.Chemscore.Rot>
2.2251

> <Gold.Chemscore.Internal.Correction>
   9.000000E+99

> <Gold.Chemscore.Hbonds>
donor molecule, donor type, donor heavy atom, donor atom, acceptor molecule, acceptor atom, score
      L1  H     3    21       P1  7948  0.89
      L1  H    10    26       P1  7948  0.95
      L1  H    14    32       P1 10175  0.92
      P1  H 10785 10796       L1     7  0.04

> <Gold.Chemscore.Hbond.Weighted>
-9.7151

> <Gold.Chemscore.Metal.Weighted>
-0.0000

> <Gold.Chemscore.Lipo.Weighted>
-10.2948

> <Gold.Chemscore.Internal_Hbond.Weighted>
0.0000

> <Gold.Chemscore.DEClash.Weighted>
0.0697

> <Gold.Chemscore.DEInternal.Weighted>
2.9489

> <Gold.Chemscore.Rot.Weighted>
5.6962

> <Gold.Chemscore.Internal.Correction.Weighted>
   9.000000E+99

> <Gold.Protein.RotatedTorsions>
[ 6907 6896 6895 6894 ] final  145.51 input  -60.11 | X-H torsion
[ 7974 7965 7964 7962 ] final  -69.30 input  175.53 | X-H torsion
[ 8008 7997 7996 7995 ] final  -37.31 input   59.86 | X-H torsion
[ 10167 10162 10161 10158 ] final  151.96 input  -65.29 | X-H torsion
[ 10718 10713 10712 10709 ] final    5.21 input   66.30 | X-H torsion
[ 10763 10752 10751 10750 ] final   15.67 input  -60.55 | X-H torsion
[ 11005 11000 10999 10996 ] final   90.63 input  -57.11 | X-H torsion

> <Gold.Protein.ActiveResidues>
 VAL166  LYS551  ARG553  GLY616  TRP617  ASP618  TYR619  PRO620  LYS621  CYS622 
 ASP623  PHE694  ASN695  SER759  ASP760  ASP761  ALA762  ILE779  LEU786  VAL792 
 PHE793  MET794  SER795  GLU796  ALA797  LYS798  CYS799  TRP800  GLU811  SER814 

> <Gold.Protein.RotatedAtoms>
  152.1799  133.4700  159.4952 H   0  0  0  0  0  0  0  0  0  0  0  0  # atno 6907 bound_to 6896
  150.6933  134.1846  159.4271 H   0  0  0  0  0  0  0  0  0  0  0  0  # atno 6908 bound_to 6896
  151.9757  135.0054  160.0605 H   0  0  0  0  0  0  0  0  0  0  0  0  # atno 6909 bound_to 6896
  145.7055  140.9099  143.0708 H   0  0  0  0  0  0  0  0  0  0  0  0  # atno 7974 bound_to 7965
  154.4056  140.1607  156.2516 H   0  0  0  0  0  0  0  0  0  0  0  0  # atno 8008 bound_to 7997
  155.9114  140.3427  155.6079 H   0  0  0  0  0  0  0  0  0  0  0  0  # atno 8009 bound_to 7997
  155.7332  140.0783  157.2270 H   0  0  0  0  0  0  0  0  0  0  0  0  # atno 8010 bound_to 7997
  139.4836  144.5398  151.7584 H   0  0  0  0  0  0  0  0  0  0  0  0  # atno 10167 bound_to 10162
  156.9040  130.5732  149.5647 H   0  0  0  0  0  0  0  0  0  0  0  0  # atno 10718 bound_to 10713
  153.1503  135.6777  153.8892 H   0  0  0  0  0  0  0  0  0  0  0  0  # atno 10763 bound_to 10752
  153.8321  135.3116  155.3421 H   0  0  0  0  0  0  0  0  0  0  0  0  # atno 10764 bound_to 10752
  154.7857  135.4863  154.0026 H   0  0  0  0  0  0  0  0  0  0  0  0  # atno 10765 bound_to 10752
  139.8853  134.8625  156.3312 H   0  0  0  0  0  0  0  0  0  0  0  0  # atno 11005 bound_to 11000
  144.6956  139.9004  143.7458 LP  0  0  0  0  0  0  0  0  0  0  0  0  # atno 17320 bound_to 7965
  146.0760  139.3748  143.0494 LP  0  0  0  0  0  0  0  0  0  0  0  0  # atno 17321 bound_to 7965
  140.4936  144.1274  150.5955 LP  0  0  0  0  0  0  0  0  0  0  0  0  # atno 17342 bound_to 10162
  140.4143  143.2642  151.9794 LP  0  0  0  0  0  0  0  0  0  0  0  0  # atno 17343 bound_to 10162
  156.0568  130.5628  150.9109 LP  0  0  0  0  0  0  0  0  0  0  0  0  # atno 17370 bound_to 10713
  157.6009  131.0941  150.8962 LP  0  0  0  0  0  0  0  0  0  0  0  0  # atno 17371 bound_to 10713
  140.9722  133.7320  156.0550 LP  0  0  0  0  0  0  0  0  0  0  0  0  # atno 17394 bound_to 11000
  140.7857  134.3675  157.5477 LP  0  0  0  0  0  0  0  0  0  0  0  0  # atno 17395 bound_to 11000

$$$$
