#       Name:                AV-unprocessed.smi:1560
#       Creating user name   scv26
#       Creation time:       Fri Mar 27 06:46:47 2020


#       File generated by GOLD software.
#

@<TRIPOS>MOLECULE
AV-unprocessed.smi:1560
    56    57     1
SMALL
NO_CHARGES


@<TRIPOS>ATOM
      1 ****        -0.2644  -2.3220   0.5045 C.3            1 S1                 0.0000
      2 ****        -0.8759  -0.9189   0.3519 C.3            1 S1                 0.0000
      3 ****        -0.4518  -0.1416  -0.9384 C.3            1 S1                 0.0000
      4 ****        -1.1547   1.2403  -0.8723 C.3            1 S1                 0.0000
      5 ****         1.0902   0.1117  -0.8861 C.3            1 S1                 0.0000
      6 ****         1.5367   0.6684   0.3849 N.am           1 S1                 0.0000
      7 ****         2.7198   1.2549   0.6205 C.2            1 S1                 0.0000
      8 ****         3.5867   1.3801  -0.2436 O.2            1 S1                 0.0000
      9 ****         2.9847   1.7839   2.0413 C.3            1 S1                 0.0000
     10 ****         1.8803   1.5586   2.9904 N.am           1 S1                 0.0000
     11 ****         1.8840   0.4382   3.8093 C.2            1 S1                 0.0000
     12 ****         0.8881   0.1465   4.6791 C.2            1 S1                 0.0000
     13 ****        -0.2702   1.0255   4.7973 C.2            1 S1                 0.0000
     14 ****        -1.2229   0.8459   5.5524 O.2            1 S1                 0.0000
     15 ****        -0.2371   2.1424   3.9583 N.am           1 S1                 0.0000
     16 ****         0.7857   2.4487   3.0598 C.2            1 S1                 0.0000
     17 ****         0.7085   3.4539   2.3549 O.2            1 S1                 0.0000
     18 ****        -0.8136  -0.9022  -2.1723 N.3            1 S1                 0.0000
     19 ****        -2.2341  -1.2580  -2.2956 C.3            1 S1                 0.0000
     20 ****        -2.5100  -2.1441  -3.5220 C.3            1 S1                 0.0000
     21 ****        -2.0625  -1.4847  -4.6991 O.3            1 S1                 0.0000
     22 ****        -0.6742  -1.1829  -4.6515 C.3            1 S1                 0.0000
     23 ****        -0.3764  -0.2899  -3.4347 C.3            1 S1                 0.0000
     24 ****        -1.0193   2.7792   4.0042 H              1 S1                 0.0000
     25 ****        -0.6356  -2.8035   1.4092 H              1 S1                 0.0000
     26 ****         0.8219  -2.2832   0.5814 H              1 S1                 0.0000
     27 ****        -0.5198  -2.9656  -0.3374 H              1 S1                 0.0000
     28 ****        -1.9605  -1.0015   0.4102 H              1 S1                 0.0000
     29 ****        -0.6273  -0.3441   1.2447 H              1 S1                 0.0000
     30 ****        -0.8997   1.7763   0.0427 H              1 S1                 0.0000
     31 ****        -2.2407   1.1513  -0.8806 H              1 S1                 0.0000
     32 ****        -0.8692   1.8869  -1.7016 H              1 S1                 0.0000
     33 ****         1.6397  -0.8123  -1.0708 H              1 S1                 0.0000
     34 ****         1.3885   0.8121  -1.6667 H              1 S1                 0.0000
     35 ****         0.8858   0.6077   1.1544 H              1 S1                 0.0000
     36 ****         3.8952   1.3122   2.4140 H              1 S1                 0.0000
     37 ****         3.2225   2.8472   1.9779 H              1 S1                 0.0000
     38 ****         2.7195  -0.2448   3.7505 H              1 S1                 0.0000
     39 ****         0.9474  -0.7435   5.2890 H              1 S1                 0.0000
     40 ****        -2.5799  -1.8040  -1.4207 H              1 S1                 0.0000
     41 ****        -2.8440  -0.3580  -2.3717 H              1 S1                 0.0000
     42 ****        -2.0105  -3.1091  -3.4222 H              1 S1                 0.0000
     43 ****        -3.5779  -2.3444  -3.6110 H              1 S1                 0.0000
     44 ****        -0.0947  -2.1062  -4.6033 H              1 S1                 0.0000
     45 ****        -0.3892  -0.6747  -5.5727 H              1 S1                 0.0000
     46 ****        -0.8666   0.6732  -3.5769 H              1 S1                 0.0000
     47 ****         0.6955  -0.1039  -3.4302 H              1 S1                 0.0000
     48 ****         3.4238   1.0371  -1.1687 LP             1 S1                 0.0000
     49 ****         4.4542   1.8248  -0.0208 LP             1 S1                 0.0000
     50 ****        -1.2431   0.0443   6.1499 LP             1 S1                 0.0000
     51 ****        -1.9779   1.5013   5.5693 LP             1 S1                 0.0000
     52 ****         1.4373   3.6649   1.7034 LP             1 S1                 0.0000
     53 ****        -0.0830   4.0600   2.4333 LP             1 S1                 0.0000
     54 ****        -0.2894  -1.7416  -2.0287 LP             1 S1                 0.0000
     55 ****        -2.5739  -0.6319  -4.8046 LP             1 S1                 0.0000
     56 ****        -2.2363  -2.0771  -5.4858 LP             1 S1                 0.0000
@<TRIPOS>BOND
    1    1    2 1     
    2    1   25 1     
    3    1   26 1     
    4    1   27 1     
    5    2    3 1     
    6    2   28 1     
    7    2   29 1     
    8    3    4 1     
    9    3    5 1     
   10    3   18 1     
   11    4   30 1     
   12    4   31 1     
   13    4   32 1     
   14    5    6 1     
   15    5   33 1     
   16    5   34 1     
   17    6    7 am    
   18    6   35 1     
   19    7    8 2     
   20    7    9 1     
   21    9   10 1     
   22    9   36 1     
   23    9   37 1     
   24   10   16 1     
   25   10   11 1     
   26   11   12 2     
   27   11   38 1     
   28   12   13 1     
   29   12   39 1     
   30   13   14 2     
   31   13   15 1     
   32   15   24 1     
   33   15   16 1     
   34   16   17 2     
   35   18   23 1     
   36   18   19 1     
   37   19   20 1     
   38   19   40 1     
   39   19   41 1     
   40   20   21 1     
   41   20   42 1     
   42   20   43 1     
   43   21   22 1     
   44   22   23 1     
   45   22   44 1     
   46   22   45 1     
   47   23   46 1     
   48   23   47 1     
   49    8   48 1     
   50    8   49 1     
   51   14   50 1     
   52   14   51 1     
   53   17   52 1     
   54   17   53 1     
   55   18   54 1     
   56   21   55 1     
   57   21   56 1     
@<TRIPOS>SUBSTRUCTURE
      1 S1             1
@<TRIPOS>SET
LONE_PAIRS      STATIC     ATOMS    <user>   **** ""
9 48 49 50 51 52 53 54 55 56
DONOR_HYDROGENS      STATIC     ATOMS    <user>   **** ""
2 35 24
ATOM$BLUE        STATIC     ATOMS    COLORGROUP SYSTEM
9 48 49 50 51 52 53 54 55 56
ATOM$RED        STATIC     ATOMS    COLORGROUP SYSTEM
2 35 24
