#       Name:                AV-unprocessed.smi:281
#       Creating user name   scv26
#       Creation time:       Thu Mar 26 21:41:05 2020


#       File generated by GOLD software.
#

@<TRIPOS>MOLECULE
AV-unprocessed.smi:281
    67    71     1
SMALL
NO_CHARGES


@<TRIPOS>ATOM
      1 ****        -4.0959  -3.1051  -1.1698 C.3            1 S1                 0.0000
      2 ****        -3.4236  -2.3370  -0.0278 C.3            1 S1                 0.0000
      3 ****        -1.9077  -2.2000  -0.2392 C.3            1 S1                 0.0000
      4 ****        -1.3404  -1.3847   0.8233 N.3            1 S1                 0.0000
      5 ****         0.0081  -1.3566   0.8280 C.ar           1 S1                 0.0000
      6 ****         0.6325  -1.9352   1.8822 N.ar           1 S1                 0.0000
      7 ****         1.9675  -1.9398   1.9457 C.ar           1 S1                 0.0000
      8 ****         2.8469  -1.4295   1.0806 N.ar           1 S1                 0.0000
      9 ****         2.2194  -0.8439   0.0201 C.ar           1 S1                 0.0000
     10 ****         0.8136  -0.7673  -0.1872 C.ar           1 S1                 0.0000
     11 ****         0.5456  -0.1096  -1.3816 N.2            1 S1                 0.0000
     12 ****         1.7258   0.1872  -1.8524 C.2            1 S1                 0.0000
     13 ****         2.7881  -0.2053  -1.0686 N.pl3          1 S1                 0.0000
     14 ****         4.2023  -0.0014  -1.3458 C.3            1 S1                 0.0000
     15 ****         4.7713   1.3110  -0.7524 C.3            1 S1                 0.0000
     16 ****         4.6297   1.2789   0.6561 O.3            1 S1                 0.0000
     17 ****         6.2477   1.5168  -1.0993 C.3            1 S1                 0.0000
     18 ****         6.2241   2.6576  -2.1092 C.3            1 S1                 0.0000
     19 ****         5.1561   3.4613  -1.6414 O.3            1 S1                 0.0000
     20 ****         4.0933   2.5831  -1.3008 C.3            1 S1                 0.0000
     21 ****        -1.9578  -0.0684   0.9115 C.3            1 S1                 0.0000
     22 ****        -3.4923  -0.1829   1.0666 C.3            1 S1                 0.0000
     23 ****        -3.9333  -0.6769   2.4515 C.3            1 S1                 0.0000
     24 ****        -4.5022   0.5614   3.1305 C.3            1 S1                 0.0000
     25 ****        -5.0864   1.2611   2.0481 O.3            1 S1                 0.0000
     26 ****        -4.1530   1.2147   0.9793 C.3            1 S1                 0.0000
     27 ****        -4.8425   1.5519  -0.3506 C.3            1 S1                 0.0000
     28 ****        -4.0108  -1.0363   0.0371 O.3            1 S1                 0.0000
     29 ****        -3.6880  -4.1123  -1.2594 H              1 S1                 0.0000
     30 ****        -3.9519  -2.5983  -2.1243 H              1 S1                 0.0000
     31 ****        -5.1690  -3.1949  -0.9989 H              1 S1                 0.0000
     32 ****        -3.6115  -2.8740   0.9026 H              1 S1                 0.0000
     33 ****        -1.4380  -3.1846  -0.2429 H              1 S1                 0.0000
     34 ****        -1.7054  -1.7402  -1.2074 H              1 S1                 0.0000
     35 ****         2.3923  -2.4207   2.8145 H              1 S1                 0.0000
     36 ****         1.8523   0.7073  -2.7907 H              1 S1                 0.0000
     37 ****         4.7532  -0.8600  -0.9588 H              1 S1                 0.0000
     38 ****         4.3411  -0.0143  -2.4276 H              1 S1                 0.0000
     39 ****         4.9793   2.0820   1.0108 H              1 S1                 0.0000
     40 ****         6.8158   1.8337  -0.2229 H              1 S1                 0.0000
     41 ****         6.7317   0.6231  -1.4948 H              1 S1                 0.0000
     42 ****         7.1628   3.2111  -2.1439 H              1 S1                 0.0000
     43 ****         5.9996   2.2905  -3.1120 H              1 S1                 0.0000
     44 ****         3.5420   2.3713  -2.2171 H              1 S1                 0.0000
     45 ****         3.3996   3.0478  -0.5989 H              1 S1                 0.0000
     46 ****        -1.5318   0.4853   1.7497 H              1 S1                 0.0000
     47 ****        -1.7280   0.4971   0.0075 H              1 S1                 0.0000
     48 ****        -4.7333  -1.4116   2.3528 H              1 S1                 0.0000
     49 ****        -3.1314  -1.1386   3.0283 H              1 S1                 0.0000
     50 ****        -5.2355   0.3217   3.9010 H              1 S1                 0.0000
     51 ****        -3.7105   1.1634   3.5794 H              1 S1                 0.0000
     52 ****        -3.4062   1.9836   1.1867 H              1 S1                 0.0000
     53 ****        -4.1387   1.4942  -1.1812 H              1 S1                 0.0000
     54 ****        -5.2497   2.5628  -0.3295 H              1 S1                 0.0000
     55 ****        -5.6670   0.8694  -0.5582 H              1 S1                 0.0000
     56 ****        -1.5781  -1.8503   1.6758 LP             1 S1                 0.0000
     57 ****         0.0951  -2.3582   2.6118 LP             1 S1                 0.0000
     58 ****         3.8394  -1.4712   1.1953 LP             1 S1                 0.0000
     59 ****        -0.3464   0.0902  -1.7870 LP             1 S1                 0.0000
     60 ****         5.1327   0.4987   1.0281 LP             1 S1                 0.0000
     61 ****         3.6624   1.1970   0.8962 LP             1 S1                 0.0000
     62 ****         4.8626   4.0936  -2.3584 LP             1 S1                 0.0000
     63 ****         5.4439   3.9803  -0.8366 LP             1 S1                 0.0000
     64 ****        -5.2656   2.2100   2.3079 LP             1 S1                 0.0000
     65 ****        -5.9430   0.8224   1.7766 LP             1 S1                 0.0000
     66 ****        -4.9924  -1.1474   0.1926 LP             1 S1                 0.0000
     67 ****        -3.8617  -0.5853  -0.8429 LP             1 S1                 0.0000
@<TRIPOS>BOND
    1    1    2 1     
    2    1   29 1     
    3    1   30 1     
    4    1   31 1     
    5    2   28 1     
    6    2    3 1     
    7    2   32 1     
    8    3    4 1     
    9    3   33 1     
   10    3   34 1     
   11    4    5 1     
   12    4   21 1     
   13    5   10 ar    
   14    5    6 ar    
   15    6    7 ar    
   16    7    8 ar    
   17    7   35 1     
   18    8    9 ar    
   19    9   13 1     
   20    9   10 ar    
   21   10   11 1     
   22   11   12 2     
   23   12   13 1     
   24   12   36 1     
   25   13   14 1     
   26   14   15 1     
   27   14   37 1     
   28   14   38 1     
   29   15   20 1     
   30   15   16 1     
   31   15   17 1     
   32   16   39 1     
   33   17   18 1     
   34   17   40 1     
   35   17   41 1     
   36   18   19 1     
   37   18   42 1     
   38   18   43 1     
   39   19   20 1     
   40   20   44 1     
   41   20   45 1     
   42   21   22 1     
   43   21   46 1     
   44   21   47 1     
   45   22   26 1     
   46   22   23 1     
   47   22   28 1     
   48   23   24 1     
   49   23   48 1     
   50   23   49 1     
   51   24   25 1     
   52   24   50 1     
   53   24   51 1     
   54   25   26 1     
   55   26   27 1     
   56   26   52 1     
   57   27   53 1     
   58   27   54 1     
   59   27   55 1     
   60    4   56 1     
   61    6   57 1     
   62    8   58 1     
   63   11   59 1     
   64   16   60 1     
   65   16   61 1     
   66   19   62 1     
   67   19   63 1     
   68   25   64 1     
   69   25   65 1     
   70   28   66 1     
   71   28   67 1     
@<TRIPOS>SUBSTRUCTURE
      1 S1             1
@<TRIPOS>SET
LONE_PAIRS      STATIC     ATOMS    <user>   **** ""
12 56 57 58 59 60 61 62 63 64 65 66 67
DONOR_HYDROGENS      STATIC     ATOMS    <user>   **** ""
1 39
ATOM$BLUE        STATIC     ATOMS    COLORGROUP SYSTEM
12 56 57 58 59 60 61 62 63 64 65 66 67
ATOM$RED        STATIC     ATOMS    COLORGROUP SYSTEM
1 39
