AV-unprocessed.smi:2510|AV-procd|sdf|9870|dock2
  -GOLD-   2272013503D 1   1.00000     0.00000
 Structure written by MMmdl.
 48 49  0  0  0  0  0  0  0  0  1 V2000
  149.3599  141.6645  155.2197 C   0  0  0  0  0  0  0  0  0  0  0  0
  149.3528  141.0098  156.6113 C   0  0  0  0  0  0  0  0  0  0  0  0
  150.7532  140.7836  157.2387 C   0  0  0  0  0  0  0  0  0  0  0  0
  151.3499  142.1643  157.6111 C   0  0  0  0  0  0  0  0  0  0  0  0
  152.4440  142.1464  158.6926 C   0  0  0  0  0  0  0  0  0  0  0  0
  150.8556  139.7327  158.3836 C   0  0  1  0  0  0  0  0  0  0  0  0
  149.8204  138.7012  158.3177 N   0  0  0  0  0  0  0  0  0  0  0  0
  149.8325  137.5377  158.9840 C   0  0  0  0  0  0  0  0  0  0  0  0
  150.6976  137.2344  159.8051 O   0  0  0  0  0  0  0  0  0  0  0  0
  148.7002  136.5601  158.6602 C   0  0  0  0  0  0  0  0  0  0  0  0
  147.8987  136.2673  159.9022 C   0  0  0  0  0  0  0  0  0  0  0  0
  147.3811  135.0112  160.3368 C   0  0  0  0  0  0  0  0  0  0  0  0
  146.6977  135.3050  161.4827 C   0  0  0  0  0  0  0  0  0  0  0  0
  145.9132  134.4433  162.4125 C   0  0  0  0  0  0  0  0  0  0  0  0
  146.8420  136.6588  161.6801 N   0  0  0  0  0  0  0  0  0  0  0  0
  147.5765  137.2572  160.7247 N   0  0  0  0  0  0  0  0  0  0  0  0
  152.1899  139.2462  157.7864 C   0  0  1  0  0  0  0  0  0  0  0  0
  152.6214  137.7814  157.8485 C   0  0  0  0  0  0  0  0  0  0  0  0
  151.7375  139.8656  156.4544 C   0  0  1  0  0  0  0  0  0  0  0  0
  151.0998  138.8865  155.6411 O   0  0  0  0  0  0  0  0  0  0  0  0
  151.9956  138.2119  154.7749 C   0  0  0  0  0  0  0  0  0  0  0  0
  146.4487  137.1802  162.4508 H   0  0  0  0  0  0  0  0  0  0  0  0
  148.3436  141.9025  154.9058 H   0  0  0  0  0  0  0  0  0  0  0  0
  149.7822  141.0057  154.4618 H   0  0  0  0  0  0  0  0  0  0  0  0
  149.9300  142.5936  155.2154 H   0  0  0  0  0  0  0  0  0  0  0  0
  148.7490  141.6447  157.2595 H   0  0  0  0  0  0  0  0  0  0  0  0
  148.7919  140.0780  156.5613 H   0  0  0  0  0  0  0  0  0  0  0  0
  151.7318  142.6713  156.7259 H   0  0  0  0  0  0  0  0  0  0  0  0
  150.5593  142.8225  157.9710 H   0  0  0  0  0  0  0  0  0  0  0  0
  152.7126  143.1644  158.9754 H   0  0  0  0  0  0  0  0  0  0  0  0
  153.3561  141.6637  158.3439 H   0  0  0  0  0  0  0  0  0  0  0  0
  152.1139  141.6339  159.5957 H   0  0  0  0  0  0  0  0  0  0  0  0
  150.9642  140.1839  159.3715 H   0  0  0  0  0  0  0  0  0  0  0  0
  149.0687  138.8578  157.6613 H   0  0  0  0  0  0  0  0  0  0  0  0
  148.0584  136.9871  157.8888 H   0  0  0  0  0  0  0  0  0  0  0  0
  149.1270  135.6474  158.2420 H   0  0  0  0  0  0  0  0  0  0  0  0
  147.4824  134.0448  159.8654 H   0  0  0  0  0  0  0  0  0  0  0  0
  145.9742  133.3956  162.1170 H   0  0  0  0  0  0  0  0  0  0  0  0
  144.8619  134.7319  162.4127 H   0  0  0  0  0  0  0  0  0  0  0  0
  146.2895  134.5283  163.4321 H   0  0  0  0  0  0  0  0  0  0  0  0
  152.9873  139.8651  158.2001 H   0  0  0  0  0  0  0  0  0  0  0  0
  151.8962  137.1189  157.3764 H   0  0  0  0  0  0  0  0  0  0  0  0
  152.7430  137.4514  158.8802 H   0  0  0  0  0  0  0  0  0  0  0  0
  153.5739  137.6322  157.3405 H   0  0  0  0  0  0  0  0  0  0  0  0
  152.5560  140.3788  155.9477 H   0  0  0  0  0  0  0  0  0  0  0  0
  151.4408  137.5085  154.1542 H   0  0  0  0  0  0  0  0  0  0  0  0
  152.7364  137.6478  155.3425 H   0  0  0  0  0  0  0  0  0  0  0  0
  152.5174  138.9049  154.1151 H   0  0  0  0  0  0  0  0  0  0  0  0
  1  2  1  0  0  0  0
  1 23  1  0  0  0  0
  1 24  1  0  0  0  0
  1 25  1  0  0  0  0
  2  3  1  0  0  0  0
  2 26  1  0  0  0  0
  2 27  1  0  0  0  0
  3 19  1  0  0  0  0
  3  4  1  0  0  0  0
  3  6  1  0  0  0  0
  4  5  1  0  0  0  0
  4 28  1  0  0  0  0
  4 29  1  0  0  0  0
  5 30  1  0  0  0  0
  5 31  1  0  0  0  0
  5 32  1  0  0  0  0
  6  7  1  0  0  0  0
  6 17  1  0  0  0  0
  6 33  1  0  0  0  0
  7  8  1  0  0  0  0
  7 34  1  0  0  0  0
  8  9  2  0  0  0  0
  8 10  1  0  0  0  0
 10 11  1  0  0  0  0
 10 35  1  0  0  0  0
 10 36  1  0  0  0  0
 11 16  2  0  0  0  0
 11 12  1  0  0  0  0
 12 13  2  0  0  0  0
 12 37  1  0  0  0  0
 13 14  1  0  0  0  0
 13 15  1  0  0  0  0
 14 38  1  0  0  0  0
 14 39  1  0  0  0  0
 14 40  1  0  0  0  0
 15 22  1  0  0  0  0
 15 16  1  0  0  0  0
 17 18  1  0  0  0  0
 17 19  1  0  0  0  0
 17 41  1  0  0  0  0
 18 42  1  0  0  0  0
 18 43  1  0  0  0  0
 18 44  1  0  0  0  0
 19 20  1  0  0  0  0
 19 45  1  0  0  0  0
 20 21  1  0  0  0  0
 21 46  1  0  0  0  0
 21 47  1  0  0  0  0
 21 48  1  0  0  0  0
M  END
> <s_m_source_file>
AV-unprocessed.smi

> <i_m_source_file_index>
2510

> <i_lp_mmshare_version>
43012

> <i_f3d_flags>
0

> <s_epik_input>
W0NIM11PW0NAQEhdMVtDQEhdKFtDSDNdKVtDQEBIXShDMShbQ0gyXVtDSDNdKVtDSDJdW0NIM10pW05IXUMoPU8pW0NIMl1jMltjSF1jKFtDSDNdKVtuSF1uMg==

> <s_epik_cmdline>
J2VwaWtfcHl0aG9uJywgJy1waCcsICc3LjAnLCAnLXRuJywgJzgnLCAnLW1hJywgJzIwMCcsICctbWV0YWxfYmluZGluZycsICctaW1hZScsICc8aW5maWxlLm1hZT4nLCAnLW9tYWUnLCAnPG91dGZpbGUubWFlPic=

> <r_lp_tautomer_probability>
0.5

> <r_epik_Ionization_Penalty>
9.73156e-05

> <r_epik_Ionization_Penalty_Charging>
0

> <r_epik_Ionization_Penalty_Neutral>
9.73156e-05

> <r_epik_State_Penalty>
0.41068

> <r_epik_Charging_Adjusted_Penalty>
0.41068

> <i_epik_Tot_Q>
0

> <i_epik_Tot_abs_Q>
0

> <r_epik_Metal_State_Penalty>
0.410699

> <b_epik_Metal_Only>
0

> <s_lp_Force_Field>
OPLS_2005

> <r_lp_Energy>
26.8932

> <b_lp_Chiralities_Consistent>
1

> <s_lp_Variant>
AV-unprocessed.smi:2510-1

> <Gold.Version>
5.8.1

> <Gold.Id.Protein>
6NUR|6NUR_protein|mol2

> <Gold.PLP.Fitness>
41.4560

> <Gold.PLP.PLP>
-35.5011

> <Gold.PLP.part.hbond>
-2.8043

> <Gold.PLP.part.metal>
0.0000

> <Gold.PLP.part.buried>
-6.0667

> <Gold.PLP.part.nonpolar>
-27.9327

> <Gold.PLP.part.repulsive>
0.3055

> <Gold.PLP.ligand.clash>
0.0000

> <Gold.PLP.ligand.torsion>
1.0613

> <Gold.PLP.Chemscore.Hbond>
2.4538

> <Gold.PLP.Chemscore.CHOScore>
0.0000

> <Gold.PLP.Chemscore.Metal>
0.0000

> <Gold.Chemscore.Hbonds>
donor molecule, donor type, donor heavy atom, donor atom, acceptor molecule, acceptor atom, score
      P1  H  6896  6907       L1     9  0.63
      P1  H  6931  6943       L1    16  0.60
      P1  H  6934  6947       L1    16  0.98

> <Gold.PLP.Chemscore.Internal.Correction>
0.7162

> <Gold.Rescore>
     Score         DG    S(hbond)    S(metal)    S(lipo)     H(rot)  DE(clash)    DE(int)     intcor
     14.95     -19.00       2.35        0.00      88.16       1.81       0.03       4.02       ----

> <Gold.Chemscore.Fitness>
14.9488

> <Gold.Chemscore.DG>
-19.0038

> <Gold.Chemscore.ZeroCoef>
-5.4800

> <Gold.Chemscore.Hbond>
2.3481

> <Gold.Chemscore.Metal>
0.0000

> <Gold.Chemscore.Lipo>
88.1640

> <Gold.Chemscore.Internal_Hbond>
0.0000

> <Gold.Chemscore.DEClash>
0.0310

> <Gold.Chemscore.DEInternal>
4.0240

> <Gold.Chemscore.Rot>
1.8102

> <Gold.Chemscore.Internal.Correction>
   9.000000E+99

> <Gold.Chemscore.Hbonds>
donor molecule, donor type, donor heavy atom, donor atom, acceptor molecule, acceptor atom, score
      P1  H  6896  6907       L1     9  0.61
      P1  H  6931  6943       L1    16  0.18
      P1  H  6934  6947       L1    16  0.42

> <Gold.Chemscore.Hbond.Weighted>
-7.8427

> <Gold.Chemscore.Metal.Weighted>
-0.0000

> <Gold.Chemscore.Lipo.Weighted>
-10.3152

> <Gold.Chemscore.Internal_Hbond.Weighted>
0.0000

> <Gold.Chemscore.DEClash.Weighted>
0.0310

> <Gold.Chemscore.DEInternal.Weighted>
4.0240

> <Gold.Chemscore.Rot.Weighted>
4.6341

> <Gold.Chemscore.Internal.Correction.Weighted>
   9.000000E+99

> <Gold.Protein.RotatedTorsions>
[ 6907 6896 6895 6894 ] final  -19.11 input  -60.11 | X-H torsion
[ 7974 7965 7964 7962 ] final -130.07 input  175.53 | X-H torsion
[ 8008 7997 7996 7995 ] final   64.14 input   59.86 | X-H torsion
[ 10167 10162 10161 10158 ] final -149.93 input  -65.29 | X-H torsion
[ 10718 10713 10712 10709 ] final  -80.61 input   66.30 | X-H torsion
[ 10763 10752 10751 10750 ] final   -7.44 input  -60.55 | X-H torsion
[ 11005 11000 10999 10996 ] final   38.31 input  -57.11 | X-H torsion

> <Gold.Protein.ActiveResidues>
 VAL166  LYS551  ARG553  GLY616  TRP617  ASP618  TYR619  PRO620  LYS621  CYS622 
 ASP623  PHE694  ASN695  SER759  ASP760  ASP761  ALA762  ILE779  LEU786  VAL792 
 PHE793  MET794  SER795  GLU796  ALA797  LYS798  CYS799  TRP800  GLU811  SER814 

> <Gold.Protein.RotatedAtoms>
  151.2680  135.0675  159.9123 H   0  0  0  0  0  0  0  0  0  0  0  0  # atno 6907 bound_to 6896
  152.5355  134.0160  159.7970 H   0  0  0  0  0  0  0  0  0  0  0  0  # atno 6908 bound_to 6896
  151.0394  133.5669  159.2683 H   0  0  0  0  0  0  0  0  0  0  0  0  # atno 6909 bound_to 6896
  144.9510  140.7344  143.4788 H   0  0  0  0  0  0  0  0  0  0  0  0  # atno 7974 bound_to 7965
  155.6413  140.3497  155.4716 H   0  0  0  0  0  0  0  0  0  0  0  0  # atno 8008 bound_to 7997
  155.9923  140.1196  157.0650 H   0  0  0  0  0  0  0  0  0  0  0  0  # atno 8009 bound_to 7997
  154.4223  140.1117  156.5569 H   0  0  0  0  0  0  0  0  0  0  0  0  # atno 8010 bound_to 7997
  139.7399  143.8678  152.2559 H   0  0  0  0  0  0  0  0  0  0  0  0  # atno 10167 bound_to 10162
  156.0067  130.4579  150.3826 H   0  0  0  0  0  0  0  0  0  0  0  0  # atno 10718 bound_to 10713
  153.4264  135.7011  153.6260 H   0  0  0  0  0  0  0  0  0  0  0  0  # atno 10763 bound_to 10752
  153.4693  135.3718  155.2382 H   0  0  0  0  0  0  0  0  0  0  0  0  # atno 10764 bound_to 10752
  154.8724  135.4039  154.3640 H   0  0  0  0  0  0  0  0  0  0  0  0  # atno 10765 bound_to 10752
  140.2139  134.3722  155.8036 H   0  0  0  0  0  0  0  0  0  0  0  0  # atno 11005 bound_to 11000
  145.2844  139.1906  143.4774 LP  0  0  0  0  0  0  0  0  0  0  0  0  # atno 17320 bound_to 7965
  146.3321  140.2811  142.8610 LP  0  0  0  0  0  0  0  0  0  0  0  0  # atno 17321 bound_to 7965
  139.8625  144.7109  150.9082 LP  0  0  0  0  0  0  0  0  0  0  0  0  # atno 17342 bound_to 10162
  140.7784  143.3805  151.1485 LP  0  0  0  0  0  0  0  0  0  0  0  0  # atno 17343 bound_to 10162
  157.1905  131.0414  151.2702 LP  0  0  0  0  0  0  0  0  0  0  0  0  # atno 17370 bound_to 10713
  157.4065  130.7362  149.6806 LP  0  0  0  0  0  0  0  0  0  0  0  0  # atno 17371 bound_to 10713
  141.2225  133.7158  156.8464 LP  0  0  0  0  0  0  0  0  0  0  0  0  # atno 17394 bound_to 11000
  140.1921  134.8958  157.3072 LP  0  0  0  0  0  0  0  0  0  0  0  0  # atno 17395 bound_to 11000

$$$$
