#       Name:                AV-unprocessed.smi:490
#       Creating user name   scv26
#       Creation time:       Thu Mar 26 23:14:17 2020


#       File generated by GOLD software.
#

@<TRIPOS>MOLECULE
AV-unprocessed.smi:490
    56    58     1
SMALL
NO_CHARGES


@<TRIPOS>ATOM
      1 ****        -3.6408   1.4213  -1.6774 C.3            1 S1                 0.0000
      2 ****        -2.9679   1.7775  -0.3628 C.ar           1 S1                 0.0000
      3 ****        -3.7518   2.2938   0.6890 C.ar           1 S1                 0.0000
      4 ****        -3.1602   2.6320   1.9185 C.ar           1 S1                 0.0000
      5 ****        -1.7781   2.4460   2.1134 C.ar           1 S1                 0.0000
      6 ****        -1.1494   2.8111   3.4450 C.3            1 S1                 0.0000
      7 ****        -0.9853   1.9152   1.0711 C.ar           1 S1                 0.0000
      8 ****         0.3569   1.7297   1.2872 O.3            1 S1                 0.0000
      9 ****         0.7102   0.3853   1.5848 C.3            1 S1                 0.0000
     10 ****         2.2149   0.1956   1.3166 C.3            1 S1                 0.0000
     11 ****         2.9223   0.4894   2.5032 O.3            1 S1                 0.0000
     12 ****         2.6034  -1.2323   0.8757 C.3            1 S1                 0.0000
     13 ****         2.0687  -1.5890  -0.4336 N.pl3          1 S1                 0.0000
     14 ****         2.5852  -1.2981  -1.6551 C.2            1 S1                 0.0000
     15 ****         3.8714  -0.5485  -1.8268 C.3            1 S1                 0.0000
     16 ****         5.0062  -1.3579  -1.6048 O.3            1 S1                 0.0000
     17 ****         1.8826  -1.7327  -2.7015 N.2            1 S1                 0.0000
     18 ****         0.8198  -2.3818  -2.1057 C.ar           1 S1                 0.0000
     19 ****        -0.2817  -3.0552  -2.6804 C.ar           1 S1                 0.0000
     20 ****        -1.2601  -3.6533  -1.8599 C.ar           1 S1                 0.0000
     21 ****        -1.1500  -3.5890  -0.4559 C.ar           1 S1                 0.0000
     22 ****        -0.0604  -2.9229   0.1370 C.ar           1 S1                 0.0000
     23 ****         0.9111  -2.3212  -0.6862 C.ar           1 S1                 0.0000
     24 ****        -1.5740   1.5977  -0.1808 C.ar           1 S1                 0.0000
     25 ****        -0.7195   1.0674  -1.3256 C.3            1 S1                 0.0000
     26 ****        -4.7242   1.5245  -1.6103 H              1 S1                 0.0000
     27 ****        -3.4217   0.3893  -1.9533 H              1 S1                 0.0000
     28 ****        -3.2909   2.0767  -2.4750 H              1 S1                 0.0000
     29 ****        -4.8142   2.4372   0.5567 H              1 S1                 0.0000
     30 ****        -3.7744   3.0320   2.7121 H              1 S1                 0.0000
     31 ****        -0.3054   3.4847   3.2949 H              1 S1                 0.0000
     32 ****        -0.7897   1.9160   3.9522 H              1 S1                 0.0000
     33 ****        -1.8648   3.3084   4.1001 H              1 S1                 0.0000
     34 ****         0.4506   0.1363   2.6147 H              1 S1                 0.0000
     35 ****         0.1278  -0.2860   0.9575 H              1 S1                 0.0000
     36 ****         2.5348   0.9025   0.5516 H              1 S1                 0.0000
     37 ****         2.7166   1.3749   2.7619 H              1 S1                 0.0000
     38 ****         3.6884  -1.3348   0.8422 H              1 S1                 0.0000
     39 ****         2.2560  -1.9619   1.6081 H              1 S1                 0.0000
     40 ****         3.9227  -0.1500  -2.8408 H              1 S1                 0.0000
     41 ****         3.9014   0.3078  -1.1549 H              1 S1                 0.0000
     42 ****         5.7801  -0.8337  -1.7432 H              1 S1                 0.0000
     43 ****        -0.3736  -3.1115  -3.7550 H              1 S1                 0.0000
     44 ****        -2.0985  -4.1646  -2.3097 H              1 S1                 0.0000
     45 ****        -1.9036  -4.0499   0.1657 H              1 S1                 0.0000
     46 ****         0.0225  -2.8680   1.2124 H              1 S1                 0.0000
     47 ****         0.3477   1.1740  -1.1338 H              1 S1                 0.0000
     48 ****        -0.9313   1.6068  -2.2486 H              1 S1                 0.0000
     49 ****        -0.9282   0.0103  -1.4900 H              1 S1                 0.0000
     50 ****         0.6350   2.3061   2.0555 LP             1 S1                 0.0000
     51 ****         0.8504   2.0104   0.4640 LP             1 S1                 0.0000
     52 ****         3.9052   0.4050   2.3400 LP             1 S1                 0.0000
     53 ****         2.6486  -0.1457   3.2255 LP             1 S1                 0.0000
     54 ****         5.0016  -2.1277  -2.2431 LP             1 S1                 0.0000
     55 ****         4.9959  -1.7031  -0.6663 LP             1 S1                 0.0000
     56 ****         2.0770  -1.6172  -3.6756 LP             1 S1                 0.0000
@<TRIPOS>BOND
    1    1    2 1     
    2    1   26 1     
    3    1   27 1     
    4    1   28 1     
    5    2   24 ar    
    6    2    3 ar    
    7    3    4 ar    
    8    3   29 1     
    9    4    5 ar    
   10    4   30 1     
   11    5    6 1     
   12    5    7 ar    
   13    6   31 1     
   14    6   32 1     
   15    6   33 1     
   16    7    8 1     
   17    7   24 ar    
   18    8    9 1     
   19    9   10 1     
   20    9   34 1     
   21    9   35 1     
   22   10   11 1     
   23   10   12 1     
   24   10   36 1     
   25   11   37 1     
   26   12   13 1     
   27   12   38 1     
   28   12   39 1     
   29   13   23 1     
   30   13   14 1     
   31   14   15 1     
   32   14   17 2     
   33   15   16 1     
   34   15   40 1     
   35   15   41 1     
   36   16   42 1     
   37   17   18 1     
   38   18   23 ar    
   39   18   19 ar    
   40   19   20 ar    
   41   19   43 1     
   42   20   21 ar    
   43   20   44 1     
   44   21   22 ar    
   45   21   45 1     
   46   22   23 ar    
   47   22   46 1     
   48   24   25 1     
   49   25   47 1     
   50   25   48 1     
   51   25   49 1     
   52    8   50 1     
   53    8   51 1     
   54   11   52 1     
   55   11   53 1     
   56   16   54 1     
   57   16   55 1     
   58   17   56 1     
@<TRIPOS>SUBSTRUCTURE
      1 S1             1
@<TRIPOS>SET
LONE_PAIRS      STATIC     ATOMS    <user>   **** ""
7 50 51 52 53 54 55 56
DONOR_HYDROGENS      STATIC     ATOMS    <user>   **** ""
2 37 42
ATOM$BLUE        STATIC     ATOMS    COLORGROUP SYSTEM
7 50 51 52 53 54 55 56
ATOM$RED        STATIC     ATOMS    COLORGROUP SYSTEM
2 37 42
