AV-unprocessed.smi:72|AV-procd|sdf|706|dock7
  -GOLD-   2262017 23D 1   1.00000     0.00000
 Structure written by MMmdl.
 30 31  0  0  0  0  0  0  0  0  2 V2000
  150.9584  135.5005  155.2397 N   0  0  0  0  0  0  0  0  0  0  0  0
  150.7353  136.8610  155.2739 C   0  0  0  0  0  0  0  0  0  0  0  0
  150.1106  137.4376  154.1839 N   0  3  0  0  0  0  0  0  0  0  0  0
  149.7987  138.7358  154.0726 C   0  0  0  0  0  0  0  0  0  0  0  0
  150.0566  139.5489  155.0793 N   0  0  0  0  0  0  0  0  0  0  0  0
  149.7215  141.0226  155.0076 C   0  0  1  0  0  0  0  0  0  0  0  0
  149.1451  141.2792  153.7605 O   0  0  0  0  0  0  0  0  0  0  0  0
  147.7241  141.3738  153.8509 C   0  0  1  0  0  0  0  0  0  0  0  0
  147.0595  139.9824  153.7134 C   0  0  0  0  0  0  0  0  0  0  0  0
  147.2458  139.4874  152.4051 O   0  0  0  0  0  0  0  0  0  0  0  0
  147.5565  142.0469  155.2190 C   0  0  1  0  0  0  0  0  0  0  0  0
  146.2851  141.8219  155.7960 O   0  0  0  0  0  0  0  0  0  0  0  0
  148.6732  141.4435  156.0645 C   0  0  2  0  0  0  0  0  0  0  0  0
  149.1823  142.4239  156.9465 O   0  0  0  0  0  0  0  0  0  0  0  0
  150.7877  139.0644  156.1962 C   0  0  0  0  0  0  0  0  0  0  0  0
  151.1525  139.8316  157.0853 O   0  0  0  0  0  0  0  0  0  0  0  0
  151.0635  137.6898  156.2255 N   0  0  0  0  0  0  0  0  0  0  0  0
  150.6843  141.5292  155.0932 H   0  0  0  0  0  0  0  0  0  0  0  0
  147.3454  142.0314  153.0670 H   0  0  0  0  0  0  0  0  0  0  0  0
  147.7103  143.1209  155.0992 H   0  0  0  0  0  0  0  0  0  0  0  0
  148.3166  140.5729  156.6173 H   0  0  0  0  0  0  0  0  0  0  0  0
  151.4188  134.9974  155.9851 H   0  0  0  0  0  0  0  0  0  0  0  0
  150.6830  134.9013  154.4748 H   0  0  0  0  0  0  0  0  0  0  0  0
  149.3581  139.0850  153.1486 H   0  0  0  0  0  0  0  0  0  0  0  0
  147.4200  139.2648  154.4489 H   0  0  0  0  0  0  0  0  0  0  0  0
  145.9818  140.0595  153.8557 H   0  0  0  0  0  0  0  0  0  0  0  0
  148.0982  139.7576  152.0984 H   0  0  0  0  0  0  0  0  0  0  0  0
  145.8039  142.6357  155.7920 H   0  0  0  0  0  0  0  0  0  0  0  0
  148.8671  143.2717  156.6730 H   0  0  0  0  0  0  0  0  0  0  0  0
  149.8786  136.8316  153.4098 H   0  0  0  0  0  0  0  0  0  0  0  0
  1  2  1  0  0  0  0
  1 22  1  0  0  0  0
  1 23  1  0  0  0  0
  2 17  2  0  0  0  0
  2  3  1  0  0  0  0
  3  4  2  0  0  0  0
  3 30  1  0  0  0  0
  4  5  1  0  0  0  0
  4 24  1  0  0  0  0
  5  6  1  0  0  0  0
  5 15  1  0  0  0  0
  6 18  1  0  0  0  0
  6 13  1  0  0  0  0
  6  7  1  0  0  0  0
  7  8  1  0  0  0  0
  8 19  1  0  0  0  0
  8  9  1  0  0  0  0
  8 11  1  0  0  0  0
  9 10  1  0  0  0  0
  9 25  1  0  0  0  0
  9 26  1  0  0  0  0
 10 27  1  0  0  0  0
 11 20  1  0  0  0  0
 11 12  1  0  0  0  0
 11 13  1  0  0  0  0
 12 28  1  0  0  0  0
 13 21  1  0  0  0  0
 13 14  1  0  0  0  0
 14 29  1  0  0  0  0
 15 16  2  0  0  0  0
 15 17  1  0  0  0  0
M  CHG  1   3   1
M  END
> <s_m_source_file>
AV-unprocessed.smi

> <i_m_source_file_index>
72

> <i_lp_mmshare_version>
43012

> <i_f3d_flags>
0

> <s_epik_input>
W05IMl1jMW5bY0hdbihjKD1PKW4xKVtDQEBIXTJPW0NASF0oW0NIMl1bT0hdKVtDQEBIXShbT0hdKVtDQEhdMltPSF0=

> <s_epik_cmdline>
J2VwaWtfcHl0aG9uJywgJy1waCcsICc3LjAnLCAnLXRuJywgJzgnLCAnLW1hJywgJzIwMCcsICctbWV0YWxfYmluZGluZycsICctaW1hZScsICc8aW5maWxlLm1hZT4nLCAnLW9tYWUnLCAnPG91dGZpbGUubWFlPic=

> <r_lp_tautomer_probability>
4.77166e-05

> <r_epik_Ionization_Penalty>
0.104979

> <r_epik_Ionization_Penalty_Charging>
0.0999619

> <r_epik_Ionization_Penalty_Neutral>
0.00501745

> <r_epik_State_Penalty>
2.51541

> <r_epik_Charging_Adjusted_Penalty>
2.61537

> <i_epik_Tot_Q>
1

> <i_epik_Tot_abs_Q>
1

> <r_epik_Metal_State_Penalty>
3.53763

> <b_epik_Metal_Only>
0

> <s_epik_Chemistry_Notes>
This compound contains an acetal/aminal-like group ( X-CH(R)-Y where X, Y are N, S, or O) that may be acid/base labile, releasing an aldehyde.

> <s_lp_Force_Field>
OPLS_2005

> <r_lp_Energy>
30.8227

> <b_lp_Chiralities_Consistent>
1

> <s_lp_Variant>
AV-unprocessed.smi:72-44

> <Gold.Version>
5.8.1

> <Gold.Id.Protein>
6NUR|6NUR_protein|mol2

> <Gold.PLP.Fitness>
40.8097

> <Gold.PLP.PLP>
-23.2791

> <Gold.PLP.part.hbond>
-5.3004

> <Gold.PLP.part.metal>
0.0000

> <Gold.PLP.part.buried>
-3.2218

> <Gold.PLP.part.nonpolar>
-17.0570

> <Gold.PLP.part.repulsive>
2.2073

> <Gold.PLP.ligand.clash>
0.0000

> <Gold.PLP.ligand.torsion>
0.0852

> <Gold.PLP.Chemscore.Hbond>
4.8800

> <Gold.PLP.Chemscore.CHOScore>
1.0000

> <Gold.PLP.Chemscore.Metal>
0.0000

> <Gold.Chemscore.Hbonds>
donor molecule, donor type, donor heavy atom, donor atom, acceptor molecule, acceptor atom, score
      L1  H     3    30       P1  7948  2.00
      L1  H    10    27       P1  7957  1.00
      L1  H    14    29       P1  8028  1.00
      P1  H  8011  8017       L1     7  0.86
      L1  C     4    24       P1  7957  1.00

> <Gold.PLP.Chemscore.Internal.Correction>
0.0610

> <Gold.Rescore>
     Score         DG    S(hbond)    S(metal)    S(lipo)     H(rot)  DE(clash)    DE(int)     intcor
      6.10      -8.71       3.30        0.00      22.60       4.08       0.89       1.73       ----

> <Gold.Chemscore.Fitness>
6.0955

> <Gold.Chemscore.DG>
-8.7139

> <Gold.Chemscore.ZeroCoef>
-5.4800

> <Gold.Chemscore.Hbond>
3.3024

> <Gold.Chemscore.Metal>
0.0000

> <Gold.Chemscore.Lipo>
22.6017

> <Gold.Chemscore.Internal_Hbond>
0.0000

> <Gold.Chemscore.DEClash>
0.8910

> <Gold.Chemscore.DEInternal>
1.7273

> <Gold.Chemscore.Rot>
4.0783

> <Gold.Chemscore.Internal.Correction>
   9.000000E+99

> <Gold.Chemscore.Hbonds>
donor molecule, donor type, donor heavy atom, donor atom, acceptor molecule, acceptor atom, score
      L1  H     3    30       P1  7948  0.30
      L1  H    10    27       P1  7957  1.00
      L1  H    14    29       P1  8028  0.86
      P1  H  8011  8017       L1     7  0.63

> <Gold.Chemscore.Hbond.Weighted>
-11.0299

> <Gold.Chemscore.Metal.Weighted>
-0.0000

> <Gold.Chemscore.Lipo.Weighted>
-2.6444

> <Gold.Chemscore.Internal_Hbond.Weighted>
0.0000

> <Gold.Chemscore.DEClash.Weighted>
0.8910

> <Gold.Chemscore.DEInternal.Weighted>
1.7273

> <Gold.Chemscore.Rot.Weighted>
10.4404

> <Gold.Chemscore.Internal.Correction.Weighted>
   9.000000E+99

> <Gold.Protein.RotatedTorsions>
[ 6907 6896 6895 6894 ] final -122.49 input  -60.11 | X-H torsion
[ 7974 7965 7964 7962 ] final   -4.89 input  175.53 | X-H torsion
[ 8008 7997 7996 7995 ] final -132.40 input   59.86 | X-H torsion
[ 10167 10162 10161 10158 ] final  -92.20 input  -65.29 | X-H torsion
[ 10718 10713 10712 10709 ] final  -10.52 input   66.30 | X-H torsion
[ 10763 10752 10751 10750 ] final   64.62 input  -60.55 | X-H torsion
[ 11005 11000 10999 10996 ] final   -2.47 input  -57.11 | X-H torsion

> <Gold.Protein.ActiveResidues>
 VAL166  LYS551  ARG553  GLY616  TRP617  ASP618  TYR619  PRO620  LYS621  CYS622 
 ASP623  PHE694  ASN695  SER759  ASP760  ASP761  ALA762  ILE779  LEU786  VAL792 
 PHE793  MET794  SER795  GLU796  ALA797  LYS798  CYS799  TRP800  GLU811  SER814 

> <Gold.Protein.RotatedAtoms>
  150.8581  133.7685  159.3001 H   0  0  0  0  0  0  0  0  0  0  0  0  # atno 6907 bound_to 6896
  151.5335  135.1067  159.9918 H   0  0  0  0  0  0  0  0  0  0  0  0  # atno 6908 bound_to 6896
  152.4605  133.7769  159.6885 H   0  0  0  0  0  0  0  0  0  0  0  0  # atno 6909 bound_to 6896
  146.2364  140.1939  142.8333 H   0  0  0  0  0  0  0  0  0  0  0  0  # atno 7974 bound_to 7965
  155.3283  140.0465  157.3042 H   0  0  0  0  0  0  0  0  0  0  0  0  # atno 8008 bound_to 7997
  154.5342  140.2267  155.8717 H   0  0  0  0  0  0  0  0  0  0  0  0  # atno 8009 bound_to 7997
  156.1819  140.3072  155.9171 H   0  0  0  0  0  0  0  0  0  0  0  0  # atno 8010 bound_to 7997
  140.3372  143.2962  151.9875 H   0  0  0  0  0  0  0  0  0  0  0  0  # atno 10167 bound_to 10162
  156.6724  130.5013  149.5996 H   0  0  0  0  0  0  0  0  0  0  0  0  # atno 10718 bound_to 10713
  153.0063  135.5386  154.6539 H   0  0  0  0  0  0  0  0  0  0  0  0  # atno 10763 bound_to 10752
  154.5764  135.2846  155.0778 H   0  0  0  0  0  0  0  0  0  0  0  0  # atno 10764 bound_to 10752
  154.1924  135.6498  153.5116 H   0  0  0  0  0  0  0  0  0  0  0  0  # atno 10765 bound_to 10752
  140.6588  133.9339  155.8423 H   0  0  0  0  0  0  0  0  0  0  0  0  # atno 11005 bound_to 11000
  144.9836  140.8482  143.5382 LP  0  0  0  0  0  0  0  0  0  0  0  0  # atno 17320 bound_to 7965
  145.1935  139.2289  143.5230 LP  0  0  0  0  0  0  0  0  0  0  0  0  # atno 17321 bound_to 7965
  139.4846  144.6186  151.7298 LP  0  0  0  0  0  0  0  0  0  0  0  0  # atno 17342 bound_to 10162
  140.5342  144.0682  150.6064 LP  0  0  0  0  0  0  0  0  0  0  0  0  # atno 17343 bound_to 10162
  156.1929  130.6571  151.1081 LP  0  0  0  0  0  0  0  0  0  0  0  0  # atno 17370 bound_to 10713
  157.7072  131.0751  150.6624 LP  0  0  0  0  0  0  0  0  0  0  0  0  # atno 17371 bound_to 10713
  141.0481  134.0524  157.3818 LP  0  0  0  0  0  0  0  0  0  0  0  0  # atno 17394 bound_to 11000
  139.9020  135.0168  156.7314 LP  0  0  0  0  0  0  0  0  0  0  0  0  # atno 17395 bound_to 11000

$$$$
