#       Name:                AV-unprocessed.smi:864
#       Creating user name   scv26
#       Creation time:       Fri Mar 27 01:46:27 2020


#       File generated by GOLD software.
#

@<TRIPOS>MOLECULE
AV-unprocessed.smi:864
    49    51     1
SMALL
NO_CHARGES


@<TRIPOS>ATOM
      1 ****        -2.4860   3.3506   2.2835 C.3            1 S1                 0.0000
      2 ****        -2.2756   1.8547   2.3899 C.ar           1 S1                 0.0000
      3 ****        -2.2519   1.2138   3.6466 C.ar           1 S1                 0.0000
      4 ****        -2.0483  -0.1791   3.6857 C.ar           1 S1                 0.0000
      5 ****        -1.8785  -0.8753   2.4719 C.ar           1 S1                 0.0000
      6 ****        -1.6405  -2.3760   2.4610 C.3            1 S1                 0.0000
      7 ****        -0.1779  -2.7711   2.7542 C.3            1 S1                 0.0000
      8 ****         0.7868  -2.0275   1.9491 N.am           1 S1                 0.0000
      9 ****         0.9653  -2.1795   0.6301 C.2            1 S1                 0.0000
     10 ****         0.3728  -3.0130  -0.0555 O.2            1 S1                 0.0000
     11 ****         1.8354  -1.2863   0.1402 N.am           1 S1                 0.0000
     12 ****         2.1364  -1.1161  -1.2782 C.3            1 S1                 0.0000
     13 ****         3.4158  -0.2985  -1.4983 C.3            1 S1                 0.0000
     14 ****         2.9989   0.7630  -2.5023 C.2            1 S1                 0.0000
     15 ****         3.7905   1.5870  -2.9589 O.2            1 S1                 0.0000
     16 ****         1.6960   0.6774  -2.7960 N.am           1 S1                 0.0000
     17 ****         0.9763   1.6239  -3.5992 C.3            1 S1                 0.0000
     18 ****        -0.5163   1.4865  -3.8356 C.3            1 S1                 0.0000
     19 ****         0.4562   1.1644  -4.9426 C.3            1 S1                 0.0000
     20 ****         1.0198  -0.3354  -1.9983 C.3            1 S1                 0.0000
     21 ****        -1.9262  -0.1399   1.2679 C.ar           1 S1                 0.0000
     22 ****        -2.1161   1.1959   1.2210 N.ar           1 S1                 0.0000
     23 ****        -2.5501   3.8122   3.2692 H              1 S1                 0.0000
     24 ****        -3.4098   3.5656   1.7457 H              1 S1                 0.0000
     25 ****        -1.6583   3.8131   1.7449 H              1 S1                 0.0000
     26 ****        -2.3845   1.7736   4.5608 H              1 S1                 0.0000
     27 ****        -2.0192  -0.7015   4.6306 H              1 S1                 0.0000
     28 ****        -2.3003  -2.8452   3.1914 H              1 S1                 0.0000
     29 ****        -1.9425  -2.7720   1.4906 H              1 S1                 0.0000
     30 ****         0.0486  -2.5627   3.8002 H              1 S1                 0.0000
     31 ****        -0.0367  -3.8441   2.6157 H              1 S1                 0.0000
     32 ****         1.3174  -1.3111   2.4227 H              1 S1                 0.0000
     33 ****         2.2736  -0.6423   0.7824 H              1 S1                 0.0000
     34 ****         2.2633  -2.0933  -1.7487 H              1 S1                 0.0000
     35 ****         3.7639   0.1864  -0.5851 H              1 S1                 0.0000
     36 ****         4.2261  -0.9107  -1.8953 H              1 S1                 0.0000
     37 ****         1.3383   2.6501  -3.5549 H              1 S1                 0.0000
     38 ****        -1.0566   0.6532  -3.3922 H              1 S1                 0.0000
     39 ****        -1.0910   2.4055  -3.9294 H              1 S1                 0.0000
     40 ****         0.5238   1.8646  -5.7726 H              1 S1                 0.0000
     41 ****         0.5852   0.1163  -5.2059 H              1 S1                 0.0000
     42 ****         0.4273  -1.0017  -2.6262 H              1 S1                 0.0000
     43 ****         0.3450   0.1572  -1.2953 H              1 S1                 0.0000
     44 ****        -1.7957  -0.6333   0.3158 H              1 S1                 0.0000
     45 ****        -0.2896  -3.6301   0.3693 LP             1 S1                 0.0000
     46 ****         0.5540  -3.0729  -1.0371 LP             1 S1                 0.0000
     47 ****         4.7479   1.5736  -2.6706 LP             1 S1                 0.0000
     48 ****         3.4764   2.2701  -3.6183 LP             1 S1                 0.0000
     49 ****        -2.1381   1.6829   0.3479 LP             1 S1                 0.0000
@<TRIPOS>BOND
    1    1    2 1     
    2    1   23 1     
    3    1   24 1     
    4    1   25 1     
    5    2   22 ar    
    6    2    3 ar    
    7    3    4 ar    
    8    3   26 1     
    9    4    5 ar    
   10    4   27 1     
   11    5    6 1     
   12    5   21 ar    
   13    6    7 1     
   14    6   28 1     
   15    6   29 1     
   16    7    8 1     
   17    7   30 1     
   18    7   31 1     
   19    8    9 am    
   20    8   32 1     
   21    9   10 2     
   22    9   11 am    
   23   11   12 1     
   24   11   33 1     
   25   12   20 1     
   26   12   13 1     
   27   12   34 1     
   28   13   14 1     
   29   13   35 1     
   30   13   36 1     
   31   14   15 2     
   32   14   16 am    
   33   16   17 1     
   34   16   20 1     
   35   17   19 1     
   36   17   18 1     
   37   17   37 1     
   38   18   19 1     
   39   18   38 1     
   40   18   39 1     
   41   19   40 1     
   42   19   41 1     
   43   20   42 1     
   44   20   43 1     
   45   21   22 ar    
   46   21   44 1     
   47   10   45 1     
   48   10   46 1     
   49   15   47 1     
   50   15   48 1     
   51   22   49 1     
@<TRIPOS>SUBSTRUCTURE
      1 S1             1
@<TRIPOS>SET
LONE_PAIRS      STATIC     ATOMS    <user>   **** ""
5 45 46 47 48 49
DONOR_HYDROGENS      STATIC     ATOMS    <user>   **** ""
2 32 33
ATOM$BLUE        STATIC     ATOMS    COLORGROUP SYSTEM
5 45 46 47 48 49
ATOM$RED        STATIC     ATOMS    COLORGROUP SYSTEM
2 32 33
