AV-unprocessed.smi:89|AV-procd|sdf|826|dock1
  -GOLD-   2262017243D 1   1.00000     0.00000
 Structure written by MMmdl.
 54 56  0  0  0  0  0  0  0  0  1 V2000
  147.3050  138.6259  153.3817 C   0  0  0  0  0  0  0  0  0  0  0  0
  148.6119  139.2176  153.9374 C   0  0  0  0  0  0  0  0  0  0  0  0
  149.3991  138.2733  154.7342 N   0  0  0  0  0  0  0  0  0  0  0  0
  150.4265  138.8049  155.4503 C   0  0  0  0  0  0  0  0  0  0  0  0
  151.5411  138.0639  155.6858 N   0  0  0  0  0  0  0  0  0  0  0  0
  152.5561  138.5714  156.3903 C   0  0  0  0  0  0  0  0  0  0  0  0
  152.6647  139.7802  156.9434 N   0  0  0  0  0  0  0  0  0  0  0  0
  151.5485  140.5296  156.7155 C   0  0  0  0  0  0  0  0  0  0  0  0
  150.3912  140.1207  155.9938 C   0  0  0  0  0  0  0  0  0  0  0  0
  149.4619  141.1537  155.9711 N   0  0  0  0  0  0  0  0  0  0  0  0
  150.0359  142.1163  156.6386 C   0  0  0  0  0  0  0  0  0  0  0  0
  151.2959  141.8308  157.1130 N   0  0  0  0  0  0  0  0  0  0  0  0
  152.1625  142.7210  157.8699 C   0  0  0  0  0  0  0  0  0  0  0  0
  151.4359  143.9843  158.3870 C   0  0  2  0  0  0  0  0  0  0  0  0
  151.1022  144.8077  157.2824 O   0  0  0  0  0  0  0  0  0  0  0  0
  152.2494  144.8109  159.3789 C   0  0  0  0  0  0  0  0  0  0  0  0
  151.1774  145.4163  160.2737 C   0  0  0  0  0  0  0  0  0  0  0  0
  150.2568  144.3482  160.4180 O   0  0  0  0  0  0  0  0  0  0  0  0
  150.1439  143.6733  159.1687 C   0  0  0  0  0  0  0  0  0  0  0  0
  148.8051  136.9719  155.0837 C   0  0  2  0  0  0  0  0  0  0  0  0
  148.0538  136.9923  156.4286 C   0  0  0  0  0  0  0  0  0  0  0  0
  149.7846  135.7778  154.9858 C   0  0  0  0  0  0  0  0  0  0  0  0
  148.9291  134.1543  155.2150 S   0  0  0  0  0  0  0  0  0  0  0  0
  149.4709  133.5248  156.4290 O   0  0  0  0  0  0  0  0  0  0  0  0
  147.4787  134.3628  155.0915 O   0  0  0  0  0  0  0  0  0  0  0  0
  149.4936  133.1943  153.7423 C   0  0  0  0  0  0  0  0  0  0  0  0
  148.3242  132.7359  152.8626 C   0  0  0  0  0  0  0  0  0  0  0  0
  146.7962  139.3538  152.7496 H   0  0  0  0  0  0  0  0  0  0  0  0
  146.6160  138.3524  154.1811 H   0  0  0  0  0  0  0  0  0  0  0  0
  147.4865  137.7368  152.7793 H   0  0  0  0  0  0  0  0  0  0  0  0
  149.2198  139.5646  153.1017 H   0  0  0  0  0  0  0  0  0  0  0  0
  148.3968  140.1078  154.5269 H   0  0  0  0  0  0  0  0  0  0  0  0
  153.4024  137.9153  156.5296 H   0  0  0  0  0  0  0  0  0  0  0  0
  149.5573  143.0721  156.7956 H   0  0  0  0  0  0  0  0  0  0  0  0
  152.5890  142.1601  158.7026 H   0  0  0  0  0  0  0  0  0  0  0  0
  153.0008  143.0053  157.2323 H   0  0  0  0  0  0  0  0  0  0  0  0
  150.2564  144.5415  156.9556 H   0  0  0  0  0  0  0  0  0  0  0  0
  152.8794  144.1593  159.9851 H   0  0  0  0  0  0  0  0  0  0  0  0
  152.8952  145.5552  158.9104 H   0  0  0  0  0  0  0  0  0  0  0  0
  151.5668  145.7456  161.2372 H   0  0  0  0  0  0  0  0  0  0  0  0
  150.6898  146.2630  159.7877 H   0  0  0  0  0  0  0  0  0  0  0  0
  149.2517  144.0196  158.6444 H   0  0  0  0  0  0  0  0  0  0  0  0
  150.0180  142.6060  159.3537 H   0  0  0  0  0  0  0  0  0  0  0  0
  148.0436  136.7854  154.3257 H   0  0  0  0  0  0  0  0  0  0  0  0
  147.5639  136.0358  156.6114 H   0  0  0  0  0  0  0  0  0  0  0  0
  147.2741  137.7529  156.4374 H   0  0  0  0  0  0  0  0  0  0  0  0
  148.7176  137.1815  157.2713 H   0  0  0  0  0  0  0  0  0  0  0  0
  150.3362  135.7527  154.0476 H   0  0  0  0  0  0  0  0  0  0  0  0
  150.5256  135.8614  155.7791 H   0  0  0  0  0  0  0  0  0  0  0  0
  150.1602  133.8373  153.1674 H   0  0  0  0  0  0  0  0  0  0  0  0
  150.0803  132.3437  154.0897 H   0  0  0  0  0  0  0  0  0  0  0  0
  148.6913  132.2208  151.9748 H   0  0  0  0  0  0  0  0  0  0  0  0
  147.7247  133.5826  152.5283 H   0  0  0  0  0  0  0  0  0  0  0  0
  147.6681  132.0459  153.3915 H   0  0  0  0  0  0  0  0  0  0  0  0
  1  2  1  0  0  0  0
  1 28  1  0  0  0  0
  1 29  1  0  0  0  0
  1 30  1  0  0  0  0
  2  3  1  0  0  0  0
  2 31  1  0  0  0  0
  2 32  1  0  0  0  0
  3  4  1  0  0  0  0
  3 20  1  0  0  0  0
  4  9  1  0  0  0  0
  4  5  2  0  0  0  0
  5  6  1  0  0  0  0
  6  7  2  0  0  0  0
  6 33  1  0  0  0  0
  7  8  1  0  0  0  0
  8 12  1  0  0  0  0
  8  9  2  0  0  0  0
  9 10  1  0  0  0  0
 10 11  2  0  0  0  0
 11 12  1  0  0  0  0
 11 34  1  0  0  0  0
 12 13  1  0  0  0  0
 13 14  1  0  0  0  0
 13 35  1  0  0  0  0
 13 36  1  0  0  0  0
 14 19  1  0  0  0  0
 14 15  1  0  0  0  0
 14 16  1  0  0  0  0
 15 37  1  0  0  0  0
 16 17  1  0  0  0  0
 16 38  1  0  0  0  0
 16 39  1  0  0  0  0
 17 18  1  0  0  0  0
 17 40  1  0  0  0  0
 17 41  1  0  0  0  0
 18 19  1  0  0  0  0
 19 42  1  0  0  0  0
 19 43  1  0  0  0  0
 20 21  1  0  0  0  0
 20 22  1  0  0  0  0
 20 44  1  0  0  0  0
 21 45  1  0  0  0  0
 21 46  1  0  0  0  0
 21 47  1  0  0  0  0
 22 23  1  0  0  0  0
 22 48  1  0  0  0  0
 22 49  1  0  0  0  0
 23 24  2  0  0  0  0
 23 25  2  0  0  0  0
 23 26  1  0  0  0  0
 26 27  1  0  0  0  0
 26 50  1  0  0  0  0
 26 51  1  0  0  0  0
 27 52  1  0  0  0  0
 27 53  1  0  0  0  0
 27 54  1  0  0  0  0
M  END
> <s_m_source_file>
AV-unprocessed.smi

> <i_m_source_file_index>
89

> <i_lp_mmshare_version>
43012

> <i_f3d_flags>
0

> <s_epik_input>
W0NIM11bQ0gyXVMoPU8pKD1PKVtDSDJdW0NAQEhdKFtDSDNdKU4oW0NIMl1bQ0gzXSljKG5bY0hdbjEpYyhjMTIpbltjSF1uMltDSDJdW0NAQF0zKFtPSF0pW0NIMl1bQ0gyXU9bQ0gyXTM=

> <s_epik_cmdline>
J2VwaWtfcHl0aG9uJywgJy1waCcsICc3LjAnLCAnLXRuJywgJzgnLCAnLW1hJywgJzIwMCcsICctbWV0YWxfYmluZGluZycsICctaW1hZScsICc8aW5maWxlLm1hZT4nLCAnLW9tYWUnLCAnPG91dGZpbGUubWFlPic=

> <r_lp_tautomer_probability>
1

> <r_epik_Ionization_Penalty>
0.00103773

> <r_epik_Ionization_Penalty_Charging>
0

> <r_epik_Ionization_Penalty_Neutral>
0.00103773

> <r_epik_State_Penalty>
0.000558914

> <r_epik_Charging_Adjusted_Penalty>
0.000558914

> <i_epik_Tot_Q>
0

> <i_epik_Tot_abs_Q>
0

> <r_epik_Metal_State_Penalty>
-0

> <b_epik_Metal_Only>
0

> <s_lp_Force_Field>
OPLS_2005

> <r_lp_Energy>
26.3336

> <b_lp_Chiralities_Consistent>
1

> <s_lp_Variant>
AV-unprocessed.smi:89-2

> <Gold.Version>
5.8.1

> <Gold.Id.Protein>
6NUR|6NUR_protein|mol2

> <Gold.PLP.Fitness>
42.7411

> <Gold.PLP.PLP>
-37.0276

> <Gold.PLP.part.hbond>
-2.1485

> <Gold.PLP.part.metal>
0.0000

> <Gold.PLP.part.buried>
-0.9833

> <Gold.PLP.part.nonpolar>
-34.0404

> <Gold.PLP.part.repulsive>
0.2999

> <Gold.PLP.ligand.clash>
2.0441

> <Gold.PLP.ligand.torsion>
1.4948

> <Gold.PLP.Chemscore.Hbond>
1.9680

> <Gold.PLP.Chemscore.CHOScore>
1.0000

> <Gold.PLP.Chemscore.Metal>
0.0000

> <Gold.Chemscore.Hbonds>
donor molecule, donor type, donor heavy atom, donor atom, acceptor molecule, acceptor atom, score
      L1  H    15    37       P1  8028  0.96
      P1  H  7997  8008       L1     7  0.98
      L1  C    11    34       P1  8028  1.00

> <Gold.PLP.Chemscore.Internal.Correction>
1.8430

> <Gold.Rescore>
     Score         DG    S(hbond)    S(metal)    S(lipo)     H(rot)  DE(clash)    DE(int)     intcor
      5.72     -12.61       1.31        0.00      92.22       3.14       1.62       5.27       ----

> <Gold.Chemscore.Fitness>
5.7244

> <Gold.Chemscore.DG>
-12.6125

> <Gold.Chemscore.ZeroCoef>
-5.4800

> <Gold.Chemscore.Hbond>
1.3108

> <Gold.Chemscore.Metal>
0.0000

> <Gold.Chemscore.Lipo>
92.2160

> <Gold.Chemscore.Internal_Hbond>
0.0000

> <Gold.Chemscore.DEClash>
1.6166

> <Gold.Chemscore.DEInternal>
5.2715

> <Gold.Chemscore.Rot>
3.1386

> <Gold.Chemscore.Internal.Correction>
   9.000000E+99

> <Gold.Chemscore.Hbonds>
donor molecule, donor type, donor heavy atom, donor atom, acceptor molecule, acceptor atom, score
      L1  H    15    37       P1  8028  0.69
      P1  H  7997  8008       L1     7  0.32

> <Gold.Chemscore.Hbond.Weighted>
-4.3782

> <Gold.Chemscore.Metal.Weighted>
-0.0000

> <Gold.Chemscore.Lipo.Weighted>
-10.7893

> <Gold.Chemscore.Internal_Hbond.Weighted>
0.0000

> <Gold.Chemscore.DEClash.Weighted>
1.6166

> <Gold.Chemscore.DEInternal.Weighted>
5.2715

> <Gold.Chemscore.Rot.Weighted>
8.0349

> <Gold.Chemscore.Internal.Correction.Weighted>
   9.000000E+99

> <Gold.Protein.RotatedTorsions>
[ 6907 6896 6895 6894 ] final  103.24 input  -60.11 | X-H torsion
[ 7974 7965 7964 7962 ] final -157.47 input  175.53 | X-H torsion
[ 8008 7997 7996 7995 ] final  -75.99 input   59.86 | X-H torsion
[ 10167 10162 10161 10158 ] final    9.56 input  -65.29 | X-H torsion
[ 10718 10713 10712 10709 ] final   94.46 input   66.30 | X-H torsion
[ 10763 10752 10751 10750 ] final  -93.16 input  -60.55 | X-H torsion
[ 11005 11000 10999 10996 ] final   55.83 input  -57.11 | X-H torsion

> <Gold.Protein.ActiveResidues>
 VAL166  LYS551  ARG553  GLY616  TRP617  ASP618  TYR619  PRO620  LYS621  CYS622 
 ASP623  PHE694  ASN695  SER759  ASP760  ASP761  ALA762  ILE779  LEU786  VAL792 
 PHE793  MET794  SER795  GLU796  ALA797  LYS798  CYS799  TRP800  GLU811  SER814 

> <Gold.Protein.RotatedAtoms>
  152.5301  133.9855  159.7826 H   0  0  0  0  0  0  0  0  0  0  0  0  # atno 6907 bound_to 6896
  151.0101  133.5965  159.2691 H   0  0  0  0  0  0  0  0  0  0  0  0  # atno 6908 bound_to 6896
  151.3043  135.0784  159.9303 H   0  0  0  0  0  0  0  0  0  0  0  0  # atno 6909 bound_to 6896
  144.7547  140.3964  143.6021 H   0  0  0  0  0  0  0  0  0  0  0  0  # atno 7974 bound_to 7965
  154.5465  140.0734  156.8598 H   0  0  0  0  0  0  0  0  0  0  0  0  # atno 8008 bound_to 7997
  155.3076  140.3388  155.4227 H   0  0  0  0  0  0  0  0  0  0  0  0  # atno 8009 bound_to 7997
  156.1923  140.1691  156.8053 H   0  0  0  0  0  0  0  0  0  0  0  0  # atno 8010 bound_to 7997
  140.6247  143.8127  150.7218 H   0  0  0  0  0  0  0  0  0  0  0  0  # atno 10167 bound_to 10162
  157.6947  131.0513  150.4190 H   0  0  0  0  0  0  0  0  0  0  0  0  # atno 10718 bound_to 10713
  154.6932  135.5205  153.8421 H   0  0  0  0  0  0  0  0  0  0  0  0  # atno 10763 bound_to 10752
  153.0647  135.6581  154.0391 H   0  0  0  0  0  0  0  0  0  0  0  0  # atno 10764 bound_to 10752
  154.0261  135.2989  155.3354 H   0  0  0  0  0  0  0  0  0  0  0  0  # atno 10765 bound_to 10752
  140.0576  134.5648  155.9189 H   0  0  0  0  0  0  0  0  0  0  0  0  # atno 11005 bound_to 11000
  145.6821  139.1620  143.2695 LP  0  0  0  0  0  0  0  0  0  0  0  0  # atno 17320 bound_to 7965
  146.1542  140.6882  142.9308 LP  0  0  0  0  0  0  0  0  0  0  0  0  # atno 17321 bound_to 7965
  140.1725  143.4183  152.1991 LP  0  0  0  0  0  0  0  0  0  0  0  0  # atno 17342 bound_to 10162
  139.5469  144.7306  151.4554 LP  0  0  0  0  0  0  0  0  0  0  0  0  # atno 17343 bound_to 10162
  156.4567  130.4023  149.6602 LP  0  0  0  0  0  0  0  0  0  0  0  0  # atno 17370 bound_to 10713
  156.3732  130.7541  151.2526 LP  0  0  0  0  0  0  0  0  0  0  0  0  # atno 17371 bound_to 10713
  141.1959  133.6589  156.5665 LP  0  0  0  0  0  0  0  0  0  0  0  0  # atno 17394 bound_to 11000
  140.3820  134.7515  157.4667 LP  0  0  0  0  0  0  0  0  0  0  0  0  # atno 17395 bound_to 11000

$$$$
