AV-unprocessed.smi:1417|AV-procd|sdf|5771|dock9
  -GOLD-   22720 5413D 1   1.00000     0.00000
 Structure written by MMmdl.
 39 40  0  0  0  0  0  0  0  0  3 V2000
  136.9469  137.5891  153.7354 C   0  0  0  0  0  0  0  0  0  0  0  0
  138.3344  138.0956  153.5370 C   0  0  0  0  0  0  0  0  0  0  0  0
  139.5085  137.4822  153.2025 C   0  0  0  0  0  0  0  0  0  0  0  0
  140.4395  138.5616  153.1869 C   0  0  0  0  0  0  0  0  0  0  0  0
  141.8256  138.4732  152.8966 N   0  0  0  0  0  0  0  0  0  0  0  0
  142.5735  137.3703  152.7253 C   0  0  0  0  0  0  0  0  0  0  0  0
  142.1584  136.2124  152.7711 O   0  0  0  0  0  0  0  0  0  0  0  0
  143.8574  137.6842  152.4971 N   0  0  0  0  0  0  0  0  0  0  0  0
  144.9337  136.7184  152.2937 C   0  0  2  0  0  0  0  0  0  0  0  0
  144.6085  135.7750  151.1211 C   0  0  0  0  0  0  0  0  0  0  0  0
  145.6838  134.6876  150.9652 C   0  0  0  0  0  0  0  0  0  0  0  0
  145.8559  133.9175  152.2263 N   0  3  1  0  0  0  0  0  0  0  0  0
  146.7913  132.7737  152.0884 C   0  0  0  0  0  0  0  0  0  0  0  0
  146.1337  131.6475  151.2836 C   0  0  0  0  0  0  0  0  0  0  0  0
  146.6148  131.5629  150.0289 N   0  5  0  0  0  0  0  0  0  0  0  0
  145.2597  130.9584  151.8057 O   0  0  0  0  0  0  0  0  0  0  0  0
  146.2112  134.8041  153.3630 C   0  0  0  0  0  0  0  0  0  0  0  0
  145.1448  135.8927  153.5728 C   0  0  0  0  0  0  0  0  0  0  0  0
  139.8799  139.7200  153.4838 N   0  0  0  0  0  0  0  0  0  0  0  0
  138.5291  139.4308  153.7090 O   0  0  0  0  0  0  0  0  0  0  0  0
  136.9421  136.5055  153.8549 H   0  0  0  0  0  0  0  0  0  0  0  0
  136.3195  137.8379  152.8796 H   0  0  0  0  0  0  0  0  0  0  0  0
  136.4962  138.0284  154.6254 H   0  0  0  0  0  0  0  0  0  0  0  0
  139.6572  136.4314  153.0056 H   0  0  0  0  0  0  0  0  0  0  0  0
  142.3060  139.3580  152.8245 H   0  0  0  0  0  0  0  0  0  0  0  0
  144.1109  138.6611  152.4721 H   0  0  0  0  0  0  0  0  0  0  0  0
  145.8590  137.2552  152.0752 H   0  0  0  0  0  0  0  0  0  0  0  0
  143.6380  135.3031  151.2824 H   0  0  0  0  0  0  0  0  0  0  0  0
  144.5260  136.3402  150.1922 H   0  0  0  0  0  0  0  0  0  0  0  0
  145.3973  134.0212  150.1511 H   0  0  0  0  0  0  0  0  0  0  0  0
  146.6353  135.1397  150.6806 H   0  0  0  0  0  0  0  0  0  0  0  0
  147.7392  133.1053  151.6585 H   0  0  0  0  0  0  0  0  0  0  0  0
  147.0253  132.3620  153.0711 H   0  0  0  0  0  0  0  0  0  0  0  0
  147.5622  131.1915  149.8882 H   0  0  0  0  0  0  0  0  0  0  0  0
  146.3024  134.2140  154.2758 H   0  0  0  0  0  0  0  0  0  0  0  0
  147.1857  135.2592  153.1796 H   0  0  0  0  0  0  0  0  0  0  0  0
  145.4421  136.5448  154.3950 H   0  0  0  0  0  0  0  0  0  0  0  0
  144.2059  135.4245  153.8728 H   0  0  0  0  0  0  0  0  0  0  0  0
  144.9581  133.5116  152.4493 H   0  0  0  0  0  0  0  0  0  0  0  0
  1  2  1  0  0  0  0
  1 21  1  0  0  0  0
  1 22  1  0  0  0  0
  1 23  1  0  0  0  0
  2 20  1  0  0  0  0
  2  3  2  0  0  0  0
  3  4  1  0  0  0  0
  3 24  1  0  0  0  0
  4  5  1  0  0  0  0
  4 19  2  0  0  0  0
  5  6  1  0  0  0  0
  5 25  1  0  0  0  0
  6  7  2  0  0  0  0
  6  8  1  0  0  0  0
  8  9  1  0  0  0  0
  8 26  1  0  0  0  0
  9 18  1  0  0  0  0
  9 10  1  0  0  0  0
  9 27  1  0  0  0  0
 10 11  1  0  0  0  0
 10 28  1  0  0  0  0
 10 29  1  0  0  0  0
 11 12  1  0  0  0  0
 11 30  1  0  0  0  0
 11 31  1  0  0  0  0
 12 13  1  0  0  0  0
 12 17  1  0  0  0  0
 12 39  1  0  0  0  0
 13 14  1  0  0  0  0
 13 32  1  0  0  0  0
 13 33  1  0  0  0  0
 14 15  1  0  0  0  0
 14 16  2  0  0  0  0
 15 34  1  0  0  0  0
 17 18  1  0  0  0  0
 17 35  1  0  0  0  0
 17 36  1  0  0  0  0
 18 37  1  0  0  0  0
 18 38  1  0  0  0  0
 19 20  1  0  0  0  0
M  CHG  1  12   1
M  CHG  1  15  -1
M  END
> <s_m_source_file>
AV-unprocessed.smi

> <i_m_source_file_index>
1417

> <i_lp_mmshare_version>
43012

> <i_f3d_flags>
0

> <s_epik_input>
W0NIM11jMVtjSF1jKG5vMSlbTkhdQyg9TylbTkhdW0NIXTJbQ0gyXVtDSDJdTihbQ0gyXVtDSDJdMilbQ0gyXUMoPU8pW05IMl0=

> <s_epik_cmdline>
J2VwaWtfcHl0aG9uJywgJy1waCcsICc3LjAnLCAnLXRuJywgJzgnLCAnLW1hJywgJzIwMCcsICctbWV0YWxfYmluZGluZycsICctaW1hZScsICc8aW5maWxlLm1hZT4nLCAnLW9tYWUnLCAnPG91dGZpbGUubWFlPic=

> <r_epik_Ionization_Penalty>
5.73218

> <r_epik_Ionization_Penalty_Charging>
5.73215

> <r_epik_Ionization_Penalty_Neutral>
3.37968e-05

> <r_epik_State_Penalty>
6.58009

> <r_epik_Charging_Adjusted_Penalty>
12.3122

> <i_epik_Tot_Q>
0

> <i_epik_Tot_abs_Q>
2

> <r_epik_Metal_State_Penalty>
2.55295

> <b_epik_Metal_Only>
1

> <s_lp_Force_Field>
OPLS_2005

> <r_lp_Energy>
6.84109

> <b_lp_Chiralities_Consistent>
1

> <s_lp_Variant>
AV-unprocessed.smi:1417-7

> <Gold.Version>
5.8.1

> <Gold.Id.Protein>
6NUR|6NUR_protein|mol2

> <Gold.PLP.Fitness>
39.1260

> <Gold.PLP.PLP>
-30.7964

> <Gold.PLP.part.hbond>
-3.9831

> <Gold.PLP.part.metal>
0.0000

> <Gold.PLP.part.buried>
-5.7935

> <Gold.PLP.part.nonpolar>
-21.7791

> <Gold.PLP.part.repulsive>
0.8123

> <Gold.PLP.ligand.clash>
0.0000

> <Gold.PLP.ligand.torsion>
0.3466

> <Gold.PLP.Chemscore.Hbond>
3.0000

> <Gold.PLP.Chemscore.CHOScore>
0.0000

> <Gold.PLP.Chemscore.Metal>
0.0000

> <Gold.Chemscore.Hbonds>
donor molecule, donor type, donor heavy atom, donor atom, acceptor molecule, acceptor atom, score
      L1  H     5    25       P1 10175  1.00
      L1  H     8    26       P1 10175  1.00
      L1  H    15    34       P1 10747  0.88

> <Gold.PLP.Chemscore.Internal.Correction>
0.0228

> <Gold.Rescore>
     Score         DG    S(hbond)    S(metal)    S(lipo)     H(rot)  DE(clash)    DE(int)     intcor
     14.13     -15.69       2.87        0.00      49.48       2.02       0.01       1.56       ----

> <Gold.Chemscore.Fitness>
14.1289

> <Gold.Chemscore.DG>
-15.6909

> <Gold.Chemscore.ZeroCoef>
-5.4800

> <Gold.Chemscore.Hbond>
2.8705

> <Gold.Chemscore.Metal>
0.0000

> <Gold.Chemscore.Lipo>
49.4752

> <Gold.Chemscore.Internal_Hbond>
0.0000

> <Gold.Chemscore.DEClash>
0.0060

> <Gold.Chemscore.DEInternal>
1.5560

> <Gold.Chemscore.Rot>
2.0176

> <Gold.Chemscore.Internal.Correction>
   9.000000E+99

> <Gold.Chemscore.Hbonds>
donor molecule, donor type, donor heavy atom, donor atom, acceptor molecule, acceptor atom, score
      L1  H     5    25       P1 10175  0.92
      L1  H     8    26       P1 10175  0.95
      L1  H    15    34       P1 10747  0.85

> <Gold.Chemscore.Hbond.Weighted>
-9.5874

> <Gold.Chemscore.Metal.Weighted>
-0.0000

> <Gold.Chemscore.Lipo.Weighted>
-5.7886

> <Gold.Chemscore.Internal_Hbond.Weighted>
0.0000

> <Gold.Chemscore.DEClash.Weighted>
0.0060

> <Gold.Chemscore.DEInternal.Weighted>
1.5560

> <Gold.Chemscore.Rot.Weighted>
5.1651

> <Gold.Chemscore.Internal.Correction.Weighted>
   9.000000E+99

> <Gold.Protein.RotatedTorsions>
[ 6907 6896 6895 6894 ] final  -15.72 input  -60.11 | X-H torsion
[ 7974 7965 7964 7962 ] final  134.11 input  175.53 | X-H torsion
[ 8008 7997 7996 7995 ] final  -17.67 input   59.86 | X-H torsion
[ 10167 10162 10161 10158 ] final  118.18 input  -65.29 | X-H torsion
[ 10718 10713 10712 10709 ] final  131.90 input   66.30 | X-H torsion
[ 10763 10752 10751 10750 ] final -166.03 input  -60.55 | X-H torsion
[ 11005 11000 10999 10996 ] final   86.64 input  -57.11 | X-H torsion

> <Gold.Protein.ActiveResidues>
 VAL166  LYS551  ARG553  GLY616  TRP617  ASP618  TYR619  PRO620  LYS621  CYS622 
 ASP623  PHE694  ASN695  SER759  ASP760  ASP761  ALA762  ILE779  LEU786  VAL792 
 PHE793  MET794  SER795  GLU796  ALA797  LYS798  CYS799  TRP800  GLU811  SER814 

> <Gold.Protein.RotatedAtoms>
  151.3196  135.0815  159.9300 H   0  0  0  0  0  0  0  0  0  0  0  0  # atno 6907 bound_to 6896
  152.5259  133.9652  159.7746 H   0  0  0  0  0  0  0  0  0  0  0  0  # atno 6908 bound_to 6896
  150.9971  133.6040  159.2730 H   0  0  0  0  0  0  0  0  0  0  0  0  # atno 6909 bound_to 6896
  144.9797  139.4517  143.5392 H   0  0  0  0  0  0  0  0  0  0  0  0  # atno 7974 bound_to 7965
  154.4962  140.2136  155.9443 H   0  0  0  0  0  0  0  0  0  0  0  0  # atno 8008 bound_to 7997
  156.1373  140.3186  155.8408 H   0  0  0  0  0  0  0  0  0  0  0  0  # atno 8009 bound_to 7997
  155.4187  140.0495  157.3018 H   0  0  0  0  0  0  0  0  0  0  0  0  # atno 8010 bound_to 7997
  139.6129  144.7086  151.2804 H   0  0  0  0  0  0  0  0  0  0  0  0  # atno 10167 bound_to 10162
  157.4923  131.1091  150.9540 H   0  0  0  0  0  0  0  0  0  0  0  0  # atno 10718 bound_to 10713
  154.6873  135.2965  154.9529 H   0  0  0  0  0  0  0  0  0  0  0  0  # atno 10763 bound_to 10752
  154.0503  135.6645  153.4803 H   0  0  0  0  0  0  0  0  0  0  0  0  # atno 10764 bound_to 10752
  153.0588  135.5128  154.7948 H   0  0  0  0  0  0  0  0  0  0  0  0  # atno 10765 bound_to 10752
  139.8939  134.8368  156.2748 H   0  0  0  0  0  0  0  0  0  0  0  0  # atno 11005 bound_to 11000
  146.3405  139.9062  142.8787 LP  0  0  0  0  0  0  0  0  0  0  0  0  # atno 17320 bound_to 7965
  145.2439  141.0019  143.3920 LP  0  0  0  0  0  0  0  0  0  0  0  0  # atno 17321 bound_to 7965
  140.7331  143.6804  150.8006 LP  0  0  0  0  0  0  0  0  0  0  0  0  # atno 17342 bound_to 10162
  140.0401  143.5354  152.2721 LP  0  0  0  0  0  0  0  0  0  0  0  0  # atno 17343 bound_to 10162
  157.0238  130.5684  149.5334 LP  0  0  0  0  0  0  0  0  0  0  0  0  # atno 17370 bound_to 10713
  156.0180  130.5275  150.8193 LP  0  0  0  0  0  0  0  0  0  0  0  0  # atno 17371 bound_to 10713
  141.0077  133.7114  156.1061 LP  0  0  0  0  0  0  0  0  0  0  0  0  # atno 17394 bound_to 11000
  140.7411  134.4149  157.5554 LP  0  0  0  0  0  0  0  0  0  0  0  0  # atno 17395 bound_to 11000

$$$$
