#       Name:                AV-unprocessed.smi:898
#       Creating user name   scv26
#       Creation time:       Fri Mar 27 01:57:16 2020


#       File generated by GOLD software.
#

@<TRIPOS>MOLECULE
AV-unprocessed.smi:898
    38    40     1
SMALL
NO_CHARGES


@<TRIPOS>ATOM
      1 ****         0.1165   1.7405   0.3611 O.2            1 S1                 0.0000
      2 ****        -0.2251   0.6435  -0.0815 C.2            1 S1                 0.0000
      3 ****         0.6023  -0.3860  -0.3330 N.am           1 S1                 0.0000
      4 ****         2.0101  -0.4475  -0.1573 C.2            1 S1                 0.0000
      5 ****         2.7483   0.5702   0.3066 N.2            1 S1                 0.0000
      6 ****         4.0949   0.2421   0.3790 N.2            1 S1                 0.0000
      7 ****         4.3360  -1.0098  -0.0289 C.2            1 S1                 0.0000
      8 ****         5.7100  -1.5924  -0.0410 C.3            1 S1                 0.0000
      9 ****         5.9551  -3.0531   0.2694 C.3            1 S1                 0.0000
     10 ****         6.3907  -1.9925   1.2479 C.3            1 S1                 0.0000
     11 ****         2.9098  -1.9033  -0.5471 S.3            1 S1                 0.0000
     12 ****        -1.4951   0.3268  -0.3738 N.am           1 S1                 0.0000
     13 ****        -2.6435   1.2162  -0.2227 C.3            1 S1                 0.0000
     14 ****        -3.7522   0.7799  -1.1994 C.3            1 S1                 0.0000
     15 ****        -4.9747   1.7111  -1.1612 C.3            1 S1                 0.0000
     16 ****        -5.6383   1.7465   0.2225 C.3            1 S1                 0.0000
     17 ****        -4.4997   2.3871   1.4800 S.3            1 S1                 0.0000
     18 ****        -3.1364   1.2147   1.2379 C.3            1 S1                 0.0000
     19 ****         0.1746  -1.2262  -0.6930 H              1 S1                 0.0000
     20 ****         6.3170  -1.1287  -0.8160 H              1 S1                 0.0000
     21 ****         5.1051  -3.6705   0.5529 H              1 S1                 0.0000
     22 ****         6.7316  -3.5626  -0.2975 H              1 S1                 0.0000
     23 ****         7.4570  -1.7941   1.3343 H              1 S1                 0.0000
     24 ****         5.8219  -1.8982   2.1709 H              1 S1                 0.0000
     25 ****        -1.6836  -0.5980  -0.7316 H              1 S1                 0.0000
     26 ****        -2.3357   2.2292  -0.4899 H              1 S1                 0.0000
     27 ****        -3.3549   0.7623  -2.2152 H              1 S1                 0.0000
     28 ****        -4.0647  -0.2412  -0.9762 H              1 S1                 0.0000
     29 ****        -4.6813   2.7195  -1.4558 H              1 S1                 0.0000
     30 ****        -5.7035   1.3772  -1.9004 H              1 S1                 0.0000
     31 ****        -6.5255   2.3797   0.1998 H              1 S1                 0.0000
     32 ****        -5.9654   0.7479   0.5139 H              1 S1                 0.0000
     33 ****        -3.4713   0.2184   1.5287 H              1 S1                 0.0000
     34 ****        -2.3298   1.4909   1.9176 H              1 S1                 0.0000
     35 ****         1.0792   1.9204   0.5631 LP             1 S1                 0.0000
     36 ****        -0.5688   2.4516   0.5185 LP             1 S1                 0.0000
     37 ****         2.3738   1.4595   0.5691 LP             1 S1                 0.0000
     38 ****         4.8044   0.8697   0.6995 LP             1 S1                 0.0000
@<TRIPOS>BOND
    1    1    2 2     
    2    2    3 am    
    3    2   12 am    
    4    3    4 1     
    5    3   19 1     
    6    4   11 1     
    7    4    5 2     
    8    5    6 1     
    9    6    7 2     
   10    7    8 1     
   11    7   11 1     
   12    8   10 1     
   13    8    9 1     
   14    8   20 1     
   15    9   10 1     
   16    9   21 1     
   17    9   22 1     
   18   10   23 1     
   19   10   24 1     
   20   12   13 1     
   21   12   25 1     
   22   13   18 1     
   23   13   14 1     
   24   13   26 1     
   25   14   15 1     
   26   14   27 1     
   27   14   28 1     
   28   15   16 1     
   29   15   29 1     
   30   15   30 1     
   31   16   17 1     
   32   16   31 1     
   33   16   32 1     
   34   17   18 1     
   35   18   33 1     
   36   18   34 1     
   37    1   35 1     
   38    1   36 1     
   39    5   37 1     
   40    6   38 1     
@<TRIPOS>SUBSTRUCTURE
      1 S1             1
@<TRIPOS>SET
LONE_PAIRS      STATIC     ATOMS    <user>   **** ""
4 35 36 37 38
DONOR_HYDROGENS      STATIC     ATOMS    <user>   **** ""
2 19 25
ATOM$BLUE        STATIC     ATOMS    COLORGROUP SYSTEM
4 35 36 37 38
ATOM$RED        STATIC     ATOMS    COLORGROUP SYSTEM
2 19 25
