AV-unprocessed.smi:2710|AV-procd|sdf|10471|dock2
  -GOLD-   2272014513D 1   1.00000     0.00000
 Structure written by MMmdl.
 53 54  0  0  0  0  0  0  0  0  2 V2000
  146.6268  132.1037  152.4752 C   0  0  0  0  0  0  0  0  0  0  0  0
  147.3684  133.4099  152.1464 C   0  0  0  0  0  0  0  0  0  0  0  0
  146.5142  134.6271  152.2705 N   0  3  1  0  0  0  0  0  0  0  0  0
  145.4790  134.6890  151.1984 C   0  0  0  0  0  0  0  0  0  0  0  0
  144.6762  135.9969  151.2420 C   0  0  0  0  0  0  0  0  0  0  0  0
  144.0087  136.1819  152.6073 C   0  0  2  0  0  0  0  0  0  0  0  0
  143.2954  137.4556  152.6430 N   0  0  0  0  0  0  0  0  0  0  0  0
  141.9943  137.6046  152.9306 C   0  0  0  0  0  0  0  0  0  0  0  0
  141.2554  136.6661  153.2249 O   0  0  0  0  0  0  0  0  0  0  0  0
  141.6289  138.8961  152.8668 N   0  0  0  0  0  0  0  0  0  0  0  0
  140.3470  139.4701  153.0841 C   0  0  0  0  0  0  0  0  0  0  0  0
  140.1002  140.8072  153.4783 C   0  0  0  0  0  0  0  0  0  0  0  0
  138.8467  141.2662  153.6795 N   0  0  0  0  0  0  0  0  0  0  0  0
  137.8287  140.4226  153.4652 C   0  0  0  0  0  0  0  0  0  0  0  0
  136.4193  140.9128  153.8407 C   0  0  0  0  0  0  0  0  0  0  0  0
  136.3667  141.3833  155.3135 C   0  0  0  0  0  0  0  0  0  0  0  0
  135.3826  139.7710  153.7195 C   0  0  0  0  0  0  0  0  0  0  0  0
  136.0170  142.0750  152.9144 C   0  0  0  0  0  0  0  0  0  0  0  0
  137.9582  139.1297  153.1398 N   0  0  0  0  0  0  0  0  0  0  0  0
  139.2056  138.6572  152.9358 C   0  0  0  0  0  0  0  0  0  0  0  0
  145.0903  136.1179  153.6965 C   0  0  0  0  0  0  0  0  0  0  0  0
  145.9058  134.8077  153.6296 C   0  0  2  0  0  0  0  0  0  0  0  0
  146.9454  134.8167  154.7697 C   0  0  0  0  0  0  0  0  0  0  0  0
  147.2401  131.2422  152.2098 H   0  0  0  0  0  0  0  0  0  0  0  0
  145.6941  132.0264  151.9158 H   0  0  0  0  0  0  0  0  0  0  0  0
  146.3984  132.0099  153.5363 H   0  0  0  0  0  0  0  0  0  0  0  0
  148.2563  133.5121  152.7720 H   0  0  0  0  0  0  0  0  0  0  0  0
  147.7210  133.2970  151.1240 H   0  0  0  0  0  0  0  0  0  0  0  0
  145.9381  134.6198  150.2139 H   0  0  0  0  0  0  0  0  0  0  0  0
  144.8067  133.8347  151.2930 H   0  0  0  0  0  0  0  0  0  0  0  0
  145.3381  136.8382  151.0301 H   0  0  0  0  0  0  0  0  0  0  0  0
  143.9213  135.9903  150.4545 H   0  0  0  0  0  0  0  0  0  0  0  0
  143.2938  135.3705  152.7594 H   0  0  0  0  0  0  0  0  0  0  0  0
  143.8278  138.2832  152.4175 H   0  0  0  0  0  0  0  0  0  0  0  0
  142.3661  139.5556  152.6644 H   0  0  0  0  0  0  0  0  0  0  0  0
  140.8870  141.5215  153.6614 H   0  0  0  0  0  0  0  0  0  0  0  0
  135.3583  141.6861  155.5978 H   0  0  0  0  0  0  0  0  0  0  0  0
  137.0141  142.2426  155.4919 H   0  0  0  0  0  0  0  0  0  0  0  0
  136.6748  140.5896  155.9952 H   0  0  0  0  0  0  0  0  0  0  0  0
  135.6525  138.9208  154.3471 H   0  0  0  0  0  0  0  0  0  0  0  0
  135.2901  139.4095  152.6946 H   0  0  0  0  0  0  0  0  0  0  0  0
  134.3897  140.1018  154.0258 H   0  0  0  0  0  0  0  0  0  0  0  0
  135.0205  142.4481  153.1528 H   0  0  0  0  0  0  0  0  0  0  0  0
  136.0105  141.7637  151.8690 H   0  0  0  0  0  0  0  0  0  0  0  0
  136.7117  142.9110  153.0036 H   0  0  0  0  0  0  0  0  0  0  0  0
  139.2906  137.6171  152.6570 H   0  0  0  0  0  0  0  0  0  0  0  0
  145.7623  136.9721  153.5978 H   0  0  0  0  0  0  0  0  0  0  0  0
  144.6243  136.2078  154.6787 H   0  0  0  0  0  0  0  0  0  0  0  0
  145.2236  133.9740  153.8045 H   0  0  0  0  0  0  0  0  0  0  0  0
  146.4842  135.1090  155.7137 H   0  0  0  0  0  0  0  0  0  0  0  0
  147.7536  135.5207  154.5683 H   0  0  0  0  0  0  0  0  0  0  0  0
  147.3809  133.8333  154.9430 H   0  0  0  0  0  0  0  0  0  0  0  0
  147.1266  135.4178  152.1290 H   0  0  0  0  0  0  0  0  0  0  0  0
  1  2  1  0  0  0  0
  1 24  1  0  0  0  0
  1 25  1  0  0  0  0
  1 26  1  0  0  0  0
  2  3  1  0  0  0  0
  2 27  1  0  0  0  0
  2 28  1  0  0  0  0
  3 22  1  0  0  0  0
  3  4  1  0  0  0  0
  3 53  1  0  0  0  0
  4  5  1  0  0  0  0
  4 29  1  0  0  0  0
  4 30  1  0  0  0  0
  5  6  1  0  0  0  0
  5 31  1  0  0  0  0
  5 32  1  0  0  0  0
  6  7  1  0  0  0  0
  6 21  1  0  0  0  0
  6 33  1  0  0  0  0
  7  8  1  0  0  0  0
  7 34  1  0  0  0  0
  8  9  2  0  0  0  0
  8 10  1  0  0  0  0
 10 11  1  0  0  0  0
 10 35  1  0  0  0  0
 11 20  1  0  0  0  0
 11 12  2  0  0  0  0
 12 13  1  0  0  0  0
 12 36  1  0  0  0  0
 13 14  2  0  0  0  0
 14 15  1  0  0  0  0
 14 19  1  0  0  0  0
 15 16  1  0  0  0  0
 15 17  1  0  0  0  0
 15 18  1  0  0  0  0
 16 37  1  0  0  0  0
 16 38  1  0  0  0  0
 16 39  1  0  0  0  0
 17 40  1  0  0  0  0
 17 41  1  0  0  0  0
 17 42  1  0  0  0  0
 18 43  1  0  0  0  0
 18 44  1  0  0  0  0
 18 45  1  0  0  0  0
 19 20  2  0  0  0  0
 20 46  1  0  0  0  0
 21 22  1  0  0  0  0
 21 47  1  0  0  0  0
 21 48  1  0  0  0  0
 22 23  1  0  0  0  0
 22 49  1  0  0  0  0
 23 50  1  0  0  0  0
 23 51  1  0  0  0  0
 23 52  1  0  0  0  0
M  CHG  1   3   1
M  END
> <s_m_source_file>
AV-unprocessed.smi

> <i_m_source_file_index>
2710

> <i_lp_mmshare_version>
43012

> <i_f3d_flags>
0

> <s_epik_input>
W0NIM11bQ0gyXU4xW0NIMl1bQ0gyXVtDQEhdKFtDSDJdW0NASF0xW0NIM10pW05IXUMoPU8pW05IXWMyW2NIXW5jKEMoW0NIM10pKFtDSDNdKVtDSDNdKW5bY0hdMg==

> <s_epik_cmdline>
J2VwaWtfcHl0aG9uJywgJy1waCcsICc3LjAnLCAnLXRuJywgJzgnLCAnLW1hJywgJzIwMCcsICctbWV0YWxfYmluZGluZycsICctaW1hZScsICc8aW5maWxlLm1hZT4nLCAnLW9tYWUnLCAnPG91dGZpbGUubWFlPic=

> <r_lp_tautomer_probability>
1

> <r_epik_Ionization_Penalty>
0.00396003

> <r_epik_Ionization_Penalty_Charging>
0.0039379

> <r_epik_Ionization_Penalty_Neutral>
2.21316e-05

> <r_epik_State_Penalty>
0.00281651

> <r_epik_Charging_Adjusted_Penalty>
0.00675441

> <i_epik_Tot_Q>
1

> <i_epik_Tot_abs_Q>
1

> <r_epik_Metal_State_Penalty>
-0

> <b_epik_Metal_Only>
0

> <s_lp_Force_Field>
OPLS_2005

> <r_lp_Energy>
20.1014

> <b_lp_Chiralities_Consistent>
1

> <s_lp_Variant>
AV-unprocessed.smi:2710-8

> <Gold.Version>
5.8.1

> <Gold.Id.Protein>
6NUR|6NUR_protein|mol2

> <Gold.PLP.Fitness>
41.4954

> <Gold.PLP.PLP>
-28.2568

> <Gold.PLP.part.hbond>
-4.4977

> <Gold.PLP.part.metal>
0.0000

> <Gold.PLP.part.buried>
1.8739

> <Gold.PLP.part.nonpolar>
-26.3524

> <Gold.PLP.part.repulsive>
0.3978

> <Gold.PLP.ligand.clash>
0.0000

> <Gold.PLP.ligand.torsion>
0.2455

> <Gold.PLP.Chemscore.Hbond>
3.5210

> <Gold.PLP.Chemscore.CHOScore>
0.9882

> <Gold.PLP.Chemscore.Metal>
0.0000

> <Gold.Chemscore.Hbonds>
donor molecule, donor type, donor heavy atom, donor atom, acceptor molecule, acceptor atom, score
      L1  H     3    53       P1  7948  2.00
      L1  H     7    34       P1 10175  0.55
      L1  H    10    35       P1 10175  0.98
      L1  C    12    36       P1 10174  1.00

> <Gold.PLP.Chemscore.Internal.Correction>
0.2021

> <Gold.Rescore>
     Score         DG    S(hbond)    S(metal)    S(lipo)     H(rot)  DE(clash)    DE(int)     intcor
     16.14     -17.80       2.46        0.00      63.67       1.31       0.09       1.56       ----

> <Gold.Chemscore.Fitness>
16.1447

> <Gold.Chemscore.DG>
-17.7983

> <Gold.Chemscore.ZeroCoef>
-5.4800

> <Gold.Chemscore.Hbond>
2.4605

> <Gold.Chemscore.Metal>
0.0000

> <Gold.Chemscore.Lipo>
63.6675

> <Gold.Chemscore.Internal_Hbond>
0.0000

> <Gold.Chemscore.DEClash>
0.0892

> <Gold.Chemscore.DEInternal>
1.5645

> <Gold.Chemscore.Rot>
1.3081

> <Gold.Chemscore.Internal.Correction>
   9.000000E+99

> <Gold.Chemscore.Hbonds>
donor molecule, donor type, donor heavy atom, donor atom, acceptor molecule, acceptor atom, score
      L1  H     3    53       P1  7948  0.93
      L1  H     7    34       P1 10175  0.55
      L1  H    10    35       P1 10175  0.72

> <Gold.Chemscore.Hbond.Weighted>
-8.2180

> <Gold.Chemscore.Metal.Weighted>
-0.0000

> <Gold.Chemscore.Lipo.Weighted>
-7.4491

> <Gold.Chemscore.Internal_Hbond.Weighted>
0.0000

> <Gold.Chemscore.DEClash.Weighted>
0.0892

> <Gold.Chemscore.DEInternal.Weighted>
1.5645

> <Gold.Chemscore.Rot.Weighted>
3.3488

> <Gold.Chemscore.Internal.Correction.Weighted>
   9.000000E+99

> <Gold.Protein.RotatedTorsions>
[ 6907 6896 6895 6894 ] final -179.35 input  -60.11 | X-H torsion
[ 7974 7965 7964 7962 ] final  -70.24 input  175.53 | X-H torsion
[ 8008 7997 7996 7995 ] final  103.87 input   59.86 | X-H torsion
[ 10167 10162 10161 10158 ] final -136.91 input  -65.29 | X-H torsion
[ 10718 10713 10712 10709 ] final -138.13 input   66.30 | X-H torsion
[ 10763 10752 10751 10750 ] final  -82.19 input  -60.55 | X-H torsion
[ 11005 11000 10999 10996 ] final  -10.64 input  -57.11 | X-H torsion

> <Gold.Protein.ActiveResidues>
 VAL166  LYS551  ARG553  GLY616  TRP617  ASP618  TYR619  PRO620  LYS621  CYS622 
 ASP623  PHE694  ASN695  SER759  ASP760  ASP761  ALA762  ILE779  LEU786  VAL792 
 PHE793  MET794  SER795  GLU796  ALA797  LYS798  CYS799  TRP800  GLU811  SER814 

> <Gold.Protein.RotatedAtoms>
  151.6521  133.3320  159.3153 H   0  0  0  0  0  0  0  0  0  0  0  0  # atno 6907 bound_to 6896
  150.7955  134.7015  159.6562 H   0  0  0  0  0  0  0  0  0  0  0  0  # atno 6908 bound_to 6896
  152.4041  134.6240  160.0109 H   0  0  0  0  0  0  0  0  0  0  0  0  # atno 6909 bound_to 6896
  145.6935  140.9144  143.0769 H   0  0  0  0  0  0  0  0  0  0  0  0  # atno 7974 bound_to 7965
  156.1522  140.3157  155.8667 H   0  0  0  0  0  0  0  0  0  0  0  0  # atno 8008 bound_to 7997
  155.3948  140.0496  157.3056 H   0  0  0  0  0  0  0  0  0  0  0  0  # atno 8009 bound_to 7997
  154.5069  140.2150  155.9245 H   0  0  0  0  0  0  0  0  0  0  0  0  # atno 8010 bound_to 7997
  139.8630  143.7053  152.2648 H   0  0  0  0  0  0  0  0  0  0  0  0  # atno 10167 bound_to 10162
  156.2959  130.7401  151.1440 H   0  0  0  0  0  0  0  0  0  0  0  0  # atno 10718 bound_to 10713
  154.5727  135.5600  153.7110 H   0  0  0  0  0  0  0  0  0  0  0  0  # atno 10763 bound_to 10752
  153.0054  135.6301  154.2091 H   0  0  0  0  0  0  0  0  0  0  0  0  # atno 10764 bound_to 10752
  154.2031  135.2877  155.2964 H   0  0  0  0  0  0  0  0  0  0  0  0  # atno 10765 bound_to 10752
  140.7468  133.8625  155.9012 H   0  0  0  0  0  0  0  0  0  0  0  0  # atno 11005 bound_to 11000
  144.6989  139.8853  143.7450 LP  0  0  0  0  0  0  0  0  0  0  0  0  # atno 17320 bound_to 7965
  146.0860  139.3849  143.0435 LP  0  0  0  0  0  0  0  0  0  0  0  0  # atno 17321 bound_to 7965
  139.7356  144.7572  151.0733 LP  0  0  0  0  0  0  0  0  0  0  0  0  # atno 17342 bound_to 10162
  140.7772  143.5035  150.9741 LP  0  0  0  0  0  0  0  0  0  0  0  0  # atno 17343 bound_to 10162
  157.7355  131.0571  150.5465 LP  0  0  0  0  0  0  0  0  0  0  0  0  # atno 17370 bound_to 10713
  156.5587  130.4250  149.6073 LP  0  0  0  0  0  0  0  0  0  0  0  0  # atno 17371 bound_to 10713
  140.9787  134.1435  157.4514 LP  0  0  0  0  0  0  0  0  0  0  0  0  # atno 17394 bound_to 11000
  139.8795  135.0003  156.6003 LP  0  0  0  0  0  0  0  0  0  0  0  0  # atno 17395 bound_to 11000

$$$$
