#       Name:                AV-unprocessed.smi:1982
#       Creating user name   scv26
#       Creation time:       Fri Mar 27 10:21:48 2020


#       File generated by GOLD software.
#

@<TRIPOS>MOLECULE
AV-unprocessed.smi:1982
    41    42     1
SMALL
NO_CHARGES


@<TRIPOS>ATOM
      1 ****        -3.1323   0.7073   0.7961 C.3            1 S1                 0.0000
      2 ****        -2.3299  -0.5720   1.1107 C.3            1 S1                 0.0000
      3 ****        -2.8353  -1.7759   0.2892 C.3            1 S1                 0.0000
      4 ****        -2.4335  -1.6799  -1.1911 C.3            1 S1                 0.0000
      5 ****        -0.9143  -1.5235  -1.3448 C.3            1 S1                 0.0000
      6 ****        -0.3765  -0.3234  -0.5394 C.3            1 S1                 0.0000
      7 ****         1.0786  -0.2719  -0.6502 N.am           1 S1                 0.0000
      8 ****         1.7705   0.3847  -1.5943 C.2            1 S1                 0.0000
      9 ****         1.2451   0.9797  -2.5346 O.2            1 S1                 0.0000
     10 ****         3.2925   0.3758  -1.4487 C.3            1 S1                 0.0000
     11 ****         3.7024   1.0885  -0.2524 N.pl3          1 S1                 0.0000
     12 ****         3.8310   2.3946  -0.0103 C.2            1 S1                 0.0000
     13 ****         4.2141   2.6249   1.2363 N.2            1 S1                 0.0000
     14 ****         4.3207   1.3527   1.7733 N.2            1 S1                 0.0000
     15 ****         4.0184   0.4368   0.8948 N.2            1 S1                 0.0000
     16 ****        -0.7939  -0.4149   0.9511 C.3            1 S1                 0.0000
     17 ****        -0.2265   0.7365   1.8062 C.3            1 S1                 0.0000
     18 ****        -2.9663   1.0587  -0.2217 H              1 S1                 0.0000
     19 ****        -2.8718   1.5205   1.4729 H              1 S1                 0.0000
     20 ****        -4.2021   0.5316   0.9108 H              1 S1                 0.0000
     21 ****        -2.5258  -0.8031   2.1587 H              1 S1                 0.0000
     22 ****        -2.4233  -2.6946   0.7092 H              1 S1                 0.0000
     23 ****        -3.9187  -1.8658   0.3761 H              1 S1                 0.0000
     24 ****        -2.7675  -2.5715  -1.7224 H              1 S1                 0.0000
     25 ****        -2.9395  -0.8374  -1.6630 H              1 S1                 0.0000
     26 ****        -0.4248  -2.4395  -1.0106 H              1 S1                 0.0000
     27 ****        -0.6653  -1.4094  -2.4006 H              1 S1                 0.0000
     28 ****        -0.7943   0.5943  -0.9567 H              1 S1                 0.0000
     29 ****         1.6023  -0.7346   0.0789 H              1 S1                 0.0000
     30 ****         3.6568  -0.6520  -1.4050 H              1 S1                 0.0000
     31 ****         3.7568   0.8493  -2.3147 H              1 S1                 0.0000
     32 ****         3.6388   3.1688  -0.7384 H              1 S1                 0.0000
     33 ****        -0.3514  -1.3300   1.3484 H              1 S1                 0.0000
     34 ****        -0.5118   1.7105   1.4083 H              1 S1                 0.0000
     35 ****         0.8629   0.7079   1.8452 H              1 S1                 0.0000
     36 ****        -0.5853   0.6760   2.8338 H              1 S1                 0.0000
     37 ****         0.2493   0.9912  -2.6253 LP             1 S1                 0.0000
     38 ****         1.8139   1.4518  -3.2081 LP             1 S1                 0.0000
     39 ****         4.3849   3.5038   1.6816 LP             1 S1                 0.0000
     40 ****         4.5948   1.1604   2.7156 LP             1 S1                 0.0000
     41 ****         4.0194  -0.5528   1.0389 LP             1 S1                 0.0000
@<TRIPOS>BOND
    1    1    2 1     
    2    1   18 1     
    3    1   19 1     
    4    1   20 1     
    5    2   16 1     
    6    2    3 1     
    7    2   21 1     
    8    3    4 1     
    9    3   22 1     
   10    3   23 1     
   11    4    5 1     
   12    4   24 1     
   13    4   25 1     
   14    5    6 1     
   15    5   26 1     
   16    5   27 1     
   17    6    7 1     
   18    6   16 1     
   19    6   28 1     
   20    7    8 am    
   21    7   29 1     
   22    8    9 2     
   23    8   10 1     
   24   10   11 1     
   25   10   30 1     
   26   10   31 1     
   27   11   15 1     
   28   11   12 1     
   29   12   13 2     
   30   12   32 1     
   31   13   14 1     
   32   14   15 2     
   33   16   17 1     
   34   16   33 1     
   35   17   34 1     
   36   17   35 1     
   37   17   36 1     
   38    9   37 1     
   39    9   38 1     
   40   13   39 1     
   41   14   40 1     
   42   15   41 1     
@<TRIPOS>SUBSTRUCTURE
      1 S1             1
@<TRIPOS>SET
LONE_PAIRS      STATIC     ATOMS    <user>   **** ""
5 37 38 39 40 41
DONOR_HYDROGENS      STATIC     ATOMS    <user>   **** ""
1 29
ATOM$BLUE        STATIC     ATOMS    COLORGROUP SYSTEM
5 37 38 39 40 41
ATOM$RED        STATIC     ATOMS    COLORGROUP SYSTEM
1 29
