#       Name:                AV-unprocessed.smi:1554
#       Creating user name   scv26
#       Creation time:       Fri Mar 27 06:43:12 2020


#       File generated by GOLD software.
#

@<TRIPOS>MOLECULE
AV-unprocessed.smi:1554
    53    55     1
SMALL
NO_CHARGES


@<TRIPOS>ATOM
      1 ****        -3.3077   3.6758  -1.8464 C.3            1 S1                 0.0000
      2 ****        -2.8668   2.6383  -0.8290 C.ar           1 S1                 0.0000
      3 ****        -2.7061   3.0246   0.5207 C.ar           1 S1                 0.0000
      4 ****        -2.3000   2.0904   1.4983 C.ar           1 S1                 0.0000
      5 ****        -2.0819   2.2474   2.8560 N.2            1 S1                 0.0000
      6 ****        -1.7176   1.0194   3.2133 C.2            1 S1                 0.0000
      7 ****        -1.6660   0.0847   2.2444 N.pl3          1 S1                 0.0000
      8 ****        -1.2841  -1.3107   2.3925 C.3            1 S1                 0.0000
      9 ****         0.2400  -1.5472   2.3018 C.3            1 S1                 0.0000
     10 ****         0.8609  -0.9437   3.4211 O.3            1 S1                 0.0000
     11 ****         0.8680  -0.9742   1.0116 C.3            1 S1                 0.0000
     12 ****         2.2773  -1.4050   0.8117 N.4            1 S1                 1.0000
     13 ****         2.4341  -2.7890   0.2952 C.3            1 S1                 0.0000
     14 ****         2.1618  -2.8634  -1.2206 C.3            1 S1                 0.0000
     15 ****         2.9857  -1.9296  -1.9082 O.3            1 S1                 0.0000
     16 ****         2.7438  -0.5867  -1.5027 C.3            1 S1                 0.0000
     17 ****         3.6086   0.3370  -2.3670 C.3            1 S1                 0.0000
     18 ****         3.0759  -0.4555  -0.0020 C.3            1 S1                 0.0000
     19 ****        -2.0551   0.7483   1.0852 C.ar           1 S1                 0.0000
     20 ****        -2.2143   0.3513  -0.2546 C.ar           1 S1                 0.0000
     21 ****        -2.6197   1.2976  -1.2185 C.ar           1 S1                 0.0000
     22 ****        -2.7864   0.8591  -2.6628 C.3            1 S1                 0.0000
     23 ****        -3.4872   4.6430  -1.3762 H              1 S1                 0.0000
     24 ****        -4.2324   3.3651  -2.3329 H              1 S1                 0.0000
     25 ****        -2.5420   3.8118  -2.6105 H              1 S1                 0.0000
     26 ****        -2.8952   4.0456   0.8179 H              1 S1                 0.0000
     27 ****        -1.4651   0.7863   4.2375 H              1 S1                 0.0000
     28 ****        -1.6692  -1.6762   3.3455 H              1 S1                 0.0000
     29 ****        -1.7934  -1.8866   1.6192 H              1 S1                 0.0000
     30 ****         0.4122  -2.6209   2.3677 H              1 S1                 0.0000
     31 ****         1.7652  -1.2148   3.4550 H              1 S1                 0.0000
     32 ****         0.2720  -1.2628   0.1464 H              1 S1                 0.0000
     33 ****         0.8241   0.1151   1.0551 H              1 S1                 0.0000
     34 ****         3.4594  -3.1067   0.4884 H              1 S1                 0.0000
     35 ****         1.7935  -3.4871   0.8326 H              1 S1                 0.0000
     36 ****         2.3863  -3.8644  -1.5893 H              1 S1                 0.0000
     37 ****         1.1121  -2.6762  -1.4495 H              1 S1                 0.0000
     38 ****         1.6955  -0.3396  -1.6794 H              1 S1                 0.0000
     39 ****         3.4544   1.3825  -2.0989 H              1 S1                 0.0000
     40 ****         3.3625   0.2260  -3.4233 H              1 S1                 0.0000
     41 ****         4.6692   0.1136  -2.2466 H              1 S1                 0.0000
     42 ****         2.9225   0.5675   0.3440 H              1 S1                 0.0000
     43 ****         4.1327  -0.6746   0.1577 H              1 S1                 0.0000
     44 ****        -2.0269  -0.6732  -0.5389 H              1 S1                 0.0000
     45 ****        -2.5200  -0.1901  -2.7940 H              1 S1                 0.0000
     46 ****        -2.1472   1.4503  -3.3189 H              1 S1                 0.0000
     47 ****        -3.8213   0.9840  -2.9819 H              1 S1                 0.0000
     48 ****         2.6899  -1.3887   1.7333 H              1 S1                 0.0000
     49 ****        -2.1741   3.0682   3.4198 LP             1 S1                 0.0000
     50 ****         0.3938  -1.2292   4.2579 LP             1 S1                 0.0000
     51 ****         0.8123   0.0515   3.3352 LP             1 S1                 0.0000
     52 ****         2.8067  -2.0055  -2.8891 LP             1 S1                 0.0000
     53 ****         3.9434  -2.1519  -1.7259 LP             1 S1                 0.0000
@<TRIPOS>BOND
    1    1    2 1     
    2    1   23 1     
    3    1   24 1     
    4    1   25 1     
    5    2   21 ar    
    6    2    3 ar    
    7    3    4 ar    
    8    3   26 1     
    9    4   19 ar    
   10    4    5 1     
   11    5    6 2     
   12    6    7 1     
   13    6   27 1     
   14    7    8 1     
   15    7   19 1     
   16    8    9 1     
   17    8   28 1     
   18    8   29 1     
   19    9   10 1     
   20    9   11 1     
   21    9   30 1     
   22   10   31 1     
   23   11   12 1     
   24   11   32 1     
   25   11   33 1     
   26   12   18 1     
   27   12   13 1     
   28   12   48 1     
   29   13   14 1     
   30   13   34 1     
   31   13   35 1     
   32   14   15 1     
   33   14   36 1     
   34   14   37 1     
   35   15   16 1     
   36   16   17 1     
   37   16   18 1     
   38   16   38 1     
   39   17   39 1     
   40   17   40 1     
   41   17   41 1     
   42   18   42 1     
   43   18   43 1     
   44   19   20 ar    
   45   20   21 ar    
   46   20   44 1     
   47   21   22 1     
   48   22   45 1     
   49   22   46 1     
   50   22   47 1     
   51    5   49 1     
   52   10   50 1     
   53   10   51 1     
   54   15   52 1     
   55   15   53 1     
@<TRIPOS>SUBSTRUCTURE
      1 S1             1
@<TRIPOS>SET
LONE_PAIRS      STATIC     ATOMS    <user>   **** ""
5 49 50 51 52 53
DONOR_HYDROGENS      STATIC     ATOMS    <user>   **** ""
2 31 48
ATOM$BLUE        STATIC     ATOMS    COLORGROUP SYSTEM
5 49 50 51 52 53
ATOM$RED        STATIC     ATOMS    COLORGROUP SYSTEM
2 31 48
