AV-unprocessed.smi:153|AV-procd|sdf|1261|dock10
  -GOLD-   2262018513D 1   1.00000     0.00000
 Structure written by MMmdl.
 59 62  0  0  0  0  0  0  0  0  1 V2000
  153.4367  141.4244  159.7094 C   0  0  0  0  0  0  0  0  0  0  0  0
  152.2643  142.4176  159.6965 C   0  0  1  0  0  0  0  0  0  0  0  0
  152.8191  143.7304  159.7408 O   0  0  0  0  0  0  0  0  0  0  0  0
  151.9734  144.6138  159.0264 C   0  0  0  0  0  0  0  0  0  0  0  0
  151.5537  143.7707  157.8323 C   0  0  0  0  0  0  0  0  0  0  0  0
  151.3386  142.3906  158.4470 C   0  0  2  0  0  0  0  0  0  0  0  0
  149.9982  142.3261  158.9059 O   0  0  0  0  0  0  0  0  0  0  0  0
  151.5561  141.2206  157.4516 C   0  0  0  0  0  0  0  0  0  0  0  0
  150.3679  140.8910  156.6782 N   0  0  0  0  0  0  0  0  0  0  0  0
  149.7436  141.6904  155.7499 C   0  0  0  0  0  0  0  0  0  0  0  0
  148.6943  141.1633  155.1828 N   0  0  0  0  0  0  0  0  0  0  0  0
  148.5737  139.9043  155.7644 C   0  0  0  0  0  0  0  0  0  0  0  0
  147.6667  138.8081  155.6143 C   0  0  0  0  0  0  0  0  0  0  0  0
  146.6169  138.7759  154.7392 N   0  0  0  0  0  0  0  0  0  0  0  0
  145.2569  138.7692  155.2648 C   0  0  0  0  0  0  0  0  0  0  0  0
  146.7995  139.2353  153.3600 C   0  0  0  0  0  0  0  0  0  0  0  0
  146.4629  138.1422  152.3205 C   0  0  2  0  0  0  0  0  0  0  0  0
  146.5422  138.7160  151.0312 O   0  0  0  0  0  0  0  0  0  0  0  0
  145.0280  137.6041  152.5067 C   0  0  0  0  0  0  0  0  0  0  0  0
  144.8570  136.1689  152.2733 N   0  0  0  0  0  0  0  0  0  0  0  0
  145.3873  135.7897  150.9676 C   0  0  0  0  0  0  0  0  0  0  0  0
  145.2134  134.2870  150.6868 C   0  0  0  0  0  0  0  0  0  0  0  0
  143.8361  133.9413  150.7858 O   0  0  0  0  0  0  0  0  0  0  0  0
  143.2855  134.2503  152.0616 C   0  0  0  0  0  0  0  0  0  0  0  0
  143.4563  135.7521  152.3494 C   0  0  0  0  0  0  0  0  0  0  0  0
  147.8842  137.7266  156.4127 N   0  0  0  0  0  0  0  0  0  0  0  0
  148.9033  137.6976  157.2740 C   0  0  0  0  0  0  0  0  0  0  0  0
  149.8223  138.6333  157.5051 N   0  0  0  0  0  0  0  0  0  0  0  0
  149.6173  139.7289  156.7212 C   0  0  0  0  0  0  0  0  0  0  0  0
  153.0864  140.3925  159.6860 H   0  0  0  0  0  0  0  0  0  0  0  0
  154.0310  141.5451  160.6153 H   0  0  0  0  0  0  0  0  0  0  0  0
  154.1025  141.5799  158.8604 H   0  0  0  0  0  0  0  0  0  0  0  0
  151.6801  142.2725  160.6073 H   0  0  0  0  0  0  0  0  0  0  0  0
  151.1140  144.8835  159.6421 H   0  0  0  0  0  0  0  0  0  0  0  0
  152.4952  145.5261  158.7372 H   0  0  0  0  0  0  0  0  0  0  0  0
  150.6810  144.1657  157.3103 H   0  0  0  0  0  0  0  0  0  0  0  0
  152.3806  143.7404  157.1221 H   0  0  0  0  0  0  0  0  0  0  0  0
  149.8682  143.0091  159.5457 H   0  0  0  0  0  0  0  0  0  0  0  0
  152.3542  141.4587  156.7482 H   0  0  0  0  0  0  0  0  0  0  0  0
  151.8723  140.3229  157.9844 H   0  0  0  0  0  0  0  0  0  0  0  0
  150.0971  142.6806  155.5003 H   0  0  0  0  0  0  0  0  0  0  0  0
  145.0065  137.7871  155.6659 H   0  0  0  0  0  0  0  0  0  0  0  0
  144.5328  138.9980  154.4824 H   0  0  0  0  0  0  0  0  0  0  0  0
  145.1377  139.5149  156.0515 H   0  0  0  0  0  0  0  0  0  0  0  0
  146.1817  140.1201  153.2021 H   0  0  0  0  0  0  0  0  0  0  0  0
  147.8220  139.5913  153.2266 H   0  0  0  0  0  0  0  0  0  0  0  0
  147.1920  137.3360  152.3860 H   0  0  0  0  0  0  0  0  0  0  0  0
  145.6658  138.8149  150.6924 H   0  0  0  0  0  0  0  0  0  0  0  0
  144.6899  137.8274  153.5198 H   0  0  0  0  0  0  0  0  0  0  0  0
  144.3629  138.1668  151.8497 H   0  0  0  0  0  0  0  0  0  0  0  0
  144.8868  136.3619  150.1847 H   0  0  0  0  0  0  0  0  0  0  0  0
  146.4462  136.0443  150.9108 H   0  0  0  0  0  0  0  0  0  0  0  0
  145.5711  134.0437  149.6863 H   0  0  0  0  0  0  0  0  0  0  0  0
  145.7973  133.6915  151.3902 H   0  0  0  0  0  0  0  0  0  0  0  0
  142.2293  133.9808  152.0688 H   0  0  0  0  0  0  0  0  0  0  0  0
  143.7746  133.6516  152.8314 H   0  0  0  0  0  0  0  0  0  0  0  0
  143.0437  135.9614  153.3347 H   0  0  0  0  0  0  0  0  0  0  0  0
  142.8608  136.3237  151.6358 H   0  0  0  0  0  0  0  0  0  0  0  0
  148.9953  136.7949  157.8600 H   0  0  0  0  0  0  0  0  0  0  0  0
  1  2  1  0  0  0  0
  1 30  1  0  0  0  0
  1 31  1  0  0  0  0
  1 32  1  0  0  0  0
  2  6  1  0  0  0  0
  2  3  1  0  0  0  0
  2 33  1  0  0  0  0
  3  4  1  0  0  0  0
  4  5  1  0  0  0  0
  4 34  1  0  0  0  0
  4 35  1  0  0  0  0
  5  6  1  0  0  0  0
  5 36  1  0  0  0  0
  5 37  1  0  0  0  0
  6  7  1  0  0  0  0
  6  8  1  0  0  0  0
  7 38  1  0  0  0  0
  8  9  1  0  0  0  0
  8 39  1  0  0  0  0
  8 40  1  0  0  0  0
  9 29  1  0  0  0  0
  9 10  1  0  0  0  0
 10 11  2  0  0  0  0
 10 41  1  0  0  0  0
 11 12  1  0  0  0  0
 12 29  2  0  0  0  0
 12 13  1  0  0  0  0
 13 14  1  0  0  0  0
 13 26  2  0  0  0  0
 14 15  1  0  0  0  0
 14 16  1  0  0  0  0
 15 42  1  0  0  0  0
 15 43  1  0  0  0  0
 15 44  1  0  0  0  0
 16 17  1  0  0  0  0
 16 45  1  0  0  0  0
 16 46  1  0  0  0  0
 17 18  1  0  0  0  0
 17 19  1  0  0  0  0
 17 47  1  0  0  0  0
 18 48  1  0  0  0  0
 19 20  1  0  0  0  0
 19 49  1  0  0  0  0
 19 50  1  0  0  0  0
 20 25  1  0  0  0  0
 20 21  1  0  0  0  0
 21 22  1  0  0  0  0
 21 51  1  0  0  0  0
 21 52  1  0  0  0  0
 22 23  1  0  0  0  0
 22 53  1  0  0  0  0
 22 54  1  0  0  0  0
 23 24  1  0  0  0  0
 24 25  1  0  0  0  0
 24 55  1  0  0  0  0
 24 56  1  0  0  0  0
 25 57  1  0  0  0  0
 25 58  1  0  0  0  0
 26 27  1  0  0  0  0
 27 28  2  0  0  0  0
 27 59  1  0  0  0  0
 28 29  1  0  0  0  0
M  END
> <s_m_source_file>
AV-unprocessed.smi

> <i_m_source_file_index>
153

> <i_lp_mmshare_version>
43012

> <i_f3d_flags>
0

> <s_epik_input>
W0NIMl0xW0NIMl1PW0NAQEhdKFtDSDNdKVtDQEBdMShbT0hdKVtDSDJdbihbY0hdbjIpYyhjMjMpbltjSF1uYzNOKFtDSDNdKVtDSDJdW0NASF0oW09IXSlbQ0gyXU40W0NIMl1bQ0gyXU9bQ0gyXVtDSDJdNA==

> <s_epik_cmdline>
J2VwaWtfcHl0aG9uJywgJy1waCcsICc3LjAnLCAnLXRuJywgJzgnLCAnLW1hJywgJzIwMCcsICctbWV0YWxfYmluZGluZycsICctaW1hZScsICc8aW5maWxlLm1hZT4nLCAnLW9tYWUnLCAnPG91dGZpbGUubWFlPic=

> <r_lp_tautomer_probability>
1

> <r_epik_Ionization_Penalty>
0.424123

> <r_epik_Ionization_Penalty_Charging>
0

> <r_epik_Ionization_Penalty_Neutral>
0.424123

> <r_epik_State_Penalty>
0.421495

> <r_epik_Charging_Adjusted_Penalty>
0.421495

> <i_epik_Tot_Q>
0

> <i_epik_Tot_abs_Q>
0

> <r_epik_Metal_State_Penalty>
0.421223

> <b_epik_Metal_Only>
0

> <s_lp_Force_Field>
OPLS_2005

> <r_lp_Energy>
56.2601

> <b_lp_Chiralities_Consistent>
1

> <s_lp_Variant>
AV-unprocessed.smi:153-12

> <Gold.Version>
5.8.1

> <Gold.Id.Protein>
6NUR|6NUR_protein|mol2

> <Gold.PLP.Fitness>
49.3850

> <Gold.PLP.PLP>
-44.4290

> <Gold.PLP.part.hbond>
-2.5730

> <Gold.PLP.part.metal>
0.0000

> <Gold.PLP.part.buried>
-6.4842

> <Gold.PLP.part.nonpolar>
-36.9732

> <Gold.PLP.part.repulsive>
0.4300

> <Gold.PLP.ligand.clash>
0.0000

> <Gold.PLP.ligand.torsion>
2.1925

> <Gold.PLP.Chemscore.Hbond>
1.9833

> <Gold.PLP.Chemscore.CHOScore>
0.9029

> <Gold.PLP.Chemscore.Metal>
0.0000

> <Gold.Chemscore.Hbonds>
donor molecule, donor type, donor heavy atom, donor atom, acceptor molecule, acceptor atom, score
      L1  H    18    48       P1 10171  1.00
      P1  H  7954  7966       L1    18  0.66
      L1  C    10    41       P1  8028  0.95

> <Gold.PLP.Chemscore.Internal.Correction>
0.6823

> <Gold.Rescore>
     Score         DG    S(hbond)    S(metal)    S(lipo)     H(rot)  DE(clash)    DE(int)     intcor
     10.62     -14.71       1.84        0.00     103.22       3.52       0.77       3.32       ----

> <Gold.Chemscore.Fitness>
10.6217

> <Gold.Chemscore.DG>
-14.7115

> <Gold.Chemscore.ZeroCoef>
-5.4800

> <Gold.Chemscore.Hbond>
1.8437

> <Gold.Chemscore.Metal>
0.0000

> <Gold.Chemscore.Lipo>
103.2239

> <Gold.Chemscore.Internal_Hbond>
0.0000

> <Gold.Chemscore.DEClash>
0.7697

> <Gold.Chemscore.DEInternal>
3.3200

> <Gold.Chemscore.Rot>
3.5170

> <Gold.Chemscore.Internal.Correction>
   9.000000E+99

> <Gold.Chemscore.Hbonds>
donor molecule, donor type, donor heavy atom, donor atom, acceptor molecule, acceptor atom, score
      L1  H    18    48       P1 10171  0.97
      P1  H  7954  7966       L1    18  0.52

> <Gold.Chemscore.Hbond.Weighted>
-6.1578

> <Gold.Chemscore.Metal.Weighted>
-0.0000

> <Gold.Chemscore.Lipo.Weighted>
-12.0772

> <Gold.Chemscore.Internal_Hbond.Weighted>
0.0000

> <Gold.Chemscore.DEClash.Weighted>
0.7697

> <Gold.Chemscore.DEInternal.Weighted>
3.3200

> <Gold.Chemscore.Rot.Weighted>
9.0036

> <Gold.Chemscore.Internal.Correction.Weighted>
   9.000000E+99

> <Gold.Protein.RotatedTorsions>
[ 6907 6896 6895 6894 ] final   24.94 input  -60.11 | X-H torsion
[ 7974 7965 7964 7962 ] final   27.71 input  175.53 | X-H torsion
[ 8008 7997 7996 7995 ] final  -92.14 input   59.86 | X-H torsion
[ 10167 10162 10161 10158 ] final  140.46 input  -65.29 | X-H torsion
[ 10718 10713 10712 10709 ] final -136.98 input   66.30 | X-H torsion
[ 10763 10752 10751 10750 ] final   28.01 input  -60.55 | X-H torsion
[ 11005 11000 10999 10996 ] final   16.68 input  -57.11 | X-H torsion

> <Gold.Protein.ActiveResidues>
 VAL166  LYS551  ARG553  GLY616  TRP617  ASP618  TYR619  PRO620  LYS621  CYS622 
 ASP623  PHE694  ASN695  SER759  ASP760  ASP761  ALA762  ILE779  LEU786  VAL792 
 PHE793  MET794  SER795  GLU796  ALA797  LYS798  CYS799  TRP800  GLU811  SER814 

> <Gold.Protein.RotatedAtoms>
  151.9651  135.0105  160.0549 H   0  0  0  0  0  0  0  0  0  0  0  0  # atno 6907 bound_to 6896
  152.1834  133.4718  159.4978 H   0  0  0  0  0  0  0  0  0  0  0  0  # atno 6908 bound_to 6896
  150.6921  134.1722  159.4259 H   0  0  0  0  0  0  0  0  0  0  0  0  # atno 6909 bound_to 6896
  146.1769  139.7155  142.8928 H   0  0  0  0  0  0  0  0  0  0  0  0  # atno 7974 bound_to 7965
  154.7194  140.0512  157.0625 H   0  0  0  0  0  0  0  0  0  0  0  0  # atno 8008 bound_to 7997
  155.0447  140.3172  155.4693 H   0  0  0  0  0  0  0  0  0  0  0  0  # atno 8009 bound_to 7997
  156.2812  140.2126  156.5572 H   0  0  0  0  0  0  0  0  0  0  0  0  # atno 8010 bound_to 7997
  139.5048  144.6233  151.5999 H   0  0  0  0  0  0  0  0  0  0  0  0  # atno 10167 bound_to 10162
  156.2830  130.7331  151.1334 H   0  0  0  0  0  0  0  0  0  0  0  0  # atno 10718 bound_to 10713
  153.0519  135.6523  154.0672 H   0  0  0  0  0  0  0  0  0  0  0  0  # atno 10763 bound_to 10752
  154.0359  135.2907  155.3363 H   0  0  0  0  0  0  0  0  0  0  0  0  # atno 10764 bound_to 10752
  154.6813  135.5319  153.8333 H   0  0  0  0  0  0  0  0  0  0  0  0  # atno 10765 bound_to 10752
  140.4444  134.1289  155.7694 H   0  0  0  0  0  0  0  0  0  0  0  0  # atno 11005 bound_to 11000
  145.4186  141.0404  143.2977 LP  0  0  0  0  0  0  0  0  0  0  0  0  # atno 17320 bound_to 7965
  144.8251  139.5724  143.6969 LP  0  0  0  0  0  0  0  0  0  0  0  0  # atno 17321 bound_to 7965
  140.5942  143.9726  150.6343 LP  0  0  0  0  0  0  0  0  0  0  0  0  # atno 17342 bound_to 10162
  140.2917  143.3320  152.1056 LP  0  0  0  0  0  0  0  0  0  0  0  0  # atno 17343 bound_to 10162
  157.7320  131.0603  150.5649 LP  0  0  0  0  0  0  0  0  0  0  0  0  # atno 17370 bound_to 10713
  156.5757  130.4291  149.5999 LP  0  0  0  0  0  0  0  0  0  0  0  0  # atno 17371 bound_to 10713
  141.1691  133.8643  157.1624 LP  0  0  0  0  0  0  0  0  0  0  0  0  # atno 17394 bound_to 11000
  140.0048  135.0013  157.0269 LP  0  0  0  0  0  0  0  0  0  0  0  0  # atno 17395 bound_to 11000

$$$$
