AV-unprocessed.smi:290|AV-procd|sdf|2244|dock4
  -GOLD-   2262022123D 1   1.00000     0.00000
 Structure written by MMmdl.
 59 62  0  0  0  0  0  0  0  0  2 V2000
  151.3931  140.7091  156.8630 C   0  0  0  0  0  0  0  0  0  0  0  0
  150.9431  139.5506  155.9555 C   0  0  1  0  0  0  0  0  0  0  0  0
  151.5283  139.6837  154.6609 O   0  0  0  0  0  0  0  0  0  0  0  0
  152.3019  138.5329  154.3547 C   0  0  0  0  0  0  0  0  0  0  0  0
  151.6374  137.4159  155.1481 C   0  0  0  0  0  0  0  0  0  0  0  0
  151.2570  138.1139  156.4447 C   0  0  1  0  0  0  0  0  0  0  0  0
  152.3914  138.1055  157.2971 O   0  0  0  0  0  0  0  0  0  0  0  0
  150.0871  137.4099  157.1743 C   0  0  0  0  0  0  0  0  0  0  0  0
  149.1037  136.8359  156.2696 N   0  0  0  0  0  0  0  0  0  0  0  0
  148.8495  135.4986  156.0739 C   0  0  0  0  0  0  0  0  0  0  0  0
  147.8999  135.2350  155.2200 N   0  0  0  0  0  0  0  0  0  0  0  0
  147.4683  136.4827  154.7812 C   0  0  0  0  0  0  0  0  0  0  0  0
  146.4681  136.9352  153.8681 C   0  0  0  0  0  0  0  0  0  0  0  0
  145.6230  136.1225  153.1762 N   0  0  0  0  0  0  0  0  0  0  0  0
  144.2923  136.5668  152.7737 C   0  0  0  0  0  0  0  0  0  0  0  0
  143.5459  135.3035  152.3245 C   0  0  0  0  0  0  0  0  0  0  0  0
  144.6529  134.2462  152.1664 C   0  0  2  0  0  0  0  0  0  0  0  0
  144.2132  132.8211  152.2464 N   0  3  2  0  0  0  0  0  0  0  0  0
  145.3674  131.8870  152.2974 C   0  0  0  0  0  0  0  0  0  0  0  0
  143.2326  132.4221  151.1983 C   0  0  0  0  0  0  0  0  0  0  0  0
  143.8270  132.5062  149.7816 C   0  0  0  0  0  0  0  0  0  0  0  0
  142.8440  132.1629  148.8276 O   0  0  0  0  0  0  0  0  0  0  0  0
  145.6558  134.6685  153.2608 C   0  0  2  0  0  0  0  0  0  0  0  0
  145.2703  134.1841  154.6796 C   0  0  0  0  0  0  0  0  0  0  0  0
  146.3674  138.2779  153.6793 N   0  0  0  0  0  0  0  0  0  0  0  0
  147.1603  139.1226  154.3435 C   0  0  0  0  0  0  0  0  0  0  0  0
  148.1128  138.8442  155.2332 N   0  0  0  0  0  0  0  0  0  0  0  0
  148.2347  137.5000  155.4216 C   0  0  0  0  0  0  0  0  0  0  0  0
  145.1200  134.4010  151.1915 H   0  0  0  0  0  0  0  0  0  0  0  0
  146.6434  134.2969  152.9930 H   0  0  0  0  0  0  0  0  0  0  0  0
  150.9638  140.6248  157.8610 H   0  0  0  0  0  0  0  0  0  0  0  0
  151.0753  141.6662  156.4491 H   0  0  0  0  0  0  0  0  0  0  0  0
  152.4784  140.7422  156.9636 H   0  0  0  0  0  0  0  0  0  0  0  0
  149.8690  139.6401  155.7921 H   0  0  0  0  0  0  0  0  0  0  0  0
  152.3218  138.3363  153.2827 H   0  0  0  0  0  0  0  0  0  0  0  0
  153.3271  138.6899  154.6929 H   0  0  0  0  0  0  0  0  0  0  0  0
  150.7427  137.0855  154.6186 H   0  0  0  0  0  0  0  0  0  0  0  0
  152.2818  136.5470  155.2889 H   0  0  0  0  0  0  0  0  0  0  0  0
  152.8825  137.3156  157.1307 H   0  0  0  0  0  0  0  0  0  0  0  0
  150.4666  136.6140  157.8163 H   0  0  0  0  0  0  0  0  0  0  0  0
  149.5756  138.1127  157.8332 H   0  0  0  0  0  0  0  0  0  0  0  0
  149.3873  134.7203  156.5958 H   0  0  0  0  0  0  0  0  0  0  0  0
  143.7636  137.0611  153.5898 H   0  0  0  0  0  0  0  0  0  0  0  0
  144.3867  137.2736  151.9485 H   0  0  0  0  0  0  0  0  0  0  0  0
  142.8352  135.0022  153.0954 H   0  0  0  0  0  0  0  0  0  0  0  0
  142.9882  135.4777  151.4038 H   0  0  0  0  0  0  0  0  0  0  0  0
  145.9506  131.9399  151.3771 H   0  0  0  0  0  0  0  0  0  0  0  0
  145.0444  130.8558  152.4313 H   0  0  0  0  0  0  0  0  0  0  0  0
  146.0345  132.1128  153.1283 H   0  0  0  0  0  0  0  0  0  0  0  0
  142.8843  131.4005  151.3365 H   0  0  0  0  0  0  0  0  0  0  0  0
  142.3439  133.0502  151.2749 H   0  0  0  0  0  0  0  0  0  0  0  0
  144.1552  133.5263  149.5799 H   0  0  0  0  0  0  0  0  0  0  0  0
  144.6993  131.8657  149.6566 H   0  0  0  0  0  0  0  0  0  0  0  0
  142.1585  132.8138  148.8519 H   0  0  0  0  0  0  0  0  0  0  0  0
  145.2787  133.0972  154.7524 H   0  0  0  0  0  0  0  0  0  0  0  0
  144.2771  134.5258  154.9712 H   0  0  0  0  0  0  0  0  0  0  0  0
  145.9704  134.5528  155.4290 H   0  0  0  0  0  0  0  0  0  0  0  0
  147.0068  140.1710  154.1345 H   0  0  0  0  0  0  0  0  0  0  0  0
  143.7229  132.7367  153.1257 H   0  0  0  0  0  0  0  0  0  0  0  0
  1  2  1  0  0  0  0
  1 31  1  0  0  0  0
  1 32  1  0  0  0  0
  1 33  1  0  0  0  0
  2  6  1  0  0  0  0
  2  3  1  0  0  0  0
  2 34  1  0  0  0  0
  3  4  1  0  0  0  0
  4  5  1  0  0  0  0
  4 35  1  0  0  0  0
  4 36  1  0  0  0  0
  5  6  1  0  0  0  0
  5 37  1  0  0  0  0
  5 38  1  0  0  0  0
  6  7  1  0  0  0  0
  6  8  1  0  0  0  0
  7 39  1  0  0  0  0
  8  9  1  0  0  0  0
  8 40  1  0  0  0  0
  8 41  1  0  0  0  0
  9 28  1  0  0  0  0
  9 10  1  0  0  0  0
 10 11  2  0  0  0  0
 10 42  1  0  0  0  0
 11 12  1  0  0  0  0
 12 28  2  0  0  0  0
 12 13  1  0  0  0  0
 13 14  1  0  0  0  0
 13 25  2  0  0  0  0
 14 23  1  0  0  0  0
 14 15  1  0  0  0  0
 15 16  1  0  0  0  0
 15 43  1  0  0  0  0
 15 44  1  0  0  0  0
 16 17  1  0  0  0  0
 16 45  1  0  0  0  0
 16 46  1  0  0  0  0
 17 29  1  0  0  0  0
 17 18  1  0  0  0  0
 17 23  1  0  0  0  0
 18 19  1  0  0  0  0
 18 20  1  0  0  0  0
 18 59  1  0  0  0  0
 19 47  1  0  0  0  0
 19 48  1  0  0  0  0
 19 49  1  0  0  0  0
 20 21  1  0  0  0  0
 20 50  1  0  0  0  0
 20 51  1  0  0  0  0
 21 22  1  0  0  0  0
 21 52  1  0  0  0  0
 21 53  1  0  0  0  0
 22 54  1  0  0  0  0
 23 30  1  0  0  0  0
 23 24  1  0  0  0  0
 24 55  1  0  0  0  0
 24 56  1  0  0  0  0
 24 57  1  0  0  0  0
 25 26  1  0  0  0  0
 26 27  2  0  0  0  0
 26 58  1  0  0  0  0
 27 28  1  0  0  0  0
M  CHG  1  18   1
M  END
> <s_m_source_file>
AV-unprocessed.smi

> <i_m_source_file_index>
290

> <i_lp_mmshare_version>
43012

> <i_f3d_flags>
0

> <s_epik_input>
W0NIMl0xW0NIMl1PW0NAQEhdKFtDSDNdKVtDQEBdMShbT0hdKVtDSDJdbihbY0hdbjIpYyhjMjMpbltjSF1uYzNONFtDSDJdW0NIMl1bQ0BIXShbQ0BIXTRbQ0gzXSlOKFtDSDNdKVtDSDJdW0NIMl1bT0hd

> <s_epik_cmdline>
J2VwaWtfcHl0aG9uJywgJy1waCcsICc3LjAnLCAnLXRuJywgJzgnLCAnLW1hJywgJzIwMCcsICctbWV0YWxfYmluZGluZycsICctaW1hZScsICc8aW5maWxlLm1hZT4nLCAnLW9tYWUnLCAnPG91dGZpbGUubWFlPic=

> <r_lp_tautomer_probability>
1

> <r_epik_Ionization_Penalty>
0.0036983

> <r_epik_Ionization_Penalty_Charging>
0.0032725

> <r_epik_Ionization_Penalty_Neutral>
0.000425798

> <r_epik_State_Penalty>
-0

> <r_epik_Charging_Adjusted_Penalty>
0.0032725

> <i_epik_Tot_Q>
1

> <i_epik_Tot_abs_Q>
1

> <r_epik_Metal_State_Penalty>
-0

> <b_epik_Metal_Only>
0

> <s_lp_Force_Field>
OPLS_2005

> <r_lp_Energy>
62.044

> <b_lp_Chiralities_Consistent>
1

> <s_lp_Variant>
AV-unprocessed.smi:290-30

> <Gold.Version>
5.8.1

> <Gold.Id.Protein>
6NUR|6NUR_protein|mol2

> <Gold.PLP.Fitness>
43.4082

> <Gold.PLP.PLP>
-31.5039

> <Gold.PLP.part.hbond>
-4.7650

> <Gold.PLP.part.metal>
0.0000

> <Gold.PLP.part.buried>
-8.5833

> <Gold.PLP.part.nonpolar>
-21.5405

> <Gold.PLP.part.repulsive>
0.3678

> <Gold.PLP.ligand.clash>
0.0000

> <Gold.PLP.ligand.torsion>
0.6625

> <Gold.PLP.Chemscore.Hbond>
4.2912

> <Gold.PLP.Chemscore.CHOScore>
0.0000

> <Gold.PLP.Chemscore.Metal>
0.0000

> <Gold.Chemscore.Hbonds>
donor molecule, donor type, donor heavy atom, donor atom, acceptor molecule, acceptor atom, score
      L1  H    18    59       P1 10957  1.27
      L1  H    22    54       P1 10186  0.88
      P1  H  7989  7998       L1     3  1.00
      P1  H 10785 10796       L1    22  0.91

> <Gold.PLP.Chemscore.Internal.Correction>
0.3555

> <Gold.Rescore>
     Score         DG    S(hbond)    S(metal)    S(lipo)     H(rot)  DE(clash)    DE(int)     intcor
     12.42     -15.38       3.01        0.00      71.94       3.35       0.07       2.89       ----

> <Gold.Chemscore.Fitness>
12.4157

> <Gold.Chemscore.DG>
-15.3752

> <Gold.Chemscore.ZeroCoef>
-5.4800

> <Gold.Chemscore.Hbond>
3.0116

> <Gold.Chemscore.Metal>
0.0000

> <Gold.Chemscore.Lipo>
71.9412

> <Gold.Chemscore.Internal_Hbond>
0.0000

> <Gold.Chemscore.DEClash>
0.0654

> <Gold.Chemscore.DEInternal>
2.8941

> <Gold.Chemscore.Rot>
3.3518

> <Gold.Chemscore.Internal.Correction>
   9.000000E+99

> <Gold.Chemscore.Hbonds>
donor molecule, donor type, donor heavy atom, donor atom, acceptor molecule, acceptor atom, score
      L1  H    18    59       P1 10957  0.21
      L1  H    22    54       P1 10186  0.85
      P1  H  7989  7998       L1     3  0.82
      P1  H 10785 10796       L1    22  0.19

> <Gold.Chemscore.Hbond.Weighted>
-10.0586

> <Gold.Chemscore.Metal.Weighted>
-0.0000

> <Gold.Chemscore.Lipo.Weighted>
-8.4171

> <Gold.Chemscore.Internal_Hbond.Weighted>
0.0000

> <Gold.Chemscore.DEClash.Weighted>
0.0654

> <Gold.Chemscore.DEInternal.Weighted>
2.8941

> <Gold.Chemscore.Rot.Weighted>
8.5806

> <Gold.Chemscore.Internal.Correction.Weighted>
   9.000000E+99

> <Gold.Protein.RotatedTorsions>
[ 6907 6896 6895 6894 ] final  105.17 input  -60.11 | X-H torsion
[ 7974 7965 7964 7962 ] final  -80.62 input  175.53 | X-H torsion
[ 8008 7997 7996 7995 ] final  -42.10 input   59.86 | X-H torsion
[ 10167 10162 10161 10158 ] final -163.94 input  -65.29 | X-H torsion
[ 10718 10713 10712 10709 ] final   74.37 input   66.30 | X-H torsion
[ 10763 10752 10751 10750 ] final -120.54 input  -60.55 | X-H torsion
[ 11005 11000 10999 10996 ] final  137.46 input  -57.11 | X-H torsion

> <Gold.Protein.ActiveResidues>
 VAL166  LYS551  ARG553  GLY616  TRP617  ASP618  TYR619  PRO620  LYS621  CYS622 
 ASP623  PHE694  ASN695  SER759  ASP760  ASP761  ALA762  ILE779  LEU786  VAL792 
 PHE793  MET794  SER795  GLU796  ALA797  LYS798  CYS799  TRP800  GLU811  SER814 

> <Gold.Protein.RotatedAtoms>
  152.5239  133.9567  159.7697 H   0  0  0  0  0  0  0  0  0  0  0  0  # atno 6907 bound_to 6896
  150.9866  133.6183  159.2721 H   0  0  0  0  0  0  0  0  0  0  0  0  # atno 6908 bound_to 6896
  151.3341  135.0854  159.9402 H   0  0  0  0  0  0  0  0  0  0  0  0  # atno 6909 bound_to 6896
  145.5575  140.9487  143.1466 H   0  0  0  0  0  0  0  0  0  0  0  0  # atno 7974 bound_to 7965
  154.4000  140.1482  156.3299 H   0  0  0  0  0  0  0  0  0  0  0  0  # atno 8008 bound_to 7997
  155.8452  140.3460  155.5636 H   0  0  0  0  0  0  0  0  0  0  0  0  # atno 8009 bound_to 7997
  155.8043  140.0875  157.1930 H   0  0  0  0  0  0  0  0  0  0  0  0  # atno 8010 bound_to 7997
  139.6285  144.0485  152.1995 H   0  0  0  0  0  0  0  0  0  0  0  0  # atno 10167 bound_to 10162
  157.6589  130.9674  150.1201 H   0  0  0  0  0  0  0  0  0  0  0  0  # atno 10718 bound_to 10713
  154.8647  135.4199  154.2476 H   0  0  0  0  0  0  0  0  0  0  0  0  # atno 10763 bound_to 10752
  153.3429  135.6994  153.6858 H   0  0  0  0  0  0  0  0  0  0  0  0  # atno 10764 bound_to 10752
  153.5829  135.3569  155.2854 H   0  0  0  0  0  0  0  0  0  0  0  0  # atno 10765 bound_to 10752
  140.0116  134.9436  157.0289 H   0  0  0  0  0  0  0  0  0  0  0  0  # atno 11005 bound_to 11000
  144.7499  139.7221  143.7277 LP  0  0  0  0  0  0  0  0  0  0  0  0  # atno 17320 bound_to 7965
  146.1874  139.5097  142.9827 LP  0  0  0  0  0  0  0  0  0  0  0  0  # atno 17321 bound_to 7965
  140.0145  144.6199  150.7619 LP  0  0  0  0  0  0  0  0  0  0  0  0  # atno 17342 bound_to 10162
  140.7425  143.2833  151.3536 LP  0  0  0  0  0  0  0  0  0  0  0  0  # atno 17343 bound_to 10162
  156.2075  130.3664  149.8711 LP  0  0  0  0  0  0  0  0  0  0  0  0  # atno 17370 bound_to 10713
  156.6599  130.8778  151.3545 LP  0  0  0  0  0  0  0  0  0  0  0  0  # atno 17371 bound_to 10713
  140.4545  134.1548  155.7185 LP  0  0  0  0  0  0  0  0  0  0  0  0  # atno 17394 bound_to 11000
  141.1714  133.8600  157.1557 LP  0  0  0  0  0  0  0  0  0  0  0  0  # atno 17395 bound_to 11000

$$$$
