AV-unprocessed.smi:2451|AV-procd|sdf|9671|dock2
  -GOLD-   2272013313D 1   1.00000     0.00000
 Structure written by MMmdl.
 38 39  0  0  0  0  0  0  0  0  1 V2000
  151.1234  145.1892  159.2570 C   0  0  0  0  0  0  0  0  0  0  0  0
  151.4887  143.8684  159.9590 C   0  0  2  0  0  0  0  0  0  0  0  0
  152.2794  144.1709  161.2475 C   0  0  0  0  0  0  0  0  0  0  0  0
  152.6375  142.8900  162.0083 C   0  0  0  0  0  0  0  0  0  0  0  0
  153.4541  141.9502  161.1178 C   0  0  0  0  0  0  0  0  0  0  0  0
  152.7021  141.6166  159.8176 C   0  0  2  0  0  0  0  0  0  0  0  0
  153.5712  140.7823  158.9816 N   0  0  0  0  0  0  0  0  0  0  0  0
  153.1097  139.1499  158.6722 S   0  0  0  0  0  0  0  0  0  0  0  0
  154.0922  138.5801  157.7378 O   0  0  0  0  0  0  0  0  0  0  0  0
  152.8689  138.5010  159.9706 O   0  0  0  0  0  0  0  0  0  0  0  0
  151.4956  139.3525  157.8090 C   0  0  0  0  0  0  0  0  0  0  0  0
  151.4910  138.5338  156.5503 C   0  0  0  0  0  0  0  0  0  0  0  0
  151.2607  138.9685  155.2156 C   0  0  0  0  0  0  0  0  0  0  0  0
  151.3755  137.8223  154.4831 C   0  0  0  0  0  0  0  0  0  0  0  0
  151.6564  136.7687  155.2907 O   0  0  0  0  0  0  0  0  0  0  0  0
  151.7304  137.2333  156.6089 N   0  0  0  0  0  0  0  0  0  0  0  0
  152.2644  142.8843  159.0370 C   0  0  1  0  0  0  0  0  0  0  0  0
  151.4331  142.4962  157.7945 C   0  0  0  0  0  0  0  0  0  0  0  0
  152.0080  145.6800  158.8503 H   0  0  0  0  0  0  0  0  0  0  0  0
  150.6505  145.8838  159.9519 H   0  0  0  0  0  0  0  0  0  0  0  0
  150.4181  145.0358  158.4410 H   0  0  0  0  0  0  0  0  0  0  0  0
  150.5555  143.3872  160.2557 H   0  0  0  0  0  0  0  0  0  0  0  0
  153.1918  144.7169  161.0024 H   0  0  0  0  0  0  0  0  0  0  0  0
  151.6966  144.8236  161.8987 H   0  0  0  0  0  0  0  0  0  0  0  0
  153.2032  143.1361  162.9074 H   0  0  0  0  0  0  0  0  0  0  0  0
  151.7273  142.3886  162.3399 H   0  0  0  0  0  0  0  0  0  0  0  0
  154.4110  142.4188  160.8834 H   0  0  0  0  0  0  0  0  0  0  0  0
  153.6836  141.0343  161.6640 H   0  0  0  0  0  0  0  0  0  0  0  0
  151.8076  141.0489  160.0782 H   0  0  0  0  0  0  0  0  0  0  0  0
  154.5435  140.8429  159.2829 H   0  0  0  0  0  0  0  0  0  0  0  0
  150.7047  139.0272  158.4845 H   0  0  0  0  0  0  0  0  0  0  0  0
  151.3425  140.4120  157.6023 H   0  0  0  0  0  0  0  0  0  0  0  0
  151.0418  139.9623  154.8545 H   0  0  0  0  0  0  0  0  0  0  0  0
  151.2899  137.6034  153.4290 H   0  0  0  0  0  0  0  0  0  0  0  0
  153.1660  143.3926  158.6906 H   0  0  0  0  0  0  0  0  0  0  0  0
  150.4888  142.0316  158.0801 H   0  0  0  0  0  0  0  0  0  0  0  0
  151.9643  141.7903  157.1561 H   0  0  0  0  0  0  0  0  0  0  0  0
  151.2076  143.3595  157.1699 H   0  0  0  0  0  0  0  0  0  0  0  0
  1  2  1  0  0  0  0
  1 19  1  0  0  0  0
  1 20  1  0  0  0  0
  1 21  1  0  0  0  0
  2 17  1  0  0  0  0
  2  3  1  0  0  0  0
  2 22  1  0  0  0  0
  3  4  1  0  0  0  0
  3 23  1  0  0  0  0
  3 24  1  0  0  0  0
  4  5  1  0  0  0  0
  4 25  1  0  0  0  0
  4 26  1  0  0  0  0
  5  6  1  0  0  0  0
  5 27  1  0  0  0  0
  5 28  1  0  0  0  0
  6  7  1  0  0  0  0
  6 17  1  0  0  0  0
  6 29  1  0  0  0  0
  7  8  1  0  0  0  0
  7 30  1  0  0  0  0
  8  9  2  0  0  0  0
  8 10  2  0  0  0  0
  8 11  1  0  0  0  0
 11 12  1  0  0  0  0
 11 31  1  0  0  0  0
 11 32  1  0  0  0  0
 12 16  2  0  0  0  0
 12 13  1  0  0  0  0
 13 14  2  0  0  0  0
 13 33  1  0  0  0  0
 14 15  1  0  0  0  0
 14 34  1  0  0  0  0
 15 16  1  0  0  0  0
 17 18  1  0  0  0  0
 17 35  1  0  0  0  0
 18 36  1  0  0  0  0
 18 37  1  0  0  0  0
 18 38  1  0  0  0  0
M  END
> <s_m_source_file>
AV-unprocessed.smi

> <i_m_source_file_index>
2451

> <i_lp_mmshare_version>
43012

> <i_f3d_flags>
0

> <s_epik_input>
W0NIM11bQ0BASF0xW0NIMl1bQ0gyXVtDSDJdW0NASF0oW0NASF0xW0NIM10pW05IXVMoPU8pKD1PKVtDSDJdYzJbY0hdW2NIXW9uMg==

> <s_epik_cmdline>
J2VwaWtfcHl0aG9uJywgJy1waCcsICc3LjAnLCAnLXRuJywgJzgnLCAnLW1hJywgJzIwMCcsICctbWV0YWxfYmluZGluZycsICctaW1hZScsICc8aW5maWxlLm1hZT4nLCAnLW9tYWUnLCAnPG91dGZpbGUubWFlPic=

> <r_lp_tautomer_probability>
1

> <r_epik_Ionization_Penalty>
8.73668e-05

> <r_epik_Ionization_Penalty_Charging>
0

> <r_epik_Ionization_Penalty_Neutral>
8.73668e-05

> <r_epik_State_Penalty>
-0

> <r_epik_Charging_Adjusted_Penalty>
0

> <i_epik_Tot_Q>
0

> <i_epik_Tot_abs_Q>
0

> <r_epik_Metal_State_Penalty>
0.0716439

> <b_epik_Metal_Only>
0

> <s_lp_Force_Field>
OPLS_2005

> <r_lp_Energy>
6.58047

> <b_lp_Chiralities_Consistent>
1

> <s_lp_Variant>
AV-unprocessed.smi:2451-3

> <Gold.Version>
5.8.1

> <Gold.Id.Protein>
6NUR|6NUR_protein|mol2

> <Gold.PLP.Fitness>
47.2630

> <Gold.PLP.PLP>
-40.3240

> <Gold.PLP.part.hbond>
-2.9563

> <Gold.PLP.part.metal>
0.0000

> <Gold.PLP.part.buried>
-4.0281

> <Gold.PLP.part.nonpolar>
-33.5683

> <Gold.PLP.part.repulsive>
0.1050

> <Gold.PLP.ligand.clash>
0.0000

> <Gold.PLP.ligand.torsion>
0.9447

> <Gold.PLP.Chemscore.Hbond>
1.8960

> <Gold.PLP.Chemscore.CHOScore>
0.9987

> <Gold.PLP.Chemscore.Metal>
0.0000

> <Gold.Chemscore.Hbonds>
donor molecule, donor type, donor heavy atom, donor atom, acceptor molecule, acceptor atom, score
      P1  H  7997  8010       L1     9  0.93
      P1  H 10752 10765       L1    15  1.00
      L1  C    14    34       P1  7949  1.00

> <Gold.PLP.Chemscore.Internal.Correction>
0.1445

> <Gold.Rescore>
     Score         DG    S(hbond)    S(metal)    S(lipo)     H(rot)  DE(clash)    DE(int)     intcor
     18.98     -20.08       1.65        0.00     114.13       1.66       0.15       0.95       ----

> <Gold.Chemscore.Fitness>
18.9798

> <Gold.Chemscore.DG>
-20.0815

> <Gold.Chemscore.ZeroCoef>
-5.4800

> <Gold.Chemscore.Hbond>
1.6452

> <Gold.Chemscore.Metal>
0.0000

> <Gold.Chemscore.Lipo>
114.1284

> <Gold.Chemscore.Internal_Hbond>
0.0000

> <Gold.Chemscore.DEClash>
0.1497

> <Gold.Chemscore.DEInternal>
0.9521

> <Gold.Chemscore.Rot>
1.6588

> <Gold.Chemscore.Internal.Correction>
   9.000000E+99

> <Gold.Chemscore.Hbonds>
donor molecule, donor type, donor heavy atom, donor atom, acceptor molecule, acceptor atom, score
      P1  H  7997  8010       L1     9  0.27
      P1  H 10752 10765       L1    15  0.84

> <Gold.Chemscore.Hbond.Weighted>
-5.4951

> <Gold.Chemscore.Metal.Weighted>
-0.0000

> <Gold.Chemscore.Lipo.Weighted>
-13.3530

> <Gold.Chemscore.Internal_Hbond.Weighted>
0.0000

> <Gold.Chemscore.DEClash.Weighted>
0.1497

> <Gold.Chemscore.DEInternal.Weighted>
0.9521

> <Gold.Chemscore.Rot.Weighted>
4.2466

> <Gold.Chemscore.Internal.Correction.Weighted>
   9.000000E+99

> <Gold.Protein.RotatedTorsions>
[ 6907 6896 6895 6894 ] final   96.13 input  -60.11 | X-H torsion
[ 7974 7965 7964 7962 ] final  -19.78 input  175.53 | X-H torsion
[ 8008 7997 7996 7995 ] final   14.25 input   59.86 | X-H torsion
[ 10167 10162 10161 10158 ] final  110.71 input  -65.29 | X-H torsion
[ 10718 10713 10712 10709 ] final    8.32 input   66.30 | X-H torsion
[ 10763 10752 10751 10750 ] final  176.91 input  -60.55 | X-H torsion
[ 11005 11000 10999 10996 ] final  -45.88 input  -57.11 | X-H torsion

> <Gold.Protein.ActiveResidues>
 VAL166  LYS551  ARG553  GLY616  TRP617  ASP618  TYR619  PRO620  LYS621  CYS622 
 ASP623  PHE694  ASN695  SER759  ASP760  ASP761  ALA762  ILE779  LEU786  VAL792 
 PHE793  MET794  SER795  GLU796  ALA797  LYS798  CYS799  TRP800  GLU811  SER814 

> <Gold.Protein.RotatedAtoms>
  152.5438  134.0933  159.8286 H   0  0  0  0  0  0  0  0  0  0  0  0  # atno 6907 bound_to 6896
  151.1020  133.5229  159.2617 H   0  0  0  0  0  0  0  0  0  0  0  0  # atno 6908 bound_to 6896
  151.1980  135.0440  159.8915 H   0  0  0  0  0  0  0  0  0  0  0  0  # atno 6909 bound_to 6896
  146.1823  140.4111  142.8490 H   0  0  0  0  0  0  0  0  0  0  0  0  # atno 7974 bound_to 7965
  154.8459  140.2922  155.5629 H   0  0  0  0  0  0  0  0  0  0  0  0  # atno 8008 bound_to 7997
  156.3014  140.2505  156.3341 H   0  0  0  0  0  0  0  0  0  0  0  0  # atno 8009 bound_to 7997
  154.9074  140.0389  157.1916 H   0  0  0  0  0  0  0  0  0  0  0  0  # atno 8010 bound_to 7997
  139.6667  144.7127  151.1763 H   0  0  0  0  0  0  0  0  0  0  0  0  # atno 10167 bound_to 10162
  156.9500  130.5893  149.5656 H   0  0  0  0  0  0  0  0  0  0  0  0  # atno 10718 bound_to 10713
  154.4874  135.2777  155.1523 H   0  0  0  0  0  0  0  0  0  0  0  0  # atno 10763 bound_to 10752
  154.3209  135.6210  153.5511 H   0  0  0  0  0  0  0  0  0  0  0  0  # atno 10764 bound_to 10752
  152.9883  135.5742  154.5288 H   0  0  0  0  0  0  0  0  0  0  0  0  # atno 10765 bound_to 10752
  141.0544  133.6731  156.3076 H   0  0  0  0  0  0  0  0  0  0  0  0  # atno 11005 bound_to 11000
  144.8336  140.6746  143.6275 LP  0  0  0  0  0  0  0  0  0  0  0  0  # atno 17320 bound_to 7965
  145.4040  139.1592  143.4162 LP  0  0  0  0  0  0  0  0  0  0  0  0  # atno 17321 bound_to 7965
  140.7602  143.5907  150.8799 LP  0  0  0  0  0  0  0  0  0  0  0  0  # atno 17342 bound_to 10162
  139.9570  143.6207  152.3013 LP  0  0  0  0  0  0  0  0  0  0  0  0  # atno 17343 bound_to 10162
  156.0367  130.5454  150.8671 LP  0  0  0  0  0  0  0  0  0  0  0  0  # atno 17370 bound_to 10713
  157.5728  131.0946  150.9391 LP  0  0  0  0  0  0  0  0  0  0  0  0  # atno 17371 bound_to 10713
  140.5993  134.5571  157.5514 LP  0  0  0  0  0  0  0  0  0  0  0  0  # atno 17394 bound_to 11000
  139.9377  134.7844  156.0759 LP  0  0  0  0  0  0  0  0  0  0  0  0  # atno 17395 bound_to 11000

$$$$
