#       Name:                AV-unprocessed.smi:1636
#       Creating user name   scv26
#       Creation time:       Fri Mar 27 07:22:45 2020


#       File generated by GOLD software.
#

@<TRIPOS>MOLECULE
AV-unprocessed.smi:1636
    51    52     1
SMALL
NO_CHARGES


@<TRIPOS>ATOM
      1 ****        -5.1353   4.0690  -0.6027 C.3            1 S1                 0.0000
      2 ****        -3.8147   3.8217   0.1343 C.3            1 S1                 0.0000
      3 ****        -3.2680   2.4039  -0.1190 C.3            1 S1                 0.0000
      4 ****        -1.9529   2.2378   0.4946 N.3            1 S1                 0.0000
      5 ****        -1.4225   0.9326   0.6187 C.ar           1 S1                 0.0000
      6 ****        -2.0774  -0.2044   0.0794 C.ar           1 S1                 0.0000
      7 ****        -1.4968  -1.4764   0.2447 C.ar           1 S1                 0.0000
      8 ****        -0.2775  -1.5896   0.9393 C.ar           1 S1                 0.0000
      9 ****         0.3712  -2.9516   1.1389 C.3            1 S1                 0.0000
     10 ****         1.8291  -2.9338   1.0756 N.am           1 S1                 0.0000
     11 ****         2.5439  -2.8748  -0.0567 C.2            1 S1                 0.0000
     12 ****         2.0489  -2.8273  -1.1830 O.2            1 S1                 0.0000
     13 ****         3.8619  -2.8747   0.1855 N.am           1 S1                 0.0000
     14 ****         4.8981  -2.8187  -0.8387 C.3            1 S1                 0.0000
     15 ****         5.1236  -4.1919  -1.4903 C.3            1 S1                 0.0000
     16 ****         6.2037  -4.1196  -2.3951 O.3            1 S1                 0.0000
     17 ****         0.2994  -0.4076   1.4482 C.ar           1 S1                 0.0000
     18 ****        -0.2531   0.8137   1.2937 N.ar           1 S1                 0.0000
     19 ****        -1.0046   3.3000   0.1598 C.3            1 S1                 0.0000
     20 ****        -1.6344   4.6827   0.3939 C.3            1 S1                 0.0000
     21 ****        -2.8631   4.7798  -0.3172 O.3            1 S1                 0.0000
     22 ****        -5.9034   3.3669  -0.2771 H              1 S1                 0.0000
     23 ****        -5.0138   3.9566  -1.6806 H              1 S1                 0.0000
     24 ****        -5.5047   5.0769  -0.4121 H              1 S1                 0.0000
     25 ****        -3.9845   3.9635   1.2032 H              1 S1                 0.0000
     26 ****        -3.9713   1.6819   0.2966 H              1 S1                 0.0000
     27 ****        -3.1899   2.2125  -1.1900 H              1 S1                 0.0000
     28 ****        -3.0060  -0.1307  -0.4656 H              1 S1                 0.0000
     29 ****        -1.9829  -2.3512  -0.1615 H              1 S1                 0.0000
     30 ****         0.0793  -3.3273   2.1196 H              1 S1                 0.0000
     31 ****        -0.0194  -3.6620   0.4080 H              1 S1                 0.0000
     32 ****         2.3254  -2.9713   1.9539 H              1 S1                 0.0000
     33 ****         4.1717  -2.9133   1.1453 H              1 S1                 0.0000
     34 ****         4.6432  -2.0713  -1.5923 H              1 S1                 0.0000
     35 ****         5.8180  -2.4785  -0.3622 H              1 S1                 0.0000
     36 ****         5.3483  -4.9452  -0.7348 H              1 S1                 0.0000
     37 ****         4.2329  -4.5210  -2.0260 H              1 S1                 0.0000
     38 ****         6.3176  -4.9680  -2.7958 H              1 S1                 0.0000
     39 ****         1.2282  -0.4366   1.9985 H              1 S1                 0.0000
     40 ****        -0.0927   3.2298   0.7522 H              1 S1                 0.0000
     41 ****        -0.7146   3.1938  -0.8861 H              1 S1                 0.0000
     42 ****        -1.8008   4.8593   1.4577 H              1 S1                 0.0000
     43 ****        -0.9603   5.4646   0.0448 H              1 S1                 0.0000
     44 ****        -2.1648   2.3807   1.4614 LP             1 S1                 0.0000
     45 ****         1.0550  -2.8314  -1.2929 LP             1 S1                 0.0000
     46 ****         2.6408  -2.7846  -1.9879 LP             1 S1                 0.0000
     47 ****         7.0371  -3.8634  -1.9054 LP             1 S1                 0.0000
     48 ****         6.0081  -3.4375  -3.0997 LP             1 S1                 0.0000
     49 ****         0.1956   1.6228   1.6733 LP             1 S1                 0.0000
     50 ****        -3.2405   5.6966  -0.1869 LP             1 S1                 0.0000
     51 ****        -2.6869   4.6270  -1.2896 LP             1 S1                 0.0000
@<TRIPOS>BOND
    1    1    2 1     
    2    1   22 1     
    3    1   23 1     
    4    1   24 1     
    5    2   21 1     
    6    2    3 1     
    7    2   25 1     
    8    3    4 1     
    9    3   26 1     
   10    3   27 1     
   11    4    5 1     
   12    4   19 1     
   13    5   18 ar    
   14    5    6 ar    
   15    6    7 ar    
   16    6   28 1     
   17    7    8 ar    
   18    7   29 1     
   19    8    9 1     
   20    8   17 ar    
   21    9   10 1     
   22    9   30 1     
   23    9   31 1     
   24   10   11 am    
   25   10   32 1     
   26   11   12 2     
   27   11   13 am    
   28   13   14 1     
   29   13   33 1     
   30   14   15 1     
   31   14   34 1     
   32   14   35 1     
   33   15   16 1     
   34   15   36 1     
   35   15   37 1     
   36   16   38 1     
   37   17   18 ar    
   38   17   39 1     
   39   19   20 1     
   40   19   40 1     
   41   19   41 1     
   42   20   21 1     
   43   20   42 1     
   44   20   43 1     
   45    4   44 1     
   46   12   45 1     
   47   12   46 1     
   48   16   47 1     
   49   16   48 1     
   50   18   49 1     
   51   21   50 1     
   52   21   51 1     
@<TRIPOS>SUBSTRUCTURE
      1 S1             1
@<TRIPOS>SET
LONE_PAIRS      STATIC     ATOMS    <user>   **** ""
8 44 45 46 47 48 49 50 51
DONOR_HYDROGENS      STATIC     ATOMS    <user>   **** ""
3 32 33 38
ATOM$BLUE        STATIC     ATOMS    COLORGROUP SYSTEM
8 44 45 46 47 48 49 50 51
ATOM$RED        STATIC     ATOMS    COLORGROUP SYSTEM
3 32 33 38
