AV-unprocessed.smi:798|AV-procd|sdf|3778|dock6
  -GOLD-   22720 1213D 1   1.00000     0.00000
 Structure written by MMmdl.
 33 35  0  0  0  0  0  0  0  0  2 V2000
  149.1826  138.3340  159.5181 O   0  0  0  0  0  0  0  0  0  0  0  0
  149.3465  137.2733  158.9110 C   0  0  0  0  0  0  0  0  0  0  0  0
  149.1765  136.0287  159.4118 N   0  5  0  0  0  0  0  0  0  0  0  0
  148.3261  135.8258  160.4314 C   0  0  0  0  0  0  0  0  0  0  0  0
  147.8351  136.8350  161.1686 N   0  0  0  0  0  0  0  0  0  0  0  0
  146.9710  136.4104  162.1689 N   0  0  0  0  0  0  0  0  0  0  0  0
  146.8250  135.0856  162.1545 C   0  0  0  0  0  0  0  0  0  0  0  0
  147.7276  134.2371  160.9172 S   0  0  0  0  0  0  0  0  0  0  0  0
  149.7207  137.2886  157.6236 N   0  0  0  0  0  0  0  0  0  0  0  0
  149.9792  138.4794  156.8115 C   0  0  1  0  0  0  0  0  0  0  0  0
  151.0173  139.3841  157.5102 C   0  0  2  0  0  0  0  0  0  0  0  0
  150.9851  140.7805  156.8628 C   0  0  0  0  0  0  0  0  0  0  0  0
  151.6321  140.5253  155.4880 C   0  0  0  0  0  0  0  0  0  0  0  0
  151.9524  139.0176  155.5330 C   0  0  1  0  0  0  0  0  0  0  0  0
  152.3416  138.8346  156.9943 C   0  0  0  0  0  0  0  0  0  0  0  0
  150.6367  138.2077  155.4235 C   0  0  1  0  0  0  0  0  0  0  0  0
  150.8617  136.7236  155.0530 C   0  0  0  0  0  0  0  0  0  0  0  0
  151.7338  136.6148  153.9473 O   0  0  0  0  0  0  0  0  0  0  0  0
  146.1795  134.6057  162.8748 H   0  0  0  0  0  0  0  0  0  0  0  0
  149.8406  136.3955  157.1690 H   0  0  0  0  0  0  0  0  0  0  0  0
  149.0449  139.0303  156.6877 H   0  0  0  0  0  0  0  0  0  0  0  0
  150.9215  139.4130  158.5964 H   0  0  0  0  0  0  0  0  0  0  0  0
  149.9739  141.1808  156.7822 H   0  0  0  0  0  0  0  0  0  0  0  0
  151.5798  141.4894  157.4400 H   0  0  0  0  0  0  0  0  0  0  0  0
  150.9710  140.7855  154.6605 H   0  0  0  0  0  0  0  0  0  0  0  0
  152.5455  141.1119  155.3812 H   0  0  0  0  0  0  0  0  0  0  0  0
  152.7192  138.7238  154.8158 H   0  0  0  0  0  0  0  0  0  0  0  0
  153.2039  139.4342  157.2912 H   0  0  0  0  0  0  0  0  0  0  0  0
  152.5196  137.7952  157.2735 H   0  0  0  0  0  0  0  0  0  0  0  0
  150.0056  138.6413  154.6460 H   0  0  0  0  0  0  0  0  0  0  0  0
  151.2725  136.1584  155.8897 H   0  0  0  0  0  0  0  0  0  0  0  0
  149.9192  136.2524  154.7739 H   0  0  0  0  0  0  0  0  0  0  0  0
  151.2232  136.3792  153.1880 H   0  0  0  0  0  0  0  0  0  0  0  0
  1  2  2  0  0  0  0
  2  3  1  0  0  0  0
  2  9  1  0  0  0  0
  3  4  1  0  0  0  0
  4  8  1  0  0  0  0
  4  5  2  0  0  0  0
  5  6  1  0  0  0  0
  6  7  2  0  0  0  0
  7  8  1  0  0  0  0
  7 19  1  0  0  0  0
  9 10  1  0  0  0  0
  9 20  1  0  0  0  0
 10 16  1  0  0  0  0
 10 11  1  0  0  0  0
 10 21  1  0  0  0  0
 11 15  1  0  0  0  0
 11 12  1  0  0  0  0
 11 22  1  0  0  0  0
 12 13  1  0  0  0  0
 12 23  1  0  0  0  0
 12 24  1  0  0  0  0
 13 14  1  0  0  0  0
 13 25  1  0  0  0  0
 13 26  1  0  0  0  0
 14 15  1  0  0  0  0
 14 16  1  0  0  0  0
 14 27  1  0  0  0  0
 15 28  1  0  0  0  0
 15 29  1  0  0  0  0
 16 17  1  0  0  0  0
 16 30  1  0  0  0  0
 17 18  1  0  0  0  0
 17 31  1  0  0  0  0
 17 32  1  0  0  0  0
 18 33  1  0  0  0  0
M  CHG  1   3  -1
M  END
> <s_m_source_file>
AV-unprocessed.smi

> <i_m_source_file_index>
798

> <i_lp_mmshare_version>
43012

> <i_f3d_flags>
0

> <s_epik_input>
W0NIMl0xW0NIMl1bQ0BASF0oW0NIMl0yKVtDQEBIXShbQ0gyXVtPSF0pW0NAQEhdKFtDQEhdMTIpW05IXUMoPU8pW05IXWMzbm5bY0hdczM=

> <s_epik_cmdline>
J2VwaWtfcHl0aG9uJywgJy1waCcsICc3LjAnLCAnLXRuJywgJzgnLCAnLW1hJywgJzIwMCcsICctbWV0YWxfYmluZGluZycsICctaW1hZScsICc8aW5maWxlLm1hZT4nLCAnLW9tYWUnLCAnPG91dGZpbGUubWFlPic=

> <r_lp_tautomer_probability>
1

> <r_epik_Ionization_Penalty>
4.53732

> <r_epik_Ionization_Penalty_Charging>
4.48632

> <r_epik_Ionization_Penalty_Neutral>
0.0510007

> <r_epik_State_Penalty>
4.48602

> <r_epik_Charging_Adjusted_Penalty>
8.97234

> <i_epik_Tot_Q>
-1

> <i_epik_Tot_abs_Q>
1

> <r_epik_Metal_State_Penalty>
0.812492

> <b_epik_Metal_Only>
1

> <s_lp_Force_Field>
OPLS_2005

> <r_lp_Energy>
47.4454

> <b_lp_Chiralities_Consistent>
1

> <s_lp_Variant>
AV-unprocessed.smi:798-10

> <Gold.Version>
5.8.1

> <Gold.Id.Protein>
6NUR|6NUR_protein|mol2

> <Gold.PLP.Fitness>
40.0367

> <Gold.PLP.PLP>
-24.8028

> <Gold.PLP.part.hbond>
-6.6669

> <Gold.PLP.part.metal>
0.0000

> <Gold.PLP.part.buried>
0.0225

> <Gold.PLP.part.nonpolar>
-18.7187

> <Gold.PLP.part.repulsive>
0.0517

> <Gold.PLP.ligand.clash>
0.0000

> <Gold.PLP.ligand.torsion>
0.3439

> <Gold.PLP.Chemscore.Hbond>
5.2990

> <Gold.PLP.Chemscore.CHOScore>
0.0000

> <Gold.PLP.Chemscore.Metal>
0.0000

> <Gold.Chemscore.Hbonds>
donor molecule, donor type, donor heavy atom, donor atom, acceptor molecule, acceptor atom, score
      L1  H    18    33       P1  7949  0.98
      P1  H  6896  6909       L1     3  1.92
      P1  H  6931  6943       L1     5  1.00
      P1  H  6934  6947       L1     5  0.29
      P1  H 10752 10763       L1    18  1.00

> <Gold.PLP.Chemscore.Internal.Correction>
0.0248

> <Gold.Rescore>
     Score         DG    S(hbond)    S(metal)    S(lipo)     H(rot)  DE(clash)    DE(int)     intcor
     13.10     -17.79       3.16        0.00      57.00       1.92       1.36       3.34       ----

> <Gold.Chemscore.Fitness>
13.0969

> <Gold.Chemscore.DG>
-17.7949

> <Gold.Chemscore.ZeroCoef>
-5.4800

> <Gold.Chemscore.Hbond>
3.1624

> <Gold.Chemscore.Metal>
0.0000

> <Gold.Chemscore.Lipo>
57.0047

> <Gold.Chemscore.Internal_Hbond>
0.0000

> <Gold.Chemscore.DEClash>
1.3575

> <Gold.Chemscore.DEInternal>
3.3405

> <Gold.Chemscore.Rot>
1.9207

> <Gold.Chemscore.Internal.Correction>
   9.000000E+99

> <Gold.Chemscore.Hbonds>
donor molecule, donor type, donor heavy atom, donor atom, acceptor molecule, acceptor atom, score
      L1  H    18    33       P1  7949  0.52
      P1  H  6896  6909       L1     3  0.54
      P1  H  6931  6943       L1     5  0.66
      P1  H  6934  6947       L1     5  0.09
      P1  H 10752 10763       L1    18  0.69

> <Gold.Chemscore.Hbond.Weighted>
-10.5623

> <Gold.Chemscore.Metal.Weighted>
-0.0000

> <Gold.Chemscore.Lipo.Weighted>
-6.6695

> <Gold.Chemscore.Internal_Hbond.Weighted>
0.0000

> <Gold.Chemscore.DEClash.Weighted>
1.3575

> <Gold.Chemscore.DEInternal.Weighted>
3.3405

> <Gold.Chemscore.Rot.Weighted>
4.9169

> <Gold.Chemscore.Internal.Correction.Weighted>
   9.000000E+99

> <Gold.Protein.RotatedTorsions>
[ 6907 6896 6895 6894 ] final   55.76 input  -60.11 | X-H torsion
[ 7974 7965 7964 7962 ] final   99.23 input  175.53 | X-H torsion
[ 8008 7997 7996 7995 ] final  -89.68 input   59.86 | X-H torsion
[ 10167 10162 10161 10158 ] final -165.62 input  -65.29 | X-H torsion
[ 10718 10713 10712 10709 ] final   36.87 input   66.30 | X-H torsion
[ 10763 10752 10751 10750 ] final   42.10 input  -60.55 | X-H torsion
[ 11005 11000 10999 10996 ] final   -6.22 input  -57.11 | X-H torsion

> <Gold.Protein.ActiveResidues>
 VAL166  LYS551  ARG553  GLY616  TRP617  ASP618  TYR619  PRO620  LYS621  CYS622 
 ASP623  PHE694  ASN695  SER759  ASP760  ASP761  ALA762  ILE779  LEU786  VAL792 
 PHE793  MET794  SER795  GLU796  ALA797  LYS798  CYS799  TRP800  GLU811  SER814 

> <Gold.Protein.RotatedAtoms>
  152.3570  134.6926  160.0218 H   0  0  0  0  0  0  0  0  0  0  0  0  # atno 6907 bound_to 6896
  151.7262  133.3310  159.3336 H   0  0  0  0  0  0  0  0  0  0  0  0  # atno 6908 bound_to 6896
  150.7578  134.6338  159.6245 H   0  0  0  0  0  0  0  0  0  0  0  0  # atno 6909 bound_to 6896
  145.4017  139.2346  143.3296 H   0  0  0  0  0  0  0  0  0  0  0  0  # atno 7974 bound_to 7965
  154.6894  140.0539  157.0348 H   0  0  0  0  0  0  0  0  0  0  0  0  # atno 8008 bound_to 7997
  155.0838  140.3212  155.4575 H   0  0  0  0  0  0  0  0  0  0  0  0  # atno 8009 bound_to 7997
  156.2723  140.2060  156.5965 H   0  0  0  0  0  0  0  0  0  0  0  0  # atno 8010 bound_to 7997
  139.6169  144.0701  152.1897 H   0  0  0  0  0  0  0  0  0  0  0  0  # atno 10167 bound_to 10162
  157.3401  130.7543  149.6906 H   0  0  0  0  0  0  0  0  0  0  0  0  # atno 10718 bound_to 10713
  152.9891  135.6142  154.2895 H   0  0  0  0  0  0  0  0  0  0  0  0  # atno 10763 bound_to 10752
  154.2621  135.2782  155.2775 H   0  0  0  0  0  0  0  0  0  0  0  0  # atno 10764 bound_to 10752
  154.5196  135.5818  153.6727 H   0  0  0  0  0  0  0  0  0  0  0  0  # atno 10765 bound_to 10752
  140.6996  133.9001  155.8674 H   0  0  0  0  0  0  0  0  0  0  0  0  # atno 11005 bound_to 11000
  146.2748  140.4715  142.8799 LP  0  0  0  0  0  0  0  0  0  0  0  0  # atno 17320 bound_to 7965
  144.8369  140.6797  143.6254 LP  0  0  0  0  0  0  0  0  0  0  0  0  # atno 17321 bound_to 7965
  140.0333  144.6064  150.7470 LP  0  0  0  0  0  0  0  0  0  0  0  0  # atno 17342 bound_to 10162
  140.7357  143.2744  151.3788 LP  0  0  0  0  0  0  0  0  0  0  0  0  # atno 17343 bound_to 10162
  155.9706  130.4170  150.4259 LP  0  0  0  0  0  0  0  0  0  0  0  0  # atno 17370 bound_to 10713
  157.2305  131.0503  151.2495 LP  0  0  0  0  0  0  0  0  0  0  0  0  # atno 17371 bound_to 10713
  141.0175  134.0935  157.4156 LP  0  0  0  0  0  0  0  0  0  0  0  0  # atno 17394 bound_to 11000
  139.8900  135.0109  156.6714 LP  0  0  0  0  0  0  0  0  0  0  0  0  # atno 17395 bound_to 11000

$$$$
