AV-unprocessed.smi:3232|AV-procd|sdf|12340|dock2
  -GOLD-   2272018203D 1   1.00000     0.00000
 Structure written by MMmdl.
 40 41  0  0  0  0  0  0  0  0  2 V2000
  147.4004  141.1299  153.6031 C   0  0  0  0  0  0  0  0  0  0  0  0
  147.2318  139.6165  153.8022 C   0  0  0  0  0  0  0  0  0  0  0  0
  146.2379  139.0298  152.8643 N   0  3  1  0  0  0  0  0  0  0  0  0
  146.6825  138.9929  151.4512 C   0  0  0  0  0  0  0  0  0  0  0  0
  145.9028  137.8569  150.8001 C   0  0  0  0  0  0  0  0  0  0  0  0
  145.8322  136.8335  151.9221 C   0  0  0  0  0  0  0  0  0  0  0  0
  145.6703  137.6852  153.1934 C   0  0  1  0  0  0  0  0  0  0  0  0
  146.2133  137.0013  154.4741 C   0  0  0  0  0  0  0  0  0  0  0  0
  147.6060  136.5973  154.3093 N   0  0  0  0  0  0  0  0  0  0  0  0
  148.5770  136.7479  155.2252 C   0  0  0  0  0  0  0  0  0  0  0  0
  148.3697  137.1792  156.3600 O   0  0  0  0  0  0  0  0  0  0  0  0
  149.9980  136.3793  154.7701 C   0  0  2  0  0  0  0  0  0  0  0  0
  150.6027  135.2079  155.5704 C   0  0  0  0  0  0  0  0  0  0  0  0
  150.8518  137.5608  154.8023 N   0  0  0  0  0  0  0  0  0  0  0  0
  150.5436  138.8474  154.6256 C   0  0  0  0  0  0  0  0  0  0  0  0
  151.5682  139.6733  154.7832 N   0  0  0  0  0  0  0  0  0  0  0  0
  152.5475  138.7685  155.0794 C   0  0  0  0  0  0  0  0  0  0  0  0
  152.1696  137.4910  155.1171 N   0  0  0  0  0  0  0  0  0  0  0  0
  148.0760  141.5422  154.3528 H   0  0  0  0  0  0  0  0  0  0  0  0
  146.4464  141.6496  153.6974 H   0  0  0  0  0  0  0  0  0  0  0  0
  147.8191  141.3670  152.6247 H   0  0  0  0  0  0  0  0  0  0  0  0
  148.1955  139.1175  153.6922 H   0  0  0  0  0  0  0  0  0  0  0  0
  146.8997  139.4589  154.8280 H   0  0  0  0  0  0  0  0  0  0  0  0
  146.5172  139.9472  150.9505 H   0  0  0  0  0  0  0  0  0  0  0  0
  147.7498  138.7690  151.4064 H   0  0  0  0  0  0  0  0  0  0  0  0
  144.8994  138.1912  150.5331 H   0  0  0  0  0  0  0  0  0  0  0  0
  146.3845  137.4707  149.9013 H   0  0  0  0  0  0  0  0  0  0  0  0
  145.0228  136.1146  151.7873 H   0  0  0  0  0  0  0  0  0  0  0  0
  146.7698  136.2768  151.9553 H   0  0  0  0  0  0  0  0  0  0  0  0
  144.6027  137.8573  153.3380 H   0  0  0  0  0  0  0  0  0  0  0  0
  146.1014  137.6518  155.3428 H   0  0  0  0  0  0  0  0  0  0  0  0
  145.6505  136.0929  154.6879 H   0  0  0  0  0  0  0  0  0  0  0  0
  147.8657  136.2236  153.4078 H   0  0  0  0  0  0  0  0  0  0  0  0
  149.9296  136.0595  153.7290 H   0  0  0  0  0  0  0  0  0  0  0  0
  149.9817  134.3151  155.4911 H   0  0  0  0  0  0  0  0  0  0  0  0
  150.7064  135.4455  156.6300 H   0  0  0  0  0  0  0  0  0  0  0  0
  151.5927  134.9505  155.1928 H   0  0  0  0  0  0  0  0  0  0  0  0
  149.5470  139.1883  154.3860 H   0  0  0  0  0  0  0  0  0  0  0  0
  153.5672  139.0607  155.2832 H   0  0  0  0  0  0  0  0  0  0  0  0
  145.4429  139.6527  152.8830 H   0  0  0  0  0  0  0  0  0  0  0  0
  1  2  1  0  0  0  0
  1 19  1  0  0  0  0
  1 20  1  0  0  0  0
  1 21  1  0  0  0  0
  2  3  1  0  0  0  0
  2 22  1  0  0  0  0
  2 23  1  0  0  0  0
  3  7  1  0  0  0  0
  3  4  1  0  0  0  0
  3 40  1  0  0  0  0
  4  5  1  0  0  0  0
  4 24  1  0  0  0  0
  4 25  1  0  0  0  0
  5  6  1  0  0  0  0
  5 26  1  0  0  0  0
  5 27  1  0  0  0  0
  6  7  1  0  0  0  0
  6 28  1  0  0  0  0
  6 29  1  0  0  0  0
  7  8  1  0  0  0  0
  7 30  1  0  0  0  0
  8  9  1  0  0  0  0
  8 31  1  0  0  0  0
  8 32  1  0  0  0  0
  9 10  1  0  0  0  0
  9 33  1  0  0  0  0
 10 11  2  0  0  0  0
 10 12  1  0  0  0  0
 12 13  1  0  0  0  0
 12 14  1  0  0  0  0
 12 34  1  0  0  0  0
 13 35  1  0  0  0  0
 13 36  1  0  0  0  0
 13 37  1  0  0  0  0
 14 18  1  0  0  0  0
 14 15  1  0  0  0  0
 15 16  2  0  0  0  0
 15 38  1  0  0  0  0
 16 17  1  0  0  0  0
 17 18  2  0  0  0  0
 17 39  1  0  0  0  0
M  CHG  1   3   1
M  END
> <s_m_source_file>
AV-unprocessed.smi

> <i_m_source_file_index>
3232

> <i_lp_mmshare_version>
43012

> <i_f3d_flags>
0

> <s_epik_input>
W0NIM11bQ0gyXU4xW0NIMl1bQ0gyXVtDSDJdW0NASF0xW0NIMl1bTkhdQyg9TylbQ0BIXShbQ0gzXSluMltjSF1uW2NIXW4y

> <s_epik_cmdline>
J2VwaWtfcHl0aG9uJywgJy1waCcsICc3LjAnLCAnLXRuJywgJzgnLCAnLW1hJywgJzIwMCcsICctbWV0YWxfYmluZGluZycsICctaW1hZScsICc8aW5maWxlLm1hZT4nLCAnLW9tYWUnLCAnPG91dGZpbGUubWFlPic=

> <r_lp_tautomer_probability>
1

> <r_epik_Ionization_Penalty>
0.00177695

> <r_epik_Ionization_Penalty_Charging>
0.00176881

> <r_epik_Ionization_Penalty_Neutral>
8.13528e-06

> <r_epik_State_Penalty>
0.00119827

> <r_epik_Charging_Adjusted_Penalty>
0.00296709

> <i_epik_Tot_Q>
1

> <i_epik_Tot_abs_Q>
1

> <r_epik_Metal_State_Penalty>
-0

> <b_epik_Metal_Only>
0

> <s_lp_Force_Field>
OPLS_2005

> <r_lp_Energy>
36.2264

> <b_lp_Chiralities_Consistent>
1

> <s_lp_Variant>
AV-unprocessed.smi:3232-2

> <Gold.Version>
5.8.1

> <Gold.Id.Protein>
6NUR|6NUR_protein|mol2

> <Gold.PLP.Fitness>
40.5917

> <Gold.PLP.PLP>
-28.0569

> <Gold.PLP.part.hbond>
-4.0000

> <Gold.PLP.part.metal>
0.0000

> <Gold.PLP.part.buried>
4.3435

> <Gold.PLP.part.nonpolar>
-29.1143

> <Gold.PLP.part.repulsive>
0.1695

> <Gold.PLP.ligand.clash>
0.0000

> <Gold.PLP.ligand.torsion>
0.9331

> <Gold.PLP.Chemscore.Hbond>
4.7520

> <Gold.PLP.Chemscore.CHOScore>
0.0000

> <Gold.PLP.Chemscore.Metal>
0.0000

> <Gold.Chemscore.Hbonds>
donor molecule, donor type, donor heavy atom, donor atom, acceptor molecule, acceptor atom, score
      L1  H     3    40       P1 10175  2.00
      L1  H     9    33       P1  7948  1.00
      P1  H  7989  7998       L1    16  1.00
      P1  H 10752 10765       L1    18  0.62

> <Gold.PLP.Chemscore.Internal.Correction>
0.1451

> <Gold.Rescore>
     Score         DG    S(hbond)    S(metal)    S(lipo)     H(rot)  DE(clash)    DE(int)     intcor
     14.77     -17.90       3.63        0.00      57.06       2.49       2.03       1.11       ----

> <Gold.Chemscore.Fitness>
14.7689

> <Gold.Chemscore.DG>
-17.9028

> <Gold.Chemscore.ZeroCoef>
-5.4800

> <Gold.Chemscore.Hbond>
3.6278

> <Gold.Chemscore.Metal>
0.0000

> <Gold.Chemscore.Lipo>
57.0587

> <Gold.Chemscore.Internal_Hbond>
0.0000

> <Gold.Chemscore.DEClash>
2.0259

> <Gold.Chemscore.DEInternal>
1.1080

> <Gold.Chemscore.Rot>
2.4882

> <Gold.Chemscore.Internal.Correction>
   9.000000E+99

> <Gold.Chemscore.Hbonds>
donor molecule, donor type, donor heavy atom, donor atom, acceptor molecule, acceptor atom, score
      L1  H     3    40       P1 10175  0.97
      L1  H     9    33       P1  7948  0.96
      P1  H  7989  7998       L1    16  0.81
      P1  H 10752 10765       L1    18  0.45

> <Gold.Chemscore.Hbond.Weighted>
-12.1167

> <Gold.Chemscore.Metal.Weighted>
-0.0000

> <Gold.Chemscore.Lipo.Weighted>
-6.6759

> <Gold.Chemscore.Internal_Hbond.Weighted>
0.0000

> <Gold.Chemscore.DEClash.Weighted>
2.0259

> <Gold.Chemscore.DEInternal.Weighted>
1.1080

> <Gold.Chemscore.Rot.Weighted>
6.3697

> <Gold.Chemscore.Internal.Correction.Weighted>
   9.000000E+99

> <Gold.Protein.RotatedTorsions>
[ 6907 6896 6895 6894 ] final  -94.74 input  -60.11 | X-H torsion
[ 7974 7965 7964 7962 ] final   61.05 input  175.53 | X-H torsion
[ 8008 7997 7996 7995 ] final -107.06 input   59.86 | X-H torsion
[ 10167 10162 10161 10158 ] final  -70.21 input  -65.29 | X-H torsion
[ 10718 10713 10712 10709 ] final   95.14 input   66.30 | X-H torsion
[ 10763 10752 10751 10750 ] final  172.56 input  -60.55 | X-H torsion
[ 11005 11000 10999 10996 ] final    9.86 input  -57.11 | X-H torsion

> <Gold.Protein.ActiveResidues>
 VAL166  LYS551  ARG553  GLY616  TRP617  ASP618  TYR619  PRO620  LYS621  CYS622 
 ASP623  PHE694  ASN695  SER759  ASP760  ASP761  ALA762  ILE779  LEU786  VAL792 
 PHE793  MET794  SER795  GLU796  ALA797  LYS798  CYS799  TRP800  GLU811  SER814 

> <Gold.Protein.RotatedAtoms>
  150.6948  134.1765  159.4232 H   0  0  0  0  0  0  0  0  0  0  0  0  # atno 6907 bound_to 6896
  151.9741  135.0059  160.0563 H   0  0  0  0  0  0  0  0  0  0  0  0  # atno 6908 bound_to 6896
  152.1814  133.4675  159.4997 H   0  0  0  0  0  0  0  0  0  0  0  0  # atno 6909 bound_to 6896
  145.8891  139.3498  143.0660 H   0  0  0  0  0  0  0  0  0  0  0  0  # atno 7974 bound_to 7965
  154.9237  140.0406  157.2011 H   0  0  0  0  0  0  0  0  0  0  0  0  # atno 8008 bound_to 7997
  154.8229  140.2886  155.5753 H   0  0  0  0  0  0  0  0  0  0  0  0  # atno 8009 bound_to 7997
  156.2981  140.2515  156.3139 H   0  0  0  0  0  0  0  0  0  0  0  0  # atno 8010 bound_to 7997
  140.5370  143.2317  151.7159 H   0  0  0  0  0  0  0  0  0  0  0  0  # atno 10167 bound_to 10162
  157.6941  131.0536  150.4293 H   0  0  0  0  0  0  0  0  0  0  0  0  # atno 10718 bound_to 10713
  154.4278  135.2759  155.1932 H   0  0  0  0  0  0  0  0  0  0  0  0  # atno 10763 bound_to 10752
  154.3851  135.6079  153.5816 H   0  0  0  0  0  0  0  0  0  0  0  0  # atno 10764 bound_to 10752
  152.9835  135.5890  154.4585 H   0  0  0  0  0  0  0  0  0  0  0  0  # atno 10765 bound_to 10752
  140.5210  134.0559  155.7845 H   0  0  0  0  0  0  0  0  0  0  0  0  # atno 11005 bound_to 11000
  145.8930  140.9291  143.0542 LP  0  0  0  0  0  0  0  0  0  0  0  0  # atno 17320 bound_to 7965
  144.6730  140.0932  143.7464 LP  0  0  0  0  0  0  0  0  0  0  0  0  # atno 17321 bound_to 7965
  139.4974  144.4028  152.0164 LP  0  0  0  0  0  0  0  0  0  0  0  0  # atno 17342 bound_to 10162
  140.3134  144.3512  150.6028 LP  0  0  0  0  0  0  0  0  0  0  0  0  # atno 17343 bound_to 10162
  156.4661  130.4042  149.6546 LP  0  0  0  0  0  0  0  0  0  0  0  0  # atno 17370 bound_to 10713
  156.3644  130.7498  151.2474 LP  0  0  0  0  0  0  0  0  0  0  0  0  # atno 17371 bound_to 10713
  141.1334  133.9263  157.2487 LP  0  0  0  0  0  0  0  0  0  0  0  0  # atno 17394 bound_to 11000
  139.9606  135.0155  156.9249 LP  0  0  0  0  0  0  0  0  0  0  0  0  # atno 17395 bound_to 11000

$$$$
