AV-unprocessed.smi:2167|AV-procd|sdf|8817|dock6
  -GOLD-   2272012 03D 1   1.00000     0.00000
 Structure written by MMmdl.
 41 42  0  0  0  0  0  0  0  0  1 V2000
  152.9686  142.8331  162.8416 C   0  0  0  0  0  0  0  0  0  0  0  0
  152.8527  142.1006  161.4970 C   0  0  0  0  0  0  0  0  0  0  0  0
  154.1300  141.3390  161.1146 C   0  0  0  0  0  0  0  0  0  0  0  0
  152.3888  143.0065  160.3999 C   0  0  0  0  0  0  0  0  0  0  0  0
  152.3492  142.6520  159.1119 N   0  0  0  0  0  0  0  0  0  0  0  0
  151.8656  143.6703  158.2837 C   0  0  0  0  0  0  0  0  0  0  0  0
  151.7358  143.4426  156.8034 C   0  0  0  0  0  0  0  0  0  0  0  0
  150.9306  142.1739  156.5029 C   0  0  0  0  0  0  0  0  0  0  0  0
  151.2558  141.1054  157.0197 O   0  0  0  0  0  0  0  0  0  0  0  0
  149.8949  142.2969  155.6551 N   0  0  0  0  0  0  0  0  0  0  0  0
  149.0103  141.2120  155.2268 C   0  0  1  0  0  0  0  0  0  0  0  0
  148.1866  141.7319  154.0263 C   0  0  0  0  0  0  0  0  0  0  0  0
  146.8761  140.9608  153.7924 C   0  0  0  0  0  0  0  0  0  0  0  0
  147.0512  139.4887  153.3890 C   0  0  0  0  0  0  0  0  0  0  0  0
  147.7491  138.6330  154.4599 C   0  0  0  0  0  0  0  0  0  0  0  0
  149.1906  138.8445  154.4762 N   0  0  0  0  0  0  0  0  0  0  0  0
  149.8345  139.9812  154.7819 C   0  0  0  0  0  0  0  0  0  0  0  0
  151.0616  140.0404  154.7024 O   0  0  0  0  0  0  0  0  0  0  0  0
  151.5519  144.8183  158.9686 C   0  0  0  0  0  0  0  0  0  0  0  0
  151.8351  144.6538  160.6792 S   0  0  0  0  0  0  0  0  0  0  0  0
  152.0197  143.2918  163.1211 H   0  0  0  0  0  0  0  0  0  0  0  0
  153.7210  143.6214  162.7999 H   0  0  0  0  0  0  0  0  0  0  0  0
  153.2510  142.1462  163.6397 H   0  0  0  0  0  0  0  0  0  0  0  0
  152.0731  141.3483  161.6237 H   0  0  0  0  0  0  0  0  0  0  0  0
  153.9852  140.7653  160.1986 H   0  0  0  0  0  0  0  0  0  0  0  0
  154.4206  140.6402  161.8994 H   0  0  0  0  0  0  0  0  0  0  0  0
  154.9649  142.0215  160.9518 H   0  0  0  0  0  0  0  0  0  0  0  0
  151.2408  144.2880  156.3243 H   0  0  0  0  0  0  0  0  0  0  0  0
  152.7216  143.3620  156.3435 H   0  0  0  0  0  0  0  0  0  0  0  0
  149.7071  143.2115  155.2713 H   0  0  0  0  0  0  0  0  0  0  0  0
  148.3465  140.9433  156.0506 H   0  0  0  0  0  0  0  0  0  0  0  0
  147.9139  142.7732  154.2072 H   0  0  0  0  0  0  0  0  0  0  0  0
  148.7868  141.7431  153.1145 H   0  0  0  0  0  0  0  0  0  0  0  0
  146.2577  141.0193  154.6890 H   0  0  0  0  0  0  0  0  0  0  0  0
  146.3106  141.4679  153.0098 H   0  0  0  0  0  0  0  0  0  0  0  0
  146.0615  139.0700  153.2038 H   0  0  0  0  0  0  0  0  0  0  0  0
  147.5873  139.4174  152.4416 H   0  0  0  0  0  0  0  0  0  0  0  0
  147.3237  138.8123  155.4483 H   0  0  0  0  0  0  0  0  0  0  0  0
  147.5821  137.5783  154.2409 H   0  0  0  0  0  0  0  0  0  0  0  0
  149.7590  138.0576  154.1979 H   0  0  0  0  0  0  0  0  0  0  0  0
  151.1670  145.7463  158.5718 H   0  0  0  0  0  0  0  0  0  0  0  0
  1  2  1  0  0  0  0
  1 21  1  0  0  0  0
  1 22  1  0  0  0  0
  1 23  1  0  0  0  0
  2  3  1  0  0  0  0
  2  4  1  0  0  0  0
  2 24  1  0  0  0  0
  3 25  1  0  0  0  0
  3 26  1  0  0  0  0
  3 27  1  0  0  0  0
  4 20  1  0  0  0  0
  4  5  2  0  0  0  0
  5  6  1  0  0  0  0
  6  7  1  0  0  0  0
  6 19  2  0  0  0  0
  7  8  1  0  0  0  0
  7 28  1  0  0  0  0
  7 29  1  0  0  0  0
  8  9  2  0  0  0  0
  8 10  1  0  0  0  0
 10 11  1  0  0  0  0
 10 30  1  0  0  0  0
 11 17  1  0  0  0  0
 11 12  1  0  0  0  0
 11 31  1  0  0  0  0
 12 13  1  0  0  0  0
 12 32  1  0  0  0  0
 12 33  1  0  0  0  0
 13 14  1  0  0  0  0
 13 34  1  0  0  0  0
 13 35  1  0  0  0  0
 14 15  1  0  0  0  0
 14 36  1  0  0  0  0
 14 37  1  0  0  0  0
 15 16  1  0  0  0  0
 15 38  1  0  0  0  0
 15 39  1  0  0  0  0
 16 17  1  0  0  0  0
 16 40  1  0  0  0  0
 17 18  2  0  0  0  0
 19 20  1  0  0  0  0
 19 41  1  0  0  0  0
M  END
> <s_m_source_file>
AV-unprocessed.smi

> <i_m_source_file_index>
2167

> <i_lp_mmshare_version>
43012

> <i_f3d_flags>
0

> <s_epik_input>
W0NIM11bQ0hdKFtDSDNdKWMxbmMoW2NIXXMxKVtDSDJdQyg9TylbTkhdW0NAQEhdMltDSDJdW0NIMl1bQ0gyXVtDSDJdW05IXUMyPU8=

> <s_epik_cmdline>
J2VwaWtfcHl0aG9uJywgJy1waCcsICc3LjAnLCAnLXRuJywgJzgnLCAnLW1hJywgJzIwMCcsICctbWV0YWxfYmluZGluZycsICctaW1hZScsICc8aW5maWxlLm1hZT4nLCAnLW9tYWUnLCAnPG91dGZpbGUubWFlPic=

> <r_lp_tautomer_probability>
1

> <r_epik_Ionization_Penalty>
3.1619e-05

> <r_epik_Ionization_Penalty_Charging>
0

> <r_epik_Ionization_Penalty_Neutral>
3.1619e-05

> <r_epik_State_Penalty>
-0

> <r_epik_Charging_Adjusted_Penalty>
0

> <i_epik_Tot_Q>
0

> <i_epik_Tot_abs_Q>
0

> <r_epik_Metal_State_Penalty>
-0

> <b_epik_Metal_Only>
0

> <s_lp_Force_Field>
OPLS_2005

> <r_lp_Energy>
3.21442

> <b_lp_Chiralities_Consistent>
1

> <s_lp_Variant>
AV-unprocessed.smi:2167-2

> <Gold.Version>
5.8.1

> <Gold.Id.Protein>
6NUR|6NUR_protein|mol2

> <Gold.PLP.Fitness>
52.2194

> <Gold.PLP.PLP>
-47.5674

> <Gold.PLP.part.hbond>
-2.0000

> <Gold.PLP.part.metal>
0.0000

> <Gold.PLP.part.buried>
-7.1600

> <Gold.PLP.part.nonpolar>
-38.8489

> <Gold.PLP.part.repulsive>
0.3048

> <Gold.PLP.ligand.clash>
0.0000

> <Gold.PLP.ligand.torsion>
0.5064

> <Gold.PLP.Chemscore.Hbond>
1.8640

> <Gold.PLP.Chemscore.CHOScore>
0.0000

> <Gold.PLP.Chemscore.Metal>
0.0000

> <Gold.Chemscore.Hbonds>
donor molecule, donor type, donor heavy atom, donor atom, acceptor molecule, acceptor atom, score
      L1  H    10    30       P1  8028  0.85
      P1  H  7989  7998       L1    18  1.00

> <Gold.PLP.Chemscore.Internal.Correction>
0.0729

> <Gold.Rescore>
     Score         DG    S(hbond)    S(metal)    S(lipo)     H(rot)  DE(clash)    DE(int)     intcor
     15.02     -21.42       1.99        0.00     113.85       1.57       0.37       6.04       ----

> <Gold.Chemscore.Fitness>
15.0151

> <Gold.Chemscore.DG>
-21.4217

> <Gold.Chemscore.ZeroCoef>
-5.4800

> <Gold.Chemscore.Hbond>
1.9907

> <Gold.Chemscore.Metal>
0.0000

> <Gold.Chemscore.Lipo>
113.8491

> <Gold.Chemscore.Internal_Hbond>
0.0000

> <Gold.Chemscore.DEClash>
0.3694

> <Gold.Chemscore.DEInternal>
6.0372

> <Gold.Chemscore.Rot>
1.5733

> <Gold.Chemscore.Internal.Correction>
   9.000000E+99

> <Gold.Chemscore.Hbonds>
donor molecule, donor type, donor heavy atom, donor atom, acceptor molecule, acceptor atom, score
      L1  H    10    30       P1  8028  0.83
      P1  H  7989  7998       L1    18  0.90

> <Gold.Chemscore.Hbond.Weighted>
-6.6489

> <Gold.Chemscore.Metal.Weighted>
-0.0000

> <Gold.Chemscore.Lipo.Weighted>
-13.3203

> <Gold.Chemscore.Internal_Hbond.Weighted>
0.0000

> <Gold.Chemscore.DEClash.Weighted>
0.3694

> <Gold.Chemscore.DEInternal.Weighted>
6.0372

> <Gold.Chemscore.Rot.Weighted>
4.0276

> <Gold.Chemscore.Internal.Correction.Weighted>
   9.000000E+99

> <Gold.Protein.RotatedTorsions>
[ 6907 6896 6895 6894 ] final -117.56 input  -60.11 | X-H torsion
[ 7974 7965 7964 7962 ] final  -85.79 input  175.53 | X-H torsion
[ 8008 7997 7996 7995 ] final   95.32 input   59.86 | X-H torsion
[ 10167 10162 10161 10158 ] final  -76.99 input  -65.29 | X-H torsion
[ 10718 10713 10712 10709 ] final  139.10 input   66.30 | X-H torsion
[ 10763 10752 10751 10750 ] final -141.23 input  -60.55 | X-H torsion
[ 11005 11000 10999 10996 ] final  -19.08 input  -57.11 | X-H torsion

> <Gold.Protein.ActiveResidues>
 VAL166  LYS551  ARG553  GLY616  TRP617  ASP618  TYR619  PRO620  LYS621  CYS622 
 ASP623  PHE694  ASN695  SER759  ASP760  ASP761  ALA762  ILE779  LEU786  VAL792 
 PHE793  MET794  SER795  GLU796  ALA797  LYS798  CYS799  TRP800  GLU811  SER814 

> <Gold.Protein.RotatedAtoms>
  150.8147  133.8359  159.3165 H   0  0  0  0  0  0  0  0  0  0  0  0  # atno 6907 bound_to 6896
  151.6134  135.1036  160.0095 H   0  0  0  0  0  0  0  0  0  0  0  0  # atno 6908 bound_to 6896
  152.4239  133.7121  159.6541 H   0  0  0  0  0  0  0  0  0  0  0  0  # atno 6909 bound_to 6896
  145.4886  140.9554  143.1824 H   0  0  0  0  0  0  0  0  0  0  0  0  # atno 7974 bound_to 7965
  156.0676  140.3288  155.7537 H   0  0  0  0  0  0  0  0  0  0  0  0  # atno 8008 bound_to 7997
  155.5356  140.0597  157.2897 H   0  0  0  0  0  0  0  0  0  0  0  0  # atno 8009 bound_to 7997
  154.4513  140.1919  156.0528 H   0  0  0  0  0  0  0  0  0  0  0  0  # atno 8010 bound_to 7997
  140.4809  143.2402  151.8059 H   0  0  0  0  0  0  0  0  0  0  0  0  # atno 10167 bound_to 10162
  157.4180  131.1035  151.0383 H   0  0  0  0  0  0  0  0  0  0  0  0  # atno 10718 bound_to 10713
  154.8552  135.3530  154.5835 H   0  0  0  0  0  0  0  0  0  0  0  0  # atno 10763 bound_to 10752
  153.6445  135.6997  153.5234 H   0  0  0  0  0  0  0  0  0  0  0  0  # atno 10764 bound_to 10752
  153.2944  135.4225  155.1154 H   0  0  0  0  0  0  0  0  0  0  0  0  # atno 10765 bound_to 10752
  140.8331  133.7982  155.9780 H   0  0  0  0  0  0  0  0  0  0  0  0  # atno 11005 bound_to 11000
  144.7847  139.6452  143.7139 LP  0  0  0  0  0  0  0  0  0  0  0  0  # atno 17320 bound_to 7965
  146.2298  139.5791  142.9563 LP  0  0  0  0  0  0  0  0  0  0  0  0  # atno 17321 bound_to 7965
  139.4833  144.4773  151.9351 LP  0  0  0  0  0  0  0  0  0  0  0  0  # atno 17342 bound_to 10162
  140.3859  144.2678  150.5904 LP  0  0  0  0  0  0  0  0  0  0  0  0  # atno 17343 bound_to 10162
  157.1324  130.6108  149.5533 LP  0  0  0  0  0  0  0  0  0  0  0  0  # atno 17370 bound_to 10713
  155.9871  130.4909  150.7111 LP  0  0  0  0  0  0  0  0  0  0  0  0  # atno 17371 bound_to 10713
  140.8976  134.2418  157.5059 LP  0  0  0  0  0  0  0  0  0  0  0  0  # atno 17394 bound_to 11000
  139.8704  134.9691  156.4656 LP  0  0  0  0  0  0  0  0  0  0  0  0  # atno 17395 bound_to 11000

$$$$
