AV-unprocessed.smi:1381|AV-procd|sdf|5604|dock6
  -GOLD-   22720 5213D 1   1.00000     0.00000
 Structure written by MMmdl.
 42 43  0  0  0  0  0  0  0  0  1 V2000
  143.7524  131.8315  150.7783 C   0  0  0  0  0  0  0  0  0  0  0  0
  143.7699  133.2520  151.2284 C   0  0  0  0  0  0  0  0  0  0  0  0
  144.5314  134.3302  150.8748 C   0  0  0  0  0  0  0  0  0  0  0  0
  144.0198  135.3673  151.6993 C   0  0  0  0  0  0  0  0  0  0  0  0
  144.5596  136.6774  151.6392 N   0  0  0  0  0  0  0  0  0  0  0  0
  145.4976  137.2139  152.4383 C   0  0  0  0  0  0  0  0  0  0  0  0
  146.0372  136.6389  153.3842 O   0  0  0  0  0  0  0  0  0  0  0  0
  145.7804  138.4744  152.0797 N   0  0  0  0  0  0  0  0  0  0  0  0
  146.7361  139.3430  152.7592 C   0  0  0  0  0  0  0  0  0  0  0  0
  147.9879  138.5710  153.2205 C   0  0  0  0  0  0  0  0  0  0  0  0
  148.7871  139.2312  154.2536 N   0  0  0  0  0  0  0  0  0  0  0  0
  148.8654  140.6777  154.0629 C   0  0  0  0  0  0  0  0  0  0  0  0
  149.7342  141.3733  155.1302 C   0  0  1  0  0  0  0  0  0  0  0  0
  149.0514  141.4649  156.5059 C   0  0  0  0  0  0  0  0  0  0  0  0
  151.0142  140.7450  155.2146 O   0  0  0  0  0  0  0  0  0  0  0  0
  150.9864  139.3315  155.4048 C   0  0  2  0  0  0  0  0  0  0  0  0
  152.4317  138.8222  155.3939 C   0  0  0  0  0  0  0  0  0  0  0  0
  150.1370  138.6843  154.2968 C   0  0  0  0  0  0  0  0  0  0  0  0
  143.0335  134.9596  152.4837 N   0  0  0  0  0  0  0  0  0  0  0  0
  142.8683  133.6018  152.1858 O   0  0  0  0  0  0  0  0  0  0  0  0
  144.3926  131.6911  149.9071 H   0  0  0  0  0  0  0  0  0  0  0  0
  142.7424  131.5222  150.5088 H   0  0  0  0  0  0  0  0  0  0  0  0
  144.1092  131.1717  151.5695 H   0  0  0  0  0  0  0  0  0  0  0  0
  145.3269  134.3672  150.1452 H   0  0  0  0  0  0  0  0  0  0  0  0
  144.1979  137.2669  150.9043 H   0  0  0  0  0  0  0  0  0  0  0  0
  145.2871  138.8701  151.2929 H   0  0  0  0  0  0  0  0  0  0  0  0
  147.0303  140.1565  152.0941 H   0  0  0  0  0  0  0  0  0  0  0  0
  146.2366  139.8176  153.6030 H   0  0  0  0  0  0  0  0  0  0  0  0
  147.6604  137.5994  153.5932 H   0  0  0  0  0  0  0  0  0  0  0  0
  148.6154  138.3559  152.3545 H   0  0  0  0  0  0  0  0  0  0  0  0
  149.2819  140.8902  153.0771 H   0  0  0  0  0  0  0  0  0  0  0  0
  147.8696  141.1199  154.0775 H   0  0  0  0  0  0  0  0  0  0  0  0
  149.9172  142.3955  154.7980 H   0  0  0  0  0  0  0  0  0  0  0  0
  148.1355  142.0528  156.4456 H   0  0  0  0  0  0  0  0  0  0  0  0
  149.7054  141.9467  157.2326 H   0  0  0  0  0  0  0  0  0  0  0  0
  148.7825  140.4839  156.8968 H   0  0  0  0  0  0  0  0  0  0  0  0
  150.5498  139.1051  156.3782 H   0  0  0  0  0  0  0  0  0  0  0  0
  152.4692  137.7435  155.5484 H   0  0  0  0  0  0  0  0  0  0  0  0
  153.0158  139.2917  156.1857 H   0  0  0  0  0  0  0  0  0  0  0  0
  152.9203  139.0423  154.4444 H   0  0  0  0  0  0  0  0  0  0  0  0
  150.0921  137.6075  154.4643 H   0  0  0  0  0  0  0  0  0  0  0  0
  150.6241  138.8287  153.3310 H   0  0  0  0  0  0  0  0  0  0  0  0
  1  2  1  0  0  0  0
  1 21  1  0  0  0  0
  1 22  1  0  0  0  0
  1 23  1  0  0  0  0
  2 20  1  0  0  0  0
  2  3  2  0  0  0  0
  3  4  1  0  0  0  0
  3 24  1  0  0  0  0
  4  5  1  0  0  0  0
  4 19  2  0  0  0  0
  5  6  1  0  0  0  0
  5 25  1  0  0  0  0
  6  7  2  0  0  0  0
  6  8  1  0  0  0  0
  8  9  1  0  0  0  0
  8 26  1  0  0  0  0
  9 10  1  0  0  0  0
  9 27  1  0  0  0  0
  9 28  1  0  0  0  0
 10 11  1  0  0  0  0
 10 29  1  0  0  0  0
 10 30  1  0  0  0  0
 11 18  1  0  0  0  0
 11 12  1  0  0  0  0
 12 13  1  0  0  0  0
 12 31  1  0  0  0  0
 12 32  1  0  0  0  0
 13 14  1  0  0  0  0
 13 15  1  0  0  0  0
 13 33  1  0  0  0  0
 14 34  1  0  0  0  0
 14 35  1  0  0  0  0
 14 36  1  0  0  0  0
 15 16  1  0  0  0  0
 16 17  1  0  0  0  0
 16 18  1  0  0  0  0
 16 37  1  0  0  0  0
 17 38  1  0  0  0  0
 17 39  1  0  0  0  0
 17 40  1  0  0  0  0
 18 41  1  0  0  0  0
 18 42  1  0  0  0  0
 19 20  1  0  0  0  0
M  END
> <s_m_source_file>
AV-unprocessed.smi

> <i_m_source_file_index>
1381

> <i_lp_mmshare_version>
43012

> <i_f3d_flags>
0

> <s_epik_input>
W0NIM11jMVtjSF1jKG5vMSlbTkhdQyg9TylbTkhdW0NIMl1bQ0gyXU4yW0NIMl1bQ0BASF0oW0NIM10pT1tDQEBIXShbQ0gzXSlbQ0gyXTI=

> <s_epik_cmdline>
J2VwaWtfcHl0aG9uJywgJy1waCcsICc3LjAnLCAnLXRuJywgJzgnLCAnLW1hJywgJzIwMCcsICctbWV0YWxfYmluZGluZycsICctaW1hZScsICc8aW5maWxlLm1hZT4nLCAnLW9tYWUnLCAnPG91dGZpbGUubWFlPic=

> <r_epik_Ionization_Penalty>
0.214073

> <r_epik_Ionization_Penalty_Charging>
0

> <r_epik_Ionization_Penalty_Neutral>
0.214073

> <r_epik_State_Penalty>
0.204211

> <r_epik_Charging_Adjusted_Penalty>
0.204211

> <i_epik_Tot_Q>
0

> <i_epik_Tot_abs_Q>
0

> <r_epik_Metal_State_Penalty>
0.217067

> <b_epik_Metal_Only>
0

> <s_lp_Force_Field>
OPLS_2005

> <r_lp_Energy>
24.2919

> <b_lp_Chiralities_Consistent>
1

> <s_lp_Variant>
AV-unprocessed.smi:1381-3

> <Gold.Version>
5.8.1

> <Gold.Id.Protein>
6NUR|6NUR_protein|mol2

> <Gold.PLP.Fitness>
39.8509

> <Gold.PLP.PLP>
-33.8830

> <Gold.PLP.part.hbond>
-4.0000

> <Gold.PLP.part.metal>
0.0000

> <Gold.PLP.part.buried>
-0.6679

> <Gold.PLP.part.nonpolar>
-30.8414

> <Gold.PLP.part.repulsive>
0.8702

> <Gold.PLP.ligand.clash>
0.0000

> <Gold.PLP.ligand.torsion>
1.1719

> <Gold.PLP.Chemscore.Hbond>
2.7679

> <Gold.PLP.Chemscore.CHOScore>
0.0000

> <Gold.PLP.Chemscore.Metal>
0.0000

> <Gold.Chemscore.Hbonds>
donor molecule, donor type, donor heavy atom, donor atom, acceptor molecule, acceptor atom, score
      L1  H     5    25       P1 10171  1.00
      L1  H     8    26       P1 10171  0.90
      P1  H  7989  7998       L1    15  0.83

> <Gold.PLP.Chemscore.Internal.Correction>
0.0080

> <Gold.Rescore>
     Score         DG    S(hbond)    S(metal)    S(lipo)     H(rot)  DE(clash)    DE(int)     intcor
     13.63     -17.25       1.97        0.00      78.67       1.57       1.07       2.55       ----

> <Gold.Chemscore.Fitness>
13.6278

> <Gold.Chemscore.DG>
-17.2470

> <Gold.Chemscore.ZeroCoef>
-5.4800

> <Gold.Chemscore.Hbond>
1.9703

> <Gold.Chemscore.Metal>
0.0000

> <Gold.Chemscore.Lipo>
78.6741

> <Gold.Chemscore.Internal_Hbond>
0.0000

> <Gold.Chemscore.DEClash>
1.0693

> <Gold.Chemscore.DEInternal>
2.5499

> <Gold.Chemscore.Rot>
1.5697

> <Gold.Chemscore.Internal.Correction>
   9.000000E+99

> <Gold.Chemscore.Hbonds>
donor molecule, donor type, donor heavy atom, donor atom, acceptor molecule, acceptor atom, score
      L1  H     5    25       P1 10171  1.00
      L1  H     8    26       P1 10171  0.83
      P1  H  7989  7998       L1    15  0.10

> <Gold.Chemscore.Hbond.Weighted>
-6.5806

> <Gold.Chemscore.Metal.Weighted>
-0.0000

> <Gold.Chemscore.Lipo.Weighted>
-9.2049

> <Gold.Chemscore.Internal_Hbond.Weighted>
0.0000

> <Gold.Chemscore.DEClash.Weighted>
1.0693

> <Gold.Chemscore.DEInternal.Weighted>
2.5499

> <Gold.Chemscore.Rot.Weighted>
4.0185

> <Gold.Chemscore.Internal.Correction.Weighted>
   9.000000E+99

> <Gold.Protein.RotatedTorsions>
[ 6907 6896 6895 6894 ] final  -32.15 input  -60.11 | X-H torsion
[ 7974 7965 7964 7962 ] final   33.11 input  175.53 | X-H torsion
[ 8008 7997 7996 7995 ] final -173.66 input   59.86 | X-H torsion
[ 10167 10162 10161 10158 ] final -173.14 input  -65.29 | X-H torsion
[ 10718 10713 10712 10709 ] final  118.18 input   66.30 | X-H torsion
[ 10763 10752 10751 10750 ] final   -8.29 input  -60.55 | X-H torsion
[ 11005 11000 10999 10996 ] final  143.44 input  -57.11 | X-H torsion

> <Gold.Protein.ActiveResidues>
 VAL166  LYS551  ARG553  GLY616  TRP617  ASP618  TYR619  PRO620  LYS621  CYS622 
 ASP623  PHE694  ASN695  SER759  ASP760  ASP761  ALA762  ILE779  LEU786  VAL792 
 PHE793  MET794  SER795  GLU796  ALA797  LYS798  CYS799  TRP800  GLU811  SER814 

> <Gold.Protein.RotatedAtoms>
  151.0826  134.9867  159.8363 H   0  0  0  0  0  0  0  0  0  0  0  0  # atno 6907 bound_to 6896
  152.5421  134.2163  159.8780 H   0  0  0  0  0  0  0  0  0  0  0  0  # atno 6908 bound_to 6896
  151.2194  133.4467  159.2634 H   0  0  0  0  0  0  0  0  0  0  0  0  # atno 6909 bound_to 6896
  146.1442  139.6439  142.9142 H   0  0  0  0  0  0  0  0  0  0  0  0  # atno 7974 bound_to 7965
  155.9602  140.1143  157.0902 H   0  0  0  0  0  0  0  0  0  0  0  0  # atno 8008 bound_to 7997
  154.4130  140.1183  156.5236 H   0  0  0  0  0  0  0  0  0  0  0  0  # atno 8009 bound_to 7997
  155.6730  140.3473  155.4828 H   0  0  0  0  0  0  0  0  0  0  0  0  # atno 8010 bound_to 7997
  139.5705  144.1653  152.1377 H   0  0  0  0  0  0  0  0  0  0  0  0  # atno 10167 bound_to 10162
  157.6048  131.1045  150.7719 H   0  0  0  0  0  0  0  0  0  0  0  0  # atno 10718 bound_to 10713
  153.4384  135.7013  153.6185 H   0  0  0  0  0  0  0  0  0  0  0  0  # atno 10763 bound_to 10752
  153.4570  135.3745  155.2316 H   0  0  0  0  0  0  0  0  0  0  0  0  # atno 10764 bound_to 10752
  154.8727  135.4010  154.3779 H   0  0  0  0  0  0  0  0  0  0  0  0  # atno 10765 bound_to 10752
  140.0554  134.9233  157.1092 H   0  0  0  0  0  0  0  0  0  0  0  0  # atno 11005 bound_to 11000
  145.4976  141.0438  143.2558 LP  0  0  0  0  0  0  0  0  0  0  0  0  # atno 17320 bound_to 7965
  144.7827  139.6492  143.7147 LP  0  0  0  0  0  0  0  0  0  0  0  0  # atno 17321 bound_to 7965
  140.1185  144.5394  150.6878 LP  0  0  0  0  0  0  0  0  0  0  0  0  # atno 17342 bound_to 10162
  140.6989  143.2422  151.4921 LP  0  0  0  0  0  0  0  0  0  0  0  0  # atno 17343 bound_to 10162
  156.8110  130.4952  149.5356 LP  0  0  0  0  0  0  0  0  0  0  0  0  # atno 17370 bound_to 10713
  156.1131  130.6055  151.0078 LP  0  0  0  0  0  0  0  0  0  0  0  0  # atno 17371 bound_to 10713
  140.3852  134.2244  155.7169 LP  0  0  0  0  0  0  0  0  0  0  0  0  # atno 17394 bound_to 11000
  141.1950  133.8116  157.0735 LP  0  0  0  0  0  0  0  0  0  0  0  0  # atno 17395 bound_to 11000

$$$$
