AV-unprocessed.smi:203|AV-procd|sdf|1593|dock7
  -GOLD-   2262019493D 1   1.00000     0.00000
 Structure written by MMmdl.
 57 61  0  0  0  0  0  0  0  0  1 V2000
  151.9093  136.3075  158.3977 O   0  0  0  0  0  0  0  0  0  0  0  0
  152.3157  137.4190  158.7283 C   0  0  0  0  0  0  0  0  0  0  0  0
  151.3973  138.5690  159.1075 C   0  0  0  0  0  0  0  0  0  0  0  0
  152.3747  139.5928  159.7138 C   0  0  2  0  0  0  0  0  0  0  0  0
  152.0013  141.0996  159.5533 C   0  0  1  0  0  0  0  0  0  0  0  0
  152.6954  142.0153  160.5968 C   0  0  0  0  0  0  0  0  0  0  0  0
  152.3090  143.4885  160.4093 C   0  0  0  0  0  0  0  0  0  0  0  0
  152.6231  143.9326  158.9775 C   0  0  0  0  0  0  0  0  0  0  0  0
  151.9173  143.0163  157.9702 C   0  0  0  0  0  0  0  0  0  0  0  0
  152.2598  141.6120  158.1946 N   0  0  0  0  0  0  0  0  0  0  0  0
  151.8160  140.8615  157.1606 C   0  0  0  0  0  0  0  0  0  0  0  0
  152.6064  139.8365  156.7574 N   0  0  0  0  0  0  0  0  0  0  0  0
  152.2240  139.0592  155.7397 C   0  0  0  0  0  0  0  0  0  0  0  0
  151.1157  139.1370  154.9999 N   0  0  0  0  0  0  0  0  0  0  0  0
  150.3250  140.1747  155.3982 C   0  0  0  0  0  0  0  0  0  0  0  0
  150.5966  141.0820  156.4597 C   0  0  0  0  0  0  0  0  0  0  0  0
  149.5684  142.0112  156.5647 N   0  0  0  0  0  0  0  0  0  0  0  0
  148.7391  141.6766  155.6141 C   0  0  0  0  0  0  0  0  0  0  0  0
  149.1190  140.5892  154.8613 N   0  0  0  0  0  0  0  0  0  0  0  0
  148.4011  140.0219  153.7347 C   0  0  0  0  0  0  0  0  0  0  0  0
  147.5532  138.7914  154.1210 C   0  0  2  0  0  0  0  0  0  0  0  0
  148.4292  137.6843  154.1916 O   0  0  0  0  0  0  0  0  0  0  0  0
  146.4105  138.4711  153.1312 C   0  0  1  0  0  0  0  0  0  0  0  0
  146.8368  138.3850  151.6650 C   0  0  0  0  0  0  0  0  0  0  0  0
  145.7317  137.5580  151.0292 C   0  0  0  0  0  0  0  0  0  0  0  0
  145.1045  136.8149  152.2120 C   0  0  0  0  0  0  0  0  0  0  0  0
  145.9040  137.1599  153.3346 O   0  0  0  0  0  0  0  0  0  0  0  0
  153.7650  139.1756  159.1939 C   0  0  0  0  0  0  0  0  0  0  0  0
  153.5938  137.7881  158.8095 N   0  0  0  0  0  0  0  0  0  0  0  0
  150.8985  138.9312  158.2103 H   0  0  0  0  0  0  0  0  0  0  0  0
  150.6360  138.2546  159.8222 H   0  0  0  0  0  0  0  0  0  0  0  0
  152.4137  139.3693  160.7808 H   0  0  0  0  0  0  0  0  0  0  0  0
  150.9284  141.1857  159.7274 H   0  0  0  0  0  0  0  0  0  0  0  0
  152.4360  141.7230  161.6124 H   0  0  0  0  0  0  0  0  0  0  0  0
  153.7788  141.9308  160.5203 H   0  0  0  0  0  0  0  0  0  0  0  0
  151.2458  143.6217  160.6138 H   0  0  0  0  0  0  0  0  0  0  0  0
  152.8470  144.1126  161.1234 H   0  0  0  0  0  0  0  0  0  0  0  0
  152.3103  144.9661  158.8266 H   0  0  0  0  0  0  0  0  0  0  0  0
  153.7004  143.9035  158.8092 H   0  0  0  0  0  0  0  0  0  0  0  0
  150.8364  143.1413  158.0531 H   0  0  0  0  0  0  0  0  0  0  0  0
  152.1935  143.3120  156.9568 H   0  0  0  0  0  0  0  0  0  0  0  0
  152.9045  138.2619  155.4799 H   0  0  0  0  0  0  0  0  0  0  0  0
  147.8260  142.2230  155.4278 H   0  0  0  0  0  0  0  0  0  0  0  0
  147.7691  140.7977  153.3000 H   0  0  0  0  0  0  0  0  0  0  0  0
  149.1309  139.7530  152.9699 H   0  0  0  0  0  0  0  0  0  0  0  0
  147.1331  138.9390  155.1167 H   0  0  0  0  0  0  0  0  0  0  0  0
  148.7017  137.4608  153.3148 H   0  0  0  0  0  0  0  0  0  0  0  0
  145.5981  139.1928  153.2394 H   0  0  0  0  0  0  0  0  0  0  0  0
  146.9549  139.3632  151.1982 H   0  0  0  0  0  0  0  0  0  0  0  0
  147.7860  137.8537  151.5816 H   0  0  0  0  0  0  0  0  0  0  0  0
  144.9909  138.1989  150.5500 H   0  0  0  0  0  0  0  0  0  0  0  0
  146.1261  136.8762  150.2752 H   0  0  0  0  0  0  0  0  0  0  0  0
  144.0800  137.1502  152.3801 H   0  0  0  0  0  0  0  0  0  0  0  0
  145.0909  135.7343  152.0676 H   0  0  0  0  0  0  0  0  0  0  0  0
  154.0862  139.7339  158.3169 H   0  0  0  0  0  0  0  0  0  0  0  0
  154.5340  139.2806  159.9600 H   0  0  0  0  0  0  0  0  0  0  0  0
  154.3728  137.1801  158.6019 H   0  0  0  0  0  0  0  0  0  0  0  0
  1  2  2  0  0  0  0
  2 29  1  0  0  0  0
  2  3  1  0  0  0  0
  3  4  1  0  0  0  0
  3 30  1  0  0  0  0
  3 31  1  0  0  0  0
  4  5  1  0  0  0  0
  4 28  1  0  0  0  0
  4 32  1  0  0  0  0
  5 10  1  0  0  0  0
  5  6  1  0  0  0  0
  5 33  1  0  0  0  0
  6  7  1  0  0  0  0
  6 34  1  0  0  0  0
  6 35  1  0  0  0  0
  7  8  1  0  0  0  0
  7 36  1  0  0  0  0
  7 37  1  0  0  0  0
  8  9  1  0  0  0  0
  8 38  1  0  0  0  0
  8 39  1  0  0  0  0
  9 10  1  0  0  0  0
  9 40  1  0  0  0  0
  9 41  1  0  0  0  0
 10 11  1  0  0  0  0
 11 16  1  0  0  0  0
 11 12  2  0  0  0  0
 12 13  1  0  0  0  0
 13 14  2  0  0  0  0
 13 42  1  0  0  0  0
 14 15  1  0  0  0  0
 15 19  1  0  0  0  0
 15 16  2  0  0  0  0
 16 17  1  0  0  0  0
 17 18  2  0  0  0  0
 18 19  1  0  0  0  0
 18 43  1  0  0  0  0
 19 20  1  0  0  0  0
 20 21  1  0  0  0  0
 20 44  1  0  0  0  0
 20 45  1  0  0  0  0
 21 22  1  0  0  0  0
 21 23  1  0  0  0  0
 21 46  1  0  0  0  0
 22 47  1  0  0  0  0
 23 27  1  0  0  0  0
 23 24  1  0  0  0  0
 23 48  1  0  0  0  0
 24 25  1  0  0  0  0
 24 49  1  0  0  0  0
 24 50  1  0  0  0  0
 25 26  1  0  0  0  0
 25 51  1  0  0  0  0
 25 52  1  0  0  0  0
 26 27  1  0  0  0  0
 26 53  1  0  0  0  0
 26 54  1  0  0  0  0
 28 29  1  0  0  0  0
 28 55  1  0  0  0  0
 28 56  1  0  0  0  0
 29 57  1  0  0  0  0
M  END
> <s_m_source_file>
AV-unprocessed.smi

> <i_m_source_file_index>
203

> <i_lp_mmshare_version>
43012

> <i_f3d_flags>
0

> <s_epik_input>
Tz1DMVtDSDJdW0NASF0oW0NIMl1bTkhdMSlbQ0BASF0yW0NIMl1bQ0gyXVtDSDJdW0NIMl1OMmMobltjSF1uMyljKGMzNCluW2NIXW40W0NIMl1bQ0BIXShbT0hdKVtDQEBIXTVbQ0gyXVtDSDJdW0NIMl1PNQ==

> <s_epik_cmdline>
J2VwaWtfcHl0aG9uJywgJy1waCcsICc3LjAnLCAnLXRuJywgJzgnLCAnLW1hJywgJzIwMCcsICctbWV0YWxfYmluZGluZycsICctaW1hZScsICc8aW5maWxlLm1hZT4nLCAnLW9tYWUnLCAnPG91dGZpbGUubWFlPic=

> <r_lp_tautomer_probability>
1

> <r_epik_Ionization_Penalty>
0.00175146

> <r_epik_Ionization_Penalty_Charging>
0

> <r_epik_Ionization_Penalty_Neutral>
0.00175146

> <r_epik_State_Penalty>
0.00109045

> <r_epik_Charging_Adjusted_Penalty>
0.00109045

> <i_epik_Tot_Q>
0

> <i_epik_Tot_abs_Q>
0

> <r_epik_Metal_State_Penalty>
-0

> <b_epik_Metal_Only>
0

> <s_lp_Force_Field>
OPLS_2005

> <r_lp_Energy>
55.5443

> <b_lp_Chiralities_Consistent>
1

> <s_lp_Variant>
AV-unprocessed.smi:203-12

> <Gold.Version>
5.8.1

> <Gold.Id.Protein>
6NUR|6NUR_protein|mol2

> <Gold.PLP.Fitness>
47.8889

> <Gold.PLP.PLP>
-43.5204

> <Gold.PLP.part.hbond>
-3.2804

> <Gold.PLP.part.metal>
0.0000

> <Gold.PLP.part.buried>
5.5729

> <Gold.PLP.part.nonpolar>
-45.8830

> <Gold.PLP.part.repulsive>
1.3261

> <Gold.PLP.ligand.clash>
0.0000

> <Gold.PLP.ligand.torsion>
1.5826

> <Gold.PLP.Chemscore.Hbond>
2.3089

> <Gold.PLP.Chemscore.CHOScore>
0.1092

> <Gold.PLP.Chemscore.Metal>
0.0000

> <Gold.Chemscore.Hbonds>
donor molecule, donor type, donor heavy atom, donor atom, acceptor molecule, acceptor atom, score
      L1  H    22    47       P1  7948  1.00
      P1  H  6896  6907       L1     1  0.50
      P1  H  7997  8008       L1    12  1.00
      L1  C    18    43       P1  8028  0.20

> <Gold.PLP.Chemscore.Internal.Correction>
0.2797

> <Gold.Rescore>
     Score         DG    S(hbond)    S(metal)    S(lipo)     H(rot)  DE(clash)    DE(int)     intcor
     13.95     -19.11       2.52        0.00     104.13       2.72       1.25       3.91       ----

> <Gold.Chemscore.Fitness>
13.9509

> <Gold.Chemscore.DG>
-19.1114

> <Gold.Chemscore.ZeroCoef>
-5.4800

> <Gold.Chemscore.Hbond>
2.5161

> <Gold.Chemscore.Metal>
0.0000

> <Gold.Chemscore.Lipo>
104.1303

> <Gold.Chemscore.Internal_Hbond>
0.0000

> <Gold.Chemscore.DEClash>
1.2544

> <Gold.Chemscore.DEInternal>
3.9060

> <Gold.Chemscore.Rot>
2.7171

> <Gold.Chemscore.Internal.Correction>
   9.000000E+99

> <Gold.Chemscore.Hbonds>
donor molecule, donor type, donor heavy atom, donor atom, acceptor molecule, acceptor atom, score
      L1  H    22    47       P1  7948  0.97
      P1  H  6896  6907       L1     1  0.40
      P1  H  7997  8008       L1    12  0.58

> <Gold.Chemscore.Hbond.Weighted>
-8.4038

> <Gold.Chemscore.Metal.Weighted>
-0.0000

> <Gold.Chemscore.Lipo.Weighted>
-12.1832

> <Gold.Chemscore.Internal_Hbond.Weighted>
0.0000

> <Gold.Chemscore.DEClash.Weighted>
1.2544

> <Gold.Chemscore.DEInternal.Weighted>
3.9060

> <Gold.Chemscore.Rot.Weighted>
6.9557

> <Gold.Chemscore.Internal.Correction.Weighted>
   9.000000E+99

> <Gold.Protein.RotatedTorsions>
[ 6907 6896 6895 6894 ] final    1.56 input  -60.11 | X-H torsion
[ 7974 7965 7964 7962 ] final  -82.84 input  175.53 | X-H torsion
[ 8008 7997 7996 7995 ] final  -56.43 input   59.86 | X-H torsion
[ 10167 10162 10161 10158 ] final  142.05 input  -65.29 | X-H torsion
[ 10718 10713 10712 10709 ] final  -60.67 input   66.30 | X-H torsion
[ 10763 10752 10751 10750 ] final  139.80 input  -60.55 | X-H torsion
[ 11005 11000 10999 10996 ] final  147.20 input  -57.11 | X-H torsion

> <Gold.Protein.ActiveResidues>
 VAL166  LYS551  ARG553  GLY616  TRP617  ASP618  TYR619  PRO620  LYS621  CYS622 
 ASP623  PHE694  ASN695  SER759  ASP760  ASP761  ALA762  ILE779  LEU786  VAL792 
 PHE793  MET794  SER795  GLU796  ALA797  LYS798  CYS799  TRP800  GLU811  SER814 

> <Gold.Protein.RotatedAtoms>
  151.5946  135.1051  160.0046 H   0  0  0  0  0  0  0  0  0  0  0  0  # atno 6907 bound_to 6896
  152.4289  133.7239  159.6559 H   0  0  0  0  0  0  0  0  0  0  0  0  # atno 6908 bound_to 6896
  150.8180  133.8232  159.3174 H   0  0  0  0  0  0  0  0  0  0  0  0  # atno 6909 bound_to 6896
  145.5279  140.9524  143.1619 H   0  0  0  0  0  0  0  0  0  0  0  0  # atno 7974 bound_to 7965
  154.4230  140.1130  156.5636 H   0  0  0  0  0  0  0  0  0  0  0  0  # atno 8008 bound_to 7997
  155.6285  140.3495  155.4656 H   0  0  0  0  0  0  0  0  0  0  0  0  # atno 8009 bound_to 7997
  155.9967  140.1190  157.0576 H   0  0  0  0  0  0  0  0  0  0  0  0  # atno 8010 bound_to 7997
  139.5004  144.6132  151.6224 H   0  0  0  0  0  0  0  0  0  0  0  0  # atno 10167 bound_to 10162
  156.0974  130.4191  150.0887 H   0  0  0  0  0  0  0  0  0  0  0  0  # atno 10718 bound_to 10713
  153.9122  135.3010  155.3448 H   0  0  0  0  0  0  0  0  0  0  0  0  # atno 10763 bound_to 10752
  154.7618  135.4930  153.9481 H   0  0  0  0  0  0  0  0  0  0  0  0  # atno 10764 bound_to 10752
  153.1187  135.6777  153.9475 H   0  0  0  0  0  0  0  0  0  0  0  0  # atno 10765 bound_to 10752
  140.0856  134.9071  157.1570 H   0  0  0  0  0  0  0  0  0  0  0  0  # atno 11005 bound_to 11000
  144.7641  139.6886  143.7222 LP  0  0  0  0  0  0  0  0  0  0  0  0  # atno 17320 bound_to 7965
  146.2063  139.5390  142.9710 LP  0  0  0  0  0  0  0  0  0  0  0  0  # atno 17321 bound_to 7965
  140.5812  143.9942  150.6269 LP  0  0  0  0  0  0  0  0  0  0  0  0  # atno 17342 bound_to 10162
  140.3092  143.3209  152.0896 LP  0  0  0  0  0  0  0  0  0  0  0  0  # atno 17343 bound_to 10162
  156.8882  130.9579  151.3591 LP  0  0  0  0  0  0  0  0  0  0  0  0  # atno 17370 bound_to 10713
  157.6138  130.8603  149.8995 LP  0  0  0  0  0  0  0  0  0  0  0  0  # atno 17371 bound_to 10713
  140.3425  134.2688  155.7210 LP  0  0  0  0  0  0  0  0  0  0  0  0  # atno 17394 bound_to 11000
  141.2061  133.7841  157.0193 LP  0  0  0  0  0  0  0  0  0  0  0  0  # atno 17395 bound_to 11000

$$$$
