AV-unprocessed.smi:2926|AV-procd|sdf|11229|dock10
  -GOLD-   2272016123D 1   1.00000     0.00000
 Structure written by MMmdl.
 31 31  0  0  0  0  0  0  0  0  2 V2000
  152.4081  143.7840  161.4942 C   0  0  0  0  0  0  0  0  0  0  0  0
  152.7940  143.7373  159.9985 C   0  0  0  0  0  0  0  0  0  0  0  0
  152.0193  144.8166  159.2065 C   0  0  0  0  0  0  0  0  0  0  0  0
  152.7262  142.3039  159.3872 C   0  0  2  0  0  0  0  0  0  0  0  0
  151.2899  141.8761  159.0185 C   0  0  0  0  0  0  0  0  0  0  0  0
  151.2604  140.5576  158.5096 O   0  0  0  0  0  0  0  0  0  0  0  0
  153.3121  141.3340  160.3079 N   0  5  0  0  0  0  0  0  0  0  0  0
  154.5767  140.4362  159.8344 S   0  0  0  0  0  0  0  0  0  0  0  0
  154.2676  139.5832  158.6754 O   0  0  0  0  0  0  0  0  0  0  0  0
  155.8295  141.2079  159.7777 O   0  0  0  0  0  0  0  0  0  0  0  0
  154.7416  139.3004  161.2776 C   0  0  0  0  0  0  0  0  0  0  0  0
  154.7380  137.8689  160.8174 C   0  0  0  0  0  0  0  0  0  0  0  0
  155.7012  136.8530  161.0711 C   0  0  0  0  0  0  0  0  0  0  0  0
  155.1937  135.7626  160.4259 C   0  0  0  0  0  0  0  0  0  0  0  0
  154.0121  136.0683  159.8332 O   0  0  0  0  0  0  0  0  0  0  0  0
  153.7277  137.4140  160.0912 N   0  0  0  0  0  0  0  0  0  0  0  0
  153.2871  142.3476  158.4520 H   0  0  0  0  0  0  0  0  0  0  0  0
  151.3542  143.5494  161.6549 H   0  0  0  0  0  0  0  0  0  0  0  0
  152.5766  144.7811  161.9019 H   0  0  0  0  0  0  0  0  0  0  0  0
  152.9998  143.0938  162.0988 H   0  0  0  0  0  0  0  0  0  0  0  0
  153.8438  144.0313  159.9602 H   0  0  0  0  0  0  0  0  0  0  0  0
  150.9437  144.6316  159.1993 H   0  0  0  0  0  0  0  0  0  0  0  0
  152.3528  144.8972  158.1709 H   0  0  0  0  0  0  0  0  0  0  0  0
  152.1679  145.7985  159.6565 H   0  0  0  0  0  0  0  0  0  0  0  0
  150.6248  141.9364  159.8805 H   0  0  0  0  0  0  0  0  0  0  0  0
  150.8831  142.5383  158.2539 H   0  0  0  0  0  0  0  0  0  0  0  0
  151.8973  140.0402  158.9770 H   0  0  0  0  0  0  0  0  0  0  0  0
  155.6687  139.5413  161.7969 H   0  0  0  0  0  0  0  0  0  0  0  0
  153.9165  139.5009  161.9614 H   0  0  0  0  0  0  0  0  0  0  0  0
  156.6224  136.9192  161.6310 H   0  0  0  0  0  0  0  0  0  0  0  0
  155.5369  134.7459  160.3049 H   0  0  0  0  0  0  0  0  0  0  0  0
  1  2  1  0  0  0  0
  1 18  1  0  0  0  0
  1 19  1  0  0  0  0
  1 20  1  0  0  0  0
  2  3  1  0  0  0  0
  2  4  1  0  0  0  0
  2 21  1  0  0  0  0
  3 22  1  0  0  0  0
  3 23  1  0  0  0  0
  3 24  1  0  0  0  0
  4 17  1  0  0  0  0
  4  5  1  0  0  0  0
  4  7  1  0  0  0  0
  5  6  1  0  0  0  0
  5 25  1  0  0  0  0
  5 26  1  0  0  0  0
  6 27  1  0  0  0  0
  7  8  1  0  0  0  0
  8  9  2  0  0  0  0
  8 10  2  0  0  0  0
  8 11  1  0  0  0  0
 11 12  1  0  0  0  0
 11 28  1  0  0  0  0
 11 29  1  0  0  0  0
 12 16  2  0  0  0  0
 12 13  1  0  0  0  0
 13 14  2  0  0  0  0
 13 30  1  0  0  0  0
 14 15  1  0  0  0  0
 14 31  1  0  0  0  0
 15 16  1  0  0  0  0
M  CHG  1   7  -1
M  END
> <s_m_source_file>
AV-unprocessed.smi

> <i_m_source_file_index>
2926

> <i_lp_mmshare_version>
43012

> <i_f3d_flags>
0

> <s_epik_input>
W0NIM11bQ0hdKFtDSDNdKVtDQEBIXShbQ0gyXVtPSF0pW05IXVMoPU8pKD1PKVtDSDJdYzFbY0hdW2NIXW9uMQ==

> <s_epik_cmdline>
J2VwaWtfcHl0aG9uJywgJy1waCcsICc3LjAnLCAnLXRuJywgJzgnLCAnLW1hJywgJzIwMCcsICctbWV0YWxfYmluZGluZycsICctaW1hZScsICc8aW5maWxlLm1hZT4nLCAnLW9tYWUnLCAnPG91dGZpbGUubWFlPic=

> <r_lp_tautomer_probability>
1

> <r_epik_Ionization_Penalty>
4.75719

> <r_epik_Ionization_Penalty_Charging>
4.75718

> <r_epik_Ionization_Penalty_Neutral>
1.48962e-06

> <r_epik_State_Penalty>
4.75699

> <r_epik_Charging_Adjusted_Penalty>
9.51417

> <i_epik_Tot_Q>
-1

> <i_epik_Tot_abs_Q>
1

> <r_epik_Metal_State_Penalty>
0.961449

> <b_epik_Metal_Only>
1

> <s_lp_Force_Field>
OPLS_2005

> <r_lp_Energy>
3.36492

> <b_lp_Chiralities_Consistent>
1

> <s_lp_Variant>
AV-unprocessed.smi:2926-4

> <Gold.Version>
5.8.1

> <Gold.Id.Protein>
6NUR|6NUR_protein|mol2

> <Gold.PLP.Fitness>
35.7060

> <Gold.PLP.PLP>
-30.5250

> <Gold.PLP.part.hbond>
-3.0000

> <Gold.PLP.part.metal>
0.0000

> <Gold.PLP.part.buried>
-3.1812

> <Gold.PLP.part.nonpolar>
-23.0306

> <Gold.PLP.part.repulsive>
0.0000

> <Gold.PLP.ligand.clash>
0.0000

> <Gold.PLP.ligand.torsion>
0.9702

> <Gold.PLP.Chemscore.Hbond>
2.0000

> <Gold.PLP.Chemscore.CHOScore>
0.0000

> <Gold.PLP.Chemscore.Metal>
0.0000

> <Gold.Chemscore.Hbonds>
donor molecule, donor type, donor heavy atom, donor atom, acceptor molecule, acceptor atom, score
      P1  H  6896  6908       L1    15  0.80
      P1  H  7997  8010       L1     9  1.00

> <Gold.PLP.Chemscore.Internal.Correction>
1.1214

> <Gold.Rescore>
     Score         DG    S(hbond)    S(metal)    S(lipo)     H(rot)  DE(clash)    DE(int)     intcor
     11.57     -14.70       1.92        0.00      80.47       2.58       0.36       2.77       ----

> <Gold.Chemscore.Fitness>
11.5740

> <Gold.Chemscore.DG>
-14.7011

> <Gold.Chemscore.ZeroCoef>
-5.4800

> <Gold.Chemscore.Hbond>
1.9176

> <Gold.Chemscore.Metal>
0.0000

> <Gold.Chemscore.Lipo>
80.4703

> <Gold.Chemscore.Internal_Hbond>
0.0000

> <Gold.Chemscore.DEClash>
0.3559

> <Gold.Chemscore.DEInternal>
2.7712

> <Gold.Chemscore.Rot>
2.5776

> <Gold.Chemscore.Internal.Correction>
   9.000000E+99

> <Gold.Chemscore.Hbonds>
donor molecule, donor type, donor heavy atom, donor atom, acceptor molecule, acceptor atom, score
      P1  H  6896  6908       L1    15  0.71
      P1  H  7997  8010       L1     9  0.87

> <Gold.Chemscore.Hbond.Weighted>
-6.4047

> <Gold.Chemscore.Metal.Weighted>
-0.0000

> <Gold.Chemscore.Lipo.Weighted>
-9.4150

> <Gold.Chemscore.Internal_Hbond.Weighted>
0.0000

> <Gold.Chemscore.DEClash.Weighted>
0.3559

> <Gold.Chemscore.DEInternal.Weighted>
2.7712

> <Gold.Chemscore.Rot.Weighted>
6.5987

> <Gold.Chemscore.Internal.Correction.Weighted>
   9.000000E+99

> <Gold.Protein.RotatedTorsions>
[ 6907 6896 6895 6894 ] final  -55.17 input  -60.11 | X-H torsion
[ 7974 7965 7964 7962 ] final   45.31 input  175.53 | X-H torsion
[ 8008 7997 7996 7995 ] final    5.32 input   59.86 | X-H torsion
[ 10167 10162 10161 10158 ] final   21.70 input  -65.29 | X-H torsion
[ 10718 10713 10712 10709 ] final  102.25 input   66.30 | X-H torsion
[ 10763 10752 10751 10750 ] final  -93.33 input  -60.55 | X-H torsion
[ 11005 11000 10999 10996 ] final  -81.44 input  -57.11 | X-H torsion

> <Gold.Protein.ActiveResidues>
 VAL166  LYS551  ARG553  GLY616  TRP617  ASP618  TYR619  PRO620  LYS621  CYS622 
 ASP623  PHE694  ASN695  SER759  ASP760  ASP761  ALA762  ILE779  LEU786  VAL792 
 PHE793  MET794  SER795  GLU796  ALA797  LYS798  CYS799  TRP800  GLU811  SER814 

> <Gold.Protein.RotatedAtoms>
  150.8275  134.7513  159.6824 H   0  0  0  0  0  0  0  0  0  0  0  0  # atno 6907 bound_to 6896
  152.4384  134.5637  159.9911 H   0  0  0  0  0  0  0  0  0  0  0  0  # atno 6908 bound_to 6896
  151.5806  133.3340  159.3043 H   0  0  0  0  0  0  0  0  0  0  0  0  # atno 6909 bound_to 6896
  146.0492  139.4979  142.9729 H   0  0  0  0  0  0  0  0  0  0  0  0  # atno 7974 bound_to 7965
  154.7269  140.2723  155.6491 H   0  0  0  0  0  0  0  0  0  0  0  0  # atno 8008 bound_to 7997
  156.2839  140.2723  156.1882 H   0  0  0  0  0  0  0  0  0  0  0  0  # atno 8009 bound_to 7997
  155.0433  140.0371  157.2507 H   0  0  0  0  0  0  0  0  0  0  0  0  # atno 8010 bound_to 7997
  140.5406  143.9683  150.6517 H   0  0  0  0  0  0  0  0  0  0  0  0  # atno 10167 bound_to 10162
  157.6807  131.0748  150.5375 H   0  0  0  0  0  0  0  0  0  0  0  0  # atno 10718 bound_to 10713
  154.6948  135.5198  153.8443 H   0  0  0  0  0  0  0  0  0  0  0  0  # atno 10763 bound_to 10752
  153.0659  135.6584  154.0365 H   0  0  0  0  0  0  0  0  0  0  0  0  # atno 10764 bound_to 10752
  154.0233  135.2991  155.3358 H   0  0  0  0  0  0  0  0  0  0  0  0  # atno 10765 bound_to 10752
  141.1666  133.7197  156.8423 H   0  0  0  0  0  0  0  0  0  0  0  0  # atno 11005 bound_to 11000
  145.6754  141.0205  143.1635 LP  0  0  0  0  0  0  0  0  0  0  0  0  # atno 17320 bound_to 7965
  144.7113  139.8359  143.7413 LP  0  0  0  0  0  0  0  0  0  0  0  0  # atno 17321 bound_to 7965
  140.3083  143.3215  152.0904 LP  0  0  0  0  0  0  0  0  0  0  0  0  # atno 17342 bound_to 10162
  139.4987  144.6653  151.6371 LP  0  0  0  0  0  0  0  0  0  0  0  0  # atno 17343 bound_to 10162
  156.5683  130.4273  149.6031 LP  0  0  0  0  0  0  0  0  0  0  0  0  # atno 17370 bound_to 10713
  156.2762  130.7045  151.1856 LP  0  0  0  0  0  0  0  0  0  0  0  0  # atno 17371 bound_to 10713
  140.1974  134.8922  157.3130 LP  0  0  0  0  0  0  0  0  0  0  0  0  # atno 17394 bound_to 11000
  140.2224  134.4007  155.7559 LP  0  0  0  0  0  0  0  0  0  0  0  0  # atno 17395 bound_to 11000

$$$$
