AV-unprocessed.smi:3057|AV-procd|sdf|11661|dock4
  -GOLD-   2272017 63D 1   1.00000     0.00000
 Structure written by MMmdl.
 40 42  0  0  0  0  0  0  0  0  1 V2000
  148.1437  139.4667  156.6476 C   0  0  0  0  0  0  0  0  0  0  0  0
  148.3343  139.1995  155.1421 C   0  0  1  0  0  0  0  0  0  0  0  0
  147.1364  139.7131  154.3226 C   0  0  0  0  0  0  0  0  0  0  0  0
  147.5642  141.1100  153.8490 C   0  0  0  0  0  0  0  0  0  0  0  0
  149.0808  141.0231  153.9035 C   0  0  0  0  0  0  0  0  0  0  0  0
  149.8247  141.8063  153.3153 O   0  0  0  0  0  0  0  0  0  0  0  0
  149.4564  139.9505  154.6118 N   0  0  0  0  0  0  0  0  0  0  0  0
  150.7740  139.3102  154.6030 C   0  0  1  0  0  0  0  0  0  0  0  0
  151.7276  140.0239  155.5763 C   0  0  0  0  0  0  0  0  0  0  0  0
  152.8312  139.5472  155.8445 O   0  0  0  0  0  0  0  0  0  0  0  0
  151.2847  141.1800  156.0902 N   0  0  0  0  0  0  0  0  0  0  0  0
  152.0265  142.0072  157.0325 C   0  0  0  0  0  0  0  0  0  0  0  0
  152.0935  141.3280  158.4076 C   0  0  0  0  0  0  0  0  0  0  0  0
  152.1290  142.3303  159.5459 C   0  0  0  0  0  0  0  0  0  0  0  0
  152.6241  141.9618  160.8152 C   0  0  0  0  0  0  0  0  0  0  0  0
  152.6340  142.9297  161.8382 C   0  0  0  0  0  0  0  0  0  0  0  0
  152.1500  144.2213  161.5548 C   0  0  0  0  0  0  0  0  0  0  0  0
  151.6749  144.4888  160.2554 C   0  0  0  0  0  0  0  0  0  0  0  0
  151.6621  143.5683  159.2671 N   0  0  0  0  0  0  0  0  0  0  0  0
  150.5524  137.8447  155.0543 C   0  0  0  0  0  0  0  0  0  0  0  0
  148.7879  137.4849  154.8314 S   0  0  0  0  0  0  0  0  0  0  0  0
  147.9883  140.5272  156.8486 H   0  0  0  0  0  0  0  0  0  0  0  0
  149.0075  139.1448  157.2290 H   0  0  0  0  0  0  0  0  0  0  0  0
  147.2771  138.9278  157.0315 H   0  0  0  0  0  0  0  0  0  0  0  0
  146.9618  139.0744  153.4553 H   0  0  0  0  0  0  0  0  0  0  0  0
  146.2107  139.7377  154.8988 H   0  0  0  0  0  0  0  0  0  0  0  0
  147.2031  141.3377  152.8457 H   0  0  0  0  0  0  0  0  0  0  0  0
  147.2231  141.8868  154.5341 H   0  0  0  0  0  0  0  0  0  0  0  0
  151.1712  139.3289  153.5861 H   0  0  0  0  0  0  0  0  0  0  0  0
  150.3669  141.5022  155.8193 H   0  0  0  0  0  0  0  0  0  0  0  0
  153.0365  142.1855  156.6594 H   0  0  0  0  0  0  0  0  0  0  0  0
  151.5358  142.9780  157.1132 H   0  0  0  0  0  0  0  0  0  0  0  0
  151.2355  140.6672  158.5394 H   0  0  0  0  0  0  0  0  0  0  0  0
  152.9802  140.6951  158.4681 H   0  0  0  0  0  0  0  0  0  0  0  0
  152.9882  140.9622  161.0023 H   0  0  0  0  0  0  0  0  0  0  0  0
  153.0063  142.6858  162.8222 H   0  0  0  0  0  0  0  0  0  0  0  0
  152.1429  144.9886  162.3147 H   0  0  0  0  0  0  0  0  0  0  0  0
  151.2958  145.4682  160.0032 H   0  0  0  0  0  0  0  0  0  0  0  0
  151.1631  137.1440  154.4851 H   0  0  0  0  0  0  0  0  0  0  0  0
  150.7845  137.6993  156.1106 H   0  0  0  0  0  0  0  0  0  0  0  0
  1  2  1  0  0  0  0
  1 22  1  0  0  0  0
  1 23  1  0  0  0  0
  1 24  1  0  0  0  0
  2  7  1  0  0  0  0
  2 21  1  0  0  0  0
  2  3  1  0  0  0  0
  3  4  1  0  0  0  0
  3 25  1  0  0  0  0
  3 26  1  0  0  0  0
  4  5  1  0  0  0  0
  4 27  1  0  0  0  0
  4 28  1  0  0  0  0
  5  6  2  0  0  0  0
  5  7  1  0  0  0  0
  7  8  1  0  0  0  0
  8  9  1  0  0  0  0
  8 20  1  0  0  0  0
  8 29  1  0  0  0  0
  9 10  2  0  0  0  0
  9 11  1  0  0  0  0
 11 12  1  0  0  0  0
 11 30  1  0  0  0  0
 12 13  1  0  0  0  0
 12 31  1  0  0  0  0
 12 32  1  0  0  0  0
 13 14  1  0  0  0  0
 13 33  1  0  0  0  0
 13 34  1  0  0  0  0
 14 19  1  0  0  0  0
 14 15  2  0  0  0  0
 15 16  1  0  0  0  0
 15 35  1  0  0  0  0
 16 17  2  0  0  0  0
 16 36  1  0  0  0  0
 17 18  1  0  0  0  0
 17 37  1  0  0  0  0
 18 19  2  0  0  0  0
 18 38  1  0  0  0  0
 20 21  1  0  0  0  0
 20 39  1  0  0  0  0
 20 40  1  0  0  0  0
M  END
> <s_m_source_file>
AV-unprocessed.smi

> <i_m_source_file_index>
3057

> <i_lp_mmshare_version>
43012

> <i_f3d_flags>
0

> <s_epik_input>
W0NIMl0xW0NIMl1DKD1PKU4oW0NAQF0xMltDSDNdKVtDQEhdKFtDSDJdUzIpQyg9TylbTkhdW0NIMl1bQ0gyXWMzW2NIXVtjSF1bY0hdW2NIXW4z

> <s_epik_cmdline>
J2VwaWtfcHl0aG9uJywgJy1waCcsICc3LjAnLCAnLXRuJywgJzgnLCAnLW1hJywgJzIwMCcsICctbWV0YWxfYmluZGluZycsICctaW1hZScsICc8aW5maWxlLm1hZT4nLCAnLW9tYWUnLCAnPG91dGZpbGUubWFlPic=

> <r_epik_Ionization_Penalty>
0.0249631

> <r_epik_Ionization_Penalty_Charging>
0

> <r_epik_Ionization_Penalty_Neutral>
0.0249631

> <r_epik_State_Penalty>
0.0202943

> <r_epik_Charging_Adjusted_Penalty>
0.0202943

> <i_epik_Tot_Q>
0

> <i_epik_Tot_abs_Q>
0

> <r_epik_Metal_State_Penalty>
0.0194661

> <b_epik_Metal_Only>
0

> <s_lp_Force_Field>
OPLS_2005

> <r_lp_Energy>
25.4312

> <b_lp_Chiralities_Consistent>
1

> <s_lp_Variant>
AV-unprocessed.smi:3057-1

> <Gold.Version>
5.8.1

> <Gold.Id.Protein>
6NUR|6NUR_protein|mol2

> <Gold.PLP.Fitness>
42.3776

> <Gold.PLP.PLP>
-38.7991

> <Gold.PLP.part.hbond>
-2.9810

> <Gold.PLP.part.metal>
0.0000

> <Gold.PLP.part.buried>
-5.0986

> <Gold.PLP.part.nonpolar>
-28.4475

> <Gold.PLP.part.repulsive>
0.3375

> <Gold.PLP.ligand.clash>
0.0000

> <Gold.PLP.ligand.torsion>
0.6779

> <Gold.PLP.Chemscore.Hbond>
1.6400

> <Gold.PLP.Chemscore.CHOScore>
0.0000

> <Gold.PLP.Chemscore.Metal>
0.0000

> <Gold.Chemscore.Hbonds>
donor molecule, donor type, donor heavy atom, donor atom, acceptor molecule, acceptor atom, score
      P1  H  7997  8009       L1    10  1.00
      P1  H  8011  8017       L1     6  0.03

> <Gold.PLP.Chemscore.Internal.Correction>
0.0144

> <Gold.Rescore>
     Score         DG    S(hbond)    S(metal)    S(lipo)     H(rot)  DE(clash)    DE(int)     intcor
     16.00     -19.48       1.93        0.00      98.04       1.53       2.74       0.74       ----

> <Gold.Chemscore.Fitness>
15.9980

> <Gold.Chemscore.DG>
-19.4804

> <Gold.Chemscore.ZeroCoef>
-5.4800

> <Gold.Chemscore.Hbond>
1.9332

> <Gold.Chemscore.Metal>
0.0000

> <Gold.Chemscore.Lipo>
98.0363

> <Gold.Chemscore.Internal_Hbond>
0.0000

> <Gold.Chemscore.DEClash>
2.7400

> <Gold.Chemscore.DEInternal>
0.7423

> <Gold.Chemscore.Rot>
1.5339

> <Gold.Chemscore.Internal.Correction>
   9.000000E+99

> <Gold.Chemscore.Hbonds>
donor molecule, donor type, donor heavy atom, donor atom, acceptor molecule, acceptor atom, score
      P1  H  7997  8009       L1    10  1.00
      P1  H  8011  8017       L1     6  0.07

> <Gold.Chemscore.Hbond.Weighted>
-6.4569

> <Gold.Chemscore.Metal.Weighted>
-0.0000

> <Gold.Chemscore.Lipo.Weighted>
-11.4702

> <Gold.Chemscore.Internal_Hbond.Weighted>
0.0000

> <Gold.Chemscore.DEClash.Weighted>
2.7400

> <Gold.Chemscore.DEInternal.Weighted>
0.7423

> <Gold.Chemscore.Rot.Weighted>
3.9267

> <Gold.Chemscore.Internal.Correction.Weighted>
   9.000000E+99

> <Gold.Protein.RotatedTorsions>
[ 6907 6896 6895 6894 ] final  -76.21 input  -60.11 | X-H torsion
[ 7974 7965 7964 7962 ] final  148.49 input  175.53 | X-H torsion
[ 8008 7997 7996 7995 ] final -151.90 input   59.86 | X-H torsion
[ 10167 10162 10161 10158 ] final   -0.18 input  -65.29 | X-H torsion
[ 10718 10713 10712 10709 ] final   25.84 input   66.30 | X-H torsion
[ 10763 10752 10751 10750 ] final   31.85 input  -60.55 | X-H torsion
[ 11005 11000 10999 10996 ] final  -80.54 input  -57.11 | X-H torsion

> <Gold.Protein.ActiveResidues>
 VAL166  LYS551  ARG553  GLY616  TRP617  ASP618  TYR619  PRO620  LYS621  CYS622 
 ASP623  PHE694  ASN695  SER759  ASP760  ASP761  ALA762  ILE779  LEU786  VAL792 
 PHE793  MET794  SER795  GLU796  ALA797  LYS798  CYS799  TRP800  GLU811  SER814 

> <Gold.Protein.RotatedAtoms>
  150.7034  134.4606  159.5378 H   0  0  0  0  0  0  0  0  0  0  0  0  # atno 6907 bound_to 6896
  152.2281  134.8346  160.0486 H   0  0  0  0  0  0  0  0  0  0  0  0  # atno 6908 bound_to 6896
  151.9171  133.3541  159.3921 H   0  0  0  0  0  0  0  0  0  0  0  0  # atno 6909 bound_to 6896
  144.8510  139.6161  143.5974 H   0  0  0  0  0  0  0  0  0  0  0  0  # atno 7974 bound_to 7965
  155.6466  140.0707  157.2601 H   0  0  0  0  0  0  0  0  0  0  0  0  # atno 8008 bound_to 7997
  154.4171  140.1741  156.1680 H   0  0  0  0  0  0  0  0  0  0  0  0  # atno 8009 bound_to 7997
  155.9811  140.3353  155.6667 H   0  0  0  0  0  0  0  0  0  0  0  0  # atno 8010 bound_to 7997
  140.6756  143.6925  150.8016 H   0  0  0  0  0  0  0  0  0  0  0  0  # atno 10167 bound_to 10162
  157.1988  130.6880  149.6179 H   0  0  0  0  0  0  0  0  0  0  0  0  # atno 10718 bound_to 10713
  153.0293  135.6428  154.1263 H   0  0  0  0  0  0  0  0  0  0  0  0  # atno 10763 bound_to 10752
  154.0988  135.2861  155.3257 H   0  0  0  0  0  0  0  0  0  0  0  0  # atno 10764 bound_to 10752
  154.6413  135.5458  153.7856 H   0  0  0  0  0  0  0  0  0  0  0  0  # atno 10765 bound_to 10752
  141.1668  133.7155  156.8289 H   0  0  0  0  0  0  0  0  0  0  0  0  # atno 11005 bound_to 11000
  146.2784  139.6813  142.9246 LP  0  0  0  0  0  0  0  0  0  0  0  0  # atno 17320 bound_to 7965
  145.4501  141.0428  143.2809 LP  0  0  0  0  0  0  0  0  0  0  0  0  # atno 17321 bound_to 7965
  140.0617  143.5148  152.2624 LP  0  0  0  0  0  0  0  0  0  0  0  0  # atno 17342 bound_to 10162
  139.6047  144.7593  151.3090 LP  0  0  0  0  0  0  0  0  0  0  0  0  # atno 17343 bound_to 10162
  155.9703  130.4590  150.6019 LP  0  0  0  0  0  0  0  0  0  0  0  0  # atno 17370 bound_to 10713
  157.3788  131.0777  151.1495 LP  0  0  0  0  0  0  0  0  0  0  0  0  # atno 17371 bound_to 10713
  140.2066  134.8858  157.3228 LP  0  0  0  0  0  0  0  0  0  0  0  0  # atno 17394 bound_to 11000
  140.2131  134.4114  155.7602 LP  0  0  0  0  0  0  0  0  0  0  0  0  # atno 17395 bound_to 11000

$$$$
