AV-unprocessed.smi:555|AV-procd|sdf|2910|dock3
  -GOLD-   2262023403D 1   1.00000     0.00000
 Structure written by MMmdl.
 50 51  0  0  0  0  0  0  0  0  2 V2000
  154.6117  138.5077  159.8768 C   0  0  0  0  0  0  0  0  0  0  0  0
  154.8687  139.6588  159.0923 O   0  0  0  0  0  0  0  0  0  0  0  0
  154.8738  140.8518  159.8606 C   0  0  0  0  0  0  0  0  0  0  0  0
  153.4595  141.1179  160.4022 C   0  0  0  0  0  0  0  0  0  0  0  0
  152.4336  140.8895  159.3785 N   0  0  0  0  0  0  0  0  0  0  0  0
  152.1320  139.5536  159.1729 N   0  0  0  0  0  0  0  0  0  0  0  0
  151.2176  139.2166  158.3221 C   0  0  0  0  0  0  0  0  0  0  0  0
  150.8549  137.7919  158.0838 C   0  0  0  0  0  0  0  0  0  0  0  0
  151.0792  136.9144  158.9191 O   0  0  0  0  0  0  0  0  0  0  0  0
  150.2737  137.5366  156.8976 N   0  0  0  0  0  0  0  0  0  0  0  0
  149.8391  136.2227  156.4345 C   0  0  2  0  0  0  0  0  0  0  0  0
  150.7847  135.6925  155.3413 C   0  0  0  0  0  0  0  0  0  0  0  0
  150.2769  134.3635  154.7570 C   0  0  0  0  0  0  0  0  0  0  0  0
  148.8901  134.5038  154.2394 N   0  3  1  0  0  0  0  0  0  0  0  0
  148.4287  133.3252  153.4491 C   0  0  0  0  0  0  0  0  0  0  0  0
  147.0041  133.5375  152.9102 C   0  0  0  0  0  0  0  0  0  0  0  0
  148.5577  131.9881  154.2049 C   0  0  0  0  0  0  0  0  0  0  0  0
  147.9536  134.9634  155.3010 C   0  0  0  0  0  0  0  0  0  0  0  0
  148.4077  136.3125  155.8815 C   0  0  0  0  0  0  0  0  0  0  0  0
  150.5009  140.2260  157.5613 C   0  0  0  0  0  0  0  0  0  0  0  0
  150.8112  141.5248  157.7670 C   0  0  0  0  0  0  0  0  0  0  0  0
  151.8357  141.9336  158.7294 C   0  0  0  0  0  0  0  0  0  0  0  0
  152.1293  143.1098  158.9415 O   0  0  0  0  0  0  0  0  0  0  0  0
  154.6196  137.6225  159.2410 H   0  0  0  0  0  0  0  0  0  0  0  0
  153.6342  138.5680  160.3569 H   0  0  0  0  0  0  0  0  0  0  0  0
  155.3730  138.3765  160.6468 H   0  0  0  0  0  0  0  0  0  0  0  0
  155.5915  140.7766  160.6792 H   0  0  0  0  0  0  0  0  0  0  0  0
  155.1866  141.6874  159.2329 H   0  0  0  0  0  0  0  0  0  0  0  0
  153.2715  140.4809  161.2681 H   0  0  0  0  0  0  0  0  0  0  0  0
  153.3991  142.1404  160.7790 H   0  0  0  0  0  0  0  0  0  0  0  0
  150.1262  138.3153  156.2710 H   0  0  0  0  0  0  0  0  0  0  0  0
  149.8368  135.5251  157.2746 H   0  0  0  0  0  0  0  0  0  0  0  0
  150.8741  136.4286  154.5409 H   0  0  0  0  0  0  0  0  0  0  0  0
  151.7881  135.5547  155.7461 H   0  0  0  0  0  0  0  0  0  0  0  0
  150.9449  134.0509  153.9537 H   0  0  0  0  0  0  0  0  0  0  0  0
  150.3123  133.5854  155.5203 H   0  0  0  0  0  0  0  0  0  0  0  0
  149.0711  133.2630  152.5697 H   0  0  0  0  0  0  0  0  0  0  0  0
  146.7310  132.7429  152.2151 H   0  0  0  0  0  0  0  0  0  0  0  0
  146.9223  134.4830  152.3732 H   0  0  0  0  0  0  0  0  0  0  0  0
  146.2592  133.5382  153.7059 H   0  0  0  0  0  0  0  0  0  0  0  0
  148.3015  131.1529  153.5524 H   0  0  0  0  0  0  0  0  0  0  0  0
  147.8901  131.9385  155.0655 H   0  0  0  0  0  0  0  0  0  0  0  0
  149.5749  131.8185  154.5570 H   0  0  0  0  0  0  0  0  0  0  0  0
  146.9458  135.0719  154.9019 H   0  0  0  0  0  0  0  0  0  0  0  0
  147.9013  134.2227  156.1002 H   0  0  0  0  0  0  0  0  0  0  0  0
  147.7211  136.6230  156.6702 H   0  0  0  0  0  0  0  0  0  0  0  0
  148.3544  137.0773  155.1047 H   0  0  0  0  0  0  0  0  0  0  0  0
  149.7396  139.9530  156.8449 H   0  0  0  0  0  0  0  0  0  0  0  0
  150.2874  142.2857  157.2072 H   0  0  0  0  0  0  0  0  0  0  0  0
  148.9370  135.2593  153.5703 H   0  0  0  0  0  0  0  0  0  0  0  0
  1  2  1  0  0  0  0
  1 24  1  0  0  0  0
  1 25  1  0  0  0  0
  1 26  1  0  0  0  0
  2  3  1  0  0  0  0
  3  4  1  0  0  0  0
  3 27  1  0  0  0  0
  3 28  1  0  0  0  0
  4  5  1  0  0  0  0
  4 29  1  0  0  0  0
  4 30  1  0  0  0  0
  5 22  1  0  0  0  0
  5  6  1  0  0  0  0
  6  7  2  0  0  0  0
  7  8  1  0  0  0  0
  7 20  1  0  0  0  0
  8  9  2  0  0  0  0
  8 10  1  0  0  0  0
 10 11  1  0  0  0  0
 10 31  1  0  0  0  0
 11 19  1  0  0  0  0
 11 12  1  0  0  0  0
 11 32  1  0  0  0  0
 12 13  1  0  0  0  0
 12 33  1  0  0  0  0
 12 34  1  0  0  0  0
 13 14  1  0  0  0  0
 13 35  1  0  0  0  0
 13 36  1  0  0  0  0
 14 15  1  0  0  0  0
 14 18  1  0  0  0  0
 14 50  1  0  0  0  0
 15 16  1  0  0  0  0
 15 17  1  0  0  0  0
 15 37  1  0  0  0  0
 16 38  1  0  0  0  0
 16 39  1  0  0  0  0
 16 40  1  0  0  0  0
 17 41  1  0  0  0  0
 17 42  1  0  0  0  0
 17 43  1  0  0  0  0
 18 19  1  0  0  0  0
 18 44  1  0  0  0  0
 18 45  1  0  0  0  0
 19 46  1  0  0  0  0
 19 47  1  0  0  0  0
 20 21  2  0  0  0  0
 20 48  1  0  0  0  0
 21 22  1  0  0  0  0
 21 49  1  0  0  0  0
 22 23  2  0  0  0  0
M  CHG  1  14   1
M  END
> <s_m_source_file>
AV-unprocessed.smi

> <i_m_source_file_index>
555

> <i_lp_mmshare_version>
43012

> <i_f3d_flags>
0

> <s_epik_input>
W0NIM11PW0NIMl1bQ0gyXW4xbmMoW2NIXVtjSF1jMT1PKUMoPU8pW05IXVtDSF0yW0NIMl1bQ0gyXU4oW0NIXShbQ0gzXSlbQ0gzXSlbQ0gyXVtDSDJdMg==

> <s_epik_cmdline>
J2VwaWtfcHl0aG9uJywgJy1waCcsICc3LjAnLCAnLXRuJywgJzgnLCAnLW1hJywgJzIwMCcsICctbWV0YWxfYmluZGluZycsICctaW1hZScsICc8aW5maWxlLm1hZT4nLCAnLW9tYWUnLCAnPG91dGZpbGUubWFlPic=

> <r_lp_tautomer_probability>
1

> <r_epik_Ionization_Penalty>
0.00560205

> <r_epik_Ionization_Penalty_Charging>
0.00559911

> <r_epik_Ionization_Penalty_Neutral>
2.94673e-06

> <r_epik_State_Penalty>
0.00410202

> <r_epik_Charging_Adjusted_Penalty>
0.00970113

> <i_epik_Tot_Q>
1

> <i_epik_Tot_abs_Q>
1

> <r_epik_Metal_State_Penalty>
-0

> <b_epik_Metal_Only>
0

> <s_lp_Force_Field>
OPLS_2005

> <r_lp_Energy>
40.4253

> <b_lp_Chiralities_Consistent>
1

> <s_lp_Variant>
AV-unprocessed.smi:555-1

> <Gold.Version>
5.8.1

> <Gold.Id.Protein>
6NUR|6NUR_protein|mol2

> <Gold.PLP.Fitness>
42.3910

> <Gold.PLP.PLP>
-31.8215

> <Gold.PLP.part.hbond>
-3.0000

> <Gold.PLP.part.metal>
0.0000

> <Gold.PLP.part.buried>
-5.6946

> <Gold.PLP.part.nonpolar>
-23.3028

> <Gold.PLP.part.repulsive>
0.0175

> <Gold.PLP.ligand.clash>
0.0000

> <Gold.PLP.ligand.torsion>
0.7694

> <Gold.PLP.Chemscore.Hbond>
3.9913

> <Gold.PLP.Chemscore.CHOScore>
0.0000

> <Gold.PLP.Chemscore.Metal>
0.0000

> <Gold.Chemscore.Hbonds>
donor molecule, donor type, donor heavy atom, donor atom, acceptor molecule, acceptor atom, score
      L1  H    14    50       P1  7948  2.00
      P1  H  6896  6907       L1     9  0.99
      P1  H  7997  8008       L1     2  1.00

> <Gold.PLP.Chemscore.Internal.Correction>
0.1345

> <Gold.Rescore>
     Score         DG    S(hbond)    S(metal)    S(lipo)     H(rot)  DE(clash)    DE(int)     intcor
     17.79     -18.40       2.86        0.00      67.02       1.74       0.00       0.61       ----

> <Gold.Chemscore.Fitness>
17.7903

> <Gold.Chemscore.DG>
-18.4018

> <Gold.Chemscore.ZeroCoef>
-5.4800

> <Gold.Chemscore.Hbond>
2.8578

> <Gold.Chemscore.Metal>
0.0000

> <Gold.Chemscore.Lipo>
67.0166

> <Gold.Chemscore.Internal_Hbond>
0.0000

> <Gold.Chemscore.DEClash>
0.0000

> <Gold.Chemscore.DEInternal>
0.6115

> <Gold.Chemscore.Rot>
1.7438

> <Gold.Chemscore.Internal.Correction>
   9.000000E+99

> <Gold.Chemscore.Hbonds>
donor molecule, donor type, donor heavy atom, donor atom, acceptor molecule, acceptor atom, score
      L1  H    14    50       P1  7948  0.65
      P1  H  6896  6907       L1     9  0.90
      P1  H  7997  8008       L1     2  0.78

> <Gold.Chemscore.Hbond.Weighted>
-9.5450

> <Gold.Chemscore.Metal.Weighted>
-0.0000

> <Gold.Chemscore.Lipo.Weighted>
-7.8409

> <Gold.Chemscore.Internal_Hbond.Weighted>
0.0000

> <Gold.Chemscore.DEClash.Weighted>
0.0000

> <Gold.Chemscore.DEInternal.Weighted>
0.6115

> <Gold.Chemscore.Rot.Weighted>
4.4642

> <Gold.Chemscore.Internal.Correction.Weighted>
   9.000000E+99

> <Gold.Protein.RotatedTorsions>
[ 6907 6896 6895 6894 ] final  -20.96 input  -60.11 | X-H torsion
[ 7974 7965 7964 7962 ] final  -97.09 input  175.53 | X-H torsion
[ 8008 7997 7996 7995 ] final -117.91 input   59.86 | X-H torsion
[ 10167 10162 10161 10158 ] final    9.02 input  -65.29 | X-H torsion
[ 10718 10713 10712 10709 ] final  164.56 input   66.30 | X-H torsion
[ 10763 10752 10751 10750 ] final  -49.87 input  -60.55 | X-H torsion
[ 11005 11000 10999 10996 ] final   76.78 input  -57.11 | X-H torsion

> <Gold.Protein.ActiveResidues>
 VAL166  LYS551  ARG553  GLY616  TRP617  ASP618  TYR619  PRO620  LYS621  CYS622 
 ASP623  PHE694  ASN695  SER759  ASP760  ASP761  ALA762  ILE779  LEU786  VAL792 
 PHE793  MET794  SER795  GLU796  ALA797  LYS798  CYS799  TRP800  GLU811  SER814 

> <Gold.Protein.RotatedAtoms>
  151.2403  135.0586  159.9022 H   0  0  0  0  0  0  0  0  0  0  0  0  # atno 6907 bound_to 6896
  152.5394  134.0441  159.8091 H   0  0  0  0  0  0  0  0  0  0  0  0  # atno 6908 bound_to 6896
  151.0634  133.5476  159.2664 H   0  0  0  0  0  0  0  0  0  0  0  0  # atno 6909 bound_to 6896
  145.3383  140.9455  143.2622 H   0  0  0  0  0  0  0  0  0  0  0  0  # atno 7974 bound_to 7965
  155.0912  140.0395  157.2669 H   0  0  0  0  0  0  0  0  0  0  0  0  # atno 8008 bound_to 7997
  154.6830  140.2637  155.6864 H   0  0  0  0  0  0  0  0  0  0  0  0  # atno 8009 bound_to 7997
  156.2702  140.2774  156.1382 H   0  0  0  0  0  0  0  0  0  0  0  0  # atno 8010 bound_to 7997
  140.6279  143.8059  150.7257 H   0  0  0  0  0  0  0  0  0  0  0  0  # atno 10167 bound_to 10162
  157.0926  131.0421  151.2531 H   0  0  0  0  0  0  0  0  0  0  0  0  # atno 10718 bound_to 10713
  154.1012  135.6563  153.4868 H   0  0  0  0  0  0  0  0  0  0  0  0  # atno 10763 bound_to 10752
  153.0288  135.5225  154.7285 H   0  0  0  0  0  0  0  0  0  0  0  0  # atno 10764 bound_to 10752
  154.6437  135.2992  155.0041 H   0  0  0  0  0  0  0  0  0  0  0  0  # atno 10765 bound_to 10752
  139.9283  134.7629  156.1438 H   0  0  0  0  0  0  0  0  0  0  0  0  # atno 11005 bound_to 11000
  144.8810  139.4904  143.6723 LP  0  0  0  0  0  0  0  0  0  0  0  0  # atno 17320 bound_to 7965
  146.3018  139.7450  142.9086 LP  0  0  0  0  0  0  0  0  0  0  0  0  # atno 17321 bound_to 7965
  140.1663  143.4232  152.2032 LP  0  0  0  0  0  0  0  0  0  0  0  0  # atno 17342 bound_to 10162
  139.5497  144.7328  151.4473 LP  0  0  0  0  0  0  0  0  0  0  0  0  # atno 17343 bound_to 10162
  157.4708  130.7708  149.7322 LP  0  0  0  0  0  0  0  0  0  0  0  0  # atno 17370 bound_to 10713
  155.9894  130.3952  150.3075 LP  0  0  0  0  0  0  0  0  0  0  0  0  # atno 17371 bound_to 10713
  141.0856  133.6736  156.2428 LP  0  0  0  0  0  0  0  0  0  0  0  0  # atno 17394 bound_to 11000
  140.6273  134.5300  157.5555 LP  0  0  0  0  0  0  0  0  0  0  0  0  # atno 17395 bound_to 11000

$$$$
