AV-unprocessed.smi:127|AV-procd|sdf|1154|dock4
  -GOLD-   2262018293D 1   1.00000     0.00000
 Structure written by MMmdl.
 28 29  0  0  0  0  0  0  0  0  2 V2000
  153.0110  137.4918  153.8143 O   0  0  0  0  0  0  0  0  0  0  0  0
  153.2168  138.4412  154.6014 C   0  0  0  0  0  0  0  0  0  0  0  0
  154.0074  139.3901  154.4068 O   0  5  0  0  0  0  0  0  0  0  0  0
  152.4366  138.4385  155.9195 C   0  0  0  0  0  0  0  0  0  0  0  0
  151.7431  139.6955  156.1645 N   0  0  0  0  0  0  0  0  0  0  0  0
  150.7076  140.0650  155.2689 C   0  0  0  0  0  0  0  0  0  0  0  0
  150.4746  139.4340  154.2364 O   0  0  0  0  0  0  0  0  0  0  0  0
  149.9509  141.2468  155.6679 C   0  0  0  0  0  0  0  0  0  0  0  0
  148.9508  141.6904  154.8872 F   0  0  0  0  0  0  0  0  0  0  0  0
  150.2329  141.9039  156.8133 C   0  0  0  0  0  0  0  0  0  0  0  0
  151.2415  141.5137  157.6786 N   0  0  0  0  0  0  0  0  0  0  0  0
  151.5347  142.2600  158.9633 C   0  0  1  0  0  0  0  0  0  0  0  0
  152.8797  143.0057  158.8628 C   0  0  0  0  0  0  0  0  0  0  0  0
  152.5129  144.4173  159.2754 C   0  0  0  0  0  0  0  0  0  0  0  0
  151.0590  144.5056  158.8371 C   0  0  0  0  0  0  0  0  0  0  0  0
  150.5481  143.2268  159.1894 O   0  0  0  0  0  0  0  0  0  0  0  0
  152.0185  140.3734  157.3772 C   0  0  0  0  0  0  0  0  0  0  0  0
  152.9054  139.9992  158.1484 O   0  0  0  0  0  0  0  0  0  0  0  0
  151.7055  137.6288  155.9378 H   0  0  0  0  0  0  0  0  0  0  0  0
  153.0958  138.2373  156.7654 H   0  0  0  0  0  0  0  0  0  0  0  0
  149.6292  142.7669  157.0472 H   0  0  0  0  0  0  0  0  0  0  0  0
  151.4965  141.5101  159.7553 H   0  0  0  0  0  0  0  0  0  0  0  0
  153.6295  142.5492  159.5094 H   0  0  0  0  0  0  0  0  0  0  0  0
  153.2437  142.9930  157.8340 H   0  0  0  0  0  0  0  0  0  0  0  0
  152.5835  144.5225  160.3587 H   0  0  0  0  0  0  0  0  0  0  0  0
  153.1458  145.1757  158.8138 H   0  0  0  0  0  0  0  0  0  0  0  0
  150.5148  145.3074  159.3363 H   0  0  0  0  0  0  0  0  0  0  0  0
  150.9868  144.6572  157.7592 H   0  0  0  0  0  0  0  0  0  0  0  0
  1  2  2  0  0  0  0
  2  3  1  0  0  0  0
  2  4  1  0  0  0  0
  4  5  1  0  0  0  0
  4 19  1  0  0  0  0
  4 20  1  0  0  0  0
  5 17  1  0  0  0  0
  5  6  1  0  0  0  0
  6  7  2  0  0  0  0
  6  8  1  0  0  0  0
  8  9  1  0  0  0  0
  8 10  2  0  0  0  0
 10 11  1  0  0  0  0
 10 21  1  0  0  0  0
 11 12  1  0  0  0  0
 11 17  1  0  0  0  0
 12 16  1  0  0  0  0
 12 13  1  0  0  0  0
 12 22  1  0  0  0  0
 13 14  1  0  0  0  0
 13 23  1  0  0  0  0
 13 24  1  0  0  0  0
 14 15  1  0  0  0  0
 14 25  1  0  0  0  0
 14 26  1  0  0  0  0
 15 16  1  0  0  0  0
 15 27  1  0  0  0  0
 15 28  1  0  0  0  0
 17 18  2  0  0  0  0
M  CHG  1   3  -1
M  END
> <s_m_source_file>
AV-unprocessed.smi

> <i_m_source_file_index>
127

> <i_lp_mmshare_version>
43012

> <i_f3d_flags>
0

> <s_epik_input>
Tz1DKFtPSF0pW0NIMl1uMWMoPU8pYyhGKVtjSF1uKGMxPU8pW0NAQEhdMltDSDJdW0NIMl1bQ0gyXU8y

> <s_epik_cmdline>
J2VwaWtfcHl0aG9uJywgJy1waCcsICc3LjAnLCAnLXRuJywgJzgnLCAnLW1hJywgJzIwMCcsICctbWV0YWxfYmluZGluZycsICctaW1hZScsICc8aW5maWxlLm1hZT4nLCAnLW9tYWUnLCAnPG91dGZpbGUubWFlPic=

> <r_lp_tautomer_probability>
1

> <r_epik_Ionization_Penalty>
0.00125813

> <r_epik_Ionization_Penalty_Charging>
0.00125813

> <r_epik_Ionization_Penalty_Neutral>
6.20402e-12

> <r_epik_State_Penalty>
0.000832915

> <r_epik_Charging_Adjusted_Penalty>
0.00209104

> <i_epik_Tot_Q>
-1

> <i_epik_Tot_abs_Q>
1

> <r_epik_Metal_State_Penalty>
-0

> <b_epik_Metal_Only>
0

> <s_epik_Chemistry_Notes>
This compound contains an acetal/aminal-like group ( X-CH(R)-Y where X, Y are N, S, or O) that may be acid/base labile, releasing an aldehyde.

> <s_lp_Force_Field>
OPLS_2005

> <r_lp_Energy>
23.1331

> <b_lp_Chiralities_Consistent>
1

> <s_lp_Variant>
AV-unprocessed.smi:127-2

> <Gold.Version>
5.8.1

> <Gold.Id.Protein>
6NUR|6NUR_protein|mol2

> <Gold.PLP.Fitness>
50.9900

> <Gold.PLP.PLP>
-36.3115

> <Gold.PLP.part.hbond>
-4.0110

> <Gold.PLP.part.metal>
0.0000

> <Gold.PLP.part.buried>
0.1366

> <Gold.PLP.part.nonpolar>
-32.4735

> <Gold.PLP.part.repulsive>
0.3829

> <Gold.PLP.ligand.clash>
0.0000

> <Gold.PLP.ligand.torsion>
0.2465

> <Gold.PLP.Chemscore.Hbond>
4.0424

> <Gold.PLP.Chemscore.CHOScore>
1.0000

> <Gold.PLP.Chemscore.Metal>
0.0000

> <Gold.Chemscore.Hbonds>
donor molecule, donor type, donor heavy atom, donor atom, acceptor molecule, acceptor atom, score
      P1  H  7989  7998       L1     7  0.05
      P1  H  7997  8009       L1    18  0.90
      P1  H  7997  8010       L1     3  1.98
      P1  H 10752 10765       L1     1  1.06
      L1  C    10    21       P1  8028  1.00

> <Gold.PLP.Chemscore.Internal.Correction>
0.0442

> <Gold.Rescore>
     Score         DG    S(hbond)    S(metal)    S(lipo)     H(rot)  DE(clash)    DE(int)     intcor
     12.77     -14.61       2.27        0.00      58.72       2.08       0.51       1.32       ----

> <Gold.Chemscore.Fitness>
12.7679

> <Gold.Chemscore.DG>
-14.6051

> <Gold.Chemscore.ZeroCoef>
-5.4800

> <Gold.Chemscore.Hbond>
2.2666

> <Gold.Chemscore.Metal>
0.0000

> <Gold.Chemscore.Lipo>
58.7228

> <Gold.Chemscore.Internal_Hbond>
0.0000

> <Gold.Chemscore.DEClash>
0.5125

> <Gold.Chemscore.DEInternal>
1.3247

> <Gold.Chemscore.Rot>
2.0765

> <Gold.Chemscore.Internal.Correction>
   9.000000E+99

> <Gold.Chemscore.Hbonds>
donor molecule, donor type, donor heavy atom, donor atom, acceptor molecule, acceptor atom, score
      P1  H  7997  8009       L1    18  0.54
      P1  H  7997  8010       L1     3  0.94
      P1  H 10752 10765       L1     1  0.54

> <Gold.Chemscore.Hbond.Weighted>
-7.5704

> <Gold.Chemscore.Metal.Weighted>
-0.0000

> <Gold.Chemscore.Lipo.Weighted>
-6.8706

> <Gold.Chemscore.Internal_Hbond.Weighted>
0.0000

> <Gold.Chemscore.DEClash.Weighted>
0.5125

> <Gold.Chemscore.DEInternal.Weighted>
1.3247

> <Gold.Chemscore.Rot.Weighted>
5.3159

> <Gold.Chemscore.Internal.Correction.Weighted>
   9.000000E+99

> <Gold.Protein.RotatedTorsions>
[ 6907 6896 6895 6894 ] final   75.05 input  -60.11 | X-H torsion
[ 7974 7965 7964 7962 ] final  102.88 input  175.53 | X-H torsion
[ 8008 7997 7996 7995 ] final  146.33 input   59.86 | X-H torsion
[ 10167 10162 10161 10158 ] final -102.98 input  -65.29 | X-H torsion
[ 10718 10713 10712 10709 ] final  -85.89 input   66.30 | X-H torsion
[ 10763 10752 10751 10750 ] final  128.38 input  -60.55 | X-H torsion
[ 11005 11000 10999 10996 ] final -158.53 input  -57.11 | X-H torsion

> <Gold.Protein.ActiveResidues>
 VAL166  LYS551  ARG553  GLY616  TRP617  ASP618  TYR619  PRO620  LYS621  CYS622 
 ASP623  PHE694  ASN695  SER759  ASP760  ASP761  ALA762  ILE779  LEU786  VAL792 
 PHE793  MET794  SER795  GLU796  ALA797  LYS798  CYS799  TRP800  GLU811  SER814 

> <Gold.Protein.RotatedAtoms>
  152.5006  134.4179  159.9470 H   0  0  0  0  0  0  0  0  0  0  0  0  # atno 6907 bound_to 6896
  151.4151  133.3709  159.2756 H   0  0  0  0  0  0  0  0  0  0  0  0  # atno 6908 bound_to 6896
  150.9263  134.8702  159.7581 H   0  0  0  0  0  0  0  0  0  0  0  0  # atno 6909 bound_to 6896
  145.3532  139.2434  143.3547 H   0  0  0  0  0  0  0  0  0  0  0  0  # atno 7974 bound_to 7965
  156.2858  140.2185  156.5359 H   0  0  0  0  0  0  0  0  0  0  0  0  # atno 8008 bound_to 7997
  154.7410  140.0487  157.0833 H   0  0  0  0  0  0  0  0  0  0  0  0  # atno 8009 bound_to 7997
  155.0230  140.3126  155.4789 H   0  0  0  0  0  0  0  0  0  0  0  0  # atno 8010 bound_to 7997
  140.2248  143.3649  152.0938 H   0  0  0  0  0  0  0  0  0  0  0  0  # atno 10167 bound_to 10162
  155.9993  130.4746  150.4632 H   0  0  0  0  0  0  0  0  0  0  0  0  # atno 10718 bound_to 10713
  153.7247  135.3248  155.3274 H   0  0  0  0  0  0  0  0  0  0  0  0  # atno 10763 bound_to 10752
  154.8345  135.4508  154.1182 H   0  0  0  0  0  0  0  0  0  0  0  0  # atno 10764 bound_to 10752
  153.2312  135.6960  153.7968 H   0  0  0  0  0  0  0  0  0  0  0  0  # atno 10765 bound_to 10752
  140.6525  134.4435  157.5235 H   0  0  0  0  0  0  0  0  0  0  0  0  # atno 11005 bound_to 11000
  146.2959  140.4152  142.8722 LP  0  0  0  0  0  0  0  0  0  0  0  0  # atno 17320 bound_to 7965
  144.8702  140.7261  143.6052 LP  0  0  0  0  0  0  0  0  0  0  0  0  # atno 17321 bound_to 7965
  139.5131  144.6927  151.5716 LP  0  0  0  0  0  0  0  0  0  0  0  0  # atno 17342 bound_to 10162
  140.6228  143.9225  150.6540 LP  0  0  0  0  0  0  0  0  0  0  0  0  # atno 17343 bound_to 10162
  157.2654  131.0576  151.2294 LP  0  0  0  0  0  0  0  0  0  0  0  0  # atno 17370 bound_to 10713
  157.3393  130.7025  149.6372 LP  0  0  0  0  0  0  0  0  0  0  0  0  # atno 17371 bound_to 10713
  139.9041  134.8490  156.1777 LP  0  0  0  0  0  0  0  0  0  0  0  0  # atno 17394 bound_to 11000
  141.0526  133.6881  156.1800 LP  0  0  0  0  0  0  0  0  0  0  0  0  # atno 17395 bound_to 11000

$$$$
