AV-unprocessed.smi:1350|AV-procd|sdf|5521|dock10
  -GOLD-   22720 5113D 1   1.00000     0.00000
 Structure written by MMmdl.
 43 45  0  0  0  0  0  0  0  0  1 V2000
  142.9067  142.3435  157.0523 C   0  0  0  0  0  0  0  0  0  0  0  0
  144.0242  142.2680  156.1799 O   0  0  0  0  0  0  0  0  0  0  0  0
  144.1304  143.2010  155.1683 C   0  0  0  0  0  0  0  0  0  0  0  0
  143.2820  144.3321  155.0521 C   0  0  0  0  0  0  0  0  0  0  0  0
  143.4498  145.2478  153.9960 C   0  0  0  0  0  0  0  0  0  0  0  0
  144.4648  145.0481  153.0435 C   0  0  0  0  0  0  0  0  0  0  0  0
  145.3116  143.9300  153.1475 C   0  0  0  0  0  0  0  0  0  0  0  0
  145.1464  143.0069  154.2017 C   0  0  0  0  0  0  0  0  0  0  0  0
  146.0732  141.8082  154.2991 C   0  0  0  0  0  0  0  0  0  0  0  0
  147.4309  142.2091  154.3802 O   0  0  0  0  0  0  0  0  0  0  0  0
  148.3159  141.2976  153.7508 C   0  0  0  0  0  0  0  0  0  0  0  0
  149.3195  140.7825  154.7942 C   0  0  1  0  0  0  0  0  0  0  0  0
  150.3687  140.1189  154.1172 O   0  0  0  0  0  0  0  0  0  0  0  0
  149.9108  141.9273  155.6392 C   0  0  0  0  0  0  0  0  0  0  0  0
  150.5882  141.4464  156.8304 N   0  0  0  0  0  0  0  0  0  0  0  0
  150.8208  140.1625  157.1643 C   0  0  0  0  0  0  0  0  0  0  0  0
  151.4593  139.9354  158.3087 N   0  0  0  0  0  0  0  0  0  0  0  0
  151.6670  141.2233  158.7719 C   0  0  0  0  0  0  0  0  0  0  0  0
  152.2984  141.6826  159.9500 C   0  0  0  0  0  0  0  0  0  0  0  0
  152.3961  143.0643  160.2162 C   0  0  0  0  0  0  0  0  0  0  0  0
  151.8657  144.0062  159.3105 C   0  0  0  0  0  0  0  0  0  0  0  0
  151.2318  143.5726  158.1302 C   0  0  0  0  0  0  0  0  0  0  0  0
  151.1348  142.1929  157.8690 C   0  0  0  0  0  0  0  0  0  0  0  0
  142.9661  141.5357  157.7817 H   0  0  0  0  0  0  0  0  0  0  0  0
  141.9679  142.2282  156.5089 H   0  0  0  0  0  0  0  0  0  0  0  0
  142.8937  143.2847  157.6035 H   0  0  0  0  0  0  0  0  0  0  0  0
  142.4929  144.5223  155.7633 H   0  0  0  0  0  0  0  0  0  0  0  0
  142.7986  146.1059  153.9178 H   0  0  0  0  0  0  0  0  0  0  0  0
  144.5939  145.7517  152.2342 H   0  0  0  0  0  0  0  0  0  0  0  0
  146.0889  143.7837  152.4119 H   0  0  0  0  0  0  0  0  0  0  0  0
  145.8163  141.2057  155.1718 H   0  0  0  0  0  0  0  0  0  0  0  0
  145.9173  141.1807  153.4199 H   0  0  0  0  0  0  0  0  0  0  0  0
  147.7753  140.4759  153.2775 H   0  0  0  0  0  0  0  0  0  0  0  0
  148.8499  141.8300  152.9619 H   0  0  0  0  0  0  0  0  0  0  0  0
  148.8226  140.0733  155.4580 H   0  0  0  0  0  0  0  0  0  0  0  0
  150.0438  139.8263  153.2793 H   0  0  0  0  0  0  0  0  0  0  0  0
  150.6120  142.5184  155.0488 H   0  0  0  0  0  0  0  0  0  0  0  0
  149.1196  142.6088  155.9546 H   0  0  0  0  0  0  0  0  0  0  0  0
  150.5029  139.3481  156.5300 H   0  0  0  0  0  0  0  0  0  0  0  0
  152.7091  140.9702  160.6500 H   0  0  0  0  0  0  0  0  0  0  0  0
  152.8816  143.4033  161.1195 H   0  0  0  0  0  0  0  0  0  0  0  0
  151.9464  145.0624  159.5223 H   0  0  0  0  0  0  0  0  0  0  0  0
  150.8272  144.2905  157.4324 H   0  0  0  0  0  0  0  0  0  0  0  0
  1  2  1  0  0  0  0
  1 24  1  0  0  0  0
  1 25  1  0  0  0  0
  1 26  1  0  0  0  0
  2  3  1  0  0  0  0
  3  8  1  0  0  0  0
  3  4  2  0  0  0  0
  4  5  1  0  0  0  0
  4 27  1  0  0  0  0
  5  6  2  0  0  0  0
  5 28  1  0  0  0  0
  6  7  1  0  0  0  0
  6 29  1  0  0  0  0
  7  8  2  0  0  0  0
  7 30  1  0  0  0  0
  8  9  1  0  0  0  0
  9 10  1  0  0  0  0
  9 31  1  0  0  0  0
  9 32  1  0  0  0  0
 10 11  1  0  0  0  0
 11 12  1  0  0  0  0
 11 33  1  0  0  0  0
 11 34  1  0  0  0  0
 12 13  1  0  0  0  0
 12 14  1  0  0  0  0
 12 35  1  0  0  0  0
 13 36  1  0  0  0  0
 14 15  1  0  0  0  0
 14 37  1  0  0  0  0
 14 38  1  0  0  0  0
 15 23  1  0  0  0  0
 15 16  1  0  0  0  0
 16 17  2  0  0  0  0
 16 39  1  0  0  0  0
 17 18  1  0  0  0  0
 18 23  2  0  0  0  0
 18 19  1  0  0  0  0
 19 20  2  0  0  0  0
 19 40  1  0  0  0  0
 20 21  1  0  0  0  0
 20 41  1  0  0  0  0
 21 22  2  0  0  0  0
 21 42  1  0  0  0  0
 22 23  1  0  0  0  0
 22 43  1  0  0  0  0
M  END
> <s_m_source_file>
AV-unprocessed.smi

> <i_m_source_file_index>
1350

> <i_lp_mmshare_version>
43012

> <i_f3d_flags>
0

> <s_epik_input>
W0NIM11PYzFbY0hdW2NIXVtjSF1bY0hdYzFbQ0gyXU9bQ0gyXVtDQEhdKFtPSF0pW0NIMl1uKFtjSF1uMiljKGMyMylbY0hdW2NIXVtjSF1bY0hdMw==

> <s_epik_cmdline>
J2VwaWtfcHl0aG9uJywgJy1waCcsICc3LjAnLCAnLXRuJywgJzgnLCAnLW1hJywgJzIwMCcsICctbWV0YWxfYmluZGluZycsICctaW1hZScsICc8aW5maWxlLm1hZT4nLCAnLW9tYWUnLCAnPG91dGZpbGUubWFlPic=

> <r_lp_tautomer_probability>
1

> <r_epik_Ionization_Penalty>
0.0713119

> <r_epik_Ionization_Penalty_Charging>
0

> <r_epik_Ionization_Penalty_Neutral>
0.0713119

> <r_epik_State_Penalty>
0.06259

> <r_epik_Charging_Adjusted_Penalty>
0.06259

> <i_epik_Tot_Q>
0

> <i_epik_Tot_abs_Q>
0

> <r_epik_Metal_State_Penalty>
6.60119e-05

> <b_epik_Metal_Only>
0

> <s_lp_Force_Field>
OPLS_2005

> <r_lp_Energy>
19.121

> <b_lp_Chiralities_Consistent>
1

> <s_lp_Variant>
AV-unprocessed.smi:1350-2

> <Gold.Version>
5.8.1

> <Gold.Id.Protein>
6NUR|6NUR_protein|mol2

> <Gold.PLP.Fitness>
54.8675

> <Gold.PLP.PLP>
-51.5861

> <Gold.PLP.part.hbond>
-2.0000

> <Gold.PLP.part.metal>
0.0000

> <Gold.PLP.part.buried>
-4.4840

> <Gold.PLP.part.nonpolar>
-45.9975

> <Gold.PLP.part.repulsive>
1.1949

> <Gold.PLP.ligand.clash>
0.0000

> <Gold.PLP.ligand.torsion>
0.8861

> <Gold.PLP.Chemscore.Hbond>
1.6240

> <Gold.PLP.Chemscore.CHOScore>
0.0000

> <Gold.PLP.Chemscore.Metal>
0.0000

> <Gold.Chemscore.Hbonds>
donor molecule, donor type, donor heavy atom, donor atom, acceptor molecule, acceptor atom, score
      L1  H    13    36       P1  7957  0.65
      P1  H  7989  7998       L1    13  0.65

> <Gold.PLP.Chemscore.Internal.Correction>
0.1817

> <Gold.Rescore>
     Score         DG    S(hbond)    S(metal)    S(lipo)     H(rot)  DE(clash)    DE(int)     intcor
     17.10     -19.42       1.43        0.00     135.88       2.63       0.18       2.14       ----

> <Gold.Chemscore.Fitness>
17.1009

> <Gold.Chemscore.DG>
-19.4217

> <Gold.Chemscore.ZeroCoef>
-5.4800

> <Gold.Chemscore.Hbond>
1.4308

> <Gold.Chemscore.Metal>
0.0000

> <Gold.Chemscore.Lipo>
135.8770

> <Gold.Chemscore.Internal_Hbond>
0.0000

> <Gold.Chemscore.DEClash>
0.1819

> <Gold.Chemscore.DEInternal>
2.1390

> <Gold.Chemscore.Rot>
2.6308

> <Gold.Chemscore.Internal.Correction>
   9.000000E+99

> <Gold.Chemscore.Hbonds>
donor molecule, donor type, donor heavy atom, donor atom, acceptor molecule, acceptor atom, score
      L1  H    13    36       P1  7957  0.63
      P1  H  7989  7998       L1    13  0.05

> <Gold.Chemscore.Hbond.Weighted>
-4.7789

> <Gold.Chemscore.Metal.Weighted>
-0.0000

> <Gold.Chemscore.Lipo.Weighted>
-15.8976

> <Gold.Chemscore.Internal_Hbond.Weighted>
0.0000

> <Gold.Chemscore.DEClash.Weighted>
0.1819

> <Gold.Chemscore.DEInternal.Weighted>
2.1390

> <Gold.Chemscore.Rot.Weighted>
6.7347

> <Gold.Chemscore.Internal.Correction.Weighted>
   9.000000E+99

> <Gold.Protein.RotatedTorsions>
[ 6907 6896 6895 6894 ] final  -48.44 input  -60.11 | X-H torsion
[ 7974 7965 7964 7962 ] final -173.18 input  175.53 | X-H torsion
[ 8008 7997 7996 7995 ] final  -86.56 input   59.86 | X-H torsion
[ 10167 10162 10161 10158 ] final -129.94 input  -65.29 | X-H torsion
[ 10718 10713 10712 10709 ] final   62.41 input   66.30 | X-H torsion
[ 10763 10752 10751 10750 ] final   50.62 input  -60.55 | X-H torsion
[ 11005 11000 10999 10996 ] final   83.14 input  -57.11 | X-H torsion

> <Gold.Protein.ActiveResidues>
 VAL166  LYS551  ARG553  GLY616  TRP617  ASP618  TYR619  PRO620  LYS621  CYS622 
 ASP623  PHE694  ASN695  SER759  ASP760  ASP761  ALA762  ILE779  LEU786  VAL792 
 PHE793  MET794  SER795  GLU796  ALA797  LYS798  CYS799  TRP800  GLU811  SER814 

> <Gold.Protein.RotatedAtoms>
  150.8905  134.8309  159.7289 H   0  0  0  0  0  0  0  0  0  0  0  0  # atno 6907 bound_to 6896
  152.4834  134.4655  159.9628 H   0  0  0  0  0  0  0  0  0  0  0  0  # atno 6908 bound_to 6896
  151.4718  133.3528  159.2860 H   0  0  0  0  0  0  0  0  0  0  0  0  # atno 6909 bound_to 6896
  144.7140  140.1660  143.6372 H   0  0  0  0  0  0  0  0  0  0  0  0  # atno 7974 bound_to 7965
  154.6533  140.0577  156.9980 H   0  0  0  0  0  0  0  0  0  0  0  0  # atno 8008 bound_to 7997
  155.1338  140.3259  155.4449 H   0  0  0  0  0  0  0  0  0  0  0  0  # atno 8009 bound_to 7997
  156.2586  140.1976  156.6456 H   0  0  0  0  0  0  0  0  0  0  0  0  # atno 8010 bound_to 7997
  139.9346  143.6233  152.2520 H   0  0  0  0  0  0  0  0  0  0  0  0  # atno 10167 bound_to 10162
  157.5898  130.9048  149.9584 H   0  0  0  0  0  0  0  0  0  0  0  0  # atno 10718 bound_to 10713
  152.9784  135.5873  154.4282 H   0  0  0  0  0  0  0  0  0  0  0  0  # atno 10763 bound_to 10752
  154.3898  135.2767  155.2163 H   0  0  0  0  0  0  0  0  0  0  0  0  # atno 10764 bound_to 10752
  154.4041  135.6097  153.5968 H   0  0  0  0  0  0  0  0  0  0  0  0  # atno 10765 bound_to 10752
  139.9040  134.8123  156.2269 H   0  0  0  0  0  0  0  0  0  0  0  0  # atno 11005 bound_to 11000
  145.8987  139.2417  143.1506 LP  0  0  0  0  0  0  0  0  0  0  0  0  # atno 17320 bound_to 7965
  145.9832  140.8665  143.0104 LP  0  0  0  0  0  0  0  0  0  0  0  0  # atno 17321 bound_to 7965
  139.6754  144.7659  151.1705 LP  0  0  0  0  0  0  0  0  0  0  0  0  # atno 17342 bound_to 10162
  140.7628  143.5802  150.8903 LP  0  0  0  0  0  0  0  0  0  0  0  0  # atno 17343 bound_to 10162
  156.0952  130.3660  150.0320 LP  0  0  0  0  0  0  0  0  0  0  0  0  # atno 17370 bound_to 10713
  156.8445  130.9437  151.3630 LP  0  0  0  0  0  0  0  0  0  0  0  0  # atno 17371 bound_to 10713
  141.0370  133.6958  156.1530 LP  0  0  0  0  0  0  0  0  0  0  0  0  # atno 17394 bound_to 11000
  140.7012  134.4562  157.5586 LP  0  0  0  0  0  0  0  0  0  0  0  0  # atno 17395 bound_to 11000

$$$$
