AV-unprocessed.smi:260|AV-procd|sdf|1977|dock1
  -GOLD-   2262021143D 1   1.00000     0.00000
 Structure written by MMmdl.
 53 56  0  0  0  0  0  0  0  0  1 V2000
  153.7599  141.1991  160.3848 C   0  0  0  0  0  0  0  0  0  0  0  0
  152.9079  142.0900  159.6121 N   0  0  0  0  0  0  0  0  0  0  0  0
  152.3439  143.2095  160.0935 C   0  0  0  0  0  0  0  0  0  0  0  0
  152.5155  143.5722  161.2587 O   0  0  0  0  0  0  0  0  0  0  0  0
  151.4542  144.0509  159.1362 C   0  0  1  0  0  0  0  0  0  0  0  0
  150.9597  145.3593  159.7963 C   0  0  0  0  0  0  0  0  0  0  0  0
  152.2106  144.3318  157.8214 C   0  0  0  0  0  0  0  0  0  0  0  0
  151.9619  143.1017  156.9452 C   0  0  0  0  0  0  0  0  0  0  0  0
  150.6797  142.5822  157.3874 N   0  0  0  0  0  0  0  0  0  0  0  0
  150.1482  141.4165  156.9353 C   0  0  0  0  0  0  0  0  0  0  0  0
  148.8231  141.1927  157.1416 N   0  0  0  0  0  0  0  0  0  0  0  0
  148.2486  140.0635  156.7194 C   0  0  0  0  0  0  0  0  0  0  0  0
  148.8034  139.0373  156.0739 N   0  0  0  0  0  0  0  0  0  0  0  0
  150.1314  139.2535  155.8545 C   0  0  0  0  0  0  0  0  0  0  0  0
  150.8789  140.4028  156.2448 C   0  0  0  0  0  0  0  0  0  0  0  0
  152.2022  140.2519  155.8412 N   0  0  0  0  0  0  0  0  0  0  0  0
  152.2351  139.0866  155.2560 C   0  0  0  0  0  0  0  0  0  0  0  0
  151.0347  138.4176  155.2222 N   0  0  0  0  0  0  0  0  0  0  0  0
  150.7898  137.1090  154.6415 C   0  0  0  0  0  0  0  0  0  0  0  0
  150.3055  136.0853  155.6864 C   0  0  1  0  0  0  0  0  0  0  0  0
  148.9367  136.3124  155.9637 O   0  0  0  0  0  0  0  0  0  0  0  0
  150.4807  134.6341  155.2029 C   0  0  2  0  0  0  0  0  0  0  0  0
  149.4810  134.1951  154.1311 C   0  0  0  0  0  0  0  0  0  0  0  0
  149.4074  132.6855  154.3019 C   0  0  0  0  0  0  0  0  0  0  0  0
  150.0525  132.4328  155.6671 C   0  0  0  0  0  0  0  0  0  0  0  0
  150.1983  133.7195  156.2512 O   0  0  0  0  0  0  0  0  0  0  0  0
  150.2571  143.2099  158.6356 C   0  0  0  0  0  0  0  0  0  0  0  0
  154.0874  140.3661  159.7629 H   0  0  0  0  0  0  0  0  0  0  0  0
  153.2214  140.7936  161.2422 H   0  0  0  0  0  0  0  0  0  0  0  0
  154.6452  141.7245  160.7452 H   0  0  0  0  0  0  0  0  0  0  0  0
  152.7324  141.8418  158.6491 H   0  0  0  0  0  0  0  0  0  0  0  0
  150.2962  145.9109  159.1292 H   0  0  0  0  0  0  0  0  0  0  0  0
  151.7873  146.0259  160.0420 H   0  0  0  0  0  0  0  0  0  0  0  0
  150.4005  145.1605  160.7116 H   0  0  0  0  0  0  0  0  0  0  0  0
  151.7909  145.2105  157.3298 H   0  0  0  0  0  0  0  0  0  0  0  0
  153.2752  144.5233  157.9645 H   0  0  0  0  0  0  0  0  0  0  0  0
  151.9471  143.3639  155.8870 H   0  0  0  0  0  0  0  0  0  0  0  0
  152.7365  142.3510  157.1061 H   0  0  0  0  0  0  0  0  0  0  0  0
  147.1933  139.9690  156.9287 H   0  0  0  0  0  0  0  0  0  0  0  0
  153.1422  138.6793  154.8336 H   0  0  0  0  0  0  0  0  0  0  0  0
  150.0610  137.2107  153.8363 H   0  0  0  0  0  0  0  0  0  0  0  0
  151.7165  136.7674  154.1791 H   0  0  0  0  0  0  0  0  0  0  0  0
  150.8635  136.2257  156.6132 H   0  0  0  0  0  0  0  0  0  0  0  0
  148.5322  135.4846  156.1752 H   0  0  0  0  0  0  0  0  0  0  0  0
  151.5012  134.4665  154.8526 H   0  0  0  0  0  0  0  0  0  0  0  0
  148.5006  134.6314  154.3278 H   0  0  0  0  0  0  0  0  0  0  0  0
  149.7850  134.4931  153.1272 H   0  0  0  0  0  0  0  0  0  0  0  0
  148.3727  132.3425  154.2737 H   0  0  0  0  0  0  0  0  0  0  0  0
  149.9555  132.1658  153.5153 H   0  0  0  0  0  0  0  0  0  0  0  0
  149.4521  131.7795  156.3006 H   0  0  0  0  0  0  0  0  0  0  0  0
  151.0376  131.9795  155.5475 H   0  0  0  0  0  0  0  0  0  0  0  0
  149.9517  142.4719  159.3795 H   0  0  0  0  0  0  0  0  0  0  0  0
  149.3905  143.8381  158.4276 H   0  0  0  0  0  0  0  0  0  0  0  0
  1  2  1  0  0  0  0
  1 28  1  0  0  0  0
  1 29  1  0  0  0  0
  1 30  1  0  0  0  0
  2  3  1  0  0  0  0
  2 31  1  0  0  0  0
  3  4  2  0  0  0  0
  3  5  1  0  0  0  0
  5 27  1  0  0  0  0
  5  6  1  0  0  0  0
  5  7  1  0  0  0  0
  6 32  1  0  0  0  0
  6 33  1  0  0  0  0
  6 34  1  0  0  0  0
  7  8  1  0  0  0  0
  7 35  1  0  0  0  0
  7 36  1  0  0  0  0
  8  9  1  0  0  0  0
  8 37  1  0  0  0  0
  8 38  1  0  0  0  0
  9 10  1  0  0  0  0
  9 27  1  0  0  0  0
 10 15  1  0  0  0  0
 10 11  2  0  0  0  0
 11 12  1  0  0  0  0
 12 13  2  0  0  0  0
 12 39  1  0  0  0  0
 13 14  1  0  0  0  0
 14 18  1  0  0  0  0
 14 15  2  0  0  0  0
 15 16  1  0  0  0  0
 16 17  2  0  0  0  0
 17 18  1  0  0  0  0
 17 40  1  0  0  0  0
 18 19  1  0  0  0  0
 19 20  1  0  0  0  0
 19 41  1  0  0  0  0
 19 42  1  0  0  0  0
 20 21  1  0  0  0  0
 20 22  1  0  0  0  0
 20 43  1  0  0  0  0
 21 44  1  0  0  0  0
 22 26  1  0  0  0  0
 22 23  1  0  0  0  0
 22 45  1  0  0  0  0
 23 24  1  0  0  0  0
 23 46  1  0  0  0  0
 23 47  1  0  0  0  0
 24 25  1  0  0  0  0
 24 48  1  0  0  0  0
 24 49  1  0  0  0  0
 25 26  1  0  0  0  0
 25 50  1  0  0  0  0
 25 51  1  0  0  0  0
 27 52  1  0  0  0  0
 27 53  1  0  0  0  0
M  END
> <s_m_source_file>
AV-unprocessed.smi

> <i_m_source_file_index>
260

> <i_lp_mmshare_version>
43012

> <i_f3d_flags>
0

> <s_epik_input>
W0NIM11bTkhdQyg9TylbQ0BAXTEoW0NIM10pW0NIMl1bQ0gyXU4oW0NIMl0xKWMobltjSF1uMiljKGMyMyluW2NIXW4zW0NIMl1bQ0BIXShbT0hdKVtDQEBIXTRbQ0gyXVtDSDJdW0NIMl1PNA==

> <s_epik_cmdline>
J2VwaWtfcHl0aG9uJywgJy1waCcsICc3LjAnLCAnLXRuJywgJzgnLCAnLW1hJywgJzIwMCcsICctbWV0YWxfYmluZGluZycsICctaW1hZScsICc8aW5maWxlLm1hZT4nLCAnLW9tYWUnLCAnPG91dGZpbGUubWFlPic=

> <r_lp_tautomer_probability>
1

> <r_epik_Ionization_Penalty>
0.00115068

> <r_epik_Ionization_Penalty_Charging>
0

> <r_epik_Ionization_Penalty_Neutral>
0.00115068

> <r_epik_State_Penalty>
0.000668876

> <r_epik_Charging_Adjusted_Penalty>
0.000668876

> <i_epik_Tot_Q>
0

> <i_epik_Tot_abs_Q>
0

> <r_epik_Metal_State_Penalty>
-0

> <b_epik_Metal_Only>
0

> <s_lp_Force_Field>
OPLS_2005

> <r_lp_Energy>
48.4888

> <b_lp_Chiralities_Consistent>
1

> <s_lp_Variant>
AV-unprocessed.smi:260-3

> <Gold.Version>
5.8.1

> <Gold.Id.Protein>
6NUR|6NUR_protein|mol2

> <Gold.PLP.Fitness>
46.1458

> <Gold.PLP.PLP>
-46.1641

> <Gold.PLP.part.hbond>
-1.0341

> <Gold.PLP.part.metal>
0.0000

> <Gold.PLP.part.buried>
-6.4887

> <Gold.PLP.part.nonpolar>
-39.8666

> <Gold.PLP.part.repulsive>
0.2372

> <Gold.PLP.ligand.clash>
0.0000

> <Gold.PLP.ligand.torsion>
0.6931

> <Gold.PLP.Chemscore.Hbond>
0.3738

> <Gold.PLP.Chemscore.CHOScore>
0.0000

> <Gold.PLP.Chemscore.Metal>
0.0000

> <Gold.Chemscore.Hbonds>
donor molecule, donor type, donor heavy atom, donor atom, acceptor molecule, acceptor atom, score
      P1  H  7997  8008       L1    16  0.32

> <Gold.PLP.Chemscore.Internal.Correction>
0.2465

> <Gold.Rescore>
     Score         DG    S(hbond)    S(metal)    S(lipo)     H(rot)  DE(clash)    DE(int)     intcor
      7.86     -10.52       0.00        0.00      98.37       2.53       0.43       2.24       ----

> <Gold.Chemscore.Fitness>
7.8577

> <Gold.Chemscore.DG>
-10.5234

> <Gold.Chemscore.ZeroCoef>
-5.4800

> <Gold.Chemscore.Hbond>
0.0000

> <Gold.Chemscore.Metal>
0.0000

> <Gold.Chemscore.Lipo>
98.3733

> <Gold.Chemscore.Internal_Hbond>
0.0000

> <Gold.Chemscore.DEClash>
0.4300

> <Gold.Chemscore.DEInternal>
2.2357

> <Gold.Chemscore.Rot>
2.5259

> <Gold.Chemscore.Internal.Correction>
   9.000000E+99

> <Gold.Chemscore.Hbonds>
donor molecule, donor type, donor heavy atom, donor atom, acceptor molecule, acceptor atom, score
      P1  H  7997  8008       L1    16  0.01

> <Gold.Chemscore.Hbond.Weighted>
-0.0001

> <Gold.Chemscore.Metal.Weighted>
-0.0000

> <Gold.Chemscore.Lipo.Weighted>
-11.5097

> <Gold.Chemscore.Internal_Hbond.Weighted>
0.0000

> <Gold.Chemscore.DEClash.Weighted>
0.4300

> <Gold.Chemscore.DEInternal.Weighted>
2.2357

> <Gold.Chemscore.Rot.Weighted>
6.4663

> <Gold.Chemscore.Internal.Correction.Weighted>
   9.000000E+99

> <Gold.Protein.RotatedTorsions>
[ 6907 6896 6895 6894 ] final  157.51 input  -60.11 | X-H torsion
[ 7974 7965 7964 7962 ] final  144.61 input  175.53 | X-H torsion
[ 8008 7997 7996 7995 ] final  -30.17 input   59.86 | X-H torsion
[ 10167 10162 10161 10158 ] final   60.95 input  -65.29 | X-H torsion
[ 10718 10713 10712 10709 ] final -157.81 input   66.30 | X-H torsion
[ 10763 10752 10751 10750 ] final  166.37 input  -60.55 | X-H torsion
[ 11005 11000 10999 10996 ] final -152.19 input  -57.11 | X-H torsion

> <Gold.Protein.ActiveResidues>
 VAL166  LYS551  ARG553  GLY616  TRP617  ASP618  TYR619  PRO620  LYS621  CYS622 
 ASP623  PHE694  ASN695  SER759  ASP760  ASP761  ALA762  ILE779  LEU786  VAL792 
 PHE793  MET794  SER795  GLU796  ALA797  LYS798  CYS799  TRP800  GLU811  SER814 

> <Gold.Protein.RotatedAtoms>
  152.0140  133.3872  159.4231 H   0  0  0  0  0  0  0  0  0  0  0  0  # atno 6907 bound_to 6896
  150.6896  134.3699  159.4996 H   0  0  0  0  0  0  0  0  0  0  0  0  # atno 6908 bound_to 6896
  152.1463  134.9023  160.0601 H   0  0  0  0  0  0  0  0  0  0  0  0  # atno 6909 bound_to 6896
  144.8821  139.5683  143.5838 H   0  0  0  0  0  0  0  0  0  0  0  0  # atno 7974 bound_to 7965
  154.4261  140.1798  156.1365 H   0  0  0  0  0  0  0  0  0  0  0  0  # atno 8008 bound_to 7997
  156.0026  140.3358  155.6836 H   0  0  0  0  0  0  0  0  0  0  0  0  # atno 8009 bound_to 7997
  155.6222  140.0661  157.2665 H   0  0  0  0  0  0  0  0  0  0  0  0  # atno 8010 bound_to 7997
  140.1600  144.4380  150.6714 H   0  0  0  0  0  0  0  0  0  0  0  0  # atno 10167 bound_to 10162
  156.5454  130.8582  151.2762 H   0  0  0  0  0  0  0  0  0  0  0  0  # atno 10718 bound_to 10713
  154.3379  135.2754  155.2438 H   0  0  0  0  0  0  0  0  0  0  0  0  # atno 10763 bound_to 10752
  154.4721  135.5880  153.6332 H   0  0  0  0  0  0  0  0  0  0  0  0  # atno 10764 bound_to 10752
  152.9860  135.6090  154.3578 H   0  0  0  0  0  0  0  0  0  0  0  0  # atno 10765 bound_to 10752
  140.7215  134.3722  157.5182 H   0  0  0  0  0  0  0  0  0  0  0  0  # atno 11005 bound_to 11000
  146.3001  139.7400  142.9097 LP  0  0  0  0  0  0  0  0  0  0  0  0  # atno 17320 bound_to 7965
  145.3935  141.0375  143.3110 LP  0  0  0  0  0  0  0  0  0  0  0  0  # atno 17321 bound_to 7965
  140.6649  143.2264  151.5767 LP  0  0  0  0  0  0  0  0  0  0  0  0  # atno 17342 bound_to 10162
  139.5385  144.2712  152.1303 LP  0  0  0  0  0  0  0  0  0  0  0  0  # atno 17343 bound_to 10162
  157.7397  130.9837  150.2333 LP  0  0  0  0  0  0  0  0  0  0  0  0  # atno 17370 bound_to 10713
  156.2933  130.3748  149.7820 LP  0  0  0  0  0  0  0  0  0  0  0  0  # atno 17371 bound_to 10713
  139.8847  134.8958  156.2687 LP  0  0  0  0  0  0  0  0  0  0  0  0  # atno 17394 bound_to 11000
  140.9999  133.7157  156.0945 LP  0  0  0  0  0  0  0  0  0  0  0  0  # atno 17395 bound_to 11000

$$$$
