#       Name:                AV-unprocessed.smi:1356
#       Creating user name   scv26
#       Creation time:       Fri Mar 27 05:13:11 2020


#       File generated by GOLD software.
#

@<TRIPOS>MOLECULE
AV-unprocessed.smi:1356
    46    47     1
SMALL
NO_CHARGES


@<TRIPOS>ATOM
      1 ****        -3.7417   2.4877   2.7244 C.3            1 S1                 0.0000
      2 ****        -2.6834   1.4151   2.8670 C.3            1 S1                 0.0000
      3 ****        -1.3261   1.5746   2.2261 C.3            1 S1                 0.0000
      4 ****        -2.3008   0.5524   1.6786 C.3            1 S1                 0.0000
      5 ****        -1.9956  -0.8883   1.9285 C.2            1 S1                 0.0000
      6 ****        -1.5119  -1.3009   2.9835 O.2            1 S1                 0.0000
      7 ****        -2.2821  -1.6908   0.8923 N.am           1 S1                 0.0000
      8 ****        -2.0399  -3.1320   0.8412 C.3            1 S1                 0.0000
      9 ****        -0.5414  -3.5011   0.7575 C.3            1 S1                 0.0000
     10 ****         0.1953  -2.7988  -0.3878 C.2            1 S1                 0.0000
     11 ****        -0.2298  -2.8827  -1.5401 O.2            1 S1                 0.0000
     12 ****         1.2847  -2.0920  -0.0507 N.am           1 S1                 0.0000
     13 ****         2.0723  -1.2802  -0.9697 C.3            1 S1                 0.0000
     14 ****         1.4129   0.0882  -1.2111 C.3            1 S1                 0.0000
     15 ****         2.2398   0.9703  -2.1268 C.ar           1 S1                 0.0000
     16 ****         3.0560   1.9930  -1.5979 C.ar           1 S1                 0.0000
     17 ****         3.8098   2.7789  -2.4908 C.ar           1 S1                 0.0000
     18 ****         3.7196   2.5131  -3.8708 C.ar           1 S1                 0.0000
     19 ****         2.8766   1.4679  -4.2981 C.ar           1 S1                 0.0000
     20 ****         2.1497   0.7084  -3.4503 N.ar           1 S1                 0.0000
     21 ****        -3.7006   2.9440   1.7349 H              1 S1                 0.0000
     22 ****        -3.5887   3.2656   3.4726 H              1 S1                 0.0000
     23 ****        -4.7326   2.0565   2.8679 H              1 S1                 0.0000
     24 ****        -2.6894   0.9377   3.8456 H              1 S1                 0.0000
     25 ****        -1.1441   2.4570   1.6162 H              1 S1                 0.0000
     26 ****        -0.4634   1.2209   2.7882 H              1 S1                 0.0000
     27 ****        -2.7644   0.7908   0.7222 H              1 S1                 0.0000
     28 ****        -2.6774  -1.2690   0.0642 H              1 S1                 0.0000
     29 ****        -2.4913  -3.6070   1.7135 H              1 S1                 0.0000
     30 ****        -2.5669  -3.5292  -0.0269 H              1 S1                 0.0000
     31 ****        -0.0516  -3.2707   1.7048 H              1 S1                 0.0000
     32 ****        -0.4393  -4.5779   0.6202 H              1 S1                 0.0000
     33 ****         1.5633  -2.0832   0.9201 H              1 S1                 0.0000
     34 ****         3.0628  -1.1425  -0.5351 H              1 S1                 0.0000
     35 ****         2.2166  -1.8108  -1.9124 H              1 S1                 0.0000
     36 ****         0.4221  -0.0406  -1.6498 H              1 S1                 0.0000
     37 ****         1.2602   0.6008  -0.2602 H              1 S1                 0.0000
     38 ****         3.1054   2.1714  -0.5339 H              1 S1                 0.0000
     39 ****         4.4459   3.5708  -2.1238 H              1 S1                 0.0000
     40 ****         4.2834   3.0953  -4.5846 H              1 S1                 0.0000
     41 ****         2.7840   1.2353  -5.3486 H              1 S1                 0.0000
     42 ****        -1.3048  -0.6602   3.7229 LP             1 S1                 0.0000
     43 ****        -1.3262  -2.2765   3.1006 LP             1 S1                 0.0000
     44 ****        -1.0577  -3.4101  -1.7304 LP             1 S1                 0.0000
     45 ****         0.2529  -2.4233  -2.2858 LP             1 S1                 0.0000
     46 ****         1.5625  -0.0256  -3.7912 LP             1 S1                 0.0000
@<TRIPOS>BOND
    1    1    2 1     
    2    1   21 1     
    3    1   22 1     
    4    1   23 1     
    5    2    4 1     
    6    2    3 1     
    7    2   24 1     
    8    3    4 1     
    9    3   25 1     
   10    3   26 1     
   11    4    5 1     
   12    4   27 1     
   13    5    6 2     
   14    5    7 am    
   15    7    8 1     
   16    7   28 1     
   17    8    9 1     
   18    8   29 1     
   19    8   30 1     
   20    9   10 1     
   21    9   31 1     
   22    9   32 1     
   23   10   11 2     
   24   10   12 am    
   25   12   13 1     
   26   12   33 1     
   27   13   14 1     
   28   13   34 1     
   29   13   35 1     
   30   14   15 1     
   31   14   36 1     
   32   14   37 1     
   33   15   20 ar    
   34   15   16 ar    
   35   16   17 ar    
   36   16   38 1     
   37   17   18 ar    
   38   17   39 1     
   39   18   19 ar    
   40   18   40 1     
   41   19   20 ar    
   42   19   41 1     
   43    6   42 1     
   44    6   43 1     
   45   11   44 1     
   46   11   45 1     
   47   20   46 1     
@<TRIPOS>SUBSTRUCTURE
      1 S1             1
@<TRIPOS>SET
LONE_PAIRS      STATIC     ATOMS    <user>   **** ""
5 42 43 44 45 46
DONOR_HYDROGENS      STATIC     ATOMS    <user>   **** ""
2 28 33
ATOM$BLUE        STATIC     ATOMS    COLORGROUP SYSTEM
5 42 43 44 45 46
ATOM$RED        STATIC     ATOMS    COLORGROUP SYSTEM
2 28 33
