AV-unprocessed.smi:1726|AV-procd|sdf|6957|dock2
  -GOLD-   22720 8173D 1   1.00000     0.00000
 Structure written by MMmdl.
 43 44  0  0  0  0  0  0  0  0  2 V2000
  146.9818  134.9561  153.9536 C   0  0  0  0  0  0  0  0  0  0  0  0
  146.2941  136.2043  153.3815 C   0  0  0  0  0  0  0  0  0  0  0  0
  147.1839  137.3931  153.3729 N   0  3  1  0  0  0  0  0  0  0  0  0
  146.4808  138.6153  152.9034 C   0  0  0  0  0  0  0  0  0  0  0  0
  147.4516  139.8001  152.7700 C   0  0  0  0  0  0  0  0  0  0  0  0
  148.1831  140.0659  154.0918 C   0  0  0  0  0  0  0  0  0  0  0  0
  148.8806  138.7845  154.5732 C   0  0  1  0  0  0  0  0  0  0  0  0
  149.5275  139.0257  155.8598 N   0  0  0  0  0  0  0  0  0  0  0  0
  150.2719  140.0997  156.1602 C   0  0  0  0  0  0  0  0  0  0  0  0
  150.5014  141.0032  155.3568 O   0  0  0  0  0  0  0  0  0  0  0  0
  150.7298  140.0293  157.4236 N   0  0  0  0  0  0  0  0  0  0  0  0
  151.5213  140.9448  158.1381 C   0  0  0  0  0  0  0  0  0  0  0  0
  151.1043  142.1636  158.5711 C   0  0  0  0  0  0  0  0  0  0  0  0
  151.9767  143.0587  159.3133 C   0  0  0  0  0  0  0  0  0  0  0  0
  151.4827  144.3970  159.8408 C   0  0  0  0  0  0  0  0  0  0  0  0
  150.1610  144.5130  159.7050 F   0  0  0  0  0  0  0  0  0  0  0  0
  151.7783  144.5097  161.1352 F   0  0  0  0  0  0  0  0  0  0  0  0
  152.0605  145.4093  159.1939 F   0  0  0  0  0  0  0  0  0  0  0  0
  153.2160  142.6056  159.5784 C   0  0  0  0  0  0  0  0  0  0  0  0
  153.6527  141.3548  159.1365 N   0  0  0  0  0  0  0  0  0  0  0  0
  152.8891  140.4879  158.4343 C   0  0  0  0  0  0  0  0  0  0  0  0
  153.3457  139.3998  158.0849 O   0  0  0  0  0  0  0  0  0  0  0  0
  147.8671  137.6243  154.6736 C   0  0  0  0  0  0  0  0  0  0  0  0
  154.5999  141.0918  159.3671 H   0  0  0  0  0  0  0  0  0  0  0  0
  146.3353  134.0839  153.8523 H   0  0  0  0  0  0  0  0  0  0  0  0
  147.2131  135.0619  155.0130 H   0  0  0  0  0  0  0  0  0  0  0  0
  147.9105  134.7403  153.4249 H   0  0  0  0  0  0  0  0  0  0  0  0
  145.9935  135.9750  152.3582 H   0  0  0  0  0  0  0  0  0  0  0  0
  145.3773  136.4259  153.9298 H   0  0  0  0  0  0  0  0  0  0  0  0
  146.0161  138.4257  151.9350 H   0  0  0  0  0  0  0  0  0  0  0  0
  145.6764  138.8629  153.5983 H   0  0  0  0  0  0  0  0  0  0  0  0
  148.1791  139.5915  151.9844 H   0  0  0  0  0  0  0  0  0  0  0  0
  146.9089  140.6936  152.4594 H   0  0  0  0  0  0  0  0  0  0  0  0
  148.9098  140.8687  153.9603 H   0  0  0  0  0  0  0  0  0  0  0  0
  147.4691  140.4090  154.8419 H   0  0  0  0  0  0  0  0  0  0  0  0
  149.6482  138.5207  153.8425 H   0  0  0  0  0  0  0  0  0  0  0  0
  149.3913  138.3274  156.5765 H   0  0  0  0  0  0  0  0  0  0  0  0
  150.5042  139.1883  157.9351 H   0  0  0  0  0  0  0  0  0  0  0  0
  150.0993  142.5055  158.3875 H   0  0  0  0  0  0  0  0  0  0  0  0
  153.9563  143.1528  160.1433 H   0  0  0  0  0  0  0  0  0  0  0  0
  147.1223  137.8364  155.4426 H   0  0  0  0  0  0  0  0  0  0  0  0
  148.3877  136.7188  154.9825 H   0  0  0  0  0  0  0  0  0  0  0  0
  147.9055  137.2045  152.6916 H   0  0  0  0  0  0  0  0  0  0  0  0
  1  2  1  0  0  0  0
  1 25  1  0  0  0  0
  1 26  1  0  0  0  0
  1 27  1  0  0  0  0
  2  3  1  0  0  0  0
  2 28  1  0  0  0  0
  2 29  1  0  0  0  0
  3 23  1  0  0  0  0
  3  4  1  0  0  0  0
  3 43  1  0  0  0  0
  4  5  1  0  0  0  0
  4 30  1  0  0  0  0
  4 31  1  0  0  0  0
  5  6  1  0  0  0  0
  5 32  1  0  0  0  0
  5 33  1  0  0  0  0
  6  7  1  0  0  0  0
  6 34  1  0  0  0  0
  6 35  1  0  0  0  0
  7  8  1  0  0  0  0
  7 23  1  0  0  0  0
  7 36  1  0  0  0  0
  8  9  1  0  0  0  0
  8 37  1  0  0  0  0
  9 10  2  0  0  0  0
  9 11  1  0  0  0  0
 11 12  1  0  0  0  0
 11 38  1  0  0  0  0
 12 21  1  0  0  0  0
 12 13  2  0  0  0  0
 13 14  1  0  0  0  0
 13 39  1  0  0  0  0
 14 15  1  0  0  0  0
 14 19  2  0  0  0  0
 15 16  1  0  0  0  0
 15 17  1  0  0  0  0
 15 18  1  0  0  0  0
 19 20  1  0  0  0  0
 19 40  1  0  0  0  0
 20 24  1  0  0  0  0
 20 21  1  0  0  0  0
 21 22  2  0  0  0  0
 23 41  1  0  0  0  0
 23 42  1  0  0  0  0
M  CHG  1   3   1
M  END
> <s_m_source_file>
AV-unprocessed.smi

> <i_m_source_file_index>
1726

> <i_lp_mmshare_version>
43012

> <i_f3d_flags>
0

> <s_epik_input>
W0NIM11bQ0gyXU4xW0NIMl1bQ0gyXVtDSDJdW0NASF0oW0NIMl0xKVtOSF1DKD1PKVtOSF1jMltjSF1jKEMoRikoRilGKVtjSF1bbkhdYzI9Tw==

> <s_epik_cmdline>
J2VwaWtfcHl0aG9uJywgJy1waCcsICc3LjAnLCAnLXRuJywgJzgnLCAnLW1hJywgJzIwMCcsICctbWV0YWxfYmluZGluZycsICctaW1hZScsICc8aW5maWxlLm1hZT4nLCAnLW9tYWUnLCAnPG91dGZpbGUubWFlPic=

> <r_lp_tautomer_probability>
1

> <r_epik_Ionization_Penalty>
0.00745721

> <r_epik_Ionization_Penalty_Charging>
0.00743804

> <r_epik_Ionization_Penalty_Neutral>
1.91703e-05

> <r_epik_State_Penalty>
-0

> <r_epik_Charging_Adjusted_Penalty>
0.00743804

> <i_epik_Tot_Q>
1

> <i_epik_Tot_abs_Q>
1

> <r_epik_Metal_State_Penalty>
0.37929

> <b_epik_Metal_Only>
0

> <s_lp_Force_Field>
OPLS_2005

> <r_lp_Energy>
26.7636

> <b_lp_Chiralities_Consistent>
1

> <s_lp_Variant>
AV-unprocessed.smi:1726-1

> <Gold.Version>
5.8.1

> <Gold.Id.Protein>
6NUR|6NUR_protein|mol2

> <Gold.PLP.Fitness>
44.3463

> <Gold.PLP.PLP>
-36.7788

> <Gold.PLP.part.hbond>
-3.0000

> <Gold.PLP.part.metal>
0.0000

> <Gold.PLP.part.buried>
2.0203

> <Gold.PLP.part.nonpolar>
-34.4993

> <Gold.PLP.part.repulsive>
0.2381

> <Gold.PLP.ligand.clash>
0.0000

> <Gold.PLP.ligand.torsion>
1.1839

> <Gold.PLP.Chemscore.Hbond>
3.2877

> <Gold.PLP.Chemscore.CHOScore>
0.0000

> <Gold.PLP.Chemscore.Metal>
0.0000

> <Gold.Chemscore.Hbonds>
donor molecule, donor type, donor heavy atom, donor atom, acceptor molecule, acceptor atom, score
      L1  H     3    43       P1  7948  2.00
      P1  H  7989  7998       L1    10  0.47
      P1  H  7997  8009       L1    22  0.86

> <Gold.PLP.Chemscore.Internal.Correction>
0.0723

> <Gold.Rescore>
     Score         DG    S(hbond)    S(metal)    S(lipo)     H(rot)  DE(clash)    DE(int)     intcor
     13.49     -17.03       1.85        0.00      74.03       1.29       1.17       2.38       ----

> <Gold.Chemscore.Fitness>
13.4878

> <Gold.Chemscore.DG>
-17.0325

> <Gold.Chemscore.ZeroCoef>
-5.4800

> <Gold.Chemscore.Hbond>
1.8531

> <Gold.Chemscore.Metal>
0.0000

> <Gold.Chemscore.Lipo>
74.0284

> <Gold.Chemscore.Internal_Hbond>
0.0000

> <Gold.Chemscore.DEClash>
1.1691

> <Gold.Chemscore.DEInternal>
2.3755

> <Gold.Chemscore.Rot>
1.2884

> <Gold.Chemscore.Internal.Correction>
   9.000000E+99

> <Gold.Chemscore.Hbonds>
donor molecule, donor type, donor heavy atom, donor atom, acceptor molecule, acceptor atom, score
      L1  H     3    43       P1  7948  0.98
      P1  H  7989  7998       L1    10  0.46
      P1  H  7997  8009       L1    22  0.16

> <Gold.Chemscore.Hbond.Weighted>
-6.1895

> <Gold.Chemscore.Metal.Weighted>
-0.0000

> <Gold.Chemscore.Lipo.Weighted>
-8.6613

> <Gold.Chemscore.Internal_Hbond.Weighted>
0.0000

> <Gold.Chemscore.DEClash.Weighted>
1.1691

> <Gold.Chemscore.DEInternal.Weighted>
2.3755

> <Gold.Chemscore.Rot.Weighted>
3.2983

> <Gold.Chemscore.Internal.Correction.Weighted>
   9.000000E+99

> <Gold.Protein.RotatedTorsions>
[ 6907 6896 6895 6894 ] final  134.31 input  -60.11 | X-H torsion
[ 7974 7965 7964 7962 ] final  147.55 input  175.53 | X-H torsion
[ 8008 7997 7996 7995 ] final  133.24 input   59.86 | X-H torsion
[ 10167 10162 10161 10158 ] final -141.10 input  -65.29 | X-H torsion
[ 10718 10713 10712 10709 ] final  170.71 input   66.30 | X-H torsion
[ 10763 10752 10751 10750 ] final   14.41 input  -60.55 | X-H torsion
[ 11005 11000 10999 10996 ] final   14.10 input  -57.11 | X-H torsion

> <Gold.Protein.ActiveResidues>
 VAL166  LYS551  ARG553  GLY616  TRP617  ASP618  TYR619  PRO620  LYS621  CYS622 
 ASP623  PHE694  ASN695  SER759  ASP760  ASP761  ALA762  ILE779  LEU786  VAL792 
 PHE793  MET794  SER795  GLU796  ALA797  LYS798  CYS799  TRP800  GLU811  SER814 

> <Gold.Protein.RotatedAtoms>
  152.3126  133.5769  159.5690 H   0  0  0  0  0  0  0  0  0  0  0  0  # atno 6907 bound_to 6896
  150.7331  134.0129  159.3684 H   0  0  0  0  0  0  0  0  0  0  0  0  # atno 6908 bound_to 6896
  151.8021  135.0706  160.0452 H   0  0  0  0  0  0  0  0  0  0  0  0  # atno 6909 bound_to 6896
  144.8583  139.6043  143.5942 H   0  0  0  0  0  0  0  0  0  0  0  0  # atno 7974 bound_to 7965
  156.2990  140.2526  156.3220 H   0  0  0  0  0  0  0  0  0  0  0  0  # atno 8008 bound_to 7997
  154.9226  140.0400  157.2025 H   0  0  0  0  0  0  0  0  0  0  0  0  # atno 8009 bound_to 7997
  154.8296  140.2873  155.5735 H   0  0  0  0  0  0  0  0  0  0  0  0  # atno 8010 bound_to 7997
  139.8217  143.7564  152.2666 H   0  0  0  0  0  0  0  0  0  0  0  0  # atno 10167 bound_to 10162
  157.0041  131.0185  151.2822 H   0  0  0  0  0  0  0  0  0  0  0  0  # atno 10718 bound_to 10713
  153.1625  135.6798  153.8722 H   0  0  0  0  0  0  0  0  0  0  0  0  # atno 10763 bound_to 10752
  153.8113  135.3142  155.3402 H   0  0  0  0  0  0  0  0  0  0  0  0  # atno 10764 bound_to 10752
  154.7942  135.4817  154.0212 H   0  0  0  0  0  0  0  0  0  0  0  0  # atno 10765 bound_to 10752
  140.4733  134.1008  155.7737 H   0  0  0  0  0  0  0  0  0  0  0  0  # atno 11005 bound_to 11000
  146.2840  139.6954  142.9208 LP  0  0  0  0  0  0  0  0  0  0  0  0  # atno 17320 bound_to 7965
  145.4363  141.0419  143.2882 LP  0  0  0  0  0  0  0  0  0  0  0  0  # atno 17321 bound_to 7965
  139.7745  144.7465  151.0177 LP  0  0  0  0  0  0  0  0  0  0  0  0  # atno 17342 bound_to 10162
  140.7813  143.4609  151.0279 LP  0  0  0  0  0  0  0  0  0  0  0  0  # atno 17343 bound_to 10162
  157.5368  130.8094  149.7981 LP  0  0  0  0  0  0  0  0  0  0  0  0  # atno 17370 bound_to 10713
  156.0160  130.3813  150.2110 LP  0  0  0  0  0  0  0  0  0  0  0  0  # atno 17371 bound_to 10713
  141.1566  133.8871  157.1960 LP  0  0  0  0  0  0  0  0  0  0  0  0  # atno 17394 bound_to 11000
  139.9871  135.0078  156.9889 LP  0  0  0  0  0  0  0  0  0  0  0  0  # atno 17395 bound_to 11000

$$$$
