AV-unprocessed.smi:2110|AV-procd|sdf|8609|dock2
  -GOLD-   2272011353D 1   1.00000     0.00000
 Structure written by MMmdl.
 47 48  0  0  0  0  0  0  0  0  2 V2000
  147.3828  135.6991  162.9827 C   0  0  0  0  0  0  0  0  0  0  0  0
  147.4002  134.4307  162.1198 C   0  0  0  0  0  0  0  0  0  0  0  0
  146.9783  134.7287  160.7421 N   0  0  0  0  0  0  0  0  0  0  0  0
  146.2337  133.6747  160.0340 C   0  0  0  0  0  0  0  0  0  0  0  0
  144.9589  133.2792  160.7923 C   0  0  0  0  0  0  0  0  0  0  0  0
  147.7921  135.9628  159.8358 S   0  0  0  0  0  0  0  0  0  0  0  0
  147.8311  137.1986  160.6333 O   0  0  0  0  0  0  0  0  0  0  0  0
  149.0158  135.3843  159.2610 O   0  0  0  0  0  0  0  0  0  0  0  0
  146.6435  136.1732  158.5631 N   0  0  0  0  0  0  0  0  0  0  0  0
  145.6032  137.2024  158.6285 C   0  0  0  0  0  0  0  0  0  0  0  0
  145.1325  137.6848  157.2675 C   0  0  0  0  0  0  0  0  0  0  0  0
  145.2046  139.0542  156.9396 C   0  0  0  0  0  0  0  0  0  0  0  0
  144.7685  139.4765  155.6704 C   0  0  0  0  0  0  0  0  0  0  0  0
  144.2886  138.5729  154.7898 N   0  3  0  0  0  0  0  0  0  0  0  0
  144.1901  137.2451  155.0459 C   0  0  0  0  0  0  0  0  0  0  0  0
  143.6823  136.4070  154.0282 N   0  0  0  0  0  0  0  0  0  0  0  0
  142.7383  135.3697  154.4422 C   0  0  0  0  0  0  0  0  0  0  0  0
  142.0251  134.7675  153.2197 C   0  0  0  0  0  0  0  0  0  0  0  0
  142.9887  134.3089  152.2787 O   0  0  0  0  0  0  0  0  0  0  0  0
  143.7966  135.3740  151.7925 C   0  0  0  0  0  0  0  0  0  0  0  0
  144.5852  136.0004  152.9548 C   0  0  0  0  0  0  0  0  0  0  0  0
  144.6148  136.7773  156.3156 C   0  0  0  0  0  0  0  0  0  0  0  0
  147.6818  135.4726  164.0061 H   0  0  0  0  0  0  0  0  0  0  0  0
  146.3855  136.1382  163.0180 H   0  0  0  0  0  0  0  0  0  0  0  0
  148.0674  136.4558  162.6010 H   0  0  0  0  0  0  0  0  0  0  0  0
  148.4008  133.9977  162.1023 H   0  0  0  0  0  0  0  0  0  0  0  0
  146.7480  133.6766  162.5616 H   0  0  0  0  0  0  0  0  0  0  0  0
  145.9609  134.0283  159.0395 H   0  0  0  0  0  0  0  0  0  0  0  0
  146.8807  132.8091  159.8870 H   0  0  0  0  0  0  0  0  0  0  0  0
  144.4022  132.5227  160.2391 H   0  0  0  0  0  0  0  0  0  0  0  0
  144.3005  134.1366  160.9316 H   0  0  0  0  0  0  0  0  0  0  0  0
  145.1843  132.8657  161.7752 H   0  0  0  0  0  0  0  0  0  0  0  0
  146.4105  135.3284  158.0414 H   0  0  0  0  0  0  0  0  0  0  0  0
  144.7443  136.7911  159.1586 H   0  0  0  0  0  0  0  0  0  0  0  0
  145.9631  138.0422  159.2226 H   0  0  0  0  0  0  0  0  0  0  0  0
  145.5942  139.7726  157.6461 H   0  0  0  0  0  0  0  0  0  0  0  0
  144.7924  140.5025  155.3327 H   0  0  0  0  0  0  0  0  0  0  0  0
  143.2843  134.5914  154.9764 H   0  0  0  0  0  0  0  0  0  0  0  0
  141.9862  135.7611  155.1268 H   0  0  0  0  0  0  0  0  0  0  0  0
  141.4012  133.9278  153.5261 H   0  0  0  0  0  0  0  0  0  0  0  0
  141.3644  135.5005  152.7540 H   0  0  0  0  0  0  0  0  0  0  0  0
  144.4829  134.9850  151.0403 H   0  0  0  0  0  0  0  0  0  0  0  0
  143.1736  136.1209  151.2975 H   0  0  0  0  0  0  0  0  0  0  0  0
  145.1381  136.8603  152.5761 H   0  0  0  0  0  0  0  0  0  0  0  0
  145.3107  135.2858  153.3457 H   0  0  0  0  0  0  0  0  0  0  0  0
  144.5534  135.7321  156.5783 H   0  0  0  0  0  0  0  0  0  0  0  0
  143.9877  138.9093  153.8748 H   0  0  0  0  0  0  0  0  0  0  0  0
  1  2  1  0  0  0  0
  1 23  1  0  0  0  0
  1 24  1  0  0  0  0
  1 25  1  0  0  0  0
  2  3  1  0  0  0  0
  2 26  1  0  0  0  0
  2 27  1  0  0  0  0
  3  4  1  0  0  0  0
  3  6  1  0  0  0  0
  4  5  1  0  0  0  0
  4 28  1  0  0  0  0
  4 29  1  0  0  0  0
  5 30  1  0  0  0  0
  5 31  1  0  0  0  0
  5 32  1  0  0  0  0
  6  7  2  0  0  0  0
  6  8  2  0  0  0  0
  6  9  1  0  0  0  0
  9 10  1  0  0  0  0
  9 33  1  0  0  0  0
 10 11  1  0  0  0  0
 10 34  1  0  0  0  0
 10 35  1  0  0  0  0
 11 22  1  0  0  0  0
 11 12  2  0  0  0  0
 12 13  1  0  0  0  0
 12 36  1  0  0  0  0
 13 14  2  0  0  0  0
 13 37  1  0  0  0  0
 14 15  1  0  0  0  0
 14 47  1  0  0  0  0
 15 16  1  0  0  0  0
 15 22  2  0  0  0  0
 16 21  1  0  0  0  0
 16 17  1  0  0  0  0
 17 18  1  0  0  0  0
 17 38  1  0  0  0  0
 17 39  1  0  0  0  0
 18 19  1  0  0  0  0
 18 40  1  0  0  0  0
 18 41  1  0  0  0  0
 19 20  1  0  0  0  0
 20 21  1  0  0  0  0
 20 42  1  0  0  0  0
 20 43  1  0  0  0  0
 21 44  1  0  0  0  0
 21 45  1  0  0  0  0
 22 46  1  0  0  0  0
M  CHG  1  14   1
M  END
> <s_m_source_file>
AV-unprocessed.smi

> <i_m_source_file_index>
2110

> <i_lp_mmshare_version>
43012

> <i_f3d_flags>
0

> <s_epik_input>
W0NIM11bQ0gyXU4oW0NIMl1bQ0gzXSlTKD1PKSg9TylbTkhdW0NIMl1jMVtjSF1bY0hdbmMoW2NIXTEpTjJbQ0gyXVtDSDJdT1tDSDJdW0NIMl0y

> <s_epik_cmdline>
J2VwaWtfcHl0aG9uJywgJy1waCcsICc3LjAnLCAnLXRuJywgJzgnLCAnLW1hJywgJzIwMCcsICctbWV0YWxfYmluZGluZycsICctaW1hZScsICc8aW5maWxlLm1hZT4nLCAnLW9tYWUnLCAnPG91dGZpbGUubWFlPic=

> <r_lp_tautomer_probability>
0.999994

> <r_epik_Ionization_Penalty>
1.66934

> <r_epik_Ionization_Penalty_Charging>
1.61364

> <r_epik_Ionization_Penalty_Neutral>
0.0557011

> <r_epik_State_Penalty>
1.67389

> <r_epik_Charging_Adjusted_Penalty>
3.28753

> <i_epik_Tot_Q>
1

> <i_epik_Tot_abs_Q>
1

> <r_epik_Metal_State_Penalty>
4.64949

> <b_epik_Metal_Only>
0

> <s_lp_Force_Field>
OPLS_2005

> <r_lp_Energy>
18.4454

> <b_lp_Chiralities_Consistent>
1

> <s_lp_Variant>
AV-unprocessed.smi:2110-2

> <Gold.Version>
5.8.1

> <Gold.Id.Protein>
6NUR|6NUR_protein|mol2

> <Gold.PLP.Fitness>
37.0296

> <Gold.PLP.PLP>
-24.7849

> <Gold.PLP.part.hbond>
-4.0000

> <Gold.PLP.part.metal>
0.0000

> <Gold.PLP.part.buried>
-4.6817

> <Gold.PLP.part.nonpolar>
-17.0405

> <Gold.PLP.part.repulsive>
0.2850

> <Gold.PLP.ligand.clash>
0.0000

> <Gold.PLP.ligand.torsion>
2.7775

> <Gold.PLP.Chemscore.Hbond>
4.5997

> <Gold.PLP.Chemscore.CHOScore>
0.0000

> <Gold.PLP.Chemscore.Metal>
0.0000

> <Gold.Chemscore.Hbonds>
donor molecule, donor type, donor heavy atom, donor atom, acceptor molecule, acceptor atom, score
      L1  H    14    47       P1 10175  1.62
      P1  H  6896  6907       L1     8  1.00
      P1  H  6931  6943       L1     7  0.79
      P1  H  6934  6947       L1     7  0.85

> <Gold.PLP.Chemscore.Internal.Correction>
4.0008

> <Gold.Rescore>
     Score         DG    S(hbond)    S(metal)    S(lipo)     H(rot)  DE(clash)    DE(int)     intcor
     14.53     -18.01       3.62        0.00      42.57       1.77       0.00       3.48       ----

> <Gold.Chemscore.Fitness>
14.5342

> <Gold.Chemscore.DG>
-18.0110

> <Gold.Chemscore.ZeroCoef>
-5.4800

> <Gold.Chemscore.Hbond>
3.6156

> <Gold.Chemscore.Metal>
0.0000

> <Gold.Chemscore.Lipo>
42.5727

> <Gold.Chemscore.Internal_Hbond>
0.0000

> <Gold.Chemscore.DEClash>
0.0009

> <Gold.Chemscore.DEInternal>
3.4759

> <Gold.Chemscore.Rot>
1.7680

> <Gold.Chemscore.Internal.Correction>
   9.000000E+99

> <Gold.Chemscore.Hbonds>
donor molecule, donor type, donor heavy atom, donor atom, acceptor molecule, acceptor atom, score
      L1  H    14    47       P1 10175  0.77
      P1  H  6896  6907       L1     8  0.99
      P1  H  6931  6943       L1     7  0.73
      P1  H  6934  6947       L1     7  0.82

> <Gold.Chemscore.Hbond.Weighted>
-12.0761

> <Gold.Chemscore.Metal.Weighted>
-0.0000

> <Gold.Chemscore.Lipo.Weighted>
-4.9810

> <Gold.Chemscore.Internal_Hbond.Weighted>
0.0000

> <Gold.Chemscore.DEClash.Weighted>
0.0009

> <Gold.Chemscore.DEInternal.Weighted>
3.4759

> <Gold.Chemscore.Rot.Weighted>
4.5261

> <Gold.Chemscore.Internal.Correction.Weighted>
   9.000000E+99

> <Gold.Protein.RotatedTorsions>
[ 6907 6896 6895 6894 ] final  -56.34 input  -60.11 | X-H torsion
[ 7974 7965 7964 7962 ] final   50.42 input  175.53 | X-H torsion
[ 8008 7997 7996 7995 ] final  -11.44 input   59.86 | X-H torsion
[ 10167 10162 10161 10158 ] final  179.08 input  -65.29 | X-H torsion
[ 10718 10713 10712 10709 ] final -140.22 input   66.30 | X-H torsion
[ 10763 10752 10751 10750 ] final    5.75 input  -60.55 | X-H torsion
[ 11005 11000 10999 10996 ] final   51.06 input  -57.11 | X-H torsion

> <Gold.Protein.ActiveResidues>
 VAL166  LYS551  ARG553  GLY616  TRP617  ASP618  TYR619  PRO620  LYS621  CYS622 
 ASP623  PHE694  ASN695  SER759  ASP760  ASP761  ALA762  ILE779  LEU786  VAL792 
 PHE793  MET794  SER795  GLU796  ALA797  LYS798  CYS799  TRP800  GLU811  SER814 

> <Gold.Protein.RotatedAtoms>
  150.8176  134.7366  159.6743 H   0  0  0  0  0  0  0  0  0  0  0  0  # atno 6907 bound_to 6896
  152.4293  134.5804  159.9956 H   0  0  0  0  0  0  0  0  0  0  0  0  # atno 6908 bound_to 6896
  151.5997  133.3320  159.3081 H   0  0  0  0  0  0  0  0  0  0  0  0  # atno 6909 bound_to 6896
  146.0014  139.4443  143.0013 H   0  0  0  0  0  0  0  0  0  0  0  0  # atno 7974 bound_to 7965
  154.5465  140.2302  155.8555 H   0  0  0  0  0  0  0  0  0  0  0  0  # atno 8008 bound_to 7997
  156.1907  140.3078  155.9289 H   0  0  0  0  0  0  0  0  0  0  0  0  # atno 8009 bound_to 7997
  155.3155  140.0438  157.3027 H   0  0  0  0  0  0  0  0  0  0  0  0  # atno 8010 bound_to 7997
  139.5321  144.2604  152.0712 H   0  0  0  0  0  0  0  0  0  0  0  0  # atno 10167 bound_to 10162
  156.3198  130.7528  151.1623 H   0  0  0  0  0  0  0  0  0  0  0  0  # atno 10718 bound_to 10713
  153.2557  135.6918  153.7631 H   0  0  0  0  0  0  0  0  0  0  0  0  # atno 10763 bound_to 10752
  153.6709  135.3344  155.3154 H   0  0  0  0  0  0  0  0  0  0  0  0  # atno 10764 bound_to 10752
  154.8411  135.4499  154.1530 H   0  0  0  0  0  0  0  0  0  0  0  0  # atno 10765 bound_to 10752
  140.0965  134.5139  155.8803 H   0  0  0  0  0  0  0  0  0  0  0  0  # atno 11005 bound_to 11000
  145.7482  140.9982  143.1264 LP  0  0  0  0  0  0  0  0  0  0  0  0  # atno 17320 bound_to 7965
  144.6920  139.9182  143.7466 LP  0  0  0  0  0  0  0  0  0  0  0  0  # atno 17321 bound_to 7965
  140.2068  144.4602  150.6404 LP  0  0  0  0  0  0  0  0  0  0  0  0  # atno 17342 bound_to 10162
  140.6506  143.2224  151.6087 LP  0  0  0  0  0  0  0  0  0  0  0  0  # atno 17343 bound_to 10162
  157.7409  131.0511  150.5133 LP  0  0  0  0  0  0  0  0  0  0  0  0  # atno 17370 bound_to 10713
  156.5284  130.4178  149.6214 LP  0  0  0  0  0  0  0  0  0  0  0  0  # atno 17371 bound_to 10713
  141.2093  133.6683  156.6432 LP  0  0  0  0  0  0  0  0  0  0  0  0  # atno 17394 bound_to 11000
  140.3280  134.7953  157.4304 LP  0  0  0  0  0  0  0  0  0  0  0  0  # atno 17395 bound_to 11000

$$$$
