#       Name:                AV-unprocessed.smi:2749
#       Creating user name   scv26
#       Creation time:       Fri Mar 27 15:03:49 2020


#       File generated by GOLD software.
#

@<TRIPOS>MOLECULE
AV-unprocessed.smi:2749
    37    39     1
SMALL
NO_CHARGES


@<TRIPOS>ATOM
      1 ****        -2.8102  -1.3768   0.5461 O.2            1 S1                 0.0000
      2 ****        -1.5937  -1.2129   0.6189 C.2            1 S1                 0.0000
      3 ****        -0.7502  -2.2635   0.7051 N.am           1 S1                 0.0000
      4 ****        -0.9990  -3.6675   0.7225 C.ar           1 S1                 0.0000
      5 ****         0.1624  -4.4711   0.6600 C.ar           1 S1                 0.0000
      6 ****         0.0406  -5.8742   0.6849 C.ar           1 S1                 0.0000
      7 ****        -1.2434  -6.4391   0.7781 C.ar           1 S1                 0.0000
      8 ****        -1.4110  -7.7823   0.8062 F              1 S1                 0.0000
      9 ****        -2.3492  -5.5719   0.8427 C.ar           1 S1                 0.0000
     10 ****        -2.2328  -4.2272   0.8173 N.ar           1 S1                 0.0000
     11 ****        -1.0246   0.0027   0.6289 N.am           1 S1                 0.0000
     12 ****        -1.7380   1.2698   0.5078 C.3            1 S1                 0.0000
     13 ****        -0.8652   2.4570   0.9248 C.3            1 S1                 0.0000
     14 ****        -0.8592   3.3123  -0.3492 C.3            1 S1                 0.0000
     15 ****        -0.0056   2.6837  -1.4598 C.3            1 S1                 0.0000
     16 ****        -0.8904   1.5250  -1.9163 C.3            1 S1                 0.0000
     17 ****        -2.0815   1.6417  -0.9498 C.3            1 S1                 0.0000
     18 ****        -2.1637   3.0527  -0.8388 O.3            1 S1                 0.0000
     19 ****         0.2186  -2.0109   0.8344 H              1 S1                 0.0000
     20 ****         1.1421  -4.0203   0.5914 H              1 S1                 0.0000
     21 ****         0.9166  -6.5038   0.6343 H              1 S1                 0.0000
     22 ****        -3.3522  -5.9652   0.9166 H              1 S1                 0.0000
     23 ****        -0.0174   0.0501   0.6918 H              1 S1                 0.0000
     24 ****        -2.6437   1.2564   1.1170 H              1 S1                 0.0000
     25 ****        -1.3328   2.9984   1.7480 H              1 S1                 0.0000
     26 ****         0.1423   2.1764   1.2359 H              1 S1                 0.0000
     27 ****        -0.6467   4.3668  -0.1716 H              1 S1                 0.0000
     28 ****         0.1538   3.3882  -2.2768 H              1 S1                 0.0000
     29 ****         0.9682   2.3542  -1.0959 H              1 S1                 0.0000
     30 ****        -1.2192   1.6850  -2.9437 H              1 S1                 0.0000
     31 ****        -0.3867   0.5590  -1.8754 H              1 S1                 0.0000
     32 ****        -2.9933   1.1718  -1.3195 H              1 S1                 0.0000
     33 ****        -3.1913  -2.3013   0.5501 LP             1 S1                 0.0000
     34 ****        -3.4185  -0.5856   0.4829 LP             1 S1                 0.0000
     35 ****        -3.0471  -3.6488   0.8678 LP             1 S1                 0.0000
     36 ****        -2.3262   3.4897  -1.7235 LP             1 S1                 0.0000
     37 ****        -2.8708   3.3374  -0.1916 LP             1 S1                 0.0000
@<TRIPOS>BOND
    1    1    2 2     
    2    2    3 am    
    3    2   11 am    
    4    3    4 1     
    5    3   19 1     
    6    4   10 ar    
    7    4    5 ar    
    8    5    6 ar    
    9    5   20 1     
   10    6    7 ar    
   11    6   21 1     
   12    7    8 1     
   13    7    9 ar    
   14    9   10 ar    
   15    9   22 1     
   16   11   12 1     
   17   11   23 1     
   18   12   17 1     
   19   12   13 1     
   20   12   24 1     
   21   13   14 1     
   22   13   25 1     
   23   13   26 1     
   24   14   18 1     
   25   14   15 1     
   26   14   27 1     
   27   15   16 1     
   28   15   28 1     
   29   15   29 1     
   30   16   17 1     
   31   16   30 1     
   32   16   31 1     
   33   17   18 1     
   34   17   32 1     
   35    1   33 1     
   36    1   34 1     
   37   10   35 1     
   38   18   36 1     
   39   18   37 1     
@<TRIPOS>SUBSTRUCTURE
      1 S1             1
@<TRIPOS>SET
LONE_PAIRS      STATIC     ATOMS    <user>   **** ""
5 33 34 35 36 37
DONOR_HYDROGENS      STATIC     ATOMS    <user>   **** ""
2 19 23
ATOM$BLUE        STATIC     ATOMS    COLORGROUP SYSTEM
5 33 34 35 36 37
ATOM$RED        STATIC     ATOMS    COLORGROUP SYSTEM
2 19 23
