AV-unprocessed.smi:1019|AV-procd|sdf|4450|dock4
  -GOLD-   22720 2413D 1   1.00000     0.00000
 Structure written by MMmdl.
 45 47  0  0  0  0  0  0  0  0  3 V2000
  147.5869  136.9536  155.1338 C   0  0  0  0  0  0  0  0  0  0  0  0
  147.8011  137.7715  153.9162 N   0  3  2  0  0  0  0  0  0  0  0  0
  148.8041  138.8493  154.1186 C   0  0  0  0  0  0  0  0  0  0  0  0
  148.1561  140.1641  154.5149 C   0  0  0  0  0  0  0  0  0  0  0  0
  147.6547  141.0395  153.5278 C   0  0  0  0  0  0  0  0  0  0  0  0
  147.0500  142.2552  153.9016 C   0  0  0  0  0  0  0  0  0  0  0  0
  146.9463  142.6015  155.2627 C   0  0  0  0  0  0  0  0  0  0  0  0
  147.4486  141.7323  156.2502 C   0  0  0  0  0  0  0  0  0  0  0  0
  148.0535  140.5161  155.8773 C   0  0  0  0  0  0  0  0  0  0  0  0
  146.5195  138.2673  153.3510 C   0  0  0  0  0  0  0  0  0  0  0  0
  145.9972  137.3821  152.2013 C   0  0  1  0  0  0  0  0  0  0  0  0
  146.7135  137.6950  151.0218 O   0  0  0  0  0  0  0  0  0  0  0  0
  146.1679  135.8825  152.5160 C   0  0  0  0  0  0  0  0  0  0  0  0
  145.1708  135.0367  151.8463 N   0  0  0  0  0  0  0  0  0  0  0  0
  144.1319  135.3816  151.0370 C   0  0  0  0  0  0  0  0  0  0  0  0
  143.5022  134.2332  150.6636 N   0  3  0  0  0  0  0  0  0  0  0  0
  144.1484  133.1380  151.2406 C   0  0  0  0  0  0  0  0  0  0  0  0
  143.8832  131.7747  151.1562 C   0  0  0  0  0  0  0  0  0  0  0  0
  144.7447  130.9172  151.8718 C   0  0  0  0  0  0  0  0  0  0  0  0
  145.8185  131.4228  152.6335 C   0  0  0  0  0  0  0  0  0  0  0  0
  146.0776  132.8071  152.7130 C   0  0  0  0  0  0  0  0  0  0  0  0
  145.2219  133.6474  152.0017 C   0  0  0  0  0  0  0  0  0  0  0  0
  147.1604  137.5550  155.9375 H   0  0  0  0  0  0  0  0  0  0  0  0
  148.5194  136.5174  155.4911 H   0  0  0  0  0  0  0  0  0  0  0  0
  146.9064  136.1266  154.9284 H   0  0  0  0  0  0  0  0  0  0  0  0
  149.5042  138.5794  154.9088 H   0  0  0  0  0  0  0  0  0  0  0  0
  149.4017  138.9774  153.2145 H   0  0  0  0  0  0  0  0  0  0  0  0
  147.7281  140.7806  152.4816 H   0  0  0  0  0  0  0  0  0  0  0  0
  146.6650  142.9224  153.1443 H   0  0  0  0  0  0  0  0  0  0  0  0
  146.4824  143.5340  155.5488 H   0  0  0  0  0  0  0  0  0  0  0  0
  147.3701  141.9991  157.2940 H   0  0  0  0  0  0  0  0  0  0  0  0
  148.4361  139.8536  156.6402 H   0  0  0  0  0  0  0  0  0  0  0  0
  145.7566  138.3011  154.1307 H   0  0  0  0  0  0  0  0  0  0  0  0
  146.6515  139.2971  153.0150 H   0  0  0  0  0  0  0  0  0  0  0  0
  144.9428  137.5832  152.0149 H   0  0  0  0  0  0  0  0  0  0  0  0
  146.1220  138.0986  150.4047 H   0  0  0  0  0  0  0  0  0  0  0  0
  147.1531  135.5377  152.1981 H   0  0  0  0  0  0  0  0  0  0  0  0
  146.1094  135.6992  153.5897 H   0  0  0  0  0  0  0  0  0  0  0  0
  143.8556  136.3843  150.7440 H   0  0  0  0  0  0  0  0  0  0  0  0
  143.0620  131.3844  150.5727 H   0  0  0  0  0  0  0  0  0  0  0  0
  144.5790  129.8501  151.8348 H   0  0  0  0  0  0  0  0  0  0  0  0
  146.4572  130.7338  153.1672 H   0  0  0  0  0  0  0  0  0  0  0  0
  146.9027  133.1840  153.2985 H   0  0  0  0  0  0  0  0  0  0  0  0
  148.1844  137.1455  153.2217 H   0  0  0  0  0  0  0  0  0  0  0  0
  142.6921  134.2020  150.0576 H   0  0  0  0  0  0  0  0  0  0  0  0
  1  2  1  0  0  0  0
  1 23  1  0  0  0  0
  1 24  1  0  0  0  0
  1 25  1  0  0  0  0
  2  3  1  0  0  0  0
  2 10  1  0  0  0  0
  2 44  1  0  0  0  0
  3  4  1  0  0  0  0
  3 26  1  0  0  0  0
  3 27  1  0  0  0  0
  4  9  1  0  0  0  0
  4  5  2  0  0  0  0
  5  6  1  0  0  0  0
  5 28  1  0  0  0  0
  6  7  2  0  0  0  0
  6 29  1  0  0  0  0
  7  8  1  0  0  0  0
  7 30  1  0  0  0  0
  8  9  2  0  0  0  0
  8 31  1  0  0  0  0
  9 32  1  0  0  0  0
 10 11  1  0  0  0  0
 10 33  1  0  0  0  0
 10 34  1  0  0  0  0
 11 12  1  0  0  0  0
 11 13  1  0  0  0  0
 11 35  1  0  0  0  0
 12 36  1  0  0  0  0
 13 14  1  0  0  0  0
 13 37  1  0  0  0  0
 13 38  1  0  0  0  0
 14 22  1  0  0  0  0
 14 15  1  0  0  0  0
 15 16  2  0  0  0  0
 15 39  1  0  0  0  0
 16 17  1  0  0  0  0
 16 45  1  0  0  0  0
 17 22  2  0  0  0  0
 17 18  1  0  0  0  0
 18 19  2  0  0  0  0
 18 40  1  0  0  0  0
 19 20  1  0  0  0  0
 19 41  1  0  0  0  0
 20 21  2  0  0  0  0
 20 42  1  0  0  0  0
 21 22  1  0  0  0  0
 21 43  1  0  0  0  0
M  CHG  1   2   1
M  CHG  1  16   1
M  END
> <s_m_source_file>
AV-unprocessed.smi

> <i_m_source_file_index>
1019

> <i_lp_mmshare_version>
43012

> <i_f3d_flags>
0

> <s_epik_input>
W2NIXTFbY0hdW2NIXVtjSF1bY0hdYzFbQ0gyXU4oW0NIM10pW0NIMl1bQ0BIXShbT0hdKVtDSDJdbihbY0hdbjIpYyhjMjMpW2NIXVtjSF1bY0hdW2NIXTM=

> <s_epik_cmdline>
J2VwaWtfcHl0aG9uJywgJy1waCcsICc3LjAnLCAnLXRuJywgJzgnLCAnLW1hJywgJzIwMCcsICctbWV0YWxfYmluZGluZycsICctaW1hZScsICc8aW5maWxlLm1hZT4nLCAnLW9tYWUnLCAnPG91dGZpbGUubWFlPic=

> <r_epik_Ionization_Penalty>
1.5198

> <r_epik_Ionization_Penalty_Charging>
1.5198

> <r_epik_Ionization_Penalty_Neutral>
3.13312e-06

> <r_epik_State_Penalty>
1.624

> <r_epik_Charging_Adjusted_Penalty>
3.1438

> <i_epik_Tot_Q>
2

> <i_epik_Tot_abs_Q>
2

> <r_epik_Metal_State_Penalty>
5.67392

> <b_epik_Metal_Only>
0

> <s_lp_Force_Field>
OPLS_2005

> <r_lp_Energy>
24.6792

> <b_lp_Chiralities_Consistent>
1

> <s_lp_Variant>
AV-unprocessed.smi:1019-8

> <Gold.Version>
5.8.1

> <Gold.Id.Protein>
6NUR|6NUR_protein|mol2

> <Gold.PLP.Fitness>
58.5770

> <Gold.PLP.PLP>
-40.9873

> <Gold.PLP.part.hbond>
-4.7471

> <Gold.PLP.part.metal>
0.0000

> <Gold.PLP.part.buried>
-3.1562

> <Gold.PLP.part.nonpolar>
-33.0086

> <Gold.PLP.part.repulsive>
0.0340

> <Gold.PLP.ligand.clash>
0.0000

> <Gold.PLP.ligand.torsion>
1.7909

> <Gold.PLP.Chemscore.Hbond>
5.9920

> <Gold.PLP.Chemscore.CHOScore>
1.0000

> <Gold.PLP.Chemscore.Metal>
0.0000

> <Gold.Chemscore.Hbonds>
donor molecule, donor type, donor heavy atom, donor atom, acceptor molecule, acceptor atom, score
      L1  H     2    44       P1  7948  2.00
      L1  H    12    36       P1 10171  0.17
      L1  H    16    45       P1 10186  2.00
      P1  H  7954  7966       L1    12  0.65
      L1  C    15    39       P1 10171  1.00

> <Gold.PLP.Chemscore.Internal.Correction>
0.1956

> <Gold.Rescore>
     Score         DG    S(hbond)    S(metal)    S(lipo)     H(rot)  DE(clash)    DE(int)     intcor
     19.37     -23.32       3.78        0.00      98.32       2.46       1.78       2.17       ----

> <Gold.Chemscore.Fitness>
19.3747

> <Gold.Chemscore.DG>
-23.3181

> <Gold.Chemscore.ZeroCoef>
-5.4800

> <Gold.Chemscore.Hbond>
3.7785

> <Gold.Chemscore.Metal>
0.0000

> <Gold.Chemscore.Lipo>
98.3195

> <Gold.Chemscore.Internal_Hbond>
0.0000

> <Gold.Chemscore.DEClash>
1.7765

> <Gold.Chemscore.DEInternal>
2.1669

> <Gold.Chemscore.Rot>
2.4552

> <Gold.Chemscore.Internal.Correction>
   9.000000E+99

> <Gold.Chemscore.Hbonds>
donor molecule, donor type, donor heavy atom, donor atom, acceptor molecule, acceptor atom, score
      L1  H     2    44       P1  7948  1.00
      L1  H    12    36       P1 10171  0.18
      L1  H    16    45       P1 10186  0.95
      P1  H  7954  7966       L1    12  0.06

> <Gold.Chemscore.Hbond.Weighted>
-12.6201

> <Gold.Chemscore.Metal.Weighted>
-0.0000

> <Gold.Chemscore.Lipo.Weighted>
-11.5034

> <Gold.Chemscore.Internal_Hbond.Weighted>
0.0000

> <Gold.Chemscore.DEClash.Weighted>
1.7765

> <Gold.Chemscore.DEInternal.Weighted>
2.1669

> <Gold.Chemscore.Rot.Weighted>
6.2854

> <Gold.Chemscore.Internal.Correction.Weighted>
   9.000000E+99

> <Gold.Protein.RotatedTorsions>
[ 6907 6896 6895 6894 ] final   72.10 input  -60.11 | X-H torsion
[ 7974 7965 7964 7962 ] final  146.80 input  175.53 | X-H torsion
[ 8008 7997 7996 7995 ] final  159.97 input   59.86 | X-H torsion
[ 10167 10162 10161 10158 ] final   72.21 input  -65.29 | X-H torsion
[ 10718 10713 10712 10709 ] final   71.50 input   66.30 | X-H torsion
[ 10763 10752 10751 10750 ] final  153.28 input  -60.55 | X-H torsion
[ 11005 11000 10999 10996 ] final  100.38 input  -57.11 | X-H torsion

> <Gold.Protein.ActiveResidues>
 VAL166  LYS551  ARG553  GLY616  TRP617  ASP618  TYR619  PRO620  LYS621  CYS622 
 ASP623  PHE694  ASN695  SER759  ASP760  ASP761  ALA762  ILE779  LEU786  VAL792 
 PHE793  MET794  SER795  GLU796  ALA797  LYS798  CYS799  TRP800  GLU811  SER814 

> <Gold.Protein.RotatedAtoms>
  152.4849  134.4621  159.9608 H   0  0  0  0  0  0  0  0  0  0  0  0  # atno 6907 bound_to 6896
  151.4619  133.3584  159.2818 H   0  0  0  0  0  0  0  0  0  0  0  0  # atno 6908 bound_to 6896
  150.8950  134.8383  159.7381 H   0  0  0  0  0  0  0  0  0  0  0  0  # atno 6909 bound_to 6896
  144.8642  139.5950  143.5916 H   0  0  0  0  0  0  0  0  0  0  0  0  # atno 7974 bound_to 7965
  156.2204  140.1817  156.7490 H   0  0  0  0  0  0  0  0  0  0  0  0  # atno 8008 bound_to 7997
  154.5856  140.0659  156.9195 H   0  0  0  0  0  0  0  0  0  0  0  0  # atno 8009 bound_to 7997
  155.2425  140.3323  155.4293 H   0  0  0  0  0  0  0  0  0  0  0  0  # atno 8010 bound_to 7997
  140.0378  144.5414  150.7457 H   0  0  0  0  0  0  0  0  0  0  0  0  # atno 10167 bound_to 10162
  157.6455  130.9531  150.0798 H   0  0  0  0  0  0  0  0  0  0  0  0  # atno 10718 bound_to 10713
  154.1336  135.2825  155.3179 H   0  0  0  0  0  0  0  0  0  0  0  0  # atno 10763 bound_to 10752
  154.6337  135.5426  153.7713 H   0  0  0  0  0  0  0  0  0  0  0  0  # atno 10764 bound_to 10752
  153.0273  135.6469  154.1486 H   0  0  0  0  0  0  0  0  0  0  0  0  # atno 10765 bound_to 10752
  139.8771  134.9137  156.4747 H   0  0  0  0  0  0  0  0  0  0  0  0  # atno 11005 bound_to 11000
  146.2883  139.7067  142.9179 LP  0  0  0  0  0  0  0  0  0  0  0  0  # atno 17320 bound_to 7965
  145.4254  141.0410  143.2940 LP  0  0  0  0  0  0  0  0  0  0  0  0  # atno 17321 bound_to 7965
  140.7274  143.2650  151.4074 LP  0  0  0  0  0  0  0  0  0  0  0  0  # atno 17342 bound_to 10162
  139.6034  144.1249  152.2222 LP  0  0  0  0  0  0  0  0  0  0  0  0  # atno 17343 bound_to 10162
  156.1778  130.3649  149.9076 LP  0  0  0  0  0  0  0  0  0  0  0  0  # atno 17370 bound_to 10713
  156.7036  130.8943  151.3602 LP  0  0  0  0  0  0  0  0  0  0  0  0  # atno 17371 bound_to 10713
  140.8771  133.7945  155.9426 LP  0  0  0  0  0  0  0  0  0  0  0  0  # atno 17394 bound_to 11000
  140.8893  134.2515  157.5103 LP  0  0  0  0  0  0  0  0  0  0  0  0  # atno 17395 bound_to 11000

$$$$
