AV-unprocessed.smi:528|AV-procd|sdf|2835|dock6
  -GOLD-   2262023323D 1   1.00000     0.00000
 Structure written by MMmdl.
 45 47  0  0  0  0  0  0  0  0  1 V2000
  146.7116  139.9746  155.0871 C   0  0  0  0  0  0  0  0  0  0  0  0
  147.2323  141.2708  154.4427 C   0  0  2  0  0  0  0  0  0  0  0  0
  148.6695  141.3690  154.6929 N   0  0  0  0  0  0  0  0  0  0  0  0
  149.2754  141.2139  155.8803 C   0  0  0  0  0  0  0  0  0  0  0  0
  148.6722  140.9424  156.9195 O   0  0  0  0  0  0  0  0  0  0  0  0
  150.8019  141.3817  155.8752 C   0  0  0  0  0  0  0  0  0  0  0  0
  151.3606  141.7255  157.1938 N   0  0  0  0  0  0  0  0  0  0  0  0
  151.0025  142.9754  157.7362 C   0  0  0  0  0  0  0  0  0  0  0  0
  151.4343  143.4041  158.9378 C   0  0  0  0  0  0  0  0  0  0  0  0
  151.0788  144.7835  159.4704 C   0  0  0  0  0  0  0  0  0  0  0  0
  149.7631  144.9042  159.6492 F   0  0  0  0  0  0  0  0  0  0  0  0
  151.6832  145.0216  160.6350 F   0  0  0  0  0  0  0  0  0  0  0  0
  151.4670  145.7174  158.6031 F   0  0  0  0  0  0  0  0  0  0  0  0
  152.3316  142.5189  159.6540 C   0  0  0  0  0  0  0  0  0  0  0  0
  152.6945  141.3257  159.1439 C   0  0  0  0  0  0  0  0  0  0  0  0
  152.1998  140.8649  157.8445 C   0  0  0  0  0  0  0  0  0  0  0  0
  152.5203  139.7748  157.3703 O   0  0  0  0  0  0  0  0  0  0  0  0
  146.5140  142.5307  154.9856 C   0  0  2  0  0  0  0  0  0  0  0  0
  146.4949  142.6175  156.5317 C   0  0  0  0  0  0  0  0  0  0  0  0
  145.0021  142.7952  156.8599 C   0  0  1  0  0  0  0  0  0  0  0  0
  144.5357  144.1894  156.4036 C   0  0  0  0  0  0  0  0  0  0  0  0
  144.5091  144.0499  154.8703 C   0  0  0  0  0  0  0  0  0  0  0  0
  145.0013  142.6063  154.6508 C   0  0  2  0  0  0  0  0  0  0  0  0
  144.3518  141.8850  155.8271 C   0  0  0  0  0  0  0  0  0  0  0  0
  145.6526  139.8195  154.8830 H   0  0  0  0  0  0  0  0  0  0  0  0
  146.8417  139.9897  156.1698 H   0  0  0  0  0  0  0  0  0  0  0  0
  147.2436  139.1043  154.7014 H   0  0  0  0  0  0  0  0  0  0  0  0
  147.0496  141.2089  153.3688 H   0  0  0  0  0  0  0  0  0  0  0  0
  149.2508  141.5843  153.8959 H   0  0  0  0  0  0  0  0  0  0  0  0
  151.2439  140.4574  155.5009 H   0  0  0  0  0  0  0  0  0  0  0  0
  151.0770  142.1446  155.1444 H   0  0  0  0  0  0  0  0  0  0  0  0
  150.3579  143.5707  157.1057 H   0  0  0  0  0  0  0  0  0  0  0  0
  152.7178  142.8156  160.6180 H   0  0  0  0  0  0  0  0  0  0  0  0
  153.3646  140.6916  159.7059 H   0  0  0  0  0  0  0  0  0  0  0  0
  147.0175  143.4078  154.5751 H   0  0  0  0  0  0  0  0  0  0  0  0
  146.8631  141.6989  156.9904 H   0  0  0  0  0  0  0  0  0  0  0  0
  147.1035  143.4404  156.9079 H   0  0  0  0  0  0  0  0  0  0  0  0
  144.7530  142.5679  157.8967 H   0  0  0  0  0  0  0  0  0  0  0  0
  143.5389  144.4128  156.7863 H   0  0  0  0  0  0  0  0  0  0  0  0
  145.2090  144.9790  156.7391 H   0  0  0  0  0  0  0  0  0  0  0  0
  143.4926  144.1723  154.4942 H   0  0  0  0  0  0  0  0  0  0  0  0
  145.1385  144.7879  154.3716 H   0  0  0  0  0  0  0  0  0  0  0  0
  144.7304  142.2133  153.6709 H   0  0  0  0  0  0  0  0  0  0  0  0
  144.6509  140.8397  155.9192 H   0  0  0  0  0  0  0  0  0  0  0  0
  143.2621  141.9450  155.8231 H   0  0  0  0  0  0  0  0  0  0  0  0
  1  2  1  0  0  0  0
  1 25  1  0  0  0  0
  1 26  1  0  0  0  0
  1 27  1  0  0  0  0
  2  3  1  0  0  0  0
  2 18  1  0  0  0  0
  2 28  1  0  0  0  0
  3  4  1  0  0  0  0
  3 29  1  0  0  0  0
  4  5  2  0  0  0  0
  4  6  1  0  0  0  0
  6  7  1  0  0  0  0
  6 30  1  0  0  0  0
  6 31  1  0  0  0  0
  7 16  1  0  0  0  0
  7  8  1  0  0  0  0
  8  9  2  0  0  0  0
  8 32  1  0  0  0  0
  9 10  1  0  0  0  0
  9 14  1  0  0  0  0
 10 11  1  0  0  0  0
 10 12  1  0  0  0  0
 10 13  1  0  0  0  0
 14 15  2  0  0  0  0
 14 33  1  0  0  0  0
 15 16  1  0  0  0  0
 15 34  1  0  0  0  0
 16 17  2  0  0  0  0
 18 23  1  0  0  0  0
 18 19  1  0  0  0  0
 18 35  1  0  0  0  0
 19 20  1  0  0  0  0
 19 36  1  0  0  0  0
 19 37  1  0  0  0  0
 20 24  1  0  0  0  0
 20 21  1  0  0  0  0
 20 38  1  0  0  0  0
 21 22  1  0  0  0  0
 21 39  1  0  0  0  0
 21 40  1  0  0  0  0
 22 23  1  0  0  0  0
 22 41  1  0  0  0  0
 22 42  1  0  0  0  0
 23 24  1  0  0  0  0
 23 43  1  0  0  0  0
 24 44  1  0  0  0  0
 24 45  1  0  0  0  0
M  END
> <s_m_source_file>
AV-unprocessed.smi

> <i_m_source_file_index>
528

> <i_lp_mmshare_version>
43012

> <i_f3d_flags>
0

> <s_epik_input>
W0NIMl0xW0NIMl1bQ0BASF0oW0NIMl0yKVtDQEBIXShbQ0gyXVtDQEhdMTIpW0NASF0oW0NIM10pW05IXUMoPU8pW0NIMl1uM1tjSF1jKEMoRikoRilGKVtjSF1bY0hdYzM9Tw==

> <s_epik_cmdline>
J2VwaWtfcHl0aG9uJywgJy1waCcsICc3LjAnLCAnLXRuJywgJzgnLCAnLW1hJywgJzIwMCcsICctbWV0YWxfYmluZGluZycsICctaW1hZScsICc8aW5maWxlLm1hZT4nLCAnLW9tYWUnLCAnPG91dGZpbGUubWFlPic=

> <r_lp_tautomer_probability>
1

> <r_epik_Ionization_Penalty>
4.09479e-08

> <r_epik_Ionization_Penalty_Charging>
1.9321e-08

> <r_epik_Ionization_Penalty_Neutral>
2.16269e-08

> <r_epik_State_Penalty>
-0

> <r_epik_Charging_Adjusted_Penalty>
1.9321e-08

> <i_epik_Tot_Q>
0

> <i_epik_Tot_abs_Q>
0

> <r_epik_Metal_State_Penalty>
-0

> <b_epik_Metal_Only>
0

> <s_lp_Force_Field>
OPLS_2005

> <r_lp_Energy>
63.0094

> <b_lp_Chiralities_Consistent>
1

> <s_lp_Variant>
AV-unprocessed.smi:528-5

> <Gold.Version>
5.8.1

> <Gold.Id.Protein>
6NUR|6NUR_protein|mol2

> <Gold.PLP.Fitness>
48.0336

> <Gold.PLP.PLP>
-43.0806

> <Gold.PLP.part.hbond>
-1.0000

> <Gold.PLP.part.metal>
0.0000

> <Gold.PLP.part.buried>
-5.7378

> <Gold.PLP.part.nonpolar>
-36.7189

> <Gold.PLP.part.repulsive>
0.2186

> <Gold.PLP.ligand.clash>
0.0000

> <Gold.PLP.ligand.torsion>
0.5705

> <Gold.PLP.Chemscore.Hbond>
1.0000

> <Gold.PLP.Chemscore.CHOScore>
1.0000

> <Gold.PLP.Chemscore.Metal>
0.0000

> <Gold.Chemscore.Hbonds>
donor molecule, donor type, donor heavy atom, donor atom, acceptor molecule, acceptor atom, score
      P1  H  7997  8010       L1    17  1.00
      L1  C     8    32       P1  8028  1.00

> <Gold.PLP.Chemscore.Internal.Correction>
0.0939

> <Gold.Rescore>
     Score         DG    S(hbond)    S(metal)    S(lipo)     H(rot)  DE(clash)    DE(int)     intcor
     10.95     -14.45       0.95        0.00      87.05       1.71       0.19       3.32       ----

> <Gold.Chemscore.Fitness>
10.9492

> <Gold.Chemscore.DG>
-14.4550

> <Gold.Chemscore.ZeroCoef>
-5.4800

> <Gold.Chemscore.Hbond>
0.9505

> <Gold.Chemscore.Metal>
0.0000

> <Gold.Chemscore.Lipo>
87.0450

> <Gold.Chemscore.Internal_Hbond>
0.0000

> <Gold.Chemscore.DEClash>
0.1872

> <Gold.Chemscore.DEInternal>
3.3186

> <Gold.Chemscore.Rot>
1.7125

> <Gold.Chemscore.Internal.Correction>
   9.000000E+99

> <Gold.Chemscore.Hbonds>
donor molecule, donor type, donor heavy atom, donor atom, acceptor molecule, acceptor atom, score
      P1  H  7997  8010       L1    17  0.43

> <Gold.Chemscore.Hbond.Weighted>
-3.1747

> <Gold.Chemscore.Metal.Weighted>
-0.0000

> <Gold.Chemscore.Lipo.Weighted>
-10.1843

> <Gold.Chemscore.Internal_Hbond.Weighted>
0.0000

> <Gold.Chemscore.DEClash.Weighted>
0.1872

> <Gold.Chemscore.DEInternal.Weighted>
3.3186

> <Gold.Chemscore.Rot.Weighted>
4.3840

> <Gold.Chemscore.Internal.Correction.Weighted>
   9.000000E+99

> <Gold.Protein.RotatedTorsions>
[ 6907 6896 6895 6894 ] final   96.41 input  -60.11 | X-H torsion
[ 7974 7965 7964 7962 ] final  100.21 input  175.53 | X-H torsion
[ 8008 7997 7996 7995 ] final   58.75 input   59.86 | X-H torsion
[ 10167 10162 10161 10158 ] final -165.27 input  -65.29 | X-H torsion
[ 10718 10713 10712 10709 ] final  122.08 input   66.30 | X-H torsion
[ 10763 10752 10751 10750 ] final -166.74 input  -60.55 | X-H torsion
[ 11005 11000 10999 10996 ] final -103.32 input  -57.11 | X-H torsion

> <Gold.Protein.ActiveResidues>
 VAL166  LYS551  ARG553  GLY616  TRP617  ASP618  TYR619  PRO620  LYS621  CYS622 
 ASP623  PHE694  ASN695  SER759  ASP760  ASP761  ALA762  ILE779  LEU786  VAL792 
 PHE793  MET794  SER795  GLU796  ALA797  LYS798  CYS799  TRP800  GLU811  SER814 

> <Gold.Protein.RotatedAtoms>
  152.5435  134.0891  159.8268 H   0  0  0  0  0  0  0  0  0  0  0  0  # atno 6907 bound_to 6896
  151.0983  133.5256  159.2618 H   0  0  0  0  0  0  0  0  0  0  0  0  # atno 6908 bound_to 6896
  151.2020  135.0455  159.8930 H   0  0  0  0  0  0  0  0  0  0  0  0  # atno 6909 bound_to 6896
  145.3887  139.2367  143.3364 H   0  0  0  0  0  0  0  0  0  0  0  0  # atno 7974 bound_to 7965
  155.5551  140.3487  155.4478 H   0  0  0  0  0  0  0  0  0  0  0  0  # atno 8008 bound_to 7997
  156.0555  140.1327  157.0028 H   0  0  0  0  0  0  0  0  0  0  0  0  # atno 8009 bound_to 7997
  154.4454  140.0996  156.6424 H   0  0  0  0  0  0  0  0  0  0  0  0  # atno 8010 bound_to 7997
  139.6193  144.0656  152.1918 H   0  0  0  0  0  0  0  0  0  0  0  0  # atno 10167 bound_to 10162
  157.5769  131.1078  150.8261 H   0  0  0  0  0  0  0  0  0  0  0  0  # atno 10718 bound_to 10713
  154.6803  135.2953  154.9622 H   0  0  0  0  0  0  0  0  0  0  0  0  # atno 10763 bound_to 10752
  154.0620  135.6630  153.4817 H   0  0  0  0  0  0  0  0  0  0  0  0  # atno 10764 bound_to 10752
  153.0543  135.5154  154.7842 H   0  0  0  0  0  0  0  0  0  0  0  0  # atno 10765 bound_to 10752
  141.1151  133.8630  157.1471 H   0  0  0  0  0  0  0  0  0  0  0  0  # atno 11005 bound_to 11000
  146.2808  140.4566  142.8777 LP  0  0  0  0  0  0  0  0  0  0  0  0  # atno 17320 bound_to 7965
  144.8456  140.6924  143.6201 LP  0  0  0  0  0  0  0  0  0  0  0  0  # atno 17321 bound_to 7965
  140.0294  144.6092  150.7500 LP  0  0  0  0  0  0  0  0  0  0  0  0  # atno 17342 bound_to 10162
  140.7372  143.2762  151.3735 LP  0  0  0  0  0  0  0  0  0  0  0  0  # atno 17343 bound_to 10162
  156.8717  130.5148  149.5296 LP  0  0  0  0  0  0  0  0  0  0  0  0  # atno 17370 bound_to 10713
  156.0814  130.5824  150.9570 LP  0  0  0  0  0  0  0  0  0  0  0  0  # atno 17371 bound_to 10713
  140.0068  135.0005  157.0310 LP  0  0  0  0  0  0  0  0  0  0  0  0  # atno 17394 bound_to 11000
  140.4668  134.1427  155.7198 LP  0  0  0  0  0  0  0  0  0  0  0  0  # atno 17395 bound_to 11000

$$$$
