AV-unprocessed.smi:1211|AV-procd|sdf|5081|dock2
  -GOLD-   22720 4133D 1   1.00000     0.00000
 Structure written by MMmdl.
 48 50  0  0  0  0  0  0  0  0  2 V2000
  147.8526  132.5694  153.6388 C   0  0  0  0  0  0  0  0  0  0  0  0
  146.6316  132.4165  152.7459 C   0  0  0  0  0  0  0  0  0  0  0  0
  146.1239  131.1257  152.4855 C   0  0  0  0  0  0  0  0  0  0  0  0
  144.9959  130.9860  151.6590 C   0  0  0  0  0  0  0  0  0  0  0  0
  144.4190  132.1507  151.1245 C   0  0  0  0  0  0  0  0  0  0  0  0
  144.8970  133.3879  151.3686 N   0  0  0  0  0  0  0  0  0  0  0  0
  145.9866  133.5401  152.1626 C   0  0  0  0  0  0  0  0  0  0  0  0
  146.5451  134.8145  152.4638 N   0  0  0  0  0  0  0  0  0  0  0  0
  146.0315  135.7910  153.2322 C   0  0  0  0  0  0  0  0  0  0  0  0
  144.9427  135.7510  153.8048 O   0  0  0  0  0  0  0  0  0  0  0  0
  146.8653  136.8386  153.3053 N   0  0  0  0  0  0  0  0  0  0  0  0
  146.6093  138.0753  154.0434 C   0  0  0  0  0  0  0  0  0  0  0  0
  147.8115  139.0738  154.0256 C   0  0  2  0  0  0  0  0  0  0  0  0
  149.0950  138.2889  154.1572 N   0  3  0  0  0  0  0  0  0  0  0  0
  150.3318  139.0986  153.9680 C   0  0  0  0  0  0  0  0  0  0  0  0
  151.5758  138.1992  153.9276 C   0  0  0  0  0  0  0  0  0  0  0  0
  151.6579  137.4650  155.1396 O   0  0  0  0  0  0  0  0  0  0  0  0
  150.5420  136.6019  155.3002 C   0  0  0  0  0  0  0  0  0  0  0  0
  149.2376  137.4173  155.3573 C   0  0  0  0  0  0  0  0  0  0  0  0
  147.6289  140.1483  155.1348 C   0  0  0  0  0  0  0  0  0  0  0  0
  146.4699  141.0672  154.7379 C   0  0  0  0  0  0  0  0  0  0  0  0
  146.5157  141.2205  152.9355 S   0  0  0  0  0  0  0  0  0  0  0  0
  147.7636  139.9188  152.7307 C   0  0  0  0  0  0  0  0  0  0  0  0
  148.2061  131.6023  153.9978 H   0  0  0  0  0  0  0  0  0  0  0  0
  147.6157  133.1830  154.5083 H   0  0  0  0  0  0  0  0  0  0  0  0
  148.6688  133.0419  153.0912 H   0  0  0  0  0  0  0  0  0  0  0  0
  146.5915  130.2504  152.9122 H   0  0  0  0  0  0  0  0  0  0  0  0
  144.5838  130.0122  151.4399 H   0  0  0  0  0  0  0  0  0  0  0  0
  143.5512  132.0884  150.4843 H   0  0  0  0  0  0  0  0  0  0  0  0
  147.4437  134.9993  152.0440 H   0  0  0  0  0  0  0  0  0  0  0  0
  147.7295  136.7902  152.7859 H   0  0  0  0  0  0  0  0  0  0  0  0
  145.7325  138.5326  153.5870 H   0  0  0  0  0  0  0  0  0  0  0  0
  146.2834  137.8462  155.0579 H   0  0  0  0  0  0  0  0  0  0  0  0
  150.2884  139.6711  153.0433 H   0  0  0  0  0  0  0  0  0  0  0  0
  150.4403  139.8159  154.7824 H   0  0  0  0  0  0  0  0  0  0  0  0
  151.5455  137.5235  153.0711 H   0  0  0  0  0  0  0  0  0  0  0  0
  152.4752  138.8066  153.8227 H   0  0  0  0  0  0  0  0  0  0  0  0
  150.5101  135.8780  154.4842 H   0  0  0  0  0  0  0  0  0  0  0  0
  150.6672  136.0327  156.2215 H   0  0  0  0  0  0  0  0  0  0  0  0
  149.2112  138.0225  156.2643 H   0  0  0  0  0  0  0  0  0  0  0  0
  148.4245  136.6952  155.4144 H   0  0  0  0  0  0  0  0  0  0  0  0
  147.4935  139.7228  156.1285 H   0  0  0  0  0  0  0  0  0  0  0  0
  148.4979  140.8025  155.1913 H   0  0  0  0  0  0  0  0  0  0  0  0
  145.5121  140.6397  155.0343 H   0  0  0  0  0  0  0  0  0  0  0  0
  146.5483  142.0464  155.2107 H   0  0  0  0  0  0  0  0  0  0  0  0
  148.7187  140.4171  152.5625 H   0  0  0  0  0  0  0  0  0  0  0  0
  147.5472  139.3245  151.8425 H   0  0  0  0  0  0  0  0  0  0  0  0
  149.0726  137.6422  153.3818 H   0  0  0  0  0  0  0  0  0  0  0  0
  1  2  1  0  0  0  0
  1 24  1  0  0  0  0
  1 25  1  0  0  0  0
  1 26  1  0  0  0  0
  2  7  1  0  0  0  0
  2  3  2  0  0  0  0
  3  4  1  0  0  0  0
  3 27  1  0  0  0  0
  4  5  2  0  0  0  0
  4 28  1  0  0  0  0
  5  6  1  0  0  0  0
  5 29  1  0  0  0  0
  6  7  2  0  0  0  0
  7  8  1  0  0  0  0
  8  9  1  0  0  0  0
  8 30  1  0  0  0  0
  9 10  2  0  0  0  0
  9 11  1  0  0  0  0
 11 12  1  0  0  0  0
 11 31  1  0  0  0  0
 12 13  1  0  0  0  0
 12 32  1  0  0  0  0
 12 33  1  0  0  0  0
 13 23  1  0  0  0  0
 13 14  1  0  0  0  0
 13 20  1  0  0  0  0
 14 19  1  0  0  0  0
 14 15  1  0  0  0  0
 14 48  1  0  0  0  0
 15 16  1  0  0  0  0
 15 34  1  0  0  0  0
 15 35  1  0  0  0  0
 16 17  1  0  0  0  0
 16 36  1  0  0  0  0
 16 37  1  0  0  0  0
 17 18  1  0  0  0  0
 18 19  1  0  0  0  0
 18 38  1  0  0  0  0
 18 39  1  0  0  0  0
 19 40  1  0  0  0  0
 19 41  1  0  0  0  0
 20 21  1  0  0  0  0
 20 42  1  0  0  0  0
 20 43  1  0  0  0  0
 21 22  1  0  0  0  0
 21 44  1  0  0  0  0
 21 45  1  0  0  0  0
 22 23  1  0  0  0  0
 23 46  1  0  0  0  0
 23 47  1  0  0  0  0
M  CHG  1  14   1
M  END
> <s_m_source_file>
AV-unprocessed.smi

> <i_m_source_file_index>
1211

> <i_lp_mmshare_version>
43012

> <i_f3d_flags>
0

> <s_epik_input>
W0NIM11jMVtjSF1bY0hdW2NIXW5jMVtOSF1DKD1PKVtOSF1bQ0gyXVtDQF0yKFtDSDJdW0NIMl1TW0NIMl0yKU4zW0NIMl1bQ0gyXU9bQ0gyXVtDSDJdMw==

> <s_epik_cmdline>
J2VwaWtfcHl0aG9uJywgJy1waCcsICc3LjAnLCAnLXRuJywgJzgnLCAnLW1hJywgJzIwMCcsICctbWV0YWxfYmluZGluZycsICctaW1hZScsICc8aW5maWxlLm1hZT4nLCAnLW9tYWUnLCAnPG91dGZpbGUubWFlPic=

> <r_epik_Ionization_Penalty>
2.03223

> <r_epik_Ionization_Penalty_Charging>
2.03219

> <r_epik_Ionization_Penalty_Neutral>
4.05816e-05

> <r_epik_State_Penalty>
2.16328

> <r_epik_Charging_Adjusted_Penalty>
4.19546

> <i_epik_Tot_Q>
1

> <i_epik_Tot_abs_Q>
1

> <r_epik_Metal_State_Penalty>
2.16328

> <b_epik_Metal_Only>
0

> <s_lp_Force_Field>
OPLS_2005

> <r_lp_Energy>
45.9337

> <b_lp_Chiralities_Consistent>
1

> <s_lp_Variant>
AV-unprocessed.smi:1211-4

> <Gold.Version>
5.8.1

> <Gold.Id.Protein>
6NUR|6NUR_protein|mol2

> <Gold.PLP.Fitness>
50.3131

> <Gold.PLP.PLP>
-34.3274

> <Gold.PLP.part.hbond>
-4.0000

> <Gold.PLP.part.metal>
0.0000

> <Gold.PLP.part.buried>
-2.6066

> <Gold.PLP.part.nonpolar>
-29.1689

> <Gold.PLP.part.repulsive>
0.4479

> <Gold.PLP.ligand.clash>
0.0000

> <Gold.PLP.ligand.torsion>
1.0212

> <Gold.PLP.Chemscore.Hbond>
4.9600

> <Gold.PLP.Chemscore.CHOScore>
1.0000

> <Gold.PLP.Chemscore.Metal>
0.0000

> <Gold.Chemscore.Hbonds>
donor molecule, donor type, donor heavy atom, donor atom, acceptor molecule, acceptor atom, score
      L1  H     8    30       P1  7948  0.98
      L1  H    11    31       P1  7948  1.00
      L1  H    14    48       P1  7948  1.89
      P1  H 10752 10765       L1    17  0.11

> <Gold.PLP.Chemscore.Internal.Correction>
0.1482

> <Gold.Rescore>
     Score         DG    S(hbond)    S(metal)    S(lipo)     H(rot)  DE(clash)    DE(int)     intcor
     21.81     -23.17       3.45        0.00      85.09       1.48       0.02       1.33       ----

> <Gold.Chemscore.Fitness>
21.8128

> <Gold.Chemscore.DG>
-23.1687

> <Gold.Chemscore.ZeroCoef>
-5.4800

> <Gold.Chemscore.Hbond>
3.4513

> <Gold.Chemscore.Metal>
0.0000

> <Gold.Chemscore.Lipo>
85.0886

> <Gold.Chemscore.Internal_Hbond>
0.0000

> <Gold.Chemscore.DEClash>
0.0228

> <Gold.Chemscore.DEInternal>
1.3331

> <Gold.Chemscore.Rot>
1.4820

> <Gold.Chemscore.Internal.Correction>
   9.000000E+99

> <Gold.Chemscore.Hbonds>
donor molecule, donor type, donor heavy atom, donor atom, acceptor molecule, acceptor atom, score
      L1  H     8    30       P1  7948  0.86
      L1  H    11    31       P1  7948  0.99
      L1  H    14    48       P1  7948  0.90

> <Gold.Chemscore.Hbond.Weighted>
-11.5272

> <Gold.Chemscore.Metal.Weighted>
-0.0000

> <Gold.Chemscore.Lipo.Weighted>
-9.9554

> <Gold.Chemscore.Internal_Hbond.Weighted>
0.0000

> <Gold.Chemscore.DEClash.Weighted>
0.0228

> <Gold.Chemscore.DEInternal.Weighted>
1.3331

> <Gold.Chemscore.Rot.Weighted>
3.7939

> <Gold.Chemscore.Internal.Correction.Weighted>
   9.000000E+99

> <Gold.Protein.RotatedTorsions>
[ 6907 6896 6895 6894 ] final -120.05 input  -60.11 | X-H torsion
[ 7974 7965 7964 7962 ] final  -82.96 input  175.53 | X-H torsion
[ 8008 7997 7996 7995 ] final   -0.71 input   59.86 | X-H torsion
[ 10167 10162 10161 10158 ] final  -38.59 input  -65.29 | X-H torsion
[ 10718 10713 10712 10709 ] final   82.49 input   66.30 | X-H torsion
[ 10763 10752 10751 10750 ] final -174.36 input  -60.55 | X-H torsion
[ 11005 11000 10999 10996 ] final -130.04 input  -57.11 | X-H torsion

> <Gold.Protein.ActiveResidues>
 VAL166  LYS551  ARG553  GLY616  TRP617  ASP618  TYR619  PRO620  LYS621  CYS622 
 ASP623  PHE694  ASN695  SER759  ASP760  ASP761  ALA762  ILE779  LEU786  VAL792 
 PHE793  MET794  SER795  GLU796  ALA797  LYS798  CYS799  TRP800  GLU811  SER814 

> <Gold.Protein.RotatedAtoms>
  150.8359  133.8015  159.3079 H   0  0  0  0  0  0  0  0  0  0  0  0  # atno 6907 bound_to 6896
  151.5731  135.1060  160.0009 H   0  0  0  0  0  0  0  0  0  0  0  0  # atno 6908 bound_to 6896
  152.4431  133.7444  159.6715 H   0  0  0  0  0  0  0  0  0  0  0  0  # atno 6909 bound_to 6896
  145.5263  140.9526  143.1627 H   0  0  0  0  0  0  0  0  0  0  0  0  # atno 7974 bound_to 7965
  154.6550  140.2577  155.7172 H   0  0  0  0  0  0  0  0  0  0  0  0  # atno 8008 bound_to 7997
  156.2592  140.2860  156.0920 H   0  0  0  0  0  0  0  0  0  0  0  0  # atno 8009 bound_to 7997
  155.1394  140.0380  157.2785 H   0  0  0  0  0  0  0  0  0  0  0  0  # atno 8010 bound_to 7997
  140.7088  143.3267  151.2663 H   0  0  0  0  0  0  0  0  0  0  0  0  # atno 10167 bound_to 10162
  157.6858  131.0050  150.2383 H   0  0  0  0  0  0  0  0  0  0  0  0  # atno 10718 bound_to 10713
  154.5971  135.2851  155.0574 H   0  0  0  0  0  0  0  0  0  0  0  0  # atno 10763 bound_to 10752
  154.1853  135.6450  153.5049 H   0  0  0  0  0  0  0  0  0  0  0  0  # atno 10764 bound_to 10752
  153.0143  135.5433  154.6677 H   0  0  0  0  0  0  0  0  0  0  0  0  # atno 10765 bound_to 10752
  140.9380  134.1231  157.4176 H   0  0  0  0  0  0  0  0  0  0  0  0  # atno 11005 bound_to 11000
  144.7649  139.6868  143.7219 LP  0  0  0  0  0  0  0  0  0  0  0  0  # atno 17320 bound_to 7965
  146.2073  139.5406  142.9704 LP  0  0  0  0  0  0  0  0  0  0  0  0  # atno 17321 bound_to 7965
  139.6737  143.9975  152.2768 LP  0  0  0  0  0  0  0  0  0  0  0  0  # atno 17342 bound_to 10162
  139.9582  144.6576  150.8105 LP  0  0  0  0  0  0  0  0  0  0  0  0  # atno 17343 bound_to 10162
  156.3002  130.3757  149.7758 LP  0  0  0  0  0  0  0  0  0  0  0  0  # atno 17370 bound_to 10713
  156.5390  130.8291  151.3262 LP  0  0  0  0  0  0  0  0  0  0  0  0  # atno 17371 bound_to 10713
  139.8813  135.0027  156.6143 LP  0  0  0  0  0  0  0  0  0  0  0  0  # atno 17394 bound_to 11000
  140.7773  133.8689  155.8539 LP  0  0  0  0  0  0  0  0  0  0  0  0  # atno 17395 bound_to 11000

$$$$
