AV-unprocessed.smi:1381|AV-procd|sdf|5614|dock6
  -GOLD-   22720 5223D 1   1.00000     0.00000
 Structure written by MMmdl.
 42 43  0  0  0  0  0  0  0  0  3 V2000
  152.2822  141.4267  159.0025 C   0  0  0  0  0  0  0  0  0  0  0  0
  151.9268  140.9336  157.6418 C   0  0  0  0  0  0  0  0  0  0  0  0
  150.9862  141.3216  156.7303 C   0  0  0  0  0  0  0  0  0  0  0  0
  151.1900  140.4207  155.6498 C   0  0  0  0  0  0  0  0  0  0  0  0
  150.5052  140.4039  154.4958 N   0  5  0  0  0  0  0  0  0  0  0  0
  149.1548  140.4745  154.5052 C   0  0  0  0  0  0  0  0  0  0  0  0
  148.4468  140.8425  155.4456 O   0  0  0  0  0  0  0  0  0  0  0  0
  148.5866  140.0884  153.3538 N   0  0  0  0  0  0  0  0  0  0  0  0
  147.1540  140.0368  153.0896 C   0  0  0  0  0  0  0  0  0  0  0  0
  146.4266  139.1546  154.1222 C   0  0  0  0  0  0  0  0  0  0  0  0
  145.3736  138.3134  153.5025 N   0  3  1  0  0  0  0  0  0  0  0  0
  145.9282  137.3245  152.5499 C   0  0  0  0  0  0  0  0  0  0  0  0
  144.7928  136.5547  151.8526 C   0  0  1  0  0  0  0  0  0  0  0  0
  145.3273  135.4609  150.9211 C   0  0  0  0  0  0  0  0  0  0  0  0
  143.9693  135.9302  152.8340 O   0  0  0  0  0  0  0  0  0  0  0  0
  143.3945  136.8209  153.7903 C   0  0  2  0  0  0  0  0  0  0  0  0
  142.2805  137.6904  153.1806 C   0  0  0  0  0  0  0  0  0  0  0  0
  144.4981  137.6374  154.4915 C   0  0  0  0  0  0  0  0  0  0  0  0
  152.1788  139.5726  155.8780 N   0  0  0  0  0  0  0  0  0  0  0  0
  152.6526  139.8908  157.1563 O   0  0  0  0  0  0  0  0  0  0  0  0
  152.8567  142.3506  158.9393 H   0  0  0  0  0  0  0  0  0  0  0  0
  152.8803  140.6922  159.5424 H   0  0  0  0  0  0  0  0  0  0  0  0
  151.3843  141.6254  159.5879 H   0  0  0  0  0  0  0  0  0  0  0  0
  150.2639  142.1188  156.8224 H   0  0  0  0  0  0  0  0  0  0  0  0
  149.2026  139.7992  152.6078 H   0  0  0  0  0  0  0  0  0  0  0  0
  146.7570  141.0521  153.0750 H   0  0  0  0  0  0  0  0  0  0  0  0
  147.0092  139.6322  152.0877 H   0  0  0  0  0  0  0  0  0  0  0  0
  147.1687  138.5096  154.5956 H   0  0  0  0  0  0  0  0  0  0  0  0
  145.9898  139.7565  154.9206 H   0  0  0  0  0  0  0  0  0  0  0  0
  146.5359  137.8342  151.8010 H   0  0  0  0  0  0  0  0  0  0  0  0
  146.5863  136.6353  153.0820 H   0  0  0  0  0  0  0  0  0  0  0  0
  144.1960  137.2444  151.2553 H   0  0  0  0  0  0  0  0  0  0  0  0
  145.9669  135.8823  150.1452 H   0  0  0  0  0  0  0  0  0  0  0  0
  144.5089  134.9363  150.4272 H   0  0  0  0  0  0  0  0  0  0  0  0
  145.9110  134.7226  151.4721 H   0  0  0  0  0  0  0  0  0  0  0  0
  142.9217  136.1892  154.5430 H   0  0  0  0  0  0  0  0  0  0  0  0
  141.7646  138.2559  153.9569 H   0  0  0  0  0  0  0  0  0  0  0  0
  141.5379  137.0720  152.6759 H   0  0  0  0  0  0  0  0  0  0  0  0
  142.6643  138.4104  152.4583 H   0  0  0  0  0  0  0  0  0  0  0  0
  145.1064  136.9739  155.1085 H   0  0  0  0  0  0  0  0  0  0  0  0
  144.0425  138.3602  155.1674 H   0  0  0  0  0  0  0  0  0  0  0  0
  144.7905  138.9353  152.9611 H   0  0  0  0  0  0  0  0  0  0  0  0
  1  2  1  0  0  0  0
  1 21  1  0  0  0  0
  1 22  1  0  0  0  0
  1 23  1  0  0  0  0
  2 20  1  0  0  0  0
  2  3  2  0  0  0  0
  3  4  1  0  0  0  0
  3 24  1  0  0  0  0
  4  5  1  0  0  0  0
  4 19  2  0  0  0  0
  5  6  1  0  0  0  0
  6  7  2  0  0  0  0
  6  8  1  0  0  0  0
  8  9  1  0  0  0  0
  8 25  1  0  0  0  0
  9 10  1  0  0  0  0
  9 26  1  0  0  0  0
  9 27  1  0  0  0  0
 10 11  1  0  0  0  0
 10 28  1  0  0  0  0
 10 29  1  0  0  0  0
 11 18  1  0  0  0  0
 11 12  1  0  0  0  0
 11 42  1  0  0  0  0
 12 13  1  0  0  0  0
 12 30  1  0  0  0  0
 12 31  1  0  0  0  0
 13 14  1  0  0  0  0
 13 15  1  0  0  0  0
 13 32  1  0  0  0  0
 14 33  1  0  0  0  0
 14 34  1  0  0  0  0
 14 35  1  0  0  0  0
 15 16  1  0  0  0  0
 16 17  1  0  0  0  0
 16 18  1  0  0  0  0
 16 36  1  0  0  0  0
 17 37  1  0  0  0  0
 17 38  1  0  0  0  0
 17 39  1  0  0  0  0
 18 40  1  0  0  0  0
 18 41  1  0  0  0  0
 19 20  1  0  0  0  0
M  CHG  1   5  -1
M  CHG  1  11   1
M  END
> <s_m_source_file>
AV-unprocessed.smi

> <i_m_source_file_index>
1381

> <i_lp_mmshare_version>
43012

> <i_f3d_flags>
0

> <s_epik_input>
W0NIM11jMVtjSF1jKG5vMSlbTkhdQyg9TylbTkhdW0NIMl1bQ0gyXU4yW0NIMl1bQ0BASF0oW0NIM10pT1tDQEBIXShbQ0gzXSlbQ0gyXTI=

> <s_epik_cmdline>
J2VwaWtfcHl0aG9uJywgJy1waCcsICc3LjAnLCAnLXRuJywgJzgnLCAnLW1hJywgJzIwMCcsICctbWV0YWxfYmluZGluZycsICctaW1hZScsICc8aW5maWxlLm1hZT4nLCAnLW9tYWUnLCAnPG91dGZpbGUubWFlPic=

> <r_epik_Ionization_Penalty>
6.73511

> <r_epik_Ionization_Penalty_Charging>
6.73502

> <r_epik_Ionization_Penalty_Neutral>
9.26583e-05

> <r_epik_State_Penalty>
6.93549

> <r_epik_Charging_Adjusted_Penalty>
13.6705

> <i_epik_Tot_Q>
0

> <i_epik_Tot_abs_Q>
2

> <r_epik_Metal_State_Penalty>
2.87211

> <b_epik_Metal_Only>
1

> <s_lp_Force_Field>
OPLS_2005

> <r_lp_Energy>
5.23247

> <b_lp_Chiralities_Consistent>
1

> <s_lp_Variant>
AV-unprocessed.smi:1381-13

> <Gold.Version>
5.8.1

> <Gold.Id.Protein>
6NUR|6NUR_protein|mol2

> <Gold.PLP.Fitness>
44.0262

> <Gold.PLP.PLP>
-30.5108

> <Gold.PLP.part.hbond>
-3.9675

> <Gold.PLP.part.metal>
0.0000

> <Gold.PLP.part.buried>
-1.5877

> <Gold.PLP.part.nonpolar>
-24.4411

> <Gold.PLP.part.repulsive>
0.4236

> <Gold.PLP.ligand.clash>
0.0000

> <Gold.PLP.ligand.torsion>
0.7790

> <Gold.PLP.Chemscore.Hbond>
5.0000

> <Gold.PLP.Chemscore.CHOScore>
0.0000

> <Gold.PLP.Chemscore.Metal>
0.0000

> <Gold.Chemscore.Hbonds>
donor molecule, donor type, donor heavy atom, donor atom, acceptor molecule, acceptor atom, score
      L1  H     8    25       P1  7957  0.89
      L1  H    11    42       P1 10175  2.00
      P1  H  7989  7998       L1     5  1.00
      P1  H  7997  8008       L1    20  1.00

> <Gold.PLP.Chemscore.Internal.Correction>
0.0733

> <Gold.Rescore>
     Score         DG    S(hbond)    S(metal)    S(lipo)     H(rot)  DE(clash)    DE(int)     intcor
     13.89     -17.62       2.87        0.00      56.37       1.58       0.40       3.34       ----

> <Gold.Chemscore.Fitness>
13.8855

> <Gold.Chemscore.DG>
-17.6233

> <Gold.Chemscore.ZeroCoef>
-5.4800

> <Gold.Chemscore.Hbond>
2.8714

> <Gold.Chemscore.Metal>
0.0000

> <Gold.Chemscore.Lipo>
56.3737

> <Gold.Chemscore.Internal_Hbond>
0.0000

> <Gold.Chemscore.DEClash>
0.3982

> <Gold.Chemscore.DEInternal>
3.3397

> <Gold.Chemscore.Rot>
1.5792

> <Gold.Chemscore.Internal.Correction>
   9.000000E+99

> <Gold.Chemscore.Hbonds>
donor molecule, donor type, donor heavy atom, donor atom, acceptor molecule, acceptor atom, score
      L1  H     8    25       P1  7957  0.81
      L1  H    11    42       P1 10175  0.99
      P1  H  7989  7998       L1     5  0.28
      P1  H  7997  8008       L1    20  0.33

> <Gold.Chemscore.Hbond.Weighted>
-9.5904

> <Gold.Chemscore.Metal.Weighted>
-0.0000

> <Gold.Chemscore.Lipo.Weighted>
-6.5957

> <Gold.Chemscore.Internal_Hbond.Weighted>
0.0000

> <Gold.Chemscore.DEClash.Weighted>
0.3982

> <Gold.Chemscore.DEInternal.Weighted>
3.3397

> <Gold.Chemscore.Rot.Weighted>
4.0428

> <Gold.Chemscore.Internal.Correction.Weighted>
   9.000000E+99

> <Gold.Protein.RotatedTorsions>
[ 6907 6896 6895 6894 ] final  105.66 input  -60.11 | X-H torsion
[ 7974 7965 7964 7962 ] final  -29.15 input  175.53 | X-H torsion
[ 8008 7997 7996 7995 ] final  -75.21 input   59.86 | X-H torsion
[ 10167 10162 10161 10158 ] final   -1.22 input  -65.29 | X-H torsion
[ 10718 10713 10712 10709 ] final   43.76 input   66.30 | X-H torsion
[ 10763 10752 10751 10750 ] final -143.73 input  -60.55 | X-H torsion
[ 11005 11000 10999 10996 ] final  164.01 input  -57.11 | X-H torsion

> <Gold.Protein.ActiveResidues>
 VAL166  LYS551  ARG553  GLY616  TRP617  ASP618  TYR619  PRO620  LYS621  CYS622 
 ASP623  PHE694  ASN695  SER759  ASP760  ASP761  ALA762  ILE779  LEU786  VAL792 
 PHE793  MET794  SER795  GLU796  ALA797  LYS798  CYS799  TRP800  GLU811  SER814 

> <Gold.Protein.RotatedAtoms>
  152.5222  133.9495  159.7664 H   0  0  0  0  0  0  0  0  0  0  0  0  # atno 6907 bound_to 6896
  150.9808  133.6239  159.2730 H   0  0  0  0  0  0  0  0  0  0  0  0  # atno 6908 bound_to 6896
  151.3417  135.0871  159.9426 H   0  0  0  0  0  0  0  0  0  0  0  0  # atno 6909 bound_to 6896
  146.1237  140.5375  142.8724 H   0  0  0  0  0  0  0  0  0  0  0  0  # atno 7974 bound_to 7965
  154.5397  140.0748  156.8488 H   0  0  0  0  0  0  0  0  0  0  0  0  # atno 8008 bound_to 7997
  155.3206  140.3396  155.4223 H   0  0  0  0  0  0  0  0  0  0  0  0  # atno 8009 bound_to 7997
  156.1862  140.1670  156.8167 H   0  0  0  0  0  0  0  0  0  0  0  0  # atno 8010 bound_to 7997
  140.6801  143.6801  150.8113 H   0  0  0  0  0  0  0  0  0  0  0  0  # atno 10167 bound_to 10162
  157.4194  130.7960  149.7501 H   0  0  0  0  0  0  0  0  0  0  0  0  # atno 10718 bound_to 10713
  154.8458  135.3460  154.6234 H   0  0  0  0  0  0  0  0  0  0  0  0  # atno 10763 bound_to 10752
  153.6843  135.6978  153.5113 H   0  0  0  0  0  0  0  0  0  0  0  0  # atno 10764 bound_to 10752
  153.2644  135.4313  155.0881 H   0  0  0  0  0  0  0  0  0  0  0  0  # atno 10765 bound_to 10752
  140.2416  134.8046  157.3416 H   0  0  0  0  0  0  0  0  0  0  0  0  # atno 11005 bound_to 11000
  144.7622  140.5448  143.6728 LP  0  0  0  0  0  0  0  0  0  0  0  0  # atno 17320 bound_to 7965
  145.5411  139.1475  143.3446 LP  0  0  0  0  0  0  0  0  0  0  0  0  # atno 17321 bound_to 7965
  140.0500  143.5259  152.2678 LP  0  0  0  0  0  0  0  0  0  0  0  0  # atno 17342 bound_to 10162
  139.6118  144.7610  151.2935 LP  0  0  0  0  0  0  0  0  0  0  0  0  # atno 17343 bound_to 10162
  155.9875  130.3966  150.3159 LP  0  0  0  0  0  0  0  0  0  0  0  0  # atno 17370 bound_to 10713
  157.1306  131.0270  151.2971 LP  0  0  0  0  0  0  0  0  0  0  0  0  # atno 17371 bound_to 10713
  140.1648  134.4683  155.7870 LP  0  0  0  0  0  0  0  0  0  0  0  0  # atno 17394 bound_to 11000
  141.2210  133.6916  156.7606 LP  0  0  0  0  0  0  0  0  0  0  0  0  # atno 17395 bound_to 11000

$$$$
