AV-unprocessed.smi:1791|AV-procd|sdf|7218|dock9
  -GOLD-   22720 8463D 1   1.00000     0.00000
 Structure written by MMmdl.
 38 39  0  0  0  0  0  0  0  0  1 V2000
  151.3784  141.4220  157.4917 C   0  0  0  0  0  0  0  0  0  0  0  0
  151.2810  141.1582  156.0961 O   0  0  0  0  0  0  0  0  0  0  0  0
  150.8437  139.9125  155.6943 C   0  0  0  0  0  0  0  0  0  0  0  0
  150.8201  138.8680  156.6397 C   0  0  0  0  0  0  0  0  0  0  0  0
  150.3832  137.5916  156.2356 C   0  0  0  0  0  0  0  0  0  0  0  0
  149.9884  137.3984  154.8898 C   0  0  0  0  0  0  0  0  0  0  0  0
  149.5234  136.1675  154.3516 N   0  0  0  0  0  0  0  0  0  0  0  0
  149.4833  134.9537  154.9272 C   0  0  0  0  0  0  0  0  0  0  0  0
  149.8211  134.6992  156.0826 O   0  0  0  0  0  0  0  0  0  0  0  0
  149.0276  134.0323  154.0660 N   0  0  0  0  0  0  0  0  0  0  0  0
  148.8626  132.6055  154.3386 C   0  0  2  0  0  0  0  0  0  0  0  0
  150.2358  132.0016  154.6671 C   0  0  0  0  0  0  0  0  0  0  0  0
  148.2023  131.9073  153.1335 C   0  0  2  0  0  0  0  0  0  0  0  0
  146.8513  132.4884  152.7103 C   0  0  0  0  0  0  0  0  0  0  0  0
  146.1526  131.3202  152.0315 C   0  0  0  0  0  0  0  0  0  0  0  0
  146.9880  130.1007  152.4304 C   0  0  0  0  0  0  0  0  0  0  0  0
  147.8588  130.5675  153.4505 O   0  0  0  0  0  0  0  0  0  0  0  0
  150.0339  138.5131  154.0275 C   0  0  0  0  0  0  0  0  0  0  0  0
  150.4517  139.7385  154.4083 N   0  0  0  0  0  0  0  0  0  0  0  0
  151.7230  142.4447  157.6430 H   0  0  0  0  0  0  0  0  0  0  0  0
  152.0957  140.7563  157.9739 H   0  0  0  0  0  0  0  0  0  0  0  0
  150.4105  141.3232  157.9852 H   0  0  0  0  0  0  0  0  0  0  0  0
  151.1313  139.0428  157.6591 H   0  0  0  0  0  0  0  0  0  0  0  0
  150.3528  136.7992  156.9663 H   0  0  0  0  0  0  0  0  0  0  0  0
  149.2532  136.2002  153.3794 H   0  0  0  0  0  0  0  0  0  0  0  0
  148.7768  134.3417  153.1385 H   0  0  0  0  0  0  0  0  0  0  0  0
  148.2238  132.4622  155.2118 H   0  0  0  0  0  0  0  0  0  0  0  0
  150.1541  130.9394  154.8994 H   0  0  0  0  0  0  0  0  0  0  0  0
  150.6824  132.4917  155.5328 H   0  0  0  0  0  0  0  0  0  0  0  0
  150.9276  132.1061  153.8306 H   0  0  0  0  0  0  0  0  0  0  0  0
  148.8830  131.9015  152.2795 H   0  0  0  0  0  0  0  0  0  0  0  0
  146.2802  132.7925  153.5888 H   0  0  0  0  0  0  0  0  0  0  0  0
  146.9529  133.3576  152.0598 H   0  0  0  0  0  0  0  0  0  0  0  0
  145.1219  131.2325  152.3767 H   0  0  0  0  0  0  0  0  0  0  0  0
  146.1350  131.4369  150.9475 H   0  0  0  0  0  0  0  0  0  0  0  0
  146.3767  129.2703  152.7839 H   0  0  0  0  0  0  0  0  0  0  0  0
  147.5825  129.7504  151.5854 H   0  0  0  0  0  0  0  0  0  0  0  0
  149.7313  138.4195  152.9947 H   0  0  0  0  0  0  0  0  0  0  0  0
  1  2  1  0  0  0  0
  1 20  1  0  0  0  0
  1 21  1  0  0  0  0
  1 22  1  0  0  0  0
  2  3  1  0  0  0  0
  3 19  1  0  0  0  0
  3  4  2  0  0  0  0
  4  5  1  0  0  0  0
  4 23  1  0  0  0  0
  5  6  2  0  0  0  0
  5 24  1  0  0  0  0
  6  7  1  0  0  0  0
  6 18  1  0  0  0  0
  7  8  1  0  0  0  0
  7 25  1  0  0  0  0
  8  9  2  0  0  0  0
  8 10  1  0  0  0  0
 10 11  1  0  0  0  0
 10 26  1  0  0  0  0
 11 12  1  0  0  0  0
 11 13  1  0  0  0  0
 11 27  1  0  0  0  0
 12 28  1  0  0  0  0
 12 29  1  0  0  0  0
 12 30  1  0  0  0  0
 13 17  1  0  0  0  0
 13 14  1  0  0  0  0
 13 31  1  0  0  0  0
 14 15  1  0  0  0  0
 14 32  1  0  0  0  0
 14 33  1  0  0  0  0
 15 16  1  0  0  0  0
 15 34  1  0  0  0  0
 15 35  1  0  0  0  0
 16 17  1  0  0  0  0
 16 36  1  0  0  0  0
 16 37  1  0  0  0  0
 18 19  2  0  0  0  0
 18 38  1  0  0  0  0
M  END
> <s_m_source_file>
AV-unprocessed.smi

> <i_m_source_file_index>
1791

> <i_lp_mmshare_version>
43012

> <i_f3d_flags>
0

> <s_epik_input>
W0NIM11PYzFbY0hdW2NIXWMoW2NIXW4xKVtOSF1DKD1PKVtOSF1bQ0BIXShbQ0gzXSlbQ0BASF0yW0NIMl1bQ0gyXVtDSDJdTzI=

> <s_epik_cmdline>
J2VwaWtfcHl0aG9uJywgJy1waCcsICc3LjAnLCAnLXRuJywgJzgnLCAnLW1hJywgJzIwMCcsICctbWV0YWxfYmluZGluZycsICctaW1hZScsICc8aW5maWxlLm1hZT4nLCAnLW9tYWUnLCAnPG91dGZpbGUubWFlPic=

> <r_lp_tautomer_probability>
1

> <r_epik_Ionization_Penalty>
9.18737e-05

> <r_epik_Ionization_Penalty_Charging>
0

> <r_epik_Ionization_Penalty_Neutral>
9.18737e-05

> <r_epik_State_Penalty>
-0

> <r_epik_Charging_Adjusted_Penalty>
0

> <i_epik_Tot_Q>
0

> <i_epik_Tot_abs_Q>
0

> <r_epik_Metal_State_Penalty>
-0

> <b_epik_Metal_Only>
0

> <s_lp_Force_Field>
OPLS_2005

> <r_lp_Energy>
20.7661

> <b_lp_Chiralities_Consistent>
1

> <s_lp_Variant>
AV-unprocessed.smi:1791-1

> <Gold.Version>
5.8.1

> <Gold.Id.Protein>
6NUR|6NUR_protein|mol2

> <Gold.PLP.Fitness>
38.0258

> <Gold.PLP.PLP>
-25.8889

> <Gold.PLP.part.hbond>
-2.8654

> <Gold.PLP.part.metal>
0.0000

> <Gold.PLP.part.buried>
-2.5261

> <Gold.PLP.part.nonpolar>
-21.3334

> <Gold.PLP.part.repulsive>
0.2981

> <Gold.PLP.ligand.clash>
0.0150

> <Gold.PLP.ligand.torsion>
0.2453

> <Gold.PLP.Chemscore.Hbond>
2.3094

> <Gold.PLP.Chemscore.CHOScore>
1.8979

> <Gold.PLP.Chemscore.Metal>
0.0000

> <Gold.Chemscore.Hbonds>
donor molecule, donor type, donor heavy atom, donor atom, acceptor molecule, acceptor atom, score
      L1  H     7    25       P1  7948  0.98
      L1  H    10    26       P1  7948  0.26
      P1  H  7989  7998       L1    19  1.00
      L1  C    18    38       P1  7948  0.90
      L1  C    18    38       P1  7957  1.00

> <Gold.PLP.Chemscore.Internal.Correction>
0.0205

> <Gold.Rescore>
     Score         DG    S(hbond)    S(metal)    S(lipo)     H(rot)  DE(clash)    DE(int)     intcor
     14.86     -16.81       2.48        0.00      58.21       1.47       0.11       1.84       ----

> <Gold.Chemscore.Fitness>
14.8611

> <Gold.Chemscore.DG>
-16.8141

> <Gold.Chemscore.ZeroCoef>
-5.4800

> <Gold.Chemscore.Hbond>
2.4804

> <Gold.Chemscore.Metal>
0.0000

> <Gold.Chemscore.Lipo>
58.2111

> <Gold.Chemscore.Internal_Hbond>
0.0000

> <Gold.Chemscore.DEClash>
0.1116

> <Gold.Chemscore.DEInternal>
1.8413

> <Gold.Chemscore.Rot>
1.4693

> <Gold.Chemscore.Internal.Correction>
   9.000000E+99

> <Gold.Chemscore.Hbonds>
donor molecule, donor type, donor heavy atom, donor atom, acceptor molecule, acceptor atom, score
      L1  H     7    25       P1  7948  0.79
      L1  H    10    26       P1  7948  0.03
      P1  H  7989  7998       L1    19  0.35

> <Gold.Chemscore.Hbond.Weighted>
-8.2847

> <Gold.Chemscore.Metal.Weighted>
-0.0000

> <Gold.Chemscore.Lipo.Weighted>
-6.8107

> <Gold.Chemscore.Internal_Hbond.Weighted>
0.0000

> <Gold.Chemscore.DEClash.Weighted>
0.1116

> <Gold.Chemscore.DEInternal.Weighted>
1.8413

> <Gold.Chemscore.Rot.Weighted>
3.7613

> <Gold.Chemscore.Internal.Correction.Weighted>
   9.000000E+99

> <Gold.Protein.RotatedTorsions>
[ 6907 6896 6895 6894 ] final  115.26 input  -60.11 | X-H torsion
[ 7974 7965 7964 7962 ] final -131.44 input  175.53 | X-H torsion
[ 8008 7997 7996 7995 ] final -163.43 input   59.86 | X-H torsion
[ 10167 10162 10161 10158 ] final   53.98 input  -65.29 | X-H torsion
[ 10718 10713 10712 10709 ] final  151.70 input   66.30 | X-H torsion
[ 10763 10752 10751 10750 ] final   93.26 input  -60.55 | X-H torsion
[ 11005 11000 10999 10996 ] final   55.16 input  -57.11 | X-H torsion

> <Gold.Protein.ActiveResidues>
 VAL166  LYS551  ARG553  GLY616  TRP617  ASP618  TYR619  PRO620  LYS621  CYS622 
 ASP623  PHE694  ASN695  SER759  ASP760  ASP761  ALA762  ILE779  LEU786  VAL792 
 PHE793  MET794  SER795  GLU796  ALA797  LYS798  CYS799  TRP800  GLU811  SER814 

> <Gold.Protein.RotatedAtoms>
  152.4753  133.8123  159.7009 H   0  0  0  0  0  0  0  0  0  0  0  0  # atno 6907 bound_to 6896
  150.8765  133.7421  159.2951 H   0  0  0  0  0  0  0  0  0  0  0  0  # atno 6908 bound_to 6896
  151.4939  135.1062  159.9863 H   0  0  0  0  0  0  0  0  0  0  0  0  # atno 6909 bound_to 6896
  144.9379  140.7204  143.4865 H   0  0  0  0  0  0  0  0  0  0  0  0  # atno 7974 bound_to 7965
  155.8212  140.0920  157.1848 H   0  0  0  0  0  0  0  0  0  0  0  0  # atno 8008 bound_to 7997
  154.3979  140.1436  156.3562 H   0  0  0  0  0  0  0  0  0  0  0  0  # atno 8009 bound_to 7997
  155.8264  140.3444  155.5548 H   0  0  0  0  0  0  0  0  0  0  0  0  # atno 8010 bound_to 7997
  140.2350  144.3645  150.6400 H   0  0  0  0  0  0  0  0  0  0  0  0  # atno 10167 bound_to 10162
  157.2673  131.0810  151.1624 H   0  0  0  0  0  0  0  0  0  0  0  0  # atno 10718 bound_to 10713
  153.2284  135.4331  155.0567 H   0  0  0  0  0  0  0  0  0  0  0  0  # atno 10763 bound_to 10752
  154.8284  135.3373  154.6824 H   0  0  0  0  0  0  0  0  0  0  0  0  # atno 10764 bound_to 10752
  153.7252  135.7014  153.5059 H   0  0  0  0  0  0  0  0  0  0  0  0  # atno 10765 bound_to 10752
  140.0629  134.5577  155.9132 H   0  0  0  0  0  0  0  0  0  0  0  0  # atno 11005 bound_to 11000
  145.3038  139.1841  143.4675 LP  0  0  0  0  0  0  0  0  0  0  0  0  # atno 17320 bound_to 7965
  146.3274  140.3033  142.8622 LP  0  0  0  0  0  0  0  0  0  0  0  0  # atno 17321 bound_to 7965
  140.6156  143.2172  151.6798 LP  0  0  0  0  0  0  0  0  0  0  0  0  # atno 17342 bound_to 10162
  139.5097  144.3569  152.0599 LP  0  0  0  0  0  0  0  0  0  0  0  0  # atno 17343 bound_to 10162
  157.3110  130.6890  149.6216 LP  0  0  0  0  0  0  0  0  0  0  0  0  # atno 17370 bound_to 10713
  155.9663  130.4363  150.5130 LP  0  0  0  0  0  0  0  0  0  0  0  0  # atno 17371 bound_to 10713
  141.1981  133.6599  156.5773 LP  0  0  0  0  0  0  0  0  0  0  0  0  # atno 17394 bound_to 11000
  140.3743  134.7579  157.4619 LP  0  0  0  0  0  0  0  0  0  0  0  0  # atno 17395 bound_to 11000

$$$$
