#       Name:                AV-unprocessed.smi:2073
#       Creating user name   scv26
#       Creation time:       Fri Mar 27 11:14:34 2020


#       File generated by GOLD software.
#

@<TRIPOS>MOLECULE
AV-unprocessed.smi:2073
    33    33     1
SMALL
NO_CHARGES


@<TRIPOS>ATOM
      1 ****        -3.6853  -1.1953   0.6436 C.3            1 S1                 0.0000
      2 ****        -3.1688  -0.1179  -0.3246 C.3            1 S1                 0.0000
      3 ****        -3.7335  -0.3233  -1.7398 C.3            1 S1                 0.0000
      4 ****        -1.6342  -0.0994  -0.3493 C.2            1 S1                 0.0000
      5 ****        -1.0196  -1.0981  -0.7266 O.2            1 S1                 0.0000
      6 ****        -1.0538   1.0460   0.0567 N.am           1 S1                 0.0000
      7 ****         0.3304   1.3455   0.1505 C.2            1 S1                 0.0000
      8 ****         1.3087   0.5007  -0.1931 N.2            1 S1                 0.0000
      9 ****         2.5796   1.0474   0.0149 C.2            1 S1                 0.0000
     10 ****         3.8034   0.2402  -0.3075 C.3            1 S1                 0.0000
     11 ****         4.1980  -0.6268   0.8897 C.2            1 S1                 0.0000
     12 ****         3.5692  -1.7974   1.0285 N.am           1 S1                 0.0000
     13 ****         5.0615  -0.2466   1.6775 O.2            1 S1                 0.0000
     14 ****         2.5426   2.3289   0.5097 C.2            1 S1                 0.0000
     15 ****         0.9100   2.8937   0.7446 S.3            1 S1                 0.0000
     16 ****        -3.2779  -1.0569   1.6460 H              1 S1                 0.0000
     17 ****        -3.4166  -2.1985   0.3098 H              1 S1                 0.0000
     18 ****        -4.7718  -1.1561   0.7255 H              1 S1                 0.0000
     19 ****        -3.5194   0.8504   0.0370 H              1 S1                 0.0000
     20 ****        -3.3628   0.4362  -2.4294 H              1 S1                 0.0000
     21 ****        -4.8217  -0.2578  -1.7368 H              1 S1                 0.0000
     22 ****        -3.4634  -1.3002  -2.1431 H              1 S1                 0.0000
     23 ****        -1.6780   1.7872   0.3396 H              1 S1                 0.0000
     24 ****         3.6325  -0.3954  -1.1777 H              1 S1                 0.0000
     25 ****         4.6374   0.8942  -0.5653 H              1 S1                 0.0000
     26 ****         3.8050  -2.4071   1.7986 H              1 S1                 0.0000
     27 ****         2.8675  -2.0735   0.3572 H              1 S1                 0.0000
     28 ****         3.3761   2.9709   0.7531 H              1 S1                 0.0000
     29 ****        -1.5205  -1.9144  -1.0144 LP             1 S1                 0.0000
     30 ****        -0.0198  -1.0926  -0.7451 LP             1 S1                 0.0000
     31 ****         1.1499  -0.4170  -0.5572 LP             1 S1                 0.0000
     32 ****         5.5118   0.6353   1.5384 LP             1 S1                 0.0000
     33 ****         5.3137  -0.8193   2.4575 LP             1 S1                 0.0000
@<TRIPOS>BOND
    1    1    2 1     
    2    1   16 1     
    3    1   17 1     
    4    1   18 1     
    5    2    3 1     
    6    2    4 1     
    7    2   19 1     
    8    3   20 1     
    9    3   21 1     
   10    3   22 1     
   11    4    5 2     
   12    4    6 am    
   13    6    7 1     
   14    6   23 1     
   15    7   15 1     
   16    7    8 2     
   17    8    9 1     
   18    9   10 1     
   19    9   14 2     
   20   10   11 1     
   21   10   24 1     
   22   10   25 1     
   23   11   12 am    
   24   11   13 2     
   25   12   26 1     
   26   12   27 1     
   27   14   15 1     
   28   14   28 1     
   29    5   29 1     
   30    5   30 1     
   31    8   31 1     
   32   13   32 1     
   33   13   33 1     
@<TRIPOS>SUBSTRUCTURE
      1 S1             1
@<TRIPOS>SET
LONE_PAIRS      STATIC     ATOMS    <user>   **** ""
5 29 30 31 32 33
DONOR_HYDROGENS      STATIC     ATOMS    <user>   **** ""
3 23 26 27
ATOM$BLUE        STATIC     ATOMS    COLORGROUP SYSTEM
5 29 30 31 32 33
ATOM$RED        STATIC     ATOMS    COLORGROUP SYSTEM
3 23 26 27
