AV-unprocessed.smi:287|AV-procd|sdf|2180|dock2
  -GOLD-   2262021543D 1   1.00000     0.00000
 Structure written by MMmdl.
 55 58  0  0  0  0  0  0  0  0  1 V2000
  151.9017  143.4877  157.9793 C   0  0  0  0  0  0  0  0  0  0  0  0
  150.9649  142.5858  157.2515 C   0  0  0  0  0  0  0  0  0  0  0  0
  151.0714  141.8259  156.1235 C   0  0  0  0  0  0  0  0  0  0  0  0
  149.8185  141.1711  155.9303 C   0  0  0  0  0  0  0  0  0  0  0  0
  149.4727  140.2218  154.7908 C   0  0  2  0  0  0  0  0  0  0  0  0
  150.4160  139.0080  154.8215 C   0  0  0  0  0  0  0  0  0  0  0  0
  149.6541  140.8049  153.5148 O   0  0  0  0  0  0  0  0  0  0  0  0
  148.0006  139.7525  154.8389 C   0  0  0  0  0  0  0  0  0  0  0  0
  147.6172  138.9636  153.6726 N   0  0  0  0  0  0  0  0  0  0  0  0
  147.3571  137.6457  153.8002 C   0  0  0  0  0  0  0  0  0  0  0  0
  147.8678  136.9275  154.8348 N   0  0  0  0  0  0  0  0  0  0  0  0
  147.5938  135.6233  154.9415 C   0  0  0  0  0  0  0  0  0  0  0  0
  146.8464  134.8584  154.1419 N   0  0  0  0  0  0  0  0  0  0  0  0
  146.3346  135.5782  153.1018 C   0  0  0  0  0  0  0  0  0  0  0  0
  146.5414  136.9640  152.8611 C   0  0  0  0  0  0  0  0  0  0  0  0
  145.8640  137.3471  151.7106 N   0  0  0  0  0  0  0  0  0  0  0  0
  145.2922  136.2469  151.2987 C   0  0  0  0  0  0  0  0  0  0  0  0
  145.5297  135.1324  152.0768 N   0  0  0  0  0  0  0  0  0  0  0  0
  145.0384  133.7262  151.9064 C   0  0  1  0  0  0  0  0  0  0  0  0
  144.1593  133.6967  150.8213 O   0  0  0  0  0  0  0  0  0  0  0  0
  144.8182  133.1546  149.6820 C   0  0  2  0  0  0  0  0  0  0  0  0
  143.7806  132.6373  148.6745 C   0  0  0  0  0  0  0  0  0  0  0  0
  142.9034  131.7324  149.3103 O   0  0  0  0  0  0  0  0  0  0  0  0
  145.6590  132.0526  150.3257 C   0  0  1  0  0  0  0  0  0  0  0  0
  146.6853  131.5741  149.4761 O   0  0  0  0  0  0  0  0  0  0  0  0
  146.1803  132.7286  151.5922 C   0  0  1  0  0  0  0  0  0  0  0  0
  147.4455  133.3424  151.3910 O   0  0  0  0  0  0  0  0  0  0  0  0
  149.0336  141.6023  156.9729 C   0  0  0  0  0  0  0  0  0  0  0  0
  147.6243  141.3372  157.3898 C   0  0  0  0  0  0  0  0  0  0  0  0
  149.7221  142.4576  157.7796 O   0  0  0  0  0  0  0  0  0  0  0  0
  144.5032  133.5073  152.8312 H   0  0  0  0  0  0  0  0  0  0  0  0
  145.4722  133.9030  149.2297 H   0  0  0  0  0  0  0  0  0  0  0  0
  145.0135  131.2186  150.6057 H   0  0  0  0  0  0  0  0  0  0  0  0
  146.2720  132.0130  152.4098 H   0  0  0  0  0  0  0  0  0  0  0  0
  152.9098  143.4127  157.5712 H   0  0  0  0  0  0  0  0  0  0  0  0
  151.9458  143.2286  159.0374 H   0  0  0  0  0  0  0  0  0  0  0  0
  151.5800  144.5260  157.8972 H   0  0  0  0  0  0  0  0  0  0  0  0
  151.9528  141.7441  155.5048 H   0  0  0  0  0  0  0  0  0  0  0  0
  150.3248  138.4604  155.7604 H   0  0  0  0  0  0  0  0  0  0  0  0
  151.4586  139.3135  154.7210 H   0  0  0  0  0  0  0  0  0  0  0  0
  150.1967  138.3089  154.0134 H   0  0  0  0  0  0  0  0  0  0  0  0
  149.4711  140.1507  152.8581 H   0  0  0  0  0  0  0  0  0  0  0  0
  147.7984  139.1990  155.7575 H   0  0  0  0  0  0  0  0  0  0  0  0
  147.3551  140.6319  154.8565 H   0  0  0  0  0  0  0  0  0  0  0  0
  147.5251  139.4697  152.8032 H   0  0  0  0  0  0  0  0  0  0  0  0
  148.0375  135.1208  155.7881 H   0  0  0  0  0  0  0  0  0  0  0  0
  144.6773  136.2258  150.4109 H   0  0  0  0  0  0  0  0  0  0  0  0
  143.1788  133.4644  148.2967 H   0  0  0  0  0  0  0  0  0  0  0  0
  144.2590  132.1652  147.8160 H   0  0  0  0  0  0  0  0  0  0  0  0
  142.0304  131.8761  148.9781 H   0  0  0  0  0  0  0  0  0  0  0  0
  147.3613  131.1875  150.0116 H   0  0  0  0  0  0  0  0  0  0  0  0
  147.9618  132.7838  150.8301 H   0  0  0  0  0  0  0  0  0  0  0  0
  146.9313  141.5769  156.5833 H   0  0  0  0  0  0  0  0  0  0  0  0
  147.3488  141.9372  158.2574 H   0  0  0  0  0  0  0  0  0  0  0  0
  147.4904  140.2878  157.6517 H   0  0  0  0  0  0  0  0  0  0  0  0
  1  2  1  0  0  0  0
  1 35  1  0  0  0  0
  1 36  1  0  0  0  0
  1 37  1  0  0  0  0
  2 30  1  0  0  0  0
  2  3  2  0  0  0  0
  3  4  1  0  0  0  0
  3 38  1  0  0  0  0
  4  5  1  0  0  0  0
  4 28  2  0  0  0  0
  5  6  1  0  0  0  0
  5  7  1  0  0  0  0
  5  8  1  0  0  0  0
  6 39  1  0  0  0  0
  6 40  1  0  0  0  0
  6 41  1  0  0  0  0
  7 42  1  0  0  0  0
  8  9  1  0  0  0  0
  8 43  1  0  0  0  0
  8 44  1  0  0  0  0
  9 10  1  0  0  0  0
  9 45  1  0  0  0  0
 10 15  1  0  0  0  0
 10 11  2  0  0  0  0
 11 12  1  0  0  0  0
 12 13  2  0  0  0  0
 12 46  1  0  0  0  0
 13 14  1  0  0  0  0
 14 18  1  0  0  0  0
 14 15  2  0  0  0  0
 15 16  1  0  0  0  0
 16 17  2  0  0  0  0
 17 18  1  0  0  0  0
 17 47  1  0  0  0  0
 18 19  1  0  0  0  0
 19 31  1  0  0  0  0
 19 26  1  0  0  0  0
 19 20  1  0  0  0  0
 20 21  1  0  0  0  0
 21 32  1  0  0  0  0
 21 22  1  0  0  0  0
 21 24  1  0  0  0  0
 22 23  1  0  0  0  0
 22 48  1  0  0  0  0
 22 49  1  0  0  0  0
 23 50  1  0  0  0  0
 24 33  1  0  0  0  0
 24 25  1  0  0  0  0
 24 26  1  0  0  0  0
 25 51  1  0  0  0  0
 26 34  1  0  0  0  0
 26 27  1  0  0  0  0
 27 52  1  0  0  0  0
 28 29  1  0  0  0  0
 28 30  1  0  0  0  0
 29 53  1  0  0  0  0
 29 54  1  0  0  0  0
 29 55  1  0  0  0  0
M  END
> <s_m_source_file>
AV-unprocessed.smi

> <i_m_source_file_index>
287

> <i_lp_mmshare_version>
43012

> <i_f3d_flags>
0

> <s_epik_input>
W0NIM11jMVtjSF1jKGMobzEpW0NIM10pW0NAQF0oW0NIM10pKFtPSF0pW0NIMl1bTkhdYyhuW2NIXW4yKWMoYzIzKW5bY0hdbjNbQ0BASF00T1tDQEhdKFtDSDJdW09IXSlbQ0BASF0oW09IXSlbQ0BIXTRbT0hd

> <s_epik_cmdline>
J2VwaWtfcHl0aG9uJywgJy1waCcsICc3LjAnLCAnLXRuJywgJzgnLCAnLW1hJywgJzIwMCcsICctbWV0YWxfYmluZGluZycsICctaW1hZScsICc8aW5maWxlLm1hZT4nLCAnLW9tYWUnLCAnPG91dGZpbGUubWFlPic=

> <r_lp_tautomer_probability>
1

> <r_epik_Ionization_Penalty>
0.000992612

> <r_epik_Ionization_Penalty_Charging>
0

> <r_epik_Ionization_Penalty_Neutral>
0.000992612

> <r_epik_State_Penalty>
-0

> <r_epik_Charging_Adjusted_Penalty>
0

> <i_epik_Tot_Q>
0

> <i_epik_Tot_abs_Q>
0

> <r_epik_Metal_State_Penalty>
-0

> <b_epik_Metal_Only>
0

> <s_epik_Chemistry_Notes>
This compound contains an acetal/aminal-like group ( X-CH(R)-Y where X, Y are N, S, or O) that may be acid/base labile, releasing an aldehyde.

> <s_lp_Force_Field>
OPLS_2005

> <r_lp_Energy>
46.7929

> <b_lp_Chiralities_Consistent>
1

> <s_lp_Variant>
AV-unprocessed.smi:287-4

> <Gold.Version>
5.8.1

> <Gold.Id.Protein>
6NUR|6NUR_protein|mol2

> <Gold.PLP.Fitness>
55.7813

> <Gold.PLP.PLP>
-40.1159

> <Gold.PLP.part.hbond>
-6.8847

> <Gold.PLP.part.metal>
0.0000

> <Gold.PLP.part.buried>
0.3477

> <Gold.PLP.part.nonpolar>
-33.8669

> <Gold.PLP.part.repulsive>
1.6055

> <Gold.PLP.ligand.clash>
0.0000

> <Gold.PLP.ligand.torsion>
0.2864

> <Gold.PLP.Chemscore.Hbond>
4.6770

> <Gold.PLP.Chemscore.CHOScore>
0.6005

> <Gold.PLP.Chemscore.Metal>
0.0000

> <Gold.Chemscore.Hbonds>
donor molecule, donor type, donor heavy atom, donor atom, acceptor molecule, acceptor atom, score
      L1  H     7    42       P1  7957  0.72
      L1  H    23    50       P1 10952  0.21
      L1  H    25    51       P1 10747  0.98
      L1  H    27    52       P1 10747  0.49
      P1  H  7989  7998       L1     7  0.35
      P1  H  8011  8017       L1     7  0.95
      P1  H 10785 10796       L1    23  1.00
      L1  C    17    47       P1 10171  0.60

> <Gold.PLP.Chemscore.Internal.Correction>
0.4058

> <Gold.Rescore>
     Score         DG    S(hbond)    S(metal)    S(lipo)     H(rot)  DE(clash)    DE(int)     intcor
      9.63     -13.41       2.94        0.00      99.08       5.27       1.74       2.04       ----

> <Gold.Chemscore.Fitness>
9.6338

> <Gold.Chemscore.DG>
-13.4095

> <Gold.Chemscore.ZeroCoef>
-5.4800

> <Gold.Chemscore.Hbond>
2.9404

> <Gold.Chemscore.Metal>
0.0000

> <Gold.Chemscore.Lipo>
99.0816

> <Gold.Chemscore.Internal_Hbond>
0.0000

> <Gold.Chemscore.DEClash>
1.7386

> <Gold.Chemscore.DEInternal>
2.0371

> <Gold.Chemscore.Rot>
5.2672

> <Gold.Chemscore.Internal.Correction>
   9.000000E+99

> <Gold.Chemscore.Hbonds>
donor molecule, donor type, donor heavy atom, donor atom, acceptor molecule, acceptor atom, score
      L1  H     7    42       P1  7957  0.72
      L1  H    23    50       P1 10952  0.21
      L1  H    25    51       P1 10747  0.93
      L1  H    27    52       P1 10747  0.49
      P1  H  7989  7998       L1     7  0.03
      P1  H  8011  8017       L1     7  0.20
      P1  H 10785 10796       L1    23  0.19

> <Gold.Chemscore.Hbond.Weighted>
-9.8209

> <Gold.Chemscore.Metal.Weighted>
-0.0000

> <Gold.Chemscore.Lipo.Weighted>
-11.5925

> <Gold.Chemscore.Internal_Hbond.Weighted>
0.0000

> <Gold.Chemscore.DEClash.Weighted>
1.7386

> <Gold.Chemscore.DEInternal.Weighted>
2.0371

> <Gold.Chemscore.Rot.Weighted>
13.4839

> <Gold.Chemscore.Internal.Correction.Weighted>
   9.000000E+99

> <Gold.Protein.RotatedTorsions>
[ 6907 6896 6895 6894 ] final   56.44 input  -60.11 | X-H torsion
[ 7974 7965 7964 7962 ] final -137.48 input  175.53 | X-H torsion
[ 8008 7997 7996 7995 ] final -103.26 input   59.86 | X-H torsion
[ 10167 10162 10161 10158 ] final -175.28 input  -65.29 | X-H torsion
[ 10718 10713 10712 10709 ] final   90.65 input   66.30 | X-H torsion
[ 10763 10752 10751 10750 ] final  122.37 input  -60.55 | X-H torsion
[ 11005 11000 10999 10996 ] final  -84.29 input  -57.11 | X-H torsion

> <Gold.Protein.ActiveResidues>
 VAL166  LYS551  ARG553  GLY616  TRP617  ASP618  TYR619  PRO620  LYS621  CYS622 
 ASP623  PHE694  ASN695  SER759  ASP760  ASP761  ALA762  ILE779  LEU786  VAL792 
 PHE793  MET794  SER795  GLU796  ALA797  LYS798  CYS799  TRP800  GLU811  SER814 

> <Gold.Protein.RotatedAtoms>
  152.3636  134.6836  160.0198 H   0  0  0  0  0  0  0  0  0  0  0  0  # atno 6907 bound_to 6896
  151.7151  133.3307  159.3309 H   0  0  0  0  0  0  0  0  0  0  0  0  # atno 6908 bound_to 6896
  150.7622  134.6432  159.6292 H   0  0  0  0  0  0  0  0  0  0  0  0  # atno 6909 bound_to 6896
  144.8838  140.6546  143.5189 H   0  0  0  0  0  0  0  0  0  0  0  0  # atno 7974 bound_to 7965
  154.8684  140.0424  157.1709 H   0  0  0  0  0  0  0  0  0  0  0  0  # atno 8008 bound_to 7997
  154.8765  140.2966  155.5430 H   0  0  0  0  0  0  0  0  0  0  0  0  # atno 8009 bound_to 7997
  156.2999  140.2419  156.3761 H   0  0  0  0  0  0  0  0  0  0  0  0  # atno 8010 bound_to 7997
  139.5589  144.1919  152.1206 H   0  0  0  0  0  0  0  0  0  0  0  0  # atno 10167 bound_to 10162
  157.6959  131.0378  150.3610 H   0  0  0  0  0  0  0  0  0  0  0  0  # atno 10718 bound_to 10713
  153.6287  135.3400  155.3034 H   0  0  0  0  0  0  0  0  0  0  0  0  # atno 10763 bound_to 10752
  154.8585  135.4290  154.2129 H   0  0  0  0  0  0  0  0  0  0  0  0  # atno 10764 bound_to 10752
  153.3019  135.7025  153.7268 H   0  0  0  0  0  0  0  0  0  0  0  0  # atno 10765 bound_to 10752
  141.1651  133.7338  156.8846 H   0  0  0  0  0  0  0  0  0  0  0  0  # atno 11005 bound_to 11000
  145.3905  139.1617  143.4231 LP  0  0  0  0  0  0  0  0  0  0  0  0  # atno 17320 bound_to 7965
  146.3012  140.3994  142.8703 LP  0  0  0  0  0  0  0  0  0  0  0  0  # atno 17321 bound_to 7965
  140.1428  144.5186  150.6733 LP  0  0  0  0  0  0  0  0  0  0  0  0  # atno 17342 bound_to 10162
  140.6866  143.2353  151.5243 LP  0  0  0  0  0  0  0  0  0  0  0  0  # atno 17343 bound_to 10162
  156.4047  130.3922  149.6934 LP  0  0  0  0  0  0  0  0  0  0  0  0  # atno 17370 bound_to 10713
  156.4239  130.7782  151.2800 LP  0  0  0  0  0  0  0  0  0  0  0  0  # atno 17371 bound_to 10713
  140.1691  134.9112  157.2811 LP  0  0  0  0  0  0  0  0  0  0  0  0  # atno 17394 bound_to 11000
  140.2523  134.3669  155.7437 LP  0  0  0  0  0  0  0  0  0  0  0  0  # atno 17395 bound_to 11000

$$$$
