#       Name:                AV-unprocessed.smi:2034
#       Creating user name   scv26
#       Creation time:       Fri Mar 27 10:54:06 2020


#       File generated by GOLD software.
#

@<TRIPOS>MOLECULE
AV-unprocessed.smi:2034
    58    60     1
SMALL
NO_CHARGES


@<TRIPOS>ATOM
      1 ****        -6.2452  -0.8125   0.0043 C.3            1 S1                 0.0000
      2 ****        -5.7045   0.0699   1.1437 C.3            1 S1                 0.0000
      3 ****        -4.1650   0.0912   1.2278 C.3            1 S1                 0.0000
      4 ****        -3.6020   0.9008   0.1559 N.3            1 S1                 0.0000
      5 ****        -2.2030   0.8487   0.0984 C.ar           1 S1                 0.0000
      6 ****        -1.3968   1.4464   1.0940 C.ar           1 S1                 0.0000
      7 ****         0.0026   1.3587   0.9716 C.ar           1 S1                 0.0000
      8 ****         0.5558   0.6726  -0.1281 C.ar           1 S1                 0.0000
      9 ****         1.9714   0.6228  -0.2418 N.am           1 S1                 0.0000
     10 ****         2.7232  -0.2457  -0.9396 C.2            1 S1                 0.0000
     11 ****         2.2943  -1.2116  -1.5707 O.2            1 S1                 0.0000
     12 ****         4.0253   0.0562  -0.8441 N.am           1 S1                 0.0000
     13 ****         5.1094  -0.7056  -1.4538 C.3            1 S1                 0.0000
     14 ****         5.5013  -1.9163  -0.5913 C.3            1 S1                 0.0000
     15 ****         6.6055  -2.7760  -1.2032 C.3            1 S1                 0.0000
     16 ****         7.1839  -3.4423   0.0240 C.3            1 S1                 0.0000
     17 ****         7.1263  -2.3115   1.0470 C.3            1 S1                 0.0000
     18 ****         6.0247  -1.4911   0.6653 O.3            1 S1                 0.0000
     19 ****        -0.3385   0.1143  -1.0737 C.ar           1 S1                 0.0000
     20 ****        -1.6818   0.1966  -0.9630 N.ar           1 S1                 0.0000
     21 ****        -4.1459   2.2512   0.1317 C.3            1 S1                 0.0000
     22 ****        -5.6796   2.1975   0.0124 C.3            1 S1                 0.0000
     23 ****        -6.3075   3.5924   0.0973 C.3            1 S1                 0.0000
     24 ****        -6.2113   1.4062   1.0763 O.3            1 S1                 0.0000
     25 ****        -5.9509  -1.8522   0.1485 H              1 S1                 0.0000
     26 ****        -5.8709  -0.5040  -0.9716 H              1 S1                 0.0000
     27 ****        -7.3342  -0.7802  -0.0291 H              1 S1                 0.0000
     28 ****        -6.0820  -0.3526   2.0751 H              1 S1                 0.0000
     29 ****        -3.8602   0.5094   2.1882 H              1 S1                 0.0000
     30 ****        -3.7676  -0.9236   1.1820 H              1 S1                 0.0000
     31 ****        -1.8362   1.9620   1.9351 H              1 S1                 0.0000
     32 ****         0.6405   1.8110   1.7169 H              1 S1                 0.0000
     33 ****         2.4747   1.3058   0.3053 H              1 S1                 0.0000
     34 ****         4.2894   0.8623  -0.2970 H              1 S1                 0.0000
     35 ****         4.8187  -1.0320  -2.4538 H              1 S1                 0.0000
     36 ****         5.9657  -0.0430  -1.5818 H              1 S1                 0.0000
     37 ****         4.6317  -2.5465  -0.3974 H              1 S1                 0.0000
     38 ****         6.2321  -3.4861  -1.9414 H              1 S1                 0.0000
     39 ****         7.3631  -2.1520  -1.6798 H              1 S1                 0.0000
     40 ****         6.5434  -4.2678   0.3378 H              1 S1                 0.0000
     41 ****         8.1917  -3.8291  -0.1289 H              1 S1                 0.0000
     42 ****         7.0151  -2.6799   2.0670 H              1 S1                 0.0000
     43 ****         8.0351  -1.7104   1.0010 H              1 S1                 0.0000
     44 ****         0.0098  -0.3930  -1.9596 H              1 S1                 0.0000
     45 ****        -3.8621   2.7811   1.0420 H              1 S1                 0.0000
     46 ****        -3.7233   2.8029  -0.7089 H              1 S1                 0.0000
     47 ****        -5.9584   1.7593  -0.9462 H              1 S1                 0.0000
     48 ****        -5.9429   4.2362  -0.7035 H              1 S1                 0.0000
     49 ****        -6.0729   4.0733   1.0472 H              1 S1                 0.0000
     50 ****        -7.3928   3.5375   0.0103 H              1 S1                 0.0000
     51 ****        -3.9026   0.4790  -0.6995 LP             1 S1                 0.0000
     52 ****         1.3124  -1.3998  -1.5906 LP             1 S1                 0.0000
     53 ****         2.9278  -1.8082  -2.0634 LP             1 S1                 0.0000
     54 ****         5.3084  -1.5568   1.3601 LP             1 S1                 0.0000
     55 ****         6.3307  -0.5420   0.5909 LP             1 S1                 0.0000
     56 ****        -2.2775  -0.2163  -1.6519 LP             1 S1                 0.0000
     57 ****        -5.9984   1.8632   1.9399 LP             1 S1                 0.0000
     58 ****        -7.2034   1.3568   0.9611 LP             1 S1                 0.0000
@<TRIPOS>BOND
    1    1    2 1     
    2    1   25 1     
    3    1   26 1     
    4    1   27 1     
    5    2   24 1     
    6    2    3 1     
    7    2   28 1     
    8    3    4 1     
    9    3   29 1     
   10    3   30 1     
   11    4    5 1     
   12    4   21 1     
   13    5   20 ar    
   14    5    6 ar    
   15    6    7 ar    
   16    6   31 1     
   17    7    8 ar    
   18    7   32 1     
   19    8    9 1     
   20    8   19 ar    
   21    9   10 am    
   22    9   33 1     
   23   10   11 2     
   24   10   12 am    
   25   12   13 1     
   26   12   34 1     
   27   13   14 1     
   28   13   35 1     
   29   13   36 1     
   30   14   18 1     
   31   14   15 1     
   32   14   37 1     
   33   15   16 1     
   34   15   38 1     
   35   15   39 1     
   36   16   17 1     
   37   16   40 1     
   38   16   41 1     
   39   17   18 1     
   40   17   42 1     
   41   17   43 1     
   42   19   20 ar    
   43   19   44 1     
   44   21   22 1     
   45   21   45 1     
   46   21   46 1     
   47   22   23 1     
   48   22   24 1     
   49   22   47 1     
   50   23   48 1     
   51   23   49 1     
   52   23   50 1     
   53    4   51 1     
   54   11   52 1     
   55   11   53 1     
   56   18   54 1     
   57   18   55 1     
   58   20   56 1     
   59   24   57 1     
   60   24   58 1     
@<TRIPOS>SUBSTRUCTURE
      1 S1             1
@<TRIPOS>SET
LONE_PAIRS      STATIC     ATOMS    <user>   **** ""
8 51 52 53 54 55 56 57 58
DONOR_HYDROGENS      STATIC     ATOMS    <user>   **** ""
2 33 34
ATOM$BLUE        STATIC     ATOMS    COLORGROUP SYSTEM
8 51 52 53 54 55 56 57 58
ATOM$RED        STATIC     ATOMS    COLORGROUP SYSTEM
2 33 34
