AV-unprocessed.smi:2026|AV-procd|sdf|8206|dock2
  -GOLD-   2272010463D 1   1.00000     0.00000
 Structure written by MMmdl.
 45 47  0  0  0  0  0  0  0  0  2 V2000
  152.3717  143.4039  161.3064 C   0  0  0  0  0  0  0  0  0  0  0  0
  152.0769  142.6738  160.0079 C   0  0  0  0  0  0  0  0  0  0  0  0
  152.2333  141.2702  159.9568 C   0  0  0  0  0  0  0  0  0  0  0  0
  151.9699  140.5545  158.7682 C   0  0  0  0  0  0  0  0  0  0  0  0
  152.0556  139.1992  158.4975 N   0  0  0  0  0  0  0  0  0  0  0  0
  151.6834  139.1575  157.2212 C   0  0  0  0  0  0  0  0  0  0  0  0
  151.3697  140.3271  156.6316 N   0  0  0  0  0  0  0  0  0  0  0  0
  150.9436  140.5249  155.2574 C   0  0  0  0  0  0  0  0  0  0  0  0
  149.5626  141.2012  155.1556 C   0  0  1  0  0  0  0  0  0  0  0  0
  149.1636  141.2125  153.7981 O   0  0  0  0  0  0  0  0  0  0  0  0
  148.5025  140.4423  155.9798 C   0  0  0  0  0  0  0  0  0  0  0  0
  147.2570  141.2059  156.1136 N   0  0  0  0  0  0  0  0  0  0  0  0
  146.7985  141.7479  157.2577 C   0  0  0  0  0  0  0  0  0  0  0  0
  147.4074  141.6507  158.3226 O   0  0  0  0  0  0  0  0  0  0  0  0
  145.6209  142.3851  157.0554 N   0  5  0  0  0  0  0  0  0  0  0  0
  145.2520  142.2554  155.6598 C   0  0  0  0  0  0  0  0  0  0  0  0
  143.9207  141.4913  155.5320 C   0  0  0  0  0  0  0  0  0  0  0  0
  145.1738  143.6450  154.9995 C   0  0  0  0  0  0  0  0  0  0  0  0
  146.4104  141.4451  155.1067 C   0  0  0  0  0  0  0  0  0  0  0  0
  146.5175  141.0858  153.9330 O   0  0  0  0  0  0  0  0  0  0  0  0
  151.5441  141.2876  157.6222 C   0  0  0  0  0  0  0  0  0  0  0  0
  151.3839  142.6842  157.6609 C   0  0  0  0  0  0  0  0  0  0  0  0
  151.6505  143.3834  158.8565 C   0  0  0  0  0  0  0  0  0  0  0  0
  151.4718  144.8909  158.8880 C   0  0  0  0  0  0  0  0  0  0  0  0
  152.6520  142.7102  162.0995 H   0  0  0  0  0  0  0  0  0  0  0  0
  151.4949  143.9582  161.6420 H   0  0  0  0  0  0  0  0  0  0  0  0
  153.1943  144.1061  161.1693 H   0  0  0  0  0  0  0  0  0  0  0  0
  152.5573  140.7291  160.8337 H   0  0  0  0  0  0  0  0  0  0  0  0
  151.6352  138.2228  156.6817 H   0  0  0  0  0  0  0  0  0  0  0  0
  151.6985  141.1155  154.7368 H   0  0  0  0  0  0  0  0  0  0  0  0
  150.9208  139.5505  154.7678 H   0  0  0  0  0  0  0  0  0  0  0  0
  149.6483  142.2316  155.5035 H   0  0  0  0  0  0  0  0  0  0  0  0
  148.7014  140.4097  153.6129 H   0  0  0  0  0  0  0  0  0  0  0  0
  148.3201  139.4511  155.5609 H   0  0  0  0  0  0  0  0  0  0  0  0
  148.8883  140.2578  156.9839 H   0  0  0  0  0  0  0  0  0  0  0  0
  143.6341  141.3690  154.4868 H   0  0  0  0  0  0  0  0  0  0  0  0
  143.1114  142.0244  156.0323 H   0  0  0  0  0  0  0  0  0  0  0  0
  143.9808  140.4960  155.9754 H   0  0  0  0  0  0  0  0  0  0  0  0
  144.8998  143.5668  153.9467 H   0  0  0  0  0  0  0  0  0  0  0  0
  146.1272  144.1733  155.0526 H   0  0  0  0  0  0  0  0  0  0  0  0
  144.4250  144.2710  155.4861 H   0  0  0  0  0  0  0  0  0  0  0  0
  151.0559  143.2122  156.7778 H   0  0  0  0  0  0  0  0  0  0  0  0
  151.1804  145.2772  157.9109 H   0  0  0  0  0  0  0  0  0  0  0  0
  152.4009  145.3822  159.1774 H   0  0  0  0  0  0  0  0  0  0  0  0
  150.6958  145.1673  159.6021 H   0  0  0  0  0  0  0  0  0  0  0  0
  1  2  1  0  0  0  0
  1 25  1  0  0  0  0
  1 26  1  0  0  0  0
  1 27  1  0  0  0  0
  2 23  1  0  0  0  0
  2  3  2  0  0  0  0
  3  4  1  0  0  0  0
  3 28  1  0  0  0  0
  4 21  2  0  0  0  0
  4  5  1  0  0  0  0
  5  6  2  0  0  0  0
  6  7  1  0  0  0  0
  6 29  1  0  0  0  0
  7  8  1  0  0  0  0
  7 21  1  0  0  0  0
  8  9  1  0  0  0  0
  8 30  1  0  0  0  0
  8 31  1  0  0  0  0
  9 10  1  0  0  0  0
  9 11  1  0  0  0  0
  9 32  1  0  0  0  0
 10 33  1  0  0  0  0
 11 12  1  0  0  0  0
 11 34  1  0  0  0  0
 11 35  1  0  0  0  0
 12 19  1  0  0  0  0
 12 13  1  0  0  0  0
 13 14  2  0  0  0  0
 13 15  1  0  0  0  0
 15 16  1  0  0  0  0
 16 17  1  0  0  0  0
 16 18  1  0  0  0  0
 16 19  1  0  0  0  0
 17 36  1  0  0  0  0
 17 37  1  0  0  0  0
 17 38  1  0  0  0  0
 18 39  1  0  0  0  0
 18 40  1  0  0  0  0
 18 41  1  0  0  0  0
 19 20  2  0  0  0  0
 21 22  1  0  0  0  0
 22 23  2  0  0  0  0
 22 42  1  0  0  0  0
 23 24  1  0  0  0  0
 24 43  1  0  0  0  0
 24 44  1  0  0  0  0
 24 45  1  0  0  0  0
M  CHG  1  15  -1
M  END
> <s_m_source_file>
AV-unprocessed.smi

> <i_m_source_file_index>
2026

> <i_lp_mmshare_version>
43012

> <i_f3d_flags>
0

> <s_epik_input>
W0NIM11jKFtjSF0xKWMoW0NIM10pW2NIXWMoYzEyKW4oW2NIXW4yKVtDSDJdW0NASF0oW09IXSlbQ0gyXU4oQzM9TylDKD1PKVtOSF1DMyhbQ0gzXSlbQ0gzXQ==

> <s_epik_cmdline>
J2VwaWtfcHl0aG9uJywgJy1waCcsICc3LjAnLCAnLXRuJywgJzgnLCAnLW1hJywgJzIwMCcsICctbWV0YWxfYmluZGluZycsICctaW1hZScsICc8aW5maWxlLm1hZT4nLCAnLW9tYWUnLCAnPG91dGZpbGUubWFlPic=

> <r_lp_tautomer_probability>
1

> <r_epik_Ionization_Penalty>
5.78785

> <r_epik_Ionization_Penalty_Charging>
5.68049

> <r_epik_Ionization_Penalty_Neutral>
0.107354

> <r_epik_State_Penalty>
5.7743

> <r_epik_Charging_Adjusted_Penalty>
11.4548

> <i_epik_Tot_Q>
-1

> <i_epik_Tot_abs_Q>
1

> <r_epik_Metal_State_Penalty>
1.83778

> <b_epik_Metal_Only>
1

> <s_lp_Force_Field>
OPLS_2005

> <r_lp_Energy>
18.252

> <b_lp_Chiralities_Consistent>
1

> <s_lp_Variant>
AV-unprocessed.smi:2026-6

> <Gold.Version>
5.8.1

> <Gold.Id.Protein>
6NUR|6NUR_protein|mol2

> <Gold.PLP.Fitness>
44.7182

> <Gold.PLP.PLP>
-42.3441

> <Gold.PLP.part.hbond>
-3.4174

> <Gold.PLP.part.metal>
0.0000

> <Gold.PLP.part.buried>
-5.4828

> <Gold.PLP.part.nonpolar>
-34.2256

> <Gold.PLP.part.repulsive>
0.3476

> <Gold.PLP.ligand.clash>
0.0000

> <Gold.PLP.ligand.torsion>
0.1723

> <Gold.PLP.Chemscore.Hbond>
0.8800

> <Gold.PLP.Chemscore.CHOScore>
0.0000

> <Gold.PLP.Chemscore.Metal>
0.0000

> <Gold.Chemscore.Hbonds>
donor molecule, donor type, donor heavy atom, donor atom, acceptor molecule, acceptor atom, score
      P1  H  8011  8017       L1    10  0.88

> <Gold.PLP.Chemscore.Internal.Correction>
0.0787

> <Gold.Rescore>
     Score         DG    S(hbond)    S(metal)    S(lipo)     H(rot)  DE(clash)    DE(int)     intcor
     12.02     -14.80       0.83        0.00     107.92       2.38       0.99       1.79       ----

> <Gold.Chemscore.Fitness>
12.0160

> <Gold.Chemscore.DG>
-14.8014

> <Gold.Chemscore.ZeroCoef>
-5.4800

> <Gold.Chemscore.Hbond>
0.8332

> <Gold.Chemscore.Metal>
0.0000

> <Gold.Chemscore.Lipo>
107.9232

> <Gold.Chemscore.Internal_Hbond>
0.0000

> <Gold.Chemscore.DEClash>
0.9905

> <Gold.Chemscore.DEInternal>
1.7949

> <Gold.Chemscore.Rot>
2.3783

> <Gold.Chemscore.Internal.Correction>
   9.000000E+99

> <Gold.Chemscore.Hbonds>
donor molecule, donor type, donor heavy atom, donor atom, acceptor molecule, acceptor atom, score
      P1  H  8011  8017       L1    10  0.82

> <Gold.Chemscore.Hbond.Weighted>
-2.7828

> <Gold.Chemscore.Metal.Weighted>
-0.0000

> <Gold.Chemscore.Lipo.Weighted>
-12.6270

> <Gold.Chemscore.Internal_Hbond.Weighted>
0.0000

> <Gold.Chemscore.DEClash.Weighted>
0.9905

> <Gold.Chemscore.DEInternal.Weighted>
1.7949

> <Gold.Chemscore.Rot.Weighted>
6.0884

> <Gold.Chemscore.Internal.Correction.Weighted>
   9.000000E+99

> <Gold.Protein.RotatedTorsions>
[ 6907 6896 6895 6894 ] final   85.00 input  -60.11 | X-H torsion
[ 7974 7965 7964 7962 ] final -103.33 input  175.53 | X-H torsion
[ 8008 7997 7996 7995 ] final  -10.07 input   59.86 | X-H torsion
[ 10167 10162 10161 10158 ] final  -89.43 input  -65.29 | X-H torsion
[ 10718 10713 10712 10709 ] final  -66.21 input   66.30 | X-H torsion
[ 10763 10752 10751 10750 ] final -115.96 input  -60.55 | X-H torsion
[ 11005 11000 10999 10996 ] final   40.77 input  -57.11 | X-H torsion

> <Gold.Protein.ActiveResidues>
 VAL166  LYS551  ARG553  GLY616  TRP617  ASP618  TYR619  PRO620  LYS621  CYS622 
 ASP623  PHE694  ASN695  SER759  ASP760  ASP761  ALA762  ILE779  LEU786  VAL792 
 PHE793  MET794  SER795  GLU796  ALA797  LYS798  CYS799  TRP800  GLU811  SER814 

> <Gold.Protein.RotatedAtoms>
  152.5365  134.2654  159.8951 H   0  0  0  0  0  0  0  0  0  0  0  0  # atno 6907 bound_to 6896
  151.2613  133.4294  159.2624 H   0  0  0  0  0  0  0  0  0  0  0  0  # atno 6908 bound_to 6896
  151.0450  134.9648  159.8238 H   0  0  0  0  0  0  0  0  0  0  0  0  # atno 6909 bound_to 6896
  145.2572  140.9257  143.3061 H   0  0  0  0  0  0  0  0  0  0  0  0  # atno 7974 bound_to 7965
  154.5588  140.2338  155.8367 H   0  0  0  0  0  0  0  0  0  0  0  0  # atno 8008 bound_to 7997
  156.2012  140.3052  155.9490 H   0  0  0  0  0  0  0  0  0  0  0  0  # atno 8009 bound_to 7997
  155.2928  140.0427  157.3015 H   0  0  0  0  0  0  0  0  0  0  0  0  # atno 8010 bound_to 7997
  140.3649  143.2823  151.9571 H   0  0  0  0  0  0  0  0  0  0  0  0  # atno 10167 bound_to 10162
  156.0625  130.4258  150.1675 H   0  0  0  0  0  0  0  0  0  0  0  0  # atno 10718 bound_to 10713
  154.8501  135.4362  154.1746 H   0  0  0  0  0  0  0  0  0  0  0  0  # atno 10763 bound_to 10752
  153.2851  135.6957  153.7353 H   0  0  0  0  0  0  0  0  0  0  0  0  # atno 10764 bound_to 10752
  153.6542  135.3446  155.3083 H   0  0  0  0  0  0  0  0  0  0  0  0  # atno 10765 bound_to 10752
  140.1899  134.4000  155.8152 H   0  0  0  0  0  0  0  0  0  0  0  0  # atno 11005 bound_to 11000
  144.9450  139.4146  143.6430 LP  0  0  0  0  0  0  0  0  0  0  0  0  # atno 17320 bound_to 7965
  146.3285  139.8429  142.8887 LP  0  0  0  0  0  0  0  0  0  0  0  0  # atno 17321 bound_to 7965
  139.4810  144.5960  151.7690 LP  0  0  0  0  0  0  0  0  0  0  0  0  # atno 17342 bound_to 10162
  140.5091  144.1053  150.5990 LP  0  0  0  0  0  0  0  0  0  0  0  0  # atno 17343 bound_to 10162
  156.9741  130.9844  151.3452 LP  0  0  0  0  0  0  0  0  0  0  0  0  # atno 17370 bound_to 10713
  157.5644  130.8268  149.8308 LP  0  0  0  0  0  0  0  0  0  0  0  0  # atno 17371 bound_to 10713
  141.2226  133.7041  156.8077 LP  0  0  0  0  0  0  0  0  0  0  0  0  # atno 17394 bound_to 11000
  140.2172  134.8784  157.3338 LP  0  0  0  0  0  0  0  0  0  0  0  0  # atno 17395 bound_to 11000

$$$$
