AV-unprocessed.smi:2758|AV-procd|sdf|10625|dock3
  -GOLD-   2272015 73D 1   1.00000     0.00000
 Structure written by MMmdl.
 33 34  0  0  0  0  0  0  0  0  2 V2000
  150.3837  135.8159  155.3918 C   0  0  0  0  0  0  0  0  0  0  0  0
  151.4936  136.6962  155.3993 O   0  0  0  0  0  0  0  0  0  0  0  0
  151.3300  137.7840  154.5042 C   0  0  0  0  0  0  0  0  0  0  0  0
  151.9483  139.0440  155.1267 C   0  0  2  0  0  0  0  0  0  0  0  0
  153.3411  138.8456  155.2609 O   0  0  0  0  0  0  0  0  0  0  0  0
  151.3370  139.3813  156.5015 C   0  0  0  0  0  0  0  0  0  0  0  0
  151.0876  140.8195  156.6816 N   0  0  0  0  0  0  0  0  0  0  0  0
  150.2958  141.6765  155.9757 C   0  0  0  0  0  0  0  0  0  0  0  0
  149.4468  141.3413  154.7957 C   0  0  0  0  0  0  0  0  0  0  0  0
  150.4226  142.9070  156.5483 N   0  3  0  0  0  0  0  0  0  0  0  0
  151.3060  142.8375  157.6268 C   0  0  0  0  0  0  0  0  0  0  0  0
  151.7500  143.8192  158.5074 C   0  0  0  0  0  0  0  0  0  0  0  0
  152.6605  143.4103  159.5040 C   0  0  0  0  0  0  0  0  0  0  0  0
  153.0949  142.0719  159.5978 C   0  0  0  0  0  0  0  0  0  0  0  0
  152.6377  141.0852  158.6994 C   0  0  0  0  0  0  0  0  0  0  0  0
  151.7379  141.4986  157.7175 C   0  0  0  0  0  0  0  0  0  0  0  0
  151.8044  139.8802  154.4418 H   0  0  0  0  0  0  0  0  0  0  0  0
  150.5613  134.9970  156.0887 H   0  0  0  0  0  0  0  0  0  0  0  0
  150.2274  135.3865  154.4014 H   0  0  0  0  0  0  0  0  0  0  0  0
  149.4714  136.3285  155.6995 H   0  0  0  0  0  0  0  0  0  0  0  0
  151.7977  137.5633  153.5430 H   0  0  0  0  0  0  0  0  0  0  0  0
  150.2653  137.9416  154.3222 H   0  0  0  0  0  0  0  0  0  0  0  0
  153.6864  138.5758  154.4240 H   0  0  0  0  0  0  0  0  0  0  0  0
  150.3958  138.8508  156.6518 H   0  0  0  0  0  0  0  0  0  0  0  0
  152.0019  139.0550  157.3020 H   0  0  0  0  0  0  0  0  0  0  0  0
  148.8566  142.2055  154.4901 H   0  0  0  0  0  0  0  0  0  0  0  0
  148.7660  140.5256  155.0391 H   0  0  0  0  0  0  0  0  0  0  0  0
  150.0729  141.0348  153.9577 H   0  0  0  0  0  0  0  0  0  0  0  0
  151.4191  144.8450  158.4373 H   0  0  0  0  0  0  0  0  0  0  0  0
  153.0337  144.1379  160.2102 H   0  0  0  0  0  0  0  0  0  0  0  0
  153.7932  141.7962  160.3749 H   0  0  0  0  0  0  0  0  0  0  0  0
  152.9753  140.0623  158.7788 H   0  0  0  0  0  0  0  0  0  0  0  0
  149.9405  143.7343  156.2208 H   0  0  0  0  0  0  0  0  0  0  0  0
  1  2  1  0  0  0  0
  1 18  1  0  0  0  0
  1 19  1  0  0  0  0
  1 20  1  0  0  0  0
  2  3  1  0  0  0  0
  3  4  1  0  0  0  0
  3 21  1  0  0  0  0
  3 22  1  0  0  0  0
  4 17  1  0  0  0  0
  4  5  1  0  0  0  0
  4  6  1  0  0  0  0
  5 23  1  0  0  0  0
  6  7  1  0  0  0  0
  6 24  1  0  0  0  0
  6 25  1  0  0  0  0
  7 16  1  0  0  0  0
  7  8  1  0  0  0  0
  8  9  1  0  0  0  0
  8 10  2  0  0  0  0
  9 26  1  0  0  0  0
  9 27  1  0  0  0  0
  9 28  1  0  0  0  0
 10 11  1  0  0  0  0
 10 33  1  0  0  0  0
 11 16  2  0  0  0  0
 11 12  1  0  0  0  0
 12 13  2  0  0  0  0
 12 29  1  0  0  0  0
 13 14  1  0  0  0  0
 13 30  1  0  0  0  0
 14 15  2  0  0  0  0
 14 31  1  0  0  0  0
 15 16  1  0  0  0  0
 15 32  1  0  0  0  0
M  CHG  1  10   1
M  END
> <s_m_source_file>
AV-unprocessed.smi

> <i_m_source_file_index>
2758

> <i_lp_mmshare_version>
43012

> <i_f3d_flags>
0

> <s_epik_input>
W0NIM11PW0NIMl1bQ0BASF0oW09IXSlbQ0gyXW4oYyhuMSlbQ0gzXSljKGMxMilbY0hdW2NIXVtjSF1bY0hdMg==

> <s_epik_cmdline>
J2VwaWtfcHl0aG9uJywgJy1waCcsICc3LjAnLCAnLXRuJywgJzgnLCAnLW1hJywgJzIwMCcsICctbWV0YWxfYmluZGluZycsICctaW1hZScsICc8aW5maWxlLm1hZT4nLCAnLW9tYWUnLCAnPG91dGZpbGUubWFlPic=

> <r_epik_Ionization_Penalty>
0.974942

> <r_epik_Ionization_Penalty_Charging>
0.974941

> <r_epik_Ionization_Penalty_Neutral>
8.70205e-07

> <r_epik_State_Penalty>
1.02127

> <r_epik_Charging_Adjusted_Penalty>
1.99621

> <i_epik_Tot_Q>
1

> <i_epik_Tot_abs_Q>
1

> <r_epik_Metal_State_Penalty>
4.99771

> <b_epik_Metal_Only>
0

> <s_lp_Force_Field>
OPLS_2005

> <r_lp_Energy>
10.5024

> <b_lp_Chiralities_Consistent>
1

> <s_lp_Variant>
AV-unprocessed.smi:2758-4

> <Gold.Version>
5.8.1

> <Gold.Id.Protein>
6NUR|6NUR_protein|mol2

> <Gold.PLP.Fitness>
50.1554

> <Gold.PLP.PLP>
-39.8220

> <Gold.PLP.part.hbond>
-2.9873

> <Gold.PLP.part.metal>
0.0000

> <Gold.PLP.part.buried>
-4.7030

> <Gold.PLP.part.nonpolar>
-32.1447

> <Gold.PLP.part.repulsive>
0.1673

> <Gold.PLP.ligand.clash>
0.0000

> <Gold.PLP.ligand.torsion>
0.8403

> <Gold.PLP.Chemscore.Hbond>
4.0000

> <Gold.PLP.Chemscore.CHOScore>
0.0000

> <Gold.PLP.Chemscore.Metal>
0.0000

> <Gold.Chemscore.Hbonds>
donor molecule, donor type, donor heavy atom, donor atom, acceptor molecule, acceptor atom, score
      L1  H    10    33       P1  8028  2.00
      P1  H  7997  8008       L1     5  1.00
      P1  H 10752 10764       L1     2  1.00

> <Gold.PLP.Chemscore.Internal.Correction>
0.0140

> <Gold.Rescore>
     Score         DG    S(hbond)    S(metal)    S(lipo)     H(rot)  DE(clash)    DE(int)     intcor
     19.37     -20.39       2.74        0.00      95.76       2.12       0.04       0.98       ----

> <Gold.Chemscore.Fitness>
19.3675

> <Gold.Chemscore.DG>
-20.3890

> <Gold.Chemscore.ZeroCoef>
-5.4800

> <Gold.Chemscore.Hbond>
2.7353

> <Gold.Chemscore.Metal>
0.0000

> <Gold.Chemscore.Lipo>
95.7587

> <Gold.Chemscore.Internal_Hbond>
0.0000

> <Gold.Chemscore.DEClash>
0.0373

> <Gold.Chemscore.DEInternal>
0.9842

> <Gold.Chemscore.Rot>
2.1213

> <Gold.Chemscore.Internal.Correction>
   9.000000E+99

> <Gold.Chemscore.Hbonds>
donor molecule, donor type, donor heavy atom, donor atom, acceptor molecule, acceptor atom, score
      L1  H    10    33       P1  8028  0.94
      P1  H  7997  8008       L1     5  0.71
      P1  H 10752 10764       L1     2  0.11

> <Gold.Chemscore.Hbond.Weighted>
-9.1358

> <Gold.Chemscore.Metal.Weighted>
-0.0000

> <Gold.Chemscore.Lipo.Weighted>
-11.2038

> <Gold.Chemscore.Internal_Hbond.Weighted>
0.0000

> <Gold.Chemscore.DEClash.Weighted>
0.0373

> <Gold.Chemscore.DEInternal.Weighted>
0.9842

> <Gold.Chemscore.Rot.Weighted>
5.4306

> <Gold.Chemscore.Internal.Correction.Weighted>
   9.000000E+99

> <Gold.Protein.RotatedTorsions>
[ 6907 6896 6895 6894 ] final  -97.25 input  -60.11 | X-H torsion
[ 7974 7965 7964 7962 ] final -149.50 input  175.53 | X-H torsion
[ 8008 7997 7996 7995 ] final  -23.41 input   59.86 | X-H torsion
[ 10167 10162 10161 10158 ] final  138.58 input  -65.29 | X-H torsion
[ 10718 10713 10712 10709 ] final -120.32 input   66.30 | X-H torsion
[ 10763 10752 10751 10750 ] final  -68.45 input  -60.55 | X-H torsion
[ 11005 11000 10999 10996 ] final -149.94 input  -57.11 | X-H torsion

> <Gold.Protein.ActiveResidues>
 VAL166  LYS551  ARG553  GLY616  TRP617  ASP618  TYR619  PRO620  LYS621  CYS622 
 ASP623  PHE694  ASN695  SER759  ASP760  ASP761  ALA762  ILE779  LEU786  VAL792 
 PHE793  MET794  SER795  GLU796  ALA797  LYS798  CYS799  TRP800  GLU811  SER814 

> <Gold.Protein.RotatedAtoms>
  150.7011  134.1377  159.4093 H   0  0  0  0  0  0  0  0  0  0  0  0  # atno 6907 bound_to 6896
  151.9362  135.0232  160.0542 H   0  0  0  0  0  0  0  0  0  0  0  0  # atno 6908 bound_to 6896
  152.2133  133.4892  159.5159 H   0  0  0  0  0  0  0  0  0  0  0  0  # atno 6909 bound_to 6896
  144.7964  140.5056  143.5737 H   0  0  0  0  0  0  0  0  0  0  0  0  # atno 7974 bound_to 7965
  154.4587  140.1981  156.0306 H   0  0  0  0  0  0  0  0  0  0  0  0  # atno 8008 bound_to 7997
  156.0797  140.3273  155.7651 H   0  0  0  0  0  0  0  0  0  0  0  0  # atno 8009 bound_to 7997
  155.5131  140.0563  157.2911 H   0  0  0  0  0  0  0  0  0  0  0  0  # atno 8010 bound_to 7997
  139.5106  144.6345  151.5732 H   0  0  0  0  0  0  0  0  0  0  0  0  # atno 10167 bound_to 10162
  156.1249  130.6351  150.9526 H   0  0  0  0  0  0  0  0  0  0  0  0  # atno 10718 bound_to 10713
  154.3893  135.6056  153.5834 H   0  0  0  0  0  0  0  0  0  0  0  0  # atno 10763 bound_to 10752
  152.9787  135.5879  154.4317 H   0  0  0  0  0  0  0  0  0  0  0  0  # atno 10764 bound_to 10752
  154.4099  135.2844  155.2021 H   0  0  0  0  0  0  0  0  0  0  0  0  # atno 10765 bound_to 10752
  140.7454  134.3467  157.5138 H   0  0  0  0  0  0  0  0  0  0  0  0  # atno 11005 bound_to 11000
  145.5664  139.1481  143.3313 LP  0  0  0  0  0  0  0  0  0  0  0  0  # atno 17320 bound_to 7965
  146.2233  140.5798  142.9007 LP  0  0  0  0  0  0  0  0  0  0  0  0  # atno 17321 bound_to 7965
  140.6089  143.9472  150.6439 LP  0  0  0  0  0  0  0  0  0  0  0  0  # atno 17342 bound_to 10162
  140.2708  143.3457  152.1239 LP  0  0  0  0  0  0  0  0  0  0  0  0  # atno 17343 bound_to 10162
  157.6431  131.0907  150.8210 LP  0  0  0  0  0  0  0  0  0  0  0  0  # atno 17370 bound_to 10713
  156.8301  130.5013  149.5332 LP  0  0  0  0  0  0  0  0  0  0  0  0  # atno 17371 bound_to 10713
  139.8798  134.9108  156.3022 LP  0  0  0  0  0  0  0  0  0  0  0  0  # atno 17394 bound_to 11000
  140.9799  133.7274  156.0656 LP  0  0  0  0  0  0  0  0  0  0  0  0  # atno 17395 bound_to 11000

$$$$
