AV-unprocessed.smi:2113|AV-procd|sdf|8616|dock4
  -GOLD-   2272011363D 1   1.00000     0.00000
 Structure written by MMmdl.
 44 45  0  0  0  0  0  0  0  0  1 V2000
  148.7815  132.5482  152.8504 C   0  0  0  0  0  0  0  0  0  0  0  0
  149.1681  133.4523  154.0229 C   0  0  0  0  0  0  0  0  0  0  0  0
  148.1509  134.4315  154.1975 O   0  0  0  0  0  0  0  0  0  0  0  0
  148.4416  135.4581  155.1429 C   0  0  1  0  0  0  0  0  0  0  0  0
  148.4454  134.8153  156.5377 C   0  0  0  0  0  0  0  0  0  0  0  0
  149.7954  136.1138  154.8284 C   0  0  0  0  0  0  0  0  0  0  0  0
  150.8358  135.4599  154.9070 O   0  0  0  0  0  0  0  0  0  0  0  0
  149.7649  137.4066  154.4689 N   0  0  0  0  0  0  0  0  0  0  0  0
  150.9418  138.2120  154.1630 C   0  0  0  0  0  0  0  0  0  0  0  0
  151.2295  139.2699  155.2152 C   0  0  0  0  0  0  0  0  0  0  0  0
  150.4062  140.4049  155.3553 C   0  0  0  0  0  0  0  0  0  0  0  0
  150.7088  141.3485  156.3551 C   0  0  0  0  0  0  0  0  0  0  0  0
  151.8308  141.1334  157.1906 C   0  0  0  0  0  0  0  0  0  0  0  0
  152.1463  142.0605  158.2071 N   0  0  0  0  0  0  0  0  0  0  0  0
  152.4258  141.4910  159.5227 C   0  0  0  0  0  0  0  0  0  0  0  0
  153.0565  142.5512  160.4420 C   0  0  0  0  0  0  0  0  0  0  0  0
  152.2173  143.6997  160.5017 O   0  0  0  0  0  0  0  0  0  0  0  0
  152.0526  144.3023  159.2223 C   0  0  0  0  0  0  0  0  0  0  0  0
  151.3815  143.3049  158.2632 C   0  0  0  0  0  0  0  0  0  0  0  0
  152.6208  140.0399  157.0499 N   0  0  0  0  0  0  0  0  0  0  0  0
  152.3278  139.1394  156.0883 C   0  0  0  0  0  0  0  0  0  0  0  0
  149.5398  131.7839  152.6811 H   0  0  0  0  0  0  0  0  0  0  0  0
  148.6756  133.1240  151.9305 H   0  0  0  0  0  0  0  0  0  0  0  0
  147.8343  132.0434  153.0410 H   0  0  0  0  0  0  0  0  0  0  0  0
  149.2903  132.8491  154.9230 H   0  0  0  0  0  0  0  0  0  0  0  0
  150.1240  133.9351  153.8161 H   0  0  0  0  0  0  0  0  0  0  0  0
  147.6508  136.2106  155.1159 H   0  0  0  0  0  0  0  0  0  0  0  0
  148.6807  135.5474  157.3108 H   0  0  0  0  0  0  0  0  0  0  0  0
  149.1761  134.0083  156.6066 H   0  0  0  0  0  0  0  0  0  0  0  0
  147.4680  134.3931  156.7716 H   0  0  0  0  0  0  0  0  0  0  0  0
  148.8677  137.8668  154.4199 H   0  0  0  0  0  0  0  0  0  0  0  0
  151.8102  137.5650  154.0265 H   0  0  0  0  0  0  0  0  0  0  0  0
  150.7759  138.7118  153.2085 H   0  0  0  0  0  0  0  0  0  0  0  0
  149.5511  140.5499  154.7116 H   0  0  0  0  0  0  0  0  0  0  0  0
  150.0704  142.2102  156.4807 H   0  0  0  0  0  0  0  0  0  0  0  0
  151.4912  141.1314  159.9552 H   0  0  0  0  0  0  0  0  0  0  0  0
  153.0955  140.6347  159.4589 H   0  0  0  0  0  0  0  0  0  0  0  0
  153.1796  142.1497  161.4479 H   0  0  0  0  0  0  0  0  0  0  0  0
  154.0498  142.8313  160.0873 H   0  0  0  0  0  0  0  0  0  0  0  0
  151.4363  145.1953  159.3260 H   0  0  0  0  0  0  0  0  0  0  0  0
  153.0193  144.6264  158.8332 H   0  0  0  0  0  0  0  0  0  0  0  0
  151.3109  143.7507  157.2702 H   0  0  0  0  0  0  0  0  0  0  0  0
  150.3658  143.0903  158.5984 H   0  0  0  0  0  0  0  0  0  0  0  0
  152.9864  138.2862  156.0220 H   0  0  0  0  0  0  0  0  0  0  0  0
  1  2  1  0  0  0  0
  1 22  1  0  0  0  0
  1 23  1  0  0  0  0
  1 24  1  0  0  0  0
  2  3  1  0  0  0  0
  2 25  1  0  0  0  0
  2 26  1  0  0  0  0
  3  4  1  0  0  0  0
  4  5  1  0  0  0  0
  4  6  1  0  0  0  0
  4 27  1  0  0  0  0
  5 28  1  0  0  0  0
  5 29  1  0  0  0  0
  5 30  1  0  0  0  0
  6  7  2  0  0  0  0
  6  8  1  0  0  0  0
  8  9  1  0  0  0  0
  8 31  1  0  0  0  0
  9 10  1  0  0  0  0
  9 32  1  0  0  0  0
  9 33  1  0  0  0  0
 10 21  1  0  0  0  0
 10 11  2  0  0  0  0
 11 12  1  0  0  0  0
 11 34  1  0  0  0  0
 12 13  2  0  0  0  0
 12 35  1  0  0  0  0
 13 14  1  0  0  0  0
 13 20  1  0  0  0  0
 14 19  1  0  0  0  0
 14 15  1  0  0  0  0
 15 16  1  0  0  0  0
 15 36  1  0  0  0  0
 15 37  1  0  0  0  0
 16 17  1  0  0  0  0
 16 38  1  0  0  0  0
 16 39  1  0  0  0  0
 17 18  1  0  0  0  0
 18 19  1  0  0  0  0
 18 40  1  0  0  0  0
 18 41  1  0  0  0  0
 19 42  1  0  0  0  0
 19 43  1  0  0  0  0
 20 21  2  0  0  0  0
 21 44  1  0  0  0  0
M  END
> <s_m_source_file>
AV-unprocessed.smi

> <i_m_source_file_index>
2113

> <i_lp_mmshare_version>
43012

> <i_f3d_flags>
0

> <s_epik_input>
W0NIM11bQ0gyXU9bQ0BIXShbQ0gzXSlDKD1PKVtOSF1bQ0gyXWMxW2NIXVtjSF1jKG5bY0hdMSlOMltDSDJdW0NIMl1PW0NIMl1bQ0gyXTI=

> <s_epik_cmdline>
J2VwaWtfcHl0aG9uJywgJy1waCcsICc3LjAnLCAnLXRuJywgJzgnLCAnLW1hJywgJzIwMCcsICctbWV0YWxfYmluZGluZycsICctaW1hZScsICc8aW5maWxlLm1hZT4nLCAnLW9tYWUnLCAnPG91dGZpbGUubWFlPic=

> <r_lp_tautomer_probability>
1

> <r_epik_Ionization_Penalty>
0.00454344

> <r_epik_Ionization_Penalty_Charging>
0

> <r_epik_Ionization_Penalty_Neutral>
0.00454344

> <r_epik_State_Penalty>
0.00328127

> <r_epik_Charging_Adjusted_Penalty>
0.00328127

> <i_epik_Tot_Q>
0

> <i_epik_Tot_abs_Q>
0

> <r_epik_Metal_State_Penalty>
-0

> <b_epik_Metal_Only>
0

> <s_lp_Force_Field>
OPLS_2005

> <r_lp_Energy>
17.3963

> <b_lp_Chiralities_Consistent>
1

> <s_lp_Variant>
AV-unprocessed.smi:2113-2

> <Gold.Version>
5.8.1

> <Gold.Id.Protein>
6NUR|6NUR_protein|mol2

> <Gold.PLP.Fitness>
43.1003

> <Gold.PLP.PLP>
-38.2264

> <Gold.PLP.part.hbond>
-2.8345

> <Gold.PLP.part.metal>
0.0000

> <Gold.PLP.part.buried>
-2.5530

> <Gold.PLP.part.nonpolar>
-31.5513

> <Gold.PLP.part.repulsive>
0.3279

> <Gold.PLP.ligand.clash>
0.0000

> <Gold.PLP.ligand.torsion>
0.4548

> <Gold.PLP.Chemscore.Hbond>
1.7913

> <Gold.PLP.Chemscore.CHOScore>
0.0000

> <Gold.PLP.Chemscore.Metal>
0.0000

> <Gold.Chemscore.Hbonds>
donor molecule, donor type, donor heavy atom, donor atom, acceptor molecule, acceptor atom, score
      P1  H  7997  8009       L1    20  0.74
      P1  H 10752 10765       L1     7  0.75

> <Gold.PLP.Chemscore.Internal.Correction>
0.4098

> <Gold.Rescore>
     Score         DG    S(hbond)    S(metal)    S(lipo)     H(rot)  DE(clash)    DE(int)     intcor
     13.60     -15.59       1.16        0.00      94.86       1.90       0.09       1.90       ----

> <Gold.Chemscore.Fitness>
13.5960

> <Gold.Chemscore.DG>
-15.5872

> <Gold.Chemscore.ZeroCoef>
-5.4800

> <Gold.Chemscore.Hbond>
1.1558

> <Gold.Chemscore.Metal>
0.0000

> <Gold.Chemscore.Lipo>
94.8591

> <Gold.Chemscore.Internal_Hbond>
0.0000

> <Gold.Chemscore.DEClash>
0.0881

> <Gold.Chemscore.DEInternal>
1.9031

> <Gold.Chemscore.Rot>
1.8952

> <Gold.Chemscore.Internal.Correction>
   9.000000E+99

> <Gold.Chemscore.Hbonds>
donor molecule, donor type, donor heavy atom, donor atom, acceptor molecule, acceptor atom, score
      P1  H  7997  8009       L1    20  0.22
      P1  H 10752 10765       L1     7  0.71

> <Gold.Chemscore.Hbond.Weighted>
-3.8603

> <Gold.Chemscore.Metal.Weighted>
-0.0000

> <Gold.Chemscore.Lipo.Weighted>
-11.0985

> <Gold.Chemscore.Internal_Hbond.Weighted>
0.0000

> <Gold.Chemscore.DEClash.Weighted>
0.0881

> <Gold.Chemscore.DEInternal.Weighted>
1.9031

> <Gold.Chemscore.Rot.Weighted>
4.8516

> <Gold.Chemscore.Internal.Correction.Weighted>
   9.000000E+99

> <Gold.Protein.RotatedTorsions>
[ 6907 6896 6895 6894 ] final   87.79 input  -60.11 | X-H torsion
[ 7974 7965 7964 7962 ] final  125.17 input  175.53 | X-H torsion
[ 8008 7997 7996 7995 ] final  156.57 input   59.86 | X-H torsion
[ 10167 10162 10161 10158 ] final  172.50 input  -65.29 | X-H torsion
[ 10718 10713 10712 10709 ] final -112.39 input   66.30 | X-H torsion
[ 10763 10752 10751 10750 ] final -172.61 input  -60.55 | X-H torsion
[ 11005 11000 10999 10996 ] final -132.06 input  -57.11 | X-H torsion

> <Gold.Protein.ActiveResidues>
 VAL166  LYS551  ARG553  GLY616  TRP617  ASP618  TYR619  PRO620  LYS621  CYS622 
 ASP623  PHE694  ASN695  SER759  ASP760  ASP761  ALA762  ILE779  LEU786  VAL792 
 PHE793  MET794  SER795  GLU796  ALA797  LYS798  CYS799  TRP800  GLU811  SER814 

> <Gold.Protein.RotatedAtoms>
  152.5416  134.2221  159.8791 H   0  0  0  0  0  0  0  0  0  0  0  0  # atno 6907 bound_to 6896
  151.2198  133.4502  159.2608 H   0  0  0  0  0  0  0  0  0  0  0  0  # atno 6908 bound_to 6896
  151.0817  134.9875  159.8415 H   0  0  0  0  0  0  0  0  0  0  0  0  # atno 6909 bound_to 6896
  145.0761  139.3693  143.4933 H   0  0  0  0  0  0  0  0  0  0  0  0  # atno 7974 bound_to 7965
  156.2415  140.1909  156.6976 H   0  0  0  0  0  0  0  0  0  0  0  0  # atno 8008 bound_to 7997
  154.6206  140.0609  156.9636 H   0  0  0  0  0  0  0  0  0  0  0  0  # atno 8009 bound_to 7997
  155.1868  140.3281  155.4368 H   0  0  0  0  0  0  0  0  0  0  0  0  # atno 8010 bound_to 7997
  139.5079  144.3366  152.0059 H   0  0  0  0  0  0  0  0  0  0  0  0  # atno 10167 bound_to 10162
  156.0703  130.5917  150.8502 H   0  0  0  0  0  0  0  0  0  0  0  0  # atno 10718 bound_to 10713
  154.6174  135.2871  155.0365 H   0  0  0  0  0  0  0  0  0  0  0  0  # atno 10763 bound_to 10752
  154.1572  135.6494  153.4981 H   0  0  0  0  0  0  0  0  0  0  0  0  # atno 10764 bound_to 10752
  153.0221  135.5369  154.6950 H   0  0  0  0  0  0  0  0  0  0  0  0  # atno 10765 bound_to 10752
  140.9203  134.1453  157.4319 H   0  0  0  0  0  0  0  0  0  0  0  0  # atno 11005 bound_to 11000
  146.3530  140.0528  142.8634 LP  0  0  0  0  0  0  0  0  0  0  0  0  # atno 17320 bound_to 7965
  145.1234  140.9476  143.4587 LP  0  0  0  0  0  0  0  0  0  0  0  0  # atno 17321 bound_to 7965
  140.2805  144.3865  150.6120 LP  0  0  0  0  0  0  0  0  0  0  0  0  # atno 17342 bound_to 10162
  140.6022  143.2167  151.7051 LP  0  0  0  0  0  0  0  0  0  0  0  0  # atno 17343 bound_to 10162
  157.5769  131.0946  150.9331 LP  0  0  0  0  0  0  0  0  0  0  0  0  # atno 17370 bound_to 10713
  156.9535  130.5429  149.5283 LP  0  0  0  0  0  0  0  0  0  0  0  0  # atno 17371 bound_to 10713
  139.8774  134.9969  156.5818 LP  0  0  0  0  0  0  0  0  0  0  0  0  # atno 17394 bound_to 11000
  140.7996  133.8516  155.8715 LP  0  0  0  0  0  0  0  0  0  0  0  0  # atno 17395 bound_to 11000

$$$$
