AV-unprocessed.smi:756|AV-procd|sdf|3613|dock4
  -GOLD-   22720 1 13D 1   1.00000     0.00000
 Structure written by MMmdl.
 42 43  0  0  0  0  0  0  0  0  1 V2000
  150.9869  144.7500  159.6278 C   0  0  0  0  0  0  0  0  0  0  0  0
  151.9452  143.6148  159.9435 C   0  0  0  0  0  0  0  0  0  0  0  0
  152.5620  143.4196  161.1138 C   0  0  0  0  0  0  0  0  0  0  0  0
  153.5605  141.9865  161.1200 S   0  0  0  0  0  0  0  0  0  0  0  0
  153.0926  141.6423  159.4162 C   0  0  0  0  0  0  0  0  0  0  0  0
  153.5085  140.6660  158.7939 O   0  0  0  0  0  0  0  0  0  0  0  0
  152.2255  142.6412  158.9746 N   0  0  0  0  0  0  0  0  0  0  0  0
  151.6663  142.6604  157.6164 C   0  0  0  0  0  0  0  0  0  0  0  0
  150.8984  141.3803  157.2624 C   0  0  0  0  0  0  0  0  0  0  0  0
  150.7068  140.5010  158.1035 O   0  0  0  0  0  0  0  0  0  0  0  0
  150.4469  141.2984  156.0036 N   0  0  0  0  0  0  0  0  0  0  0  0
  149.6868  140.1742  155.4676 C   0  0  0  0  0  0  0  0  0  0  0  0
  148.6928  140.5957  154.3555 C   0  0  2  0  0  0  0  0  0  0  0  0
  147.9175  139.3870  153.7859 C   0  0  0  0  0  0  0  0  0  0  0  0
  149.4511  141.1585  153.2998 O   0  0  0  0  0  0  0  0  0  0  0  0
  147.7111  141.6772  154.8946 C   0  0  0  0  0  0  0  0  0  0  0  0
  146.7740  141.2377  156.0291 C   0  0  0  0  0  0  0  0  0  0  0  0
  145.7111  142.3356  156.0897 C   0  0  0  0  0  0  0  0  0  0  0  0
  145.5723  142.8652  154.6564 C   0  0  0  0  0  0  0  0  0  0  0  0
  146.7485  142.2845  153.8587 C   0  0  0  0  0  0  0  0  0  0  0  0
  150.6649  145.2415  160.5463 H   0  0  0  0  0  0  0  0  0  0  0  0
  150.0933  144.3881  159.1192 H   0  0  0  0  0  0  0  0  0  0  0  0
  151.4739  145.4948  158.9986 H   0  0  0  0  0  0  0  0  0  0  0  0
  152.4777  144.0399  161.9938 H   0  0  0  0  0  0  0  0  0  0  0  0
  151.0152  143.5218  157.4690 H   0  0  0  0  0  0  0  0  0  0  0  0
  152.4781  142.7893  156.8982 H   0  0  0  0  0  0  0  0  0  0  0  0
  150.6317  142.0662  155.3745 H   0  0  0  0  0  0  0  0  0  0  0  0
  150.3913  139.4467  155.0603 H   0  0  0  0  0  0  0  0  0  0  0  0
  149.1670  139.6793  156.2895 H   0  0  0  0  0  0  0  0  0  0  0  0
  147.3259  138.9009  154.5625 H   0  0  0  0  0  0  0  0  0  0  0  0
  148.5817  138.6350  153.3594 H   0  0  0  0  0  0  0  0  0  0  0  0
  147.2348  139.6827  152.9895 H   0  0  0  0  0  0  0  0  0  0  0  0
  149.6453  140.4774  152.6741 H   0  0  0  0  0  0  0  0  0  0  0  0
  148.3113  142.5003  155.2868 H   0  0  0  0  0  0  0  0  0  0  0  0
  146.2974  140.2864  155.7902 H   0  0  0  0  0  0  0  0  0  0  0  0
  147.2893  141.1214  156.9827 H   0  0  0  0  0  0  0  0  0  0  0  0
  144.7654  141.9713  156.4921 H   0  0  0  0  0  0  0  0  0  0  0  0
  146.0552  143.1401  156.7412 H   0  0  0  0  0  0  0  0  0  0  0  0
  144.6243  142.5569  154.2141 H   0  0  0  0  0  0  0  0  0  0  0  0
  145.5934  143.9556  154.6506 H   0  0  0  0  0  0  0  0  0  0  0  0
  147.2343  143.0428  153.2439 H   0  0  0  0  0  0  0  0  0  0  0  0
  146.3730  141.5144  153.1839 H   0  0  0  0  0  0  0  0  0  0  0  0
  1  2  1  0  0  0  0
  1 21  1  0  0  0  0
  1 22  1  0  0  0  0
  1 23  1  0  0  0  0
  2  7  1  0  0  0  0
  2  3  2  0  0  0  0
  3  4  1  0  0  0  0
  3 24  1  0  0  0  0
  4  5  1  0  0  0  0
  5  6  2  0  0  0  0
  5  7  1  0  0  0  0
  7  8  1  0  0  0  0
  8  9  1  0  0  0  0
  8 25  1  0  0  0  0
  8 26  1  0  0  0  0
  9 10  2  0  0  0  0
  9 11  1  0  0  0  0
 11 12  1  0  0  0  0
 11 27  1  0  0  0  0
 12 13  1  0  0  0  0
 12 28  1  0  0  0  0
 12 29  1  0  0  0  0
 13 14  1  0  0  0  0
 13 15  1  0  0  0  0
 13 16  1  0  0  0  0
 14 30  1  0  0  0  0
 14 31  1  0  0  0  0
 14 32  1  0  0  0  0
 15 33  1  0  0  0  0
 16 20  1  0  0  0  0
 16 17  1  0  0  0  0
 16 34  1  0  0  0  0
 17 18  1  0  0  0  0
 17 35  1  0  0  0  0
 17 36  1  0  0  0  0
 18 19  1  0  0  0  0
 18 37  1  0  0  0  0
 18 38  1  0  0  0  0
 19 20  1  0  0  0  0
 19 39  1  0  0  0  0
 19 40  1  0  0  0  0
 20 41  1  0  0  0  0
 20 42  1  0  0  0  0
M  END
> <s_m_source_file>
AV-unprocessed.smi

> <i_m_source_file_index>
756

> <i_lp_mmshare_version>
43012

> <i_f3d_flags>
0

> <s_epik_input>
W0NIM11jMVtjSF1zYyg9TyluMVtDSDJdQyg9TylbTkhdW0NIMl1bQ0BAXShbQ0gzXSkoW09IXSlbQ0hdMltDSDJdW0NIMl1bQ0gyXVtDSDJdMg==

> <s_epik_cmdline>
J2VwaWtfcHl0aG9uJywgJy1waCcsICc3LjAnLCAnLXRuJywgJzgnLCAnLW1hJywgJzIwMCcsICctbWV0YWxfYmluZGluZycsICctaW1hZScsICc8aW5maWxlLm1hZT4nLCAnLW9tYWUnLCAnPG91dGZpbGUubWFlPic=

> <r_lp_tautomer_probability>
1

> <r_epik_Ionization_Penalty>
1.53576e-06

> <r_epik_Ionization_Penalty_Charging>
1.31044e-06

> <r_epik_Ionization_Penalty_Neutral>
2.25323e-07

> <r_epik_State_Penalty>
-0

> <r_epik_Charging_Adjusted_Penalty>
1.31044e-06

> <i_epik_Tot_Q>
0

> <i_epik_Tot_abs_Q>
0

> <r_epik_Metal_State_Penalty>
-0

> <b_epik_Metal_Only>
0

> <s_lp_Force_Field>
OPLS_2005

> <r_lp_Energy>
32.7074

> <b_lp_Chiralities_Consistent>
1

> <s_lp_Variant>
AV-unprocessed.smi:756-2

> <Gold.Version>
5.8.1

> <Gold.Id.Protein>
6NUR|6NUR_protein|mol2

> <Gold.PLP.Fitness>
50.6120

> <Gold.PLP.PLP>
-44.8654

> <Gold.PLP.part.hbond>
-3.5316

> <Gold.PLP.part.metal>
0.0000

> <Gold.PLP.part.buried>
-5.5709

> <Gold.PLP.part.nonpolar>
-35.0239

> <Gold.PLP.part.repulsive>
0.1044

> <Gold.PLP.ligand.clash>
0.0000

> <Gold.PLP.ligand.torsion>
0.2417

> <Gold.PLP.Chemscore.Hbond>
2.0656

> <Gold.PLP.Chemscore.CHOScore>
0.0000

> <Gold.PLP.Chemscore.Metal>
0.0000

> <Gold.Chemscore.Hbonds>
donor molecule, donor type, donor heavy atom, donor atom, acceptor molecule, acceptor atom, score
      L1  H    15    33       P1  7957  0.91
      P1  H  7997  8008       L1     6  0.39
      P1  H  8011  8017       L1    15  0.80

> <Gold.PLP.Chemscore.Internal.Correction>
0.0333

> <Gold.Rescore>
     Score         DG    S(hbond)    S(metal)    S(lipo)     H(rot)  DE(clash)    DE(int)     intcor
     15.95     -16.49       1.89        0.00      92.12       2.37       0.16       0.38       ----

> <Gold.Chemscore.Fitness>
15.9460

> <Gold.Chemscore.DG>
-16.4899

> <Gold.Chemscore.ZeroCoef>
-5.4800

> <Gold.Chemscore.Hbond>
1.8872

> <Gold.Chemscore.Metal>
0.0000

> <Gold.Chemscore.Lipo>
92.1209

> <Gold.Chemscore.Internal_Hbond>
0.0000

> <Gold.Chemscore.DEClash>
0.1647

> <Gold.Chemscore.DEInternal>
0.3791

> <Gold.Chemscore.Rot>
2.3717

> <Gold.Chemscore.Internal.Correction>
   9.000000E+99

> <Gold.Chemscore.Hbonds>
donor molecule, donor type, donor heavy atom, donor atom, acceptor molecule, acceptor atom, score
      L1  H    15    33       P1  7957  0.87
      P1  H  7997  8008       L1     6  0.39
      P1  H  8011  8017       L1    15  0.12

> <Gold.Chemscore.Hbond.Weighted>
-6.3033

> <Gold.Chemscore.Metal.Weighted>
-0.0000

> <Gold.Chemscore.Lipo.Weighted>
-10.7781

> <Gold.Chemscore.Internal_Hbond.Weighted>
0.0000

> <Gold.Chemscore.DEClash.Weighted>
0.1647

> <Gold.Chemscore.DEInternal.Weighted>
0.3791

> <Gold.Chemscore.Rot.Weighted>
6.0715

> <Gold.Chemscore.Internal.Correction.Weighted>
   9.000000E+99

> <Gold.Protein.RotatedTorsions>
[ 6907 6896 6895 6894 ] final   12.00 input  -60.11 | X-H torsion
[ 7974 7965 7964 7962 ] final  114.61 input  175.53 | X-H torsion
[ 8008 7997 7996 7995 ] final -111.84 input   59.86 | X-H torsion
[ 10167 10162 10161 10158 ] final  167.75 input  -65.29 | X-H torsion
[ 10718 10713 10712 10709 ] final   77.33 input   66.30 | X-H torsion
[ 10763 10752 10751 10750 ] final -116.05 input  -60.55 | X-H torsion
[ 11005 11000 10999 10996 ] final -169.60 input  -57.11 | X-H torsion

> <Gold.Protein.ActiveResidues>
 VAL166  LYS551  ARG553  GLY616  TRP617  ASP618  TYR619  PRO620  LYS621  CYS622 
 ASP623  PHE694  ASN695  SER759  ASP760  ASP761  ALA762  ILE779  LEU786  VAL792 
 PHE793  MET794  SER795  GLU796  ALA797  LYS798  CYS799  TRP800  GLU811  SER814 

> <Gold.Protein.RotatedAtoms>
  151.7633  135.0805  160.0348 H   0  0  0  0  0  0  0  0  0  0  0  0  # atno 6907 bound_to 6896
  152.3338  133.5984  159.5837 H   0  0  0  0  0  0  0  0  0  0  0  0  # atno 6908 bound_to 6896
  150.7438  133.9743  159.3597 H   0  0  0  0  0  0  0  0  0  0  0  0  # atno 6909 bound_to 6896
  145.2023  139.2946  143.4312 H   0  0  0  0  0  0  0  0  0  0  0  0  # atno 7974 bound_to 7965
  154.9960  140.0394  157.2340 H   0  0  0  0  0  0  0  0  0  0  0  0  # atno 8008 bound_to 7997
  154.7585  140.2780  155.6210 H   0  0  0  0  0  0  0  0  0  0  0  0  # atno 8009 bound_to 7997
  156.2899  140.2633  156.2358 H   0  0  0  0  0  0  0  0  0  0  0  0  # atno 8010 bound_to 7997
  139.4952  144.3888  151.9540 H   0  0  0  0  0  0  0  0  0  0  0  0  # atno 10167 bound_to 10162
  157.6706  130.9816  150.1626 H   0  0  0  0  0  0  0  0  0  0  0  0  # atno 10718 bound_to 10713
  154.8504  135.4359  154.1759 H   0  0  0  0  0  0  0  0  0  0  0  0  # atno 10763 bound_to 10752
  153.2861  135.6957  153.7344 H   0  0  0  0  0  0  0  0  0  0  0  0  # atno 10764 bound_to 10752
  153.6529  135.3448  155.3080 H   0  0  0  0  0  0  0  0  0  0  0  0  # atno 10765 bound_to 10752
  140.5289  134.5636  157.5069 H   0  0  0  0  0  0  0  0  0  0  0  0  # atno 11005 bound_to 11000
  146.3415  140.2271  142.8592 LP  0  0  0  0  0  0  0  0  0  0  0  0  # atno 17320 bound_to 7965
  144.9936  140.8569  143.5324 LP  0  0  0  0  0  0  0  0  0  0  0  0  # atno 17321 bound_to 7965
  140.3326  144.3299  150.5984 LP  0  0  0  0  0  0  0  0  0  0  0  0  # atno 17342 bound_to 10162
  140.5633  143.2189  151.7728 LP  0  0  0  0  0  0  0  0  0  0  0  0  # atno 17343 bound_to 10162
  156.2398  130.3690  149.8349 LP  0  0  0  0  0  0  0  0  0  0  0  0  # atno 17370 bound_to 10713
  156.6153  130.8603  151.3463 LP  0  0  0  0  0  0  0  0  0  0  0  0  # atno 17371 bound_to 10713
  139.9565  134.7526  156.0331 LP  0  0  0  0  0  0  0  0  0  0  0  0  # atno 17394 bound_to 11000
  141.1292  133.6591  156.3419 LP  0  0  0  0  0  0  0  0  0  0  0  0  # atno 17395 bound_to 11000

$$$$
