#       Name:                AV-unprocessed.smi:1319
#       Creating user name   scv26
#       Creation time:       Fri Mar 27 05:02:55 2020


#       File generated by GOLD software.
#

@<TRIPOS>MOLECULE
AV-unprocessed.smi:1319
    33    34     1
SMALL
NO_CHARGES


@<TRIPOS>ATOM
      1 ****        -3.9752  -2.6516  -1.4934 N.pl3          1 S1                 0.0000
      2 ****        -3.2863  -1.4630  -1.4763 C.ar           1 S1                 0.0000
      3 ****        -4.0278  -0.3481  -1.4968 N.ar           1 S1                 0.0000
      4 ****        -3.2837   0.7651  -1.4787 C.ar           1 S1                 0.0000
      5 ****        -3.9693   1.9554  -1.4983 N.pl3          1 S1                 0.0000
      6 ****        -1.9493   0.8530  -1.4431 N.ar           1 S1                 0.0000
      7 ****        -1.3672  -0.3513  -1.4263 C.ar           1 S1                 0.0000
      8 ****         0.4056  -0.3521  -1.3708 S.3            1 S1                 0.0000
      9 ****         0.6403  -0.3614   0.4277 C.3            1 S1                 0.0000
     10 ****         2.1255  -0.3254   0.8127 C.3            1 S1                 0.0000
     11 ****         2.8441   0.9824   0.4627 C.3            1 S1                 0.0000
     12 ****         3.8633   1.1628   1.5802 C.3            1 S1                 0.0000
     13 ****         3.6010  -0.0135   2.5205 C.3            1 S1                 0.0000
     14 ****         2.2703  -0.4041   2.2220 O.3            1 S1                 0.0000
     15 ****        -1.9522  -1.5542  -1.4407 N.ar           1 S1                 0.0000
     16 ****        -3.4785  -3.5304  -1.4793 H              1 S1                 0.0000
     17 ****        -4.9847  -2.6566  -1.4818 H              1 S1                 0.0000
     18 ****        -4.9786   1.9629  -1.5248 H              1 S1                 0.0000
     19 ****        -3.4715   2.8326  -1.4540 H              1 S1                 0.0000
     20 ****         0.1124   0.4878   0.8630 H              1 S1                 0.0000
     21 ****         0.1755  -1.2625   0.8288 H              1 S1                 0.0000
     22 ****         2.6516  -1.1720   0.3668 H              1 S1                 0.0000
     23 ****         3.3076   0.9381  -0.5233 H              1 S1                 0.0000
     24 ****         2.1478   1.8220   0.4644 H              1 S1                 0.0000
     25 ****         4.8902   1.1622   1.2135 H              1 S1                 0.0000
     26 ****         3.6906   2.1099   2.0929 H              1 S1                 0.0000
     27 ****         4.2779  -0.8411   2.3025 H              1 S1                 0.0000
     28 ****         3.7162   0.2532   3.5712 H              1 S1                 0.0000
     29 ****        -5.0275  -0.3470  -1.5228 LP             1 S1                 0.0000
     30 ****        -1.4463   1.7171  -1.4305 LP             1 S1                 0.0000
     31 ****         2.1086  -1.3408   2.5328 LP             1 S1                 0.0000
     32 ****         1.6222   0.2121   2.6695 LP             1 S1                 0.0000
     33 ****        -1.4513  -2.4196  -1.4265 LP             1 S1                 0.0000
@<TRIPOS>BOND
    1    1    2 1     
    2    1   16 1     
    3    1   17 1     
    4    2   15 ar    
    5    2    3 ar    
    6    3    4 ar    
    7    4    5 1     
    8    4    6 ar    
    9    5   18 1     
   10    5   19 1     
   11    6    7 ar    
   12    7    8 1     
   13    7   15 ar    
   14    8    9 1     
   15    9   10 1     
   16    9   20 1     
   17    9   21 1     
   18   10   14 1     
   19   10   11 1     
   20   10   22 1     
   21   11   12 1     
   22   11   23 1     
   23   11   24 1     
   24   12   13 1     
   25   12   25 1     
   26   12   26 1     
   27   13   14 1     
   28   13   27 1     
   29   13   28 1     
   30    3   29 1     
   31    6   30 1     
   32   14   31 1     
   33   14   32 1     
   34   15   33 1     
@<TRIPOS>SUBSTRUCTURE
      1 S1             1
@<TRIPOS>SET
LONE_PAIRS      STATIC     ATOMS    <user>   **** ""
5 29 30 31 32 33
DONOR_HYDROGENS      STATIC     ATOMS    <user>   **** ""
4 16 17 18 19
ATOM$BLUE        STATIC     ATOMS    COLORGROUP SYSTEM
5 29 30 31 32 33
ATOM$RED        STATIC     ATOMS    COLORGROUP SYSTEM
4 16 17 18 19
