AV-unprocessed.smi:776|AV-procd|sdf|3699|dock2
  -GOLD-   22720 1123D 1   1.00000     0.00000
 Structure written by MMmdl.
 44 45  0  0  0  0  0  0  0  0  1 V2000
  145.1591  145.2649  159.1803 C   0  0  0  0  0  0  0  0  0  0  0  0
  145.4390  143.9008  159.8291 C   0  0  0  0  0  0  0  0  0  0  0  0
  145.6404  143.9880  161.3496 C   0  0  0  0  0  0  0  0  0  0  0  0
  146.5680  143.1814  159.1562 C   0  0  0  0  0  0  0  0  0  0  0  0
  147.6661  142.8331  159.8191 N   0  0  0  0  0  0  0  0  0  0  0  0
  148.4491  142.2009  158.8429 O   0  0  0  0  0  0  0  0  0  0  0  0
  147.7127  142.2257  157.7064 C   0  0  0  0  0  0  0  0  0  0  0  0
  148.2979  141.6603  156.4561 C   0  0  0  0  0  0  0  0  0  0  0  0
  149.6876  141.0449  156.6859 C   0  0  0  0  0  0  0  0  0  0  0  0
  150.6424  142.0360  157.1687 N   0  0  0  0  0  0  0  0  0  0  0  0
  151.2360  142.0196  158.3744 C   0  0  0  0  0  0  0  0  0  0  0  0
  151.0553  141.1078  159.1814 O   0  0  0  0  0  0  0  0  0  0  0  0
  152.1278  143.0273  158.5533 N   0  0  0  0  0  0  0  0  0  0  0  0
  151.9112  144.3502  157.9385 C   0  0  0  0  0  0  0  0  0  0  0  0
  151.1662  145.2546  158.9401 C   0  0  0  0  0  0  0  0  0  0  0  0
  151.9349  145.3617  160.2705 C   0  0  0  0  0  0  0  0  0  0  0  0
  152.3436  143.9779  160.8103 C   0  0  0  0  0  0  0  0  0  0  0  0
  153.0403  143.1469  159.7126 C   0  0  1  0  0  0  0  0  0  0  0  0
  153.6073  141.8158  160.2500 C   0  0  0  0  0  0  0  0  0  0  0  0
  146.5394  142.8388  157.8384 N   0  0  0  0  0  0  0  0  0  0  0  0
  144.9505  145.1574  158.1152 H   0  0  0  0  0  0  0  0  0  0  0  0
  146.0097  145.9386  159.2869 H   0  0  0  0  0  0  0  0  0  0  0  0
  144.2955  145.7470  159.6389 H   0  0  0  0  0  0  0  0  0  0  0  0
  144.5421  143.2994  159.6732 H   0  0  0  0  0  0  0  0  0  0  0  0
  145.7534  142.9957  161.7872 H   0  0  0  0  0  0  0  0  0  0  0  0
  144.7867  144.4654  161.8313 H   0  0  0  0  0  0  0  0  0  0  0  0
  146.5296  144.5669  161.6011 H   0  0  0  0  0  0  0  0  0  0  0  0
  147.6142  140.9077  156.0619 H   0  0  0  0  0  0  0  0  0  0  0  0
  148.3511  142.4548  155.7107 H   0  0  0  0  0  0  0  0  0  0  0  0
  149.6263  140.2112  157.3873 H   0  0  0  0  0  0  0  0  0  0  0  0
  150.0712  140.6367  155.7503 H   0  0  0  0  0  0  0  0  0  0  0  0
  150.8761  142.7895  156.5388 H   0  0  0  0  0  0  0  0  0  0  0  0
  152.8722  144.7943  157.6750 H   0  0  0  0  0  0  0  0  0  0  0  0
  151.3501  144.3064  157.0045 H   0  0  0  0  0  0  0  0  0  0  0  0
  151.0203  146.2473  158.5135 H   0  0  0  0  0  0  0  0  0  0  0  0
  150.1705  144.8494  159.1259 H   0  0  0  0  0  0  0  0  0  0  0  0
  152.8333  145.9598  160.1129 H   0  0  0  0  0  0  0  0  0  0  0  0
  151.3373  145.8946  161.0106 H   0  0  0  0  0  0  0  0  0  0  0  0
  153.0041  144.1014  161.6691 H   0  0  0  0  0  0  0  0  0  0  0  0
  151.4615  143.4481  161.1718 H   0  0  0  0  0  0  0  0  0  0  0  0
  153.9113  143.7096  159.3725 H   0  0  0  0  0  0  0  0  0  0  0  0
  154.4241  142.0049  160.9470 H   0  0  0  0  0  0  0  0  0  0  0  0
  154.0053  141.1996  159.4431 H   0  0  0  0  0  0  0  0  0  0  0  0
  152.8640  141.2318  160.7920 H   0  0  0  0  0  0  0  0  0  0  0  0
  1  2  1  0  0  0  0
  1 21  1  0  0  0  0
  1 22  1  0  0  0  0
  1 23  1  0  0  0  0
  2  3  1  0  0  0  0
  2  4  1  0  0  0  0
  2 24  1  0  0  0  0
  3 25  1  0  0  0  0
  3 26  1  0  0  0  0
  3 27  1  0  0  0  0
  4 20  1  0  0  0  0
  4  5  2  0  0  0  0
  5  6  1  0  0  0  0
  6  7  1  0  0  0  0
  7  8  1  0  0  0  0
  7 20  2  0  0  0  0
  8  9  1  0  0  0  0
  8 28  1  0  0  0  0
  8 29  1  0  0  0  0
  9 10  1  0  0  0  0
  9 30  1  0  0  0  0
  9 31  1  0  0  0  0
 10 11  1  0  0  0  0
 10 32  1  0  0  0  0
 11 12  2  0  0  0  0
 11 13  1  0  0  0  0
 13 18  1  0  0  0  0
 13 14  1  0  0  0  0
 14 15  1  0  0  0  0
 14 33  1  0  0  0  0
 14 34  1  0  0  0  0
 15 16  1  0  0  0  0
 15 35  1  0  0  0  0
 15 36  1  0  0  0  0
 16 17  1  0  0  0  0
 16 37  1  0  0  0  0
 16 38  1  0  0  0  0
 17 18  1  0  0  0  0
 17 39  1  0  0  0  0
 17 40  1  0  0  0  0
 18 19  1  0  0  0  0
 18 41  1  0  0  0  0
 19 42  1  0  0  0  0
 19 43  1  0  0  0  0
 19 44  1  0  0  0  0
M  END
> <s_m_source_file>
AV-unprocessed.smi

> <i_m_source_file_index>
776

> <i_lp_mmshare_version>
43012

> <i_f3d_flags>
0

> <s_epik_input>
W0NIM11bQ0hdKFtDSDNdKWMxbm9jKG4xKVtDSDJdW0NIMl1bTkhdQyg9TylOMltDSDJdW0NIMl1bQ0gyXVtDSDJdW0NASF0yW0NIM10=

> <s_epik_cmdline>
J2VwaWtfcHl0aG9uJywgJy1waCcsICc3LjAnLCAnLXRuJywgJzgnLCAnLW1hJywgJzIwMCcsICctbWV0YWxfYmluZGluZycsICctaW1hZScsICc8aW5maWxlLm1hZT4nLCAnLW9tYWUnLCAnPG91dGZpbGUubWFlPic=

> <r_lp_tautomer_probability>
1

> <r_epik_Ionization_Penalty>
6.23032e-05

> <r_epik_Ionization_Penalty_Charging>
0

> <r_epik_Ionization_Penalty_Neutral>
6.23032e-05

> <r_epik_State_Penalty>
-0

> <r_epik_Charging_Adjusted_Penalty>
0

> <i_epik_Tot_Q>
0

> <i_epik_Tot_abs_Q>
0

> <r_epik_Metal_State_Penalty>
-0

> <b_epik_Metal_Only>
0

> <s_lp_Force_Field>
OPLS_2005

> <r_lp_Energy>
26.0958

> <b_lp_Chiralities_Consistent>
1

> <s_lp_Variant>
AV-unprocessed.smi:776-1

> <Gold.Version>
5.8.1

> <Gold.Id.Protein>
6NUR|6NUR_protein|mol2

> <Gold.PLP.Fitness>
45.0427

> <Gold.PLP.PLP>
-42.5192

> <Gold.PLP.part.hbond>
-3.7538

> <Gold.PLP.part.metal>
0.0000

> <Gold.PLP.part.buried>
-5.3348

> <Gold.PLP.part.nonpolar>
-33.9931

> <Gold.PLP.part.repulsive>
0.3569

> <Gold.PLP.ligand.clash>
0.0298

> <Gold.PLP.ligand.torsion>
0.2805

> <Gold.PLP.Chemscore.Hbond>
0.8661

> <Gold.PLP.Chemscore.CHOScore>
0.0000

> <Gold.PLP.Chemscore.Metal>
0.0000

> <Gold.Chemscore.Hbonds>
donor molecule, donor type, donor heavy atom, donor atom, acceptor molecule, acceptor atom, score
      P1  H  6933  6944       L1     5  0.74
      P1  H  6934  6946       L1     5  0.14

> <Gold.PLP.Chemscore.Internal.Correction>
0.5160

> <Gold.Rescore>
     Score         DG    S(hbond)    S(metal)    S(lipo)     H(rot)  DE(clash)    DE(int)     intcor
     12.08     -13.98       0.60        0.00      91.46       1.65       0.32       1.58       ----

> <Gold.Chemscore.Fitness>
12.0824

> <Gold.Chemscore.DG>
-13.9795

> <Gold.Chemscore.ZeroCoef>
-5.4800

> <Gold.Chemscore.Hbond>
0.6031

> <Gold.Chemscore.Metal>
0.0000

> <Gold.Chemscore.Lipo>
91.4649

> <Gold.Chemscore.Internal_Hbond>
0.0000

> <Gold.Chemscore.DEClash>
0.3159

> <Gold.Chemscore.DEInternal>
1.5812

> <Gold.Chemscore.Rot>
1.6470

> <Gold.Chemscore.Internal.Correction>
   9.000000E+99

> <Gold.Chemscore.Hbonds>
donor molecule, donor type, donor heavy atom, donor atom, acceptor molecule, acceptor atom, score
      P1  H  6933  6944       L1     5  0.29

> <Gold.Chemscore.Hbond.Weighted>
-2.0145

> <Gold.Chemscore.Metal.Weighted>
-0.0000

> <Gold.Chemscore.Lipo.Weighted>
-10.7014

> <Gold.Chemscore.Internal_Hbond.Weighted>
0.0000

> <Gold.Chemscore.DEClash.Weighted>
0.3159

> <Gold.Chemscore.DEInternal.Weighted>
1.5812

> <Gold.Chemscore.Rot.Weighted>
4.2164

> <Gold.Chemscore.Internal.Correction.Weighted>
   9.000000E+99

> <Gold.Protein.RotatedTorsions>
[ 6907 6896 6895 6894 ] final -103.19 input  -60.11 | X-H torsion
[ 7974 7965 7964 7962 ] final  142.81 input  175.53 | X-H torsion
[ 8008 7997 7996 7995 ] final -150.36 input   59.86 | X-H torsion
[ 10167 10162 10161 10158 ] final   -6.70 input  -65.29 | X-H torsion
[ 10718 10713 10712 10709 ] final -130.13 input   66.30 | X-H torsion
[ 10763 10752 10751 10750 ] final   -1.08 input  -60.55 | X-H torsion
[ 11005 11000 10999 10996 ] final   62.69 input  -57.11 | X-H torsion

> <Gold.Protein.ActiveResidues>
 VAL166  LYS551  ARG553  GLY616  TRP617  ASP618  TYR619  PRO620  LYS621  CYS622 
 ASP623  PHE694  ASN695  SER759  ASP760  ASP761  ALA762  ILE779  LEU786  VAL792 
 PHE793  MET794  SER795  GLU796  ALA797  LYS798  CYS799  TRP800  GLU811  SER814 

> <Gold.Protein.RotatedAtoms>
  150.7229  134.0466  159.3783 H   0  0  0  0  0  0  0  0  0  0  0  0  # atno 6907 bound_to 6896
  151.8441  135.0578  160.0461 H   0  0  0  0  0  0  0  0  0  0  0  0  # atno 6908 bound_to 6896
  152.2840  133.5461  159.5552 H   0  0  0  0  0  0  0  0  0  0  0  0  # atno 6909 bound_to 6896
  144.8975  139.5469  143.5769 H   0  0  0  0  0  0  0  0  0  0  0  0  # atno 7974 bound_to 7965
  155.6223  140.0683  157.2674 H   0  0  0  0  0  0  0  0  0  0  0  0  # atno 8008 bound_to 7997
  154.4226  140.1782  156.1433 H   0  0  0  0  0  0  0  0  0  0  0  0  # atno 8009 bound_to 7997
  155.9999  140.3337  155.6839 H   0  0  0  0  0  0  0  0  0  0  0  0  # atno 8010 bound_to 7997
  140.7005  143.6164  150.8654 H   0  0  0  0  0  0  0  0  0  0  0  0  # atno 10167 bound_to 10162
  156.2114  130.6920  151.0653 H   0  0  0  0  0  0  0  0  0  0  0  0  # atno 10718 bound_to 10713
  153.3403  135.6980  153.6873 H   0  0  0  0  0  0  0  0  0  0  0  0  # atno 10763 bound_to 10752
  153.5640  135.3529  155.2811 H   0  0  0  0  0  0  0  0  0  0  0  0  # atno 10764 bound_to 10752
  154.8635  135.4256  154.2614 H   0  0  0  0  0  0  0  0  0  0  0  0  # atno 10765 bound_to 10752
  140.0075  134.6347  155.9832 H   0  0  0  0  0  0  0  0  0  0  0  0  # atno 11005 bound_to 11000
  146.3090  139.7678  142.9034 LP  0  0  0  0  0  0  0  0  0  0  0  0  # atno 17320 bound_to 7965
  145.3674  141.0337  143.3250 LP  0  0  0  0  0  0  0  0  0  0  0  0  # atno 17321 bound_to 7965
  139.9886  143.5872  152.2918 LP  0  0  0  0  0  0  0  0  0  0  0  0  # atno 17342 bound_to 10162
  139.6519  144.7661  151.2132 LP  0  0  0  0  0  0  0  0  0  0  0  0  # atno 17343 bound_to 10162
  157.7040  131.0764  150.6727 LP  0  0  0  0  0  0  0  0  0  0  0  0  # atno 17370 bound_to 10713
  156.6787  130.4561  149.5634 LP  0  0  0  0  0  0  0  0  0  0  0  0  # atno 17371 bound_to 10713
  141.1687  133.6537  156.4574 LP  0  0  0  0  0  0  0  0  0  0  0  0  # atno 17394 bound_to 11000
  140.4614  134.6837  157.5087 LP  0  0  0  0  0  0  0  0  0  0  0  0  # atno 17395 bound_to 11000

$$$$
