AV-unprocessed.smi:3169|AV-procd|sdf|12106|dock4
  -GOLD-   2272017543D 1   1.00000     0.00000
 Structure written by MMmdl.
 35 36  0  0  0  0  0  0  0  0  1 V2000
  148.5542  132.8511  154.9187 O   0  0  0  0  0  0  0  0  0  0  0  0
  148.7146  133.7967  154.1470 C   0  0  0  0  0  0  0  0  0  0  0  0
  148.1346  133.8910  152.9432 N   0  0  0  0  0  0  0  0  0  0  0  0
  147.1848  132.9299  152.3910 C   0  0  0  0  0  0  0  0  0  0  0  0
  146.7862  133.2616  150.9395 C   0  0  0  0  0  0  0  0  0  0  0  0
  145.4173  132.8836  150.6423 N   0  0  0  0  0  0  0  0  0  0  0  0
  144.2700  133.2987  151.3049 C   0  0  0  0  0  0  0  0  0  0  0  0
  143.2103  132.6821  150.6786 C   0  0  0  0  0  0  0  0  0  0  0  0
  143.6795  131.8877  149.6349 N   0  0  0  0  0  0  0  0  0  0  0  0
  144.9944  132.0590  149.6738 C   0  0  0  0  0  0  0  0  0  0  0  0
  149.4678  134.8702  154.4201 N   0  0  0  0  0  0  0  0  0  0  0  0
  150.1547  135.1076  155.6840 C   0  0  0  0  0  0  0  0  0  0  0  0
  150.6235  136.5677  155.8018 C   0  0  1  0  0  0  0  0  0  0  0  0
  151.5905  136.8202  156.9566 C   0  0  0  0  0  0  0  0  0  0  0  0
  152.3873  138.0328  156.4973 C   0  0  0  0  0  0  0  0  0  0  0  0
  152.0575  138.1567  155.0067 C   0  0  0  0  0  0  0  0  0  0  0  0
  151.3970  136.9445  154.6737 O   0  0  0  0  0  0  0  0  0  0  0  0
  148.3301  134.7088  152.3844 H   0  0  0  0  0  0  0  0  0  0  0  0
  147.6375  131.9391  152.4353 H   0  0  0  0  0  0  0  0  0  0  0  0
  146.2962  132.8908  153.0229 H   0  0  0  0  0  0  0  0  0  0  0  0
  146.8898  134.3328  150.7629 H   0  0  0  0  0  0  0  0  0  0  0  0
  147.4499  132.7662  150.2297 H   0  0  0  0  0  0  0  0  0  0  0  0
  144.3021  133.9782  152.1437 H   0  0  0  0  0  0  0  0  0  0  0  0
  142.1548  132.7482  150.8976 H   0  0  0  0  0  0  0  0  0  0  0  0
  145.6672  131.5679  148.9857 H   0  0  0  0  0  0  0  0  0  0  0  0
  149.5341  135.5976  153.7232 H   0  0  0  0  0  0  0  0  0  0  0  0
  149.4957  134.8535  156.5158 H   0  0  0  0  0  0  0  0  0  0  0  0
  151.0081  134.4316  155.7445 H   0  0  0  0  0  0  0  0  0  0  0  0
  149.7696  137.2428  155.8878 H   0  0  0  0  0  0  0  0  0  0  0  0
  151.0757  136.9832  157.9040 H   0  0  0  0  0  0  0  0  0  0  0  0
  152.2623  135.9697  157.0812 H   0  0  0  0  0  0  0  0  0  0  0  0
  152.0925  138.9355  157.0337 H   0  0  0  0  0  0  0  0  0  0  0  0
  153.4544  137.8786  156.6609 H   0  0  0  0  0  0  0  0  0  0  0  0
  151.3785  138.9926  154.8325 H   0  0  0  0  0  0  0  0  0  0  0  0
  152.9448  138.3049  154.3909 H   0  0  0  0  0  0  0  0  0  0  0  0
  1  2  2  0  0  0  0
  2  3  1  0  0  0  0
  2 11  1  0  0  0  0
  3  4  1  0  0  0  0
  3 18  1  0  0  0  0
  4  5  1  0  0  0  0
  4 19  1  0  0  0  0
  4 20  1  0  0  0  0
  5  6  1  0  0  0  0
  5 21  1  0  0  0  0
  5 22  1  0  0  0  0
  6 10  1  0  0  0  0
  6  7  1  0  0  0  0
  7  8  2  0  0  0  0
  7 23  1  0  0  0  0
  8  9  1  0  0  0  0
  8 24  1  0  0  0  0
  9 10  2  0  0  0  0
 10 25  1  0  0  0  0
 11 12  1  0  0  0  0
 11 26  1  0  0  0  0
 12 13  1  0  0  0  0
 12 27  1  0  0  0  0
 12 28  1  0  0  0  0
 13 17  1  0  0  0  0
 13 14  1  0  0  0  0
 13 29  1  0  0  0  0
 14 15  1  0  0  0  0
 14 30  1  0  0  0  0
 14 31  1  0  0  0  0
 15 16  1  0  0  0  0
 15 32  1  0  0  0  0
 15 33  1  0  0  0  0
 16 17  1  0  0  0  0
 16 34  1  0  0  0  0
 16 35  1  0  0  0  0
M  END
> <s_m_source_file>
AV-unprocessed.smi

> <i_m_source_file_index>
3169

> <i_lp_mmshare_version>
43012

> <i_f3d_flags>
0

> <s_epik_input>
TzFbQ0gyXVtDSDJdW0NIMl1bQ0BIXTFbQ0gyXVtOSF1DKD1PKVtOSF1bQ0gyXVtDSDJdbjJbY0hdW2NIXW5bY0hdMg==

> <s_epik_cmdline>
J2VwaWtfcHl0aG9uJywgJy1waCcsICc3LjAnLCAnLXRuJywgJzgnLCAnLW1hJywgJzIwMCcsICctbWV0YWxfYmluZGluZycsICctaW1hZScsICc8aW5maWxlLm1hZT4nLCAnLW9tYWUnLCAnPG91dGZpbGUubWFlPic=

> <r_lp_tautomer_probability>
1

> <r_epik_Ionization_Penalty>
0.620462

> <r_epik_Ionization_Penalty_Charging>
0.620414

> <r_epik_Ionization_Penalty_Neutral>
4.72016e-05

> <r_epik_State_Penalty>
0.636391

> <r_epik_Charging_Adjusted_Penalty>
1.25681

> <i_epik_Tot_Q>
0

> <i_epik_Tot_abs_Q>
0

> <r_epik_Metal_State_Penalty>
0.306539

> <b_epik_Metal_Only>
0

> <s_lp_Force_Field>
OPLS_2005

> <r_lp_Energy>
15.8228

> <b_lp_Chiralities_Consistent>
1

> <s_lp_Variant>
AV-unprocessed.smi:3169-4

> <Gold.Version>
5.8.1

> <Gold.Id.Protein>
6NUR|6NUR_protein|mol2

> <Gold.PLP.Fitness>
42.5818

> <Gold.PLP.PLP>
-30.1702

> <Gold.PLP.part.hbond>
-4.0000

> <Gold.PLP.part.metal>
0.0000

> <Gold.PLP.part.buried>
-3.9299

> <Gold.PLP.part.nonpolar>
-22.6861

> <Gold.PLP.part.repulsive>
0.4270

> <Gold.PLP.ligand.clash>
0.0000

> <Gold.PLP.ligand.torsion>
0.3695

> <Gold.PLP.Chemscore.Hbond>
3.6784

> <Gold.PLP.Chemscore.CHOScore>
0.6980

> <Gold.PLP.Chemscore.Metal>
0.0000

> <Gold.Chemscore.Hbonds>
donor molecule, donor type, donor heavy atom, donor atom, acceptor molecule, acceptor atom, score
      L1  H     3    18       P1  7948  0.95
      L1  H    11    26       P1  7948  0.93
      P1  H 10752 10763       L1    17  0.99
      P1  H 10785 10796       L1     9  0.93
      L1  C     8    24       P1 10186  0.68

> <Gold.PLP.Chemscore.Internal.Correction>
0.0213

> <Gold.Rescore>
     Score         DG    S(hbond)    S(metal)    S(lipo)     H(rot)  DE(clash)    DE(int)     intcor
     12.26     -12.64       2.01        0.00      52.97       2.25       0.08       0.31       ----

> <Gold.Chemscore.Fitness>
12.2583

> <Gold.Chemscore.DG>
-12.6422

> <Gold.Chemscore.ZeroCoef>
-5.4800

> <Gold.Chemscore.Hbond>
2.0112

> <Gold.Chemscore.Metal>
0.0000

> <Gold.Chemscore.Lipo>
52.9737

> <Gold.Chemscore.Internal_Hbond>
0.0000

> <Gold.Chemscore.DEClash>
0.0766

> <Gold.Chemscore.DEInternal>
0.3073

> <Gold.Chemscore.Rot>
2.2474

> <Gold.Chemscore.Internal.Correction>
   9.000000E+99

> <Gold.Chemscore.Hbonds>
donor molecule, donor type, donor heavy atom, donor atom, acceptor molecule, acceptor atom, score
      L1  H     3    18       P1  7948  0.22
      L1  H    11    26       P1  7948  0.22
      P1  H 10752 10763       L1    17  0.29
      P1  H 10785 10796       L1     9  0.66

> <Gold.Chemscore.Hbond.Weighted>
-6.7175

> <Gold.Chemscore.Metal.Weighted>
-0.0000

> <Gold.Chemscore.Lipo.Weighted>
-6.1979

> <Gold.Chemscore.Internal_Hbond.Weighted>
0.0000

> <Gold.Chemscore.DEClash.Weighted>
0.0766

> <Gold.Chemscore.DEInternal.Weighted>
0.3073

> <Gold.Chemscore.Rot.Weighted>
5.7532

> <Gold.Chemscore.Internal.Correction.Weighted>
   9.000000E+99

> <Gold.Protein.RotatedTorsions>
[ 6907 6896 6895 6894 ] final   19.47 input  -60.11 | X-H torsion
[ 7974 7965 7964 7962 ] final   17.34 input  175.53 | X-H torsion
[ 8008 7997 7996 7995 ] final  111.43 input   59.86 | X-H torsion
[ 10167 10162 10161 10158 ] final  -20.24 input  -65.29 | X-H torsion
[ 10718 10713 10712 10709 ] final  110.31 input   66.30 | X-H torsion
[ 10763 10752 10751 10750 ] final   46.06 input  -60.55 | X-H torsion
[ 11005 11000 10999 10996 ] final   13.57 input  -57.11 | X-H torsion

> <Gold.Protein.ActiveResidues>
 VAL166  LYS551  ARG553  GLY616  TRP617  ASP618  TYR619  PRO620  LYS621  CYS622 
 ASP623  PHE694  ASN695  SER759  ASP760  ASP761  ALA762  ILE779  LEU786  VAL792 
 PHE793  MET794  SER795  GLU796  ALA797  LYS798  CYS799  TRP800  GLU811  SER814 

> <Gold.Protein.RotatedAtoms>
  151.8814  135.0452  160.0488 H   0  0  0  0  0  0  0  0  0  0  0  0  # atno 6907 bound_to 6896
  152.2510  133.5210  159.5333 H   0  0  0  0  0  0  0  0  0  0  0  0  # atno 6908 bound_to 6896
  150.7084  134.0877  159.3963 H   0  0  0  0  0  0  0  0  0  0  0  0  # atno 6909 bound_to 6896
  146.2221  139.8616  142.8603 H   0  0  0  0  0  0  0  0  0  0  0  0  # atno 7974 bound_to 7965
  156.2123  140.3019  155.9760 H   0  0  0  0  0  0  0  0  0  0  0  0  # atno 8008 bound_to 7997
  155.2693  140.0433  157.3022 H   0  0  0  0  0  0  0  0  0  0  0  0  # atno 8009 bound_to 7997
  154.5717  140.2350  155.8190 H   0  0  0  0  0  0  0  0  0  0  0  0  # atno 8010 bound_to 7997
  140.7274  143.4742  151.0206 H   0  0  0  0  0  0  0  0  0  0  0  0  # atno 10167 bound_to 10162
  157.6500  131.0930  150.6582 H   0  0  0  0  0  0  0  0  0  0  0  0  # atno 10718 bound_to 10713
  152.9816  135.6020  154.3538 H   0  0  0  0  0  0  0  0  0  0  0  0  # atno 10763 bound_to 10752
  154.3225  135.2769  155.2514 H   0  0  0  0  0  0  0  0  0  0  0  0  # atno 10764 bound_to 10752
  154.4674  135.5950  153.6354 H   0  0  0  0  0  0  0  0  0  0  0  0  # atno 10765 bound_to 10752
  140.4793  134.0952  155.7748 H   0  0  0  0  0  0  0  0  0  0  0  0  # atno 11005 bound_to 11000
  145.2699  141.0105  143.3778 LP  0  0  0  0  0  0  0  0  0  0  0  0  # atno 17320 bound_to 7965
  144.9232  139.4387  143.6531 LP  0  0  0  0  0  0  0  0  0  0  0  0  # atno 17321 bound_to 7965
  139.8436  143.7531  152.3180 LP  0  0  0  0  0  0  0  0  0  0  0  0  # atno 17342 bound_to 10162
  139.7689  144.7483  151.0254 LP  0  0  0  0  0  0  0  0  0  0  0  0  # atno 17343 bound_to 10162
  156.6895  130.4591  149.5604 LP  0  0  0  0  0  0  0  0  0  0  0  0  # atno 17370 bound_to 10713
  156.1872  130.6537  151.1020 LP  0  0  0  0  0  0  0  0  0  0  0  0  # atno 17371 bound_to 10713
  141.1539  133.8918  157.2028 LP  0  0  0  0  0  0  0  0  0  0  0  0  # atno 17394 bound_to 11000
  139.9836  135.0089  156.9810 LP  0  0  0  0  0  0  0  0  0  0  0  0  # atno 17395 bound_to 11000

$$$$
