AV-unprocessed.smi:303|AV-procd|sdf|2275|dock1
  -GOLD-   2262022173D 1   1.00000     0.00000
 Structure written by MMmdl.
 46 47  0  0  0  0  0  0  0  0  2 V2000
  151.1755  137.6574  158.7252 C   0  0  0  0  0  0  0  0  0  0  0  0
  150.5233  138.9501  158.2208 C   0  0  0  0  0  0  0  0  0  0  0  0
  151.7734  140.1552  157.5849 S   0  0  0  0  0  0  0  0  0  0  0  0
  151.6279  141.4091  158.3402 O   0  0  0  0  0  0  0  0  0  0  0  0
  153.0845  139.4906  157.5191 O   0  0  0  0  0  0  0  0  0  0  0  0
  151.2654  140.4731  155.9496 N   0  0  0  0  0  0  0  0  0  0  0  0
  151.3751  139.4150  154.9277 C   0  0  0  0  0  0  0  0  0  0  0  0
  150.0077  138.7727  154.6382 C   0  0  0  0  0  0  0  0  0  0  0  0
  148.9648  139.8314  154.2376 C   0  0  0  0  0  0  0  0  0  0  0  0
  147.6007  139.1809  153.9724 C   0  0  0  0  0  0  0  0  0  0  0  0
  146.8056  139.0049  154.8965 O   0  0  0  0  0  0  0  0  0  0  0  0
  147.3441  138.8181  152.7059 N   0  0  0  0  0  0  0  0  0  0  0  0
  146.1215  138.1617  152.2578 C   0  0  0  0  0  0  0  0  0  0  0  0
  146.3068  137.5078  150.8777 C   0  0  0  0  0  0  0  0  0  0  0  0
  145.9547  136.0331  150.8853 C   0  0  0  0  0  0  0  0  0  0  0  0
  144.7426  135.5491  150.3468 C   0  0  0  0  0  0  0  0  0  0  0  0
  144.4758  134.1644  150.3855 C   0  0  0  0  0  0  0  0  0  0  0  0
  145.4258  133.2943  150.9593 C   0  0  0  0  0  0  0  0  0  0  0  0
  146.6209  133.8314  151.4799 C   0  0  0  0  0  0  0  0  0  0  0  0
  146.8399  135.1638  151.4245 N   0  3  0  0  0  0  0  0  0  0  0  0
  148.8711  140.8904  155.3516 C   0  0  0  0  0  0  0  0  0  0  0  0
  150.2468  141.5057  155.6646 C   0  0  0  0  0  0  0  0  0  0  0  0
  150.4192  136.9508  159.0669 H   0  0  0  0  0  0  0  0  0  0  0  0
  151.8451  137.8557  159.5623 H   0  0  0  0  0  0  0  0  0  0  0  0
  151.7558  137.1715  157.9414 H   0  0  0  0  0  0  0  0  0  0  0  0
  149.7855  138.7506  157.4480 H   0  0  0  0  0  0  0  0  0  0  0  0
  149.9974  139.4304  159.0458 H   0  0  0  0  0  0  0  0  0  0  0  0
  151.7751  139.8559  154.0140 H   0  0  0  0  0  0  0  0  0  0  0  0
  152.0917  138.6570  155.2433 H   0  0  0  0  0  0  0  0  0  0  0  0
  150.1186  138.0368  153.8406 H   0  0  0  0  0  0  0  0  0  0  0  0
  149.6679  138.2211  155.5148 H   0  0  0  0  0  0  0  0  0  0  0  0
  149.3034  140.3215  153.3230 H   0  0  0  0  0  0  0  0  0  0  0  0
  148.0493  139.0024  152.0066 H   0  0  0  0  0  0  0  0  0  0  0  0
  145.8059  137.4199  152.9938 H   0  0  0  0  0  0  0  0  0  0  0  0
  145.3310  138.9114  152.2140 H   0  0  0  0  0  0  0  0  0  0  0  0
  145.6870  138.0157  150.1372 H   0  0  0  0  0  0  0  0  0  0  0  0
  147.3385  137.6194  150.5413 H   0  0  0  0  0  0  0  0  0  0  0  0
  144.0252  136.2285  149.9094 H   0  0  0  0  0  0  0  0  0  0  0  0
  143.5531  133.7748  149.9801 H   0  0  0  0  0  0  0  0  0  0  0  0
  145.2398  132.2307  150.9997 H   0  0  0  0  0  0  0  0  0  0  0  0
  147.4016  133.2406  151.9363 H   0  0  0  0  0  0  0  0  0  0  0  0
  148.1867  141.6845  155.0500 H   0  0  0  0  0  0  0  0  0  0  0  0
  148.4443  140.4601  156.2566 H   0  0  0  0  0  0  0  0  0  0  0  0
  150.1675  142.2050  156.4961 H   0  0  0  0  0  0  0  0  0  0  0  0
  150.5849  142.0890  154.8073 H   0  0  0  0  0  0  0  0  0  0  0  0
  147.7112  135.5303  151.8085 H   0  0  0  0  0  0  0  0  0  0  0  0
  1  2  1  0  0  0  0
  1 23  1  0  0  0  0
  1 24  1  0  0  0  0
  1 25  1  0  0  0  0
  2  3  1  0  0  0  0
  2 26  1  0  0  0  0
  2 27  1  0  0  0  0
  3  4  2  0  0  0  0
  3  5  2  0  0  0  0
  3  6  1  0  0  0  0
  6 22  1  0  0  0  0
  6  7  1  0  0  0  0
  7  8  1  0  0  0  0
  7 28  1  0  0  0  0
  7 29  1  0  0  0  0
  8  9  1  0  0  0  0
  8 30  1  0  0  0  0
  8 31  1  0  0  0  0
  9 10  1  0  0  0  0
  9 21  1  0  0  0  0
  9 32  1  0  0  0  0
 10 11  2  0  0  0  0
 10 12  1  0  0  0  0
 12 13  1  0  0  0  0
 12 33  1  0  0  0  0
 13 14  1  0  0  0  0
 13 34  1  0  0  0  0
 13 35  1  0  0  0  0
 14 15  1  0  0  0  0
 14 36  1  0  0  0  0
 14 37  1  0  0  0  0
 15 20  1  0  0  0  0
 15 16  2  0  0  0  0
 16 17  1  0  0  0  0
 16 38  1  0  0  0  0
 17 18  2  0  0  0  0
 17 39  1  0  0  0  0
 18 19  1  0  0  0  0
 18 40  1  0  0  0  0
 19 20  2  0  0  0  0
 19 41  1  0  0  0  0
 20 46  1  0  0  0  0
 21 22  1  0  0  0  0
 21 42  1  0  0  0  0
 21 43  1  0  0  0  0
 22 44  1  0  0  0  0
 22 45  1  0  0  0  0
M  CHG  1  20   1
M  END
> <s_m_source_file>
AV-unprocessed.smi

> <i_m_source_file_index>
303

> <i_lp_mmshare_version>
43012

> <i_f3d_flags>
0

> <s_epik_input>
W0NIM11bQ0gyXVMoPU8pKD1PKU4xW0NIMl1bQ0gyXVtDSF0oW0NIMl1bQ0gyXTEpQyg9TylbTkhdW0NIMl1bQ0gyXWMyW2NIXVtjSF1bY0hdW2NIXW4y

> <s_epik_cmdline>
J2VwaWtfcHl0aG9uJywgJy1waCcsICc3LjAnLCAnLXRuJywgJzgnLCAnLW1hJywgJzIwMCcsICctbWV0YWxfYmluZGluZycsICctaW1hZScsICc8aW5maWxlLm1hZT4nLCAnLW9tYWUnLCAnPG91dGZpbGUubWFlPic=

> <r_epik_Ionization_Penalty>
1.82741

> <r_epik_Ionization_Penalty_Charging>
1.82741

> <r_epik_Ionization_Penalty_Neutral>
1.89562e-08

> <r_epik_State_Penalty>
1.94311

> <r_epik_Charging_Adjusted_Penalty>
3.77052

> <i_epik_Tot_Q>
1

> <i_epik_Tot_abs_Q>
1

> <r_epik_Metal_State_Penalty>
1.96983

> <b_epik_Metal_Only>
0

> <s_lp_Force_Field>
OPLS_2005

> <r_lp_Energy>
6.79825

> <b_lp_Chiralities_Consistent>
1

> <s_lp_Variant>
AV-unprocessed.smi:303-2

> <Gold.Version>
5.8.1

> <Gold.Id.Protein>
6NUR|6NUR_protein|mol2

> <Gold.PLP.Fitness>
48.1686

> <Gold.PLP.PLP>
-39.1653

> <Gold.PLP.part.hbond>
-3.7915

> <Gold.PLP.part.metal>
0.0000

> <Gold.PLP.part.buried>
3.5063

> <Gold.PLP.part.nonpolar>
-36.8115

> <Gold.PLP.part.repulsive>
0.2019

> <Gold.PLP.ligand.clash>
0.0000

> <Gold.PLP.ligand.torsion>
2.5157

> <Gold.PLP.Chemscore.Hbond>
3.9190

> <Gold.PLP.Chemscore.CHOScore>
0.0000

> <Gold.PLP.Chemscore.Metal>
0.0000

> <Gold.Chemscore.Hbonds>
donor molecule, donor type, donor heavy atom, donor atom, acceptor molecule, acceptor atom, score
      L1  H    12    33       P1  7957  1.00
      L1  H    20    46       P1  7948  1.27
      P1  H  7997  8010       L1     5  1.00

> <Gold.PLP.Chemscore.Internal.Correction>
2.2778

> <Gold.Rescore>
     Score         DG    S(hbond)    S(metal)    S(lipo)     H(rot)  DE(clash)    DE(int)     intcor
     17.13     -21.78       2.83        0.00      97.00       1.76       2.29       2.36       ----

> <Gold.Chemscore.Fitness>
17.1304

> <Gold.Chemscore.DG>
-21.7818

> <Gold.Chemscore.ZeroCoef>
-5.4800

> <Gold.Chemscore.Hbond>
2.8314

> <Gold.Chemscore.Metal>
0.0000

> <Gold.Chemscore.Lipo>
97.0029

> <Gold.Chemscore.Internal_Hbond>
0.0000

> <Gold.Chemscore.DEClash>
2.2894

> <Gold.Chemscore.DEInternal>
2.3619

> <Gold.Chemscore.Rot>
1.7596

> <Gold.Chemscore.Internal.Correction>
   9.000000E+99

> <Gold.Chemscore.Hbonds>
donor molecule, donor type, donor heavy atom, donor atom, acceptor molecule, acceptor atom, score
      L1  H    12    33       P1  7957  0.91
      L1  H    20    46       P1  7948  0.63
      P1  H  7997  8010       L1     5  0.99

> <Gold.Chemscore.Hbond.Weighted>
-9.4569

> <Gold.Chemscore.Metal.Weighted>
-0.0000

> <Gold.Chemscore.Lipo.Weighted>
-11.3493

> <Gold.Chemscore.Internal_Hbond.Weighted>
0.0000

> <Gold.Chemscore.DEClash.Weighted>
2.2894

> <Gold.Chemscore.DEInternal.Weighted>
2.3619

> <Gold.Chemscore.Rot.Weighted>
4.5045

> <Gold.Chemscore.Internal.Correction.Weighted>
   9.000000E+99

> <Gold.Protein.RotatedTorsions>
[ 6907 6896 6895 6894 ] final   52.73 input  -60.11 | X-H torsion
[ 7974 7965 7964 7962 ] final  -19.61 input  175.53 | X-H torsion
[ 8008 7997 7996 7995 ] final   52.03 input   59.86 | X-H torsion
[ 10167 10162 10161 10158 ] final  174.87 input  -65.29 | X-H torsion
[ 10718 10713 10712 10709 ] final   30.31 input   66.30 | X-H torsion
[ 10763 10752 10751 10750 ] final   13.43 input  -60.55 | X-H torsion
[ 11005 11000 10999 10996 ] final  -98.55 input  -57.11 | X-H torsion

> <Gold.Protein.ActiveResidues>
 VAL166  LYS551  ARG553  GLY616  TRP617  ASP618  TYR619  PRO620  LYS621  CYS622 
 ASP623  PHE694  ASN695  SER759  ASP760  ASP761  ALA762  ILE779  LEU786  VAL792 
 PHE793  MET794  SER795  GLU796  ALA797  LYS798  CYS799  TRP800  GLU811  SER814 

> <Gold.Protein.RotatedAtoms>
  152.3264  134.7316  160.0300 H   0  0  0  0  0  0  0  0  0  0  0  0  # atno 6907 bound_to 6896
  151.7747  133.3339  159.3462 H   0  0  0  0  0  0  0  0  0  0  0  0  # atno 6908 bound_to 6896
  150.7398  134.5918  159.6035 H   0  0  0  0  0  0  0  0  0  0  0  0  # atno 6909 bound_to 6896
  146.1832  140.4086  142.8486 H   0  0  0  0  0  0  0  0  0  0  0  0  # atno 7974 bound_to 7965
  155.4451  140.3456  155.4294 H   0  0  0  0  0  0  0  0  0  0  0  0  # atno 8008 bound_to 7997
  156.1254  140.1499  156.9173 H   0  0  0  0  0  0  0  0  0  0  0  0  # atno 8009 bound_to 7997
  154.4854  140.0857  156.7455 H   0  0  0  0  0  0  0  0  0  0  0  0  # atno 8010 bound_to 7997
  139.5157  144.3096  152.0303 H   0  0  0  0  0  0  0  0  0  0  0  0  # atno 10167 bound_to 10162
  157.2580  130.7147  149.6439 H   0  0  0  0  0  0  0  0  0  0  0  0  # atno 10718 bound_to 10713
  153.1722  135.6814  153.8592 H   0  0  0  0  0  0  0  0  0  0  0  0  # atno 10763 bound_to 10752
  153.7952  135.3163  155.3384 H   0  0  0  0  0  0  0  0  0  0  0  0  # atno 10764 bound_to 10752
  154.8006  135.4780  154.0358 H   0  0  0  0  0  0  0  0  0  0  0  0  # atno 10765 bound_to 10752
  141.1340  133.8254  157.0855 H   0  0  0  0  0  0  0  0  0  0  0  0  # atno 11005 bound_to 11000
  144.8351  140.6769  143.6266 LP  0  0  0  0  0  0  0  0  0  0  0  0  # atno 17320 bound_to 7965
  145.4015  139.1597  143.4175 LP  0  0  0  0  0  0  0  0  0  0  0  0  # atno 17321 bound_to 7965
  140.2541  144.4137  150.6210 LP  0  0  0  0  0  0  0  0  0  0  0  0  # atno 17342 bound_to 10162
  140.6204  143.2176  151.6706 LP  0  0  0  0  0  0  0  0  0  0  0  0  # atno 17343 bound_to 10162
  155.9664  130.4406  150.5308 LP  0  0  0  0  0  0  0  0  0  0  0  0  # atno 17370 bound_to 10713
  157.3207  131.0681  151.1934 LP  0  0  0  0  0  0  0  0  0  0  0  0  # atno 17371 bound_to 10713
  140.0425  134.9847  157.0988 LP  0  0  0  0  0  0  0  0  0  0  0  0  # atno 17394 bound_to 11000
  140.4114  134.1978  155.7163 LP  0  0  0  0  0  0  0  0  0  0  0  0  # atno 17395 bound_to 11000

$$$$
