AV-unprocessed.smi:1177|AV-procd|sdf|4954|dock9
  -GOLD-   22720 3543D 1   1.00000     0.00000
 Structure written by MMmdl.
 30 31  0  0  0  0  0  0  0  0  1 V2000
  150.6204  140.6173  155.2882 O   0  0  0  0  0  0  0  0  0  0  0  0
  150.0080  141.6503  155.5601 C   0  0  0  0  0  0  0  0  0  0  0  0
  150.3790  142.5122  156.5172 N   0  0  0  0  0  0  0  0  0  0  0  0
  151.5495  142.3580  157.3735 C   0  0  0  0  0  0  0  0  0  0  0  0
  151.7938  143.6095  158.2332 C   0  0  0  0  0  0  0  0  0  0  0  0
  152.2435  143.2611  159.6396 C   0  0  0  0  0  0  0  0  0  0  0  0
  153.0644  142.1376  159.8760 C   0  0  0  0  0  0  0  0  0  0  0  0
  153.4491  141.8546  161.2009 C   0  0  0  0  0  0  0  0  0  0  0  0
  152.9988  142.6999  162.2333 C   0  0  0  0  0  0  0  0  0  0  0  0
  152.1799  143.7952  161.8932 C   0  0  0  0  0  0  0  0  0  0  0  0
  151.8059  144.0757  160.6262 N   0  0  0  0  0  0  0  0  0  0  0  0
  148.8901  142.0499  154.9391 N   0  0  0  0  0  0  0  0  0  0  0  0
  148.2384  141.3512  153.8791 C   0  0  0  0  0  0  0  0  0  0  0  0
  146.8739  141.8434  153.4474 C   0  0  0  0  0  0  0  0  0  0  0  0
  146.9945  140.5589  154.2198 C   0  0  0  0  0  0  0  0  0  0  0  0
  149.8128  143.3351  156.6635 H   0  0  0  0  0  0  0  0  0  0  0  0
  151.4376  141.4743  158.0044 H   0  0  0  0  0  0  0  0  0  0  0  0
  152.4129  142.1751  156.7334 H   0  0  0  0  0  0  0  0  0  0  0  0
  152.5471  144.2432  157.7632 H   0  0  0  0  0  0  0  0  0  0  0  0
  150.8849  144.2100  158.2949 H   0  0  0  0  0  0  0  0  0  0  0  0
  153.3914  141.5058  159.0631 H   0  0  0  0  0  0  0  0  0  0  0  0
  154.0768  141.0036  161.4214 H   0  0  0  0  0  0  0  0  0  0  0  0
  153.2733  142.5133  163.2609 H   0  0  0  0  0  0  0  0  0  0  0  0
  151.8154  144.4634  162.6592 H   0  0  0  0  0  0  0  0  0  0  0  0
  148.4644  142.9144  155.2404 H   0  0  0  0  0  0  0  0  0  0  0  0
  148.8677  140.9366  153.0926 H   0  0  0  0  0  0  0  0  0  0  0  0
  146.4534  142.7027  153.9667 H   0  0  0  0  0  0  0  0  0  0  0  0
  146.6271  141.7725  152.3900 H   0  0  0  0  0  0  0  0  0  0  0  0
  146.8271  139.6301  153.6783 H   0  0  0  0  0  0  0  0  0  0  0  0
  146.6554  140.5618  155.2540 H   0  0  0  0  0  0  0  0  0  0  0  0
  1  2  2  0  0  0  0
  2  3  1  0  0  0  0
  2 12  1  0  0  0  0
  3  4  1  0  0  0  0
  3 16  1  0  0  0  0
  4  5  1  0  0  0  0
  4 17  1  0  0  0  0
  4 18  1  0  0  0  0
  5  6  1  0  0  0  0
  5 19  1  0  0  0  0
  5 20  1  0  0  0  0
  6 11  1  0  0  0  0
  6  7  2  0  0  0  0
  7  8  1  0  0  0  0
  7 21  1  0  0  0  0
  8  9  2  0  0  0  0
  8 22  1  0  0  0  0
  9 10  1  0  0  0  0
  9 23  1  0  0  0  0
 10 11  2  0  0  0  0
 10 24  1  0  0  0  0
 12 13  1  0  0  0  0
 12 25  1  0  0  0  0
 13 15  1  0  0  0  0
 13 14  1  0  0  0  0
 13 26  1  0  0  0  0
 14 15  1  0  0  0  0
 14 27  1  0  0  0  0
 14 28  1  0  0  0  0
 15 29  1  0  0  0  0
 15 30  1  0  0  0  0
M  END
> <s_m_source_file>
AV-unprocessed.smi

> <i_m_source_file_index>
1177

> <i_lp_mmshare_version>
43012

> <i_f3d_flags>
0

> <s_epik_input>
W0NIMl0xW0NIMl1bQ0hdMVtOSF1DKD1PKVtOSF1bQ0gyXVtDSDJdYzJbY0hdW2NIXVtjSF1bY0hdbjI=

> <s_epik_cmdline>
J2VwaWtfcHl0aG9uJywgJy1waCcsICc3LjAnLCAnLXRuJywgJzgnLCAnLW1hJywgJzIwMCcsICctbWV0YWxfYmluZGluZycsICctaW1hZScsICc8aW5maWxlLm1hZT4nLCAnLW9tYWUnLCAnPG91dGZpbGUubWFlPic=

> <r_epik_Ionization_Penalty>
0.0440342

> <r_epik_Ionization_Penalty_Charging>
0

> <r_epik_Ionization_Penalty_Neutral>
0.0440342

> <r_epik_State_Penalty>
0.0372351

> <r_epik_Charging_Adjusted_Penalty>
0.0372351

> <i_epik_Tot_Q>
0

> <i_epik_Tot_abs_Q>
0

> <r_epik_Metal_State_Penalty>
0.0346506

> <b_epik_Metal_Only>
0

> <s_lp_Force_Field>
OPLS_2005

> <r_lp_Energy>
12.265

> <b_lp_Chiralities_Consistent>
1

> <s_lp_Variant>
AV-unprocessed.smi:1177-1

> <Gold.Version>
5.8.1

> <Gold.Id.Protein>
6NUR|6NUR_protein|mol2

> <Gold.PLP.Fitness>
45.3776

> <Gold.PLP.PLP>
-39.2830

> <Gold.PLP.part.hbond>
-3.0000

> <Gold.PLP.part.metal>
0.0000

> <Gold.PLP.part.buried>
-6.4193

> <Gold.PLP.part.nonpolar>
-29.6725

> <Gold.PLP.part.repulsive>
0.4273

> <Gold.PLP.ligand.clash>
0.0000

> <Gold.PLP.ligand.torsion>
0.8152

> <Gold.PLP.Chemscore.Hbond>
2.5600

> <Gold.PLP.Chemscore.CHOScore>
0.0000

> <Gold.PLP.Chemscore.Metal>
0.0000

> <Gold.Chemscore.Hbonds>
donor molecule, donor type, donor heavy atom, donor atom, acceptor molecule, acceptor atom, score
      L1  H     3    16       P1  8028  0.82
      L1  H    12    25       P1  8028  0.85
      P1  H  7989  7998       L1     1  0.84

> <Gold.PLP.Chemscore.Internal.Correction>
0.0450

> <Gold.Rescore>
     Score         DG    S(hbond)    S(metal)    S(lipo)     H(rot)  DE(clash)    DE(int)     intcor
     19.96     -20.86       2.27        0.00     101.96       1.61       0.33       0.57       ----

> <Gold.Chemscore.Fitness>
19.9635

> <Gold.Chemscore.DG>
-20.8593

> <Gold.Chemscore.ZeroCoef>
-5.4800

> <Gold.Chemscore.Hbond>
2.2704

> <Gold.Chemscore.Metal>
0.0000

> <Gold.Chemscore.Lipo>
101.9634

> <Gold.Chemscore.Internal_Hbond>
0.0000

> <Gold.Chemscore.DEClash>
0.3277

> <Gold.Chemscore.DEInternal>
0.5680

> <Gold.Chemscore.Rot>
1.6147

> <Gold.Chemscore.Internal.Correction>
   9.000000E+99

> <Gold.Chemscore.Hbonds>
donor molecule, donor type, donor heavy atom, donor atom, acceptor molecule, acceptor atom, score
      L1  H     3    16       P1  8028  0.81
      L1  H    12    25       P1  8028  0.85
      P1  H  7989  7998       L1     1  0.55

> <Gold.Chemscore.Hbond.Weighted>
-7.5831

> <Gold.Chemscore.Metal.Weighted>
-0.0000

> <Gold.Chemscore.Lipo.Weighted>
-11.9297

> <Gold.Chemscore.Internal_Hbond.Weighted>
0.0000

> <Gold.Chemscore.DEClash.Weighted>
0.3277

> <Gold.Chemscore.DEInternal.Weighted>
0.5680

> <Gold.Chemscore.Rot.Weighted>
4.1336

> <Gold.Chemscore.Internal.Correction.Weighted>
   9.000000E+99

> <Gold.Protein.RotatedTorsions>
[ 6907 6896 6895 6894 ] final  135.52 input  -60.11 | X-H torsion
[ 7974 7965 7964 7962 ] final  -53.24 input  175.53 | X-H torsion
[ 8008 7997 7996 7995 ] final -147.32 input   59.86 | X-H torsion
[ 10167 10162 10161 10158 ] final   67.61 input  -65.29 | X-H torsion
[ 10718 10713 10712 10709 ] final -157.58 input   66.30 | X-H torsion
[ 10763 10752 10751 10750 ] final   99.77 input  -60.55 | X-H torsion
[ 11005 11000 10999 10996 ] final -163.28 input  -57.11 | X-H torsion

> <Gold.Protein.ActiveResidues>
 VAL166  LYS551  ARG553  GLY616  TRP617  ASP618  TYR619  PRO620  LYS621  CYS622 
 ASP623  PHE694  ASN695  SER759  ASP760  ASP761  ALA762  ILE779  LEU786  VAL792 
 PHE793  MET794  SER795  GLU796  ALA797  LYS798  CYS799  TRP800  GLU811  SER814 

> <Gold.Protein.RotatedAtoms>
  152.2995  133.5641  159.5608 H   0  0  0  0  0  0  0  0  0  0  0  0  # atno 6907 bound_to 6896
  150.7271  134.0312  159.3743 H   0  0  0  0  0  0  0  0  0  0  0  0  # atno 6908 bound_to 6896
  151.8213  135.0651  160.0476 H   0  0  0  0  0  0  0  0  0  0  0  0  # atno 6909 bound_to 6896
  145.8990  140.8009  142.9753 H   0  0  0  0  0  0  0  0  0  0  0  0  # atno 7974 bound_to 7965
  155.5736  140.0636  157.2800 H   0  0  0  0  0  0  0  0  0  0  0  0  # atno 8008 bound_to 7997
  154.4353  140.1864  156.0951 H   0  0  0  0  0  0  0  0  0  0  0  0  # atno 8009 bound_to 7997
  156.0358  140.3301  155.7192 H   0  0  0  0  0  0  0  0  0  0  0  0  # atno 8010 bound_to 7997
  140.0877  144.5016  150.7120 H   0  0  0  0  0  0  0  0  0  0  0  0  # atno 10167 bound_to 10162
  156.5423  130.8568  151.2753 H   0  0  0  0  0  0  0  0  0  0  0  0  # atno 10718 bound_to 10713
  153.3056  135.4102  155.1291 H   0  0  0  0  0  0  0  0  0  0  0  0  # atno 10763 bound_to 10752
  154.8561  135.3552  154.5793 H   0  0  0  0  0  0  0  0  0  0  0  0  # atno 10764 bound_to 10752
  153.6220  135.7064  153.5365 H   0  0  0  0  0  0  0  0  0  0  0  0  # atno 10765 bound_to 10752
  140.5999  134.4958  157.5204 H   0  0  0  0  0  0  0  0  0  0  0  0  # atno 11005 bound_to 11000
  144.6734  140.1648  143.7419 LP  0  0  0  0  0  0  0  0  0  0  0  0  # atno 17320 bound_to 7965
  145.8814  139.2325  143.1603 LP  0  0  0  0  0  0  0  0  0  0  0  0  # atno 17321 bound_to 7965
  140.7045  143.2458  151.4767 LP  0  0  0  0  0  0  0  0  0  0  0  0  # atno 17342 bound_to 10162
  139.5743  144.1856  152.1881 LP  0  0  0  0  0  0  0  0  0  0  0  0  # atno 17343 bound_to 10162
  157.7403  130.9848  150.2369 LP  0  0  0  0  0  0  0  0  0  0  0  0  # atno 17370 bound_to 10713
  156.2960  130.3752  149.7795 LP  0  0  0  0  0  0  0  0  0  0  0  0  # atno 17371 bound_to 10713
  139.9237  134.8098  156.1133 LP  0  0  0  0  0  0  0  0  0  0  0  0  # atno 17394 bound_to 11000
  141.0879  133.6726  156.2476 LP  0  0  0  0  0  0  0  0  0  0  0  0  # atno 17395 bound_to 11000

$$$$
