#       Name:                AV-unprocessed.smi:37
#       Creating user name   scv26
#       Creation time:       Thu Mar 26 16:15:07 2020


#       File generated by GOLD software.
#

@<TRIPOS>MOLECULE
AV-unprocessed.smi:37
    54    55     1
SMALL
NO_CHARGES


@<TRIPOS>ATOM
      1 ****        -3.3002   3.3095  -0.4598 C.3            1 S1                 0.0000
      2 ****        -4.2499   2.1356  -0.7351 C.3            1 S1                 0.0000
      3 ****        -3.5441   0.7937  -0.5677 C.2            1 S1                 0.0000
      4 ****        -3.7484   0.0818   0.4157 O.2            1 S1                 0.0000
      5 ****        -2.6932   0.5309  -1.5777 O.3            1 S1                 0.0000
      6 ****        -1.8398  -0.6053  -1.5328 C.3            1 S1                 0.0000
      7 ****        -0.3987  -0.1621  -1.2333 C.3            1 S1                 0.0000
      8 ****         0.4625  -1.2791  -1.4411 O.3            1 S1                 0.0000
      9 ****         1.2289  -1.5024  -0.3006 C.3            1 S1                 0.0000
     10 ****         1.5641  -2.9732  -0.1541 N.am           1 S1                 0.0000
     11 ****         2.8543  -3.3128   0.2110 C.2            1 S1                 0.0000
     12 ****         3.2324  -4.5998   0.3480 C.2            1 S1                 0.0000
     13 ****         4.4930  -4.8921   0.7115 F              1 S1                 0.0000
     14 ****         2.2656  -5.6666   0.0999 C.2            1 S1                 0.0000
     15 ****         2.6109  -6.8388   0.2403 O.2            1 S1                 0.0000
     16 ****         1.0067  -5.3079  -0.2832 N.pl3          1 S1                -1.0000
     17 ****         0.6208  -4.0066  -0.4321 C.2            1 S1                 0.0000
     18 ****        -0.5091  -3.6901  -0.8021 O.2            1 S1                 0.0000
     19 ****         0.5162  -0.8538   0.8963 C.3            1 S1                 0.0000
     20 ****        -0.8634  -1.9781   1.8005 Br             1 S1                 0.0000
     21 ****        -0.1824   0.3099   0.2164 C.3            1 S1                 0.0000
     22 ****         0.6576   1.4588   0.2003 O.3            1 S1                 0.0000
     23 ****         0.4926   2.4395   1.1078 C.2            1 S1                 0.0000
     24 ****        -0.3452   2.4602   2.0093 O.2            1 S1                 0.0000
     25 ****         1.4762   3.5907   0.9131 C.3            1 S1                 0.0000
     26 ****         2.9283   3.1601   1.1592 C.3            1 S1                 0.0000
     27 ****        -3.8203   4.2602  -0.5748 H              1 S1                 0.0000
     28 ****        -2.4536   3.3103  -1.1476 H              1 S1                 0.0000
     29 ****        -2.9057   3.2689   0.5561 H              1 S1                 0.0000
     30 ****        -5.1018   2.1770  -0.0558 H              1 S1                 0.0000
     31 ****        -4.6470   2.2041  -1.7483 H              1 S1                 0.0000
     32 ****        -2.1763  -1.3570  -0.8178 H              1 S1                 0.0000
     33 ****        -1.8730  -1.0788  -2.5142 H              1 S1                 0.0000
     34 ****        -0.1177   0.6200  -1.9405 H              1 S1                 0.0000
     35 ****         2.1858  -1.0124  -0.4878 H              1 S1                 0.0000
     36 ****         3.5777  -2.5330   0.3990 H              1 S1                 0.0000
     37 ****         1.2380  -0.5487   1.6543 H              1 S1                 0.0000
     38 ****        -1.1265   0.5414   0.7080 H              1 S1                 0.0000
     39 ****         1.3670   3.9803  -0.0991 H              1 S1                 0.0000
     40 ****         1.2099   4.4002   1.5935 H              1 S1                 0.0000
     41 ****         3.6033   4.0092   1.0516 H              1 S1                 0.0000
     42 ****         3.2452   2.3955   0.4490 H              1 S1                 0.0000
     43 ****         3.0581   2.7605   2.1654 H              1 S1                 0.0000
     44 ****        -4.3877   0.3798   1.1245 LP             1 S1                 0.0000
     45 ****        -3.2750  -0.7944   0.5056 LP             1 S1                 0.0000
     46 ****         1.0667  -1.0928  -2.2159 LP             1 S1                 0.0000
     47 ****        -0.0879  -2.0910  -1.6354 LP             1 S1                 0.0000
     48 ****         3.5460  -7.0543   0.5218 LP             1 S1                 0.0000
     49 ****         1.9566  -7.5763   0.0729 LP             1 S1                 0.0000
     50 ****         0.3375  -6.0290  -0.4628 LP             1 S1                 0.0000
     51 ****        -0.7503  -2.7248  -0.9025 LP             1 S1                 0.0000
     52 ****        -1.1862  -4.3981  -1.0025 LP             1 S1                 0.0000
     53 ****        -0.9842   1.6984   2.1156 LP             1 S1                 0.0000
     54 ****        -0.3869   3.2389   2.6353 LP             1 S1                 0.0000
@<TRIPOS>BOND
    1    1    2 1     
    2    1   27 1     
    3    1   28 1     
    4    1   29 1     
    5    2    3 1     
    6    2   30 1     
    7    2   31 1     
    8    3    4 2     
    9    3    5 1     
   10    5    6 1     
   11    6    7 1     
   12    6   32 1     
   13    6   33 1     
   14    7   21 1     
   15    7    8 1     
   16    7   34 1     
   17    8    9 1     
   18    9   10 1     
   19    9   19 1     
   20    9   35 1     
   21   10   17 am    
   22   10   11 1     
   23   11   12 2     
   24   11   36 1     
   25   12   13 1     
   26   12   14 1     
   27   14   15 2     
   28   14   16 1     
   29   16   17 1     
   30   17   18 2     
   31   19   20 1     
   32   19   21 1     
   33   19   37 1     
   34   21   22 1     
   35   21   38 1     
   36   22   23 1     
   37   23   24 2     
   38   23   25 1     
   39   25   26 1     
   40   25   39 1     
   41   25   40 1     
   42   26   41 1     
   43   26   42 1     
   44   26   43 1     
   45    4   44 1     
   46    4   45 1     
   47    8   46 1     
   48    8   47 1     
   49   15   48 1     
   50   15   49 1     
   51   16   50 1     
   52   18   51 1     
   53   18   52 1     
   54   24   53 1     
   55   24   54 1     
@<TRIPOS>SUBSTRUCTURE
      1 S1             1
@<TRIPOS>SET
LONE_PAIRS      STATIC     ATOMS    <user>   **** ""
11 44 45 46 47 48 49 50 51 52 53 54
ATOM$BLUE        STATIC     ATOMS    COLORGROUP SYSTEM
11 44 45 46 47 48 49 50 51 52 53 54
