#       Name:                AV-unprocessed.smi:1719
#       Creating user name   scv26
#       Creation time:       Fri Mar 27 08:14:09 2020


#       File generated by GOLD software.
#

@<TRIPOS>MOLECULE
AV-unprocessed.smi:1719
    49    50     1
SMALL
NO_CHARGES


@<TRIPOS>ATOM
      1 ****        -3.9131   7.0545   1.3377 C.3            1 S1                 0.0000
      2 ****        -3.5006   5.7001   1.2862 O.3            1 S1                 0.0000
      3 ****        -3.6892   5.1239   0.0045 C.3            1 S1                 0.0000
      4 ****        -3.2460   3.6583   0.0395 C.3            1 S1                 0.0000
      5 ****        -1.8224   3.6058   0.0543 O.3            1 S1                 0.0000
      6 ****        -1.2093   2.3698   0.0626 C.ar           1 S1                 0.0000
      7 ****         0.1988   2.3157   0.0623 C.ar           1 S1                 0.0000
      8 ****         0.8327   1.0583   0.0619 C.ar           1 S1                 0.0000
      9 ****         0.0341  -0.1101   0.0535 C.ar           1 S1                 0.0000
     10 ****         0.5513  -1.4335   0.0654 N.am           1 S1                 0.0000
     11 ****         1.7552  -1.8673  -0.3520 C.2            1 S1                 0.0000
     12 ****         2.6297  -1.1445  -0.8299 O.2            1 S1                 0.0000
     13 ****         2.0004  -3.3774  -0.2265 C.3            1 S1                 0.0000
     14 ****         3.2189  -3.6783   0.6644 C.3            1 S1                 0.0000
     15 ****         3.4989  -5.1898   0.7004 C.3            1 S1                 0.0000
     16 ****         3.6978  -5.6808  -0.6213 O.3            1 S1                 0.0000
     17 ****         2.5537  -5.5180  -1.4532 C.3            1 S1                 0.0000
     18 ****         2.2228  -4.0243  -1.6055 C.3            1 S1                 0.0000
     19 ****        -1.3665   0.0524   0.0730 C.ar           1 S1                 0.0000
     20 ****        -1.9804   1.2543   0.0717 N.ar           1 S1                 0.0000
     21 ****        -3.7384   7.4529   2.3370 H              1 S1                 0.0000
     22 ****        -4.9775   7.1516   1.1192 H              1 S1                 0.0000
     23 ****        -3.3524   7.6653   0.6289 H              1 S1                 0.0000
     24 ****        -4.7467   5.1752  -0.2593 H              1 S1                 0.0000
     25 ****        -3.1344   5.6733  -0.7578 H              1 S1                 0.0000
     26 ****        -3.6713   3.1556   0.9100 H              1 S1                 0.0000
     27 ****        -3.6174   3.1536  -0.8539 H              1 S1                 0.0000
     28 ****         0.7834   3.2238   0.0650 H              1 S1                 0.0000
     29 ****         1.9105   1.0165   0.0798 H              1 S1                 0.0000
     30 ****        -0.0973  -2.1489   0.3606 H              1 S1                 0.0000
     31 ****         1.1221  -3.8384   0.2297 H              1 S1                 0.0000
     32 ****         4.1031  -3.1610   0.2885 H              1 S1                 0.0000
     33 ****         3.0481  -3.3097   1.6767 H              1 S1                 0.0000
     34 ****         4.3946  -5.3905   1.2885 H              1 S1                 0.0000
     35 ****         2.6777  -5.7261   1.1784 H              1 S1                 0.0000
     36 ****         2.7631  -5.9567  -2.4289 H              1 S1                 0.0000
     37 ****         1.7064  -6.0635  -1.0346 H              1 S1                 0.0000
     38 ****         1.3350  -3.9047  -2.2278 H              1 S1                 0.0000
     39 ****         3.0417  -3.5299  -2.1308 H              1 S1                 0.0000
     40 ****        -2.0181  -0.8092   0.0810 H              1 S1                 0.0000
     41 ****        -4.0308   5.1777   1.9540 LP             1 S1                 0.0000
     42 ****        -2.5295   5.6514   1.5201 LP             1 S1                 0.0000
     43 ****        -1.5175   4.0921   0.8732 LP             1 S1                 0.0000
     44 ****        -1.5006   4.0895  -0.7597 LP             1 S1                 0.0000
     45 ****         2.4678  -0.1627  -0.9292 LP             1 S1                 0.0000
     46 ****         3.5020  -1.5391  -1.1188 LP             1 S1                 0.0000
     47 ****         3.9183  -6.6548  -0.5696 LP             1 S1                 0.0000
     48 ****         4.4639  -5.1870  -1.0328 LP             1 S1                 0.0000
     49 ****        -2.9782   1.3206   0.0773 LP             1 S1                 0.0000
@<TRIPOS>BOND
    1    1    2 1     
    2    1   21 1     
    3    1   22 1     
    4    1   23 1     
    5    2    3 1     
    6    3    4 1     
    7    3   24 1     
    8    3   25 1     
    9    4    5 1     
   10    4   26 1     
   11    4   27 1     
   12    5    6 1     
   13    6   20 ar    
   14    6    7 ar    
   15    7    8 ar    
   16    7   28 1     
   17    8    9 ar    
   18    8   29 1     
   19    9   10 1     
   20    9   19 ar    
   21   10   11 am    
   22   10   30 1     
   23   11   12 2     
   24   11   13 1     
   25   13   18 1     
   26   13   14 1     
   27   13   31 1     
   28   14   15 1     
   29   14   32 1     
   30   14   33 1     
   31   15   16 1     
   32   15   34 1     
   33   15   35 1     
   34   16   17 1     
   35   17   18 1     
   36   17   36 1     
   37   17   37 1     
   38   18   38 1     
   39   18   39 1     
   40   19   20 ar    
   41   19   40 1     
   42    2   41 1     
   43    2   42 1     
   44    5   43 1     
   45    5   44 1     
   46   12   45 1     
   47   12   46 1     
   48   16   47 1     
   49   16   48 1     
   50   20   49 1     
@<TRIPOS>SUBSTRUCTURE
      1 S1             1
@<TRIPOS>SET
LONE_PAIRS      STATIC     ATOMS    <user>   **** ""
9 41 42 43 44 45 46 47 48 49
DONOR_HYDROGENS      STATIC     ATOMS    <user>   **** ""
1 30
ATOM$BLUE        STATIC     ATOMS    COLORGROUP SYSTEM
9 41 42 43 44 45 46 47 48 49
ATOM$RED        STATIC     ATOMS    COLORGROUP SYSTEM
1 30
