#       Name:                AV-unprocessed.smi:2175
#       Creating user name   scv26
#       Creation time:       Fri Mar 27 12:03:41 2020


#       File generated by GOLD software.
#

@<TRIPOS>MOLECULE
AV-unprocessed.smi:2175
    39    40     1
SMALL
NO_CHARGES


@<TRIPOS>ATOM
      1 ****        -5.6273  -0.9934   0.8338 C.3            1 S1                 0.0000
      2 ****        -4.1147  -1.0178   0.8666 C.2            1 S1                 0.0000
      3 ****        -3.5445   0.2183   1.1217 N.pl3          1 S1                 0.0000
      4 ****        -2.1641   0.2957   1.1752 C.2            1 S1                 0.0000
      5 ****        -1.6211   1.6846   1.4628 C.3            1 S1                 0.0000
      6 ****        -1.3905  -0.8021   0.9792 C.2            1 S1                 0.0000
      7 ****         0.1359  -0.7556   1.0290 C.3            1 S1                 0.0000
      8 ****         0.8244  -0.2548  -0.2431 C.2            1 S1                 0.0000
      9 ****         0.3842  -0.5660  -1.3499 O.2            1 S1                 0.0000
     10 ****         1.9032   0.5240  -0.0712 N.am           1 S1                 0.0000
     11 ****         2.6978   1.1011  -1.1478 C.3            1 S1                 0.0000
     12 ****         3.6443   0.1334  -1.8327 C.3            1 S1                 0.0000
     13 ****         5.0650  -0.0396  -1.3492 C.3            1 S1                 0.0000
     14 ****         4.7941   0.6485  -2.6657 C.3            1 S1                 0.0000
     15 ****        -2.0582  -2.0957   0.7005 C.2            1 S1                 0.0000
     16 ****        -1.4129  -3.1235   0.4987 O.2            1 S1                 0.0000
     17 ****        -3.4620  -2.1220   0.6656 N.2            1 S1                 0.0000
     18 ****        -4.0820   1.0598   1.2719 H              1 S1                 0.0000
     19 ****        -6.0320  -2.0027   0.7480 H              1 S1                 0.0000
     20 ****        -5.9775  -0.4111  -0.0189 H              1 S1                 0.0000
     21 ****        -6.0224  -0.5451   1.7459 H              1 S1                 0.0000
     22 ****        -1.0519   1.6865   2.3924 H              1 S1                 0.0000
     23 ****        -2.4230   2.4174   1.5606 H              1 S1                 0.0000
     24 ****        -0.9661   2.0132   0.6556 H              1 S1                 0.0000
     25 ****         0.5447  -1.7363   1.2736 H              1 S1                 0.0000
     26 ****         0.4299  -0.1189   1.8641 H              1 S1                 0.0000
     27 ****         2.1959   0.7292   0.8731 H              1 S1                 0.0000
     28 ****         2.0352   1.5328  -1.8998 H              1 S1                 0.0000
     29 ****         3.2713   1.9320  -0.7363 H              1 S1                 0.0000
     30 ****         3.1563  -0.7601  -2.2178 H              1 S1                 0.0000
     31 ****         5.3971   0.5793  -0.5179 H              1 S1                 0.0000
     32 ****         5.4876  -1.0416  -1.3823 H              1 S1                 0.0000
     33 ****         5.0366   0.1049  -3.5765 H              1 S1                 0.0000
     34 ****         4.9478   1.7249  -2.7096 H              1 S1                 0.0000
     35 ****        -0.4260  -1.1479  -1.4202 LP             1 S1                 0.0000
     36 ****         0.8368  -0.2368  -2.1786 LP             1 S1                 0.0000
     37 ****        -0.4135  -3.0987   0.5205 LP             1 S1                 0.0000
     38 ****        -1.8879  -3.9837   0.3129 LP             1 S1                 0.0000
     39 ****        -3.9505  -2.9765   0.4890 LP             1 S1                 0.0000
@<TRIPOS>BOND
    1    1   19 1     
    2    1   20 1     
    3    1   21 1     
    4    1    2 1     
    5    2    3 1     
    6    2   17 2     
    7    3    4 1     
    8    3   18 1     
    9    4    6 2     
   10    4    5 1     
   11    5   22 1     
   12    5   23 1     
   13    5   24 1     
   14    6   15 1     
   15    6    7 1     
   16    7    8 1     
   17    7   25 1     
   18    7   26 1     
   19    8    9 2     
   20    8   10 am    
   21   10   11 1     
   22   10   27 1     
   23   11   12 1     
   24   11   28 1     
   25   11   29 1     
   26   12   14 1     
   27   12   13 1     
   28   12   30 1     
   29   13   14 1     
   30   13   31 1     
   31   13   32 1     
   32   14   33 1     
   33   14   34 1     
   34   15   16 2     
   35   15   17 1     
   36    9   35 1     
   37    9   36 1     
   38   16   37 1     
   39   16   38 1     
   40   17   39 1     
@<TRIPOS>SUBSTRUCTURE
      1 S1             1
@<TRIPOS>SET
LONE_PAIRS      STATIC     ATOMS    <user>   **** ""
5 35 36 37 38 39
DONOR_HYDROGENS      STATIC     ATOMS    <user>   **** ""
2 18 27
ATOM$BLUE        STATIC     ATOMS    COLORGROUP SYSTEM
5 35 36 37 38 39
ATOM$RED        STATIC     ATOMS    COLORGROUP SYSTEM
2 18 27
