#       Name:                AV-unprocessed.smi:332
#       Creating user name   scv26
#       Creation time:       Thu Mar 26 22:26:34 2020


#       File generated by GOLD software.
#

@<TRIPOS>MOLECULE
AV-unprocessed.smi:332
    46    48     1
SMALL
NO_CHARGES


@<TRIPOS>ATOM
      1 ****        -1.5913  -1.5868   2.4498 C.3            1 S1                 0.0000
      2 ****        -1.1077  -0.7722   1.2387 C.3            1 S1                 0.0000
      3 ****         0.3545  -0.7633   1.2423 N.am           1 S1                 0.0000
      4 ****         1.1340   0.2972   1.5040 C.2            1 S1                 0.0000
      5 ****         0.6957   1.3993   1.8352 O.2            1 S1                 0.0000
      6 ****         2.6460   0.0691   1.3808 C.3            1 S1                 0.0000
      7 ****         3.3430   1.2181   0.7795 N.am           1 S1                 0.0000
      8 ****         4.0249   2.0883   1.6532 C.2            1 S1                 0.0000
      9 ****         4.6855   3.1684   1.2069 C.2            1 S1                 0.0000
     10 ****         4.6860   3.4303  -0.2130 C.2            1 S1                 0.0000
     11 ****         4.0356   2.6053  -1.0575 C.2            1 S1                 0.0000
     12 ****         3.3123   1.4233  -0.5742 C.2            1 S1                 0.0000
     13 ****         2.7153   0.6645  -1.3389 O.2            1 S1                 0.0000
     14 ****        -1.6195  -1.3344  -0.1112 C.3            1 S1                 0.0000
     15 ****        -1.0735  -0.5825  -1.3527 C.3            1 S1                 0.0000
     16 ****        -2.3461  -0.2095  -2.1317 C.3            1 S1                 0.0000
     17 ****        -2.9902  -1.4816  -2.7115 C.3            1 S1                 0.0000
     18 ****        -3.5737  -2.1648  -1.4607 C.3            1 S1                 0.0000
     19 ****        -3.1499  -1.2143  -0.3244 C.3            1 S1                 0.0000
     20 ****        -3.2994   0.1459  -0.9994 C.3            1 S1                 0.0000
     21 ****        -2.6757  -1.5622   2.5480 H              1 S1                 0.0000
     22 ****        -1.1784  -1.1878   3.3771 H              1 S1                 0.0000
     23 ****        -1.2870  -2.6312   2.3736 H              1 S1                 0.0000
     24 ****        -1.4845   0.2456   1.3497 H              1 S1                 0.0000
     25 ****         0.8103  -1.6278   0.9885 H              1 S1                 0.0000
     26 ****         3.0368  -0.1458   2.3762 H              1 S1                 0.0000
     27 ****         2.8425  -0.8312   0.7951 H              1 S1                 0.0000
     28 ****         3.9699   1.8274   2.7002 H              1 S1                 0.0000
     29 ****         5.1992   3.8266   1.8921 H              1 S1                 0.0000
     30 ****         5.2088   4.2927  -0.5997 H              1 S1                 0.0000
     31 ****         4.0450   2.8177  -2.1166 H              1 S1                 0.0000
     32 ****        -1.3261  -2.3840  -0.1686 H              1 S1                 0.0000
     33 ****        -0.5405   0.3268  -1.0717 H              1 S1                 0.0000
     34 ****        -0.3890  -1.1946  -1.9409 H              1 S1                 0.0000
     35 ****        -2.1912   0.5789  -2.8689 H              1 S1                 0.0000
     36 ****        -3.7833  -1.2312  -3.4172 H              1 S1                 0.0000
     37 ****        -2.2654  -2.1104  -3.2299 H              1 S1                 0.0000
     38 ****        -4.6608  -2.2221  -1.5299 H              1 S1                 0.0000
     39 ****        -3.1960  -3.1786  -1.3226 H              1 S1                 0.0000
     40 ****        -3.7484  -1.3417   0.5766 H              1 S1                 0.0000
     41 ****        -2.9525   0.9797  -0.3870 H              1 S1                 0.0000
     42 ****        -4.3162   0.3516  -1.3388 H              1 S1                 0.0000
     43 ****        -0.2906   1.5398   1.9216 LP             1 S1                 0.0000
     44 ****         1.3261   2.1538   2.0178 LP             1 S1                 0.0000
     45 ****         2.2320  -0.1322  -0.9762 LP             1 S1                 0.0000
     46 ****         2.7140   0.8452  -2.3225 LP             1 S1                 0.0000
@<TRIPOS>BOND
    1    1    2 1     
    2    1   21 1     
    3    1   22 1     
    4    1   23 1     
    5    2    3 1     
    6    2   14 1     
    7    2   24 1     
    8    3    4 am    
    9    3   25 1     
   10    4    5 2     
   11    4    6 1     
   12    6    7 1     
   13    6   26 1     
   14    6   27 1     
   15    7   12 am    
   16    7    8 1     
   17    8    9 2     
   18    8   28 1     
   19    9   10 1     
   20    9   29 1     
   21   10   11 2     
   22   10   30 1     
   23   11   12 1     
   24   11   31 1     
   25   12   13 2     
   26   14   19 1     
   27   14   15 1     
   28   14   32 1     
   29   15   16 1     
   30   15   33 1     
   31   15   34 1     
   32   16   20 1     
   33   16   17 1     
   34   16   35 1     
   35   17   18 1     
   36   17   36 1     
   37   17   37 1     
   38   18   19 1     
   39   18   38 1     
   40   18   39 1     
   41   19   20 1     
   42   19   40 1     
   43   20   41 1     
   44   20   42 1     
   45    5   43 1     
   46    5   44 1     
   47   13   45 1     
   48   13   46 1     
@<TRIPOS>SUBSTRUCTURE
      1 S1             1
@<TRIPOS>SET
LONE_PAIRS      STATIC     ATOMS    <user>   **** ""
4 43 44 45 46
DONOR_HYDROGENS      STATIC     ATOMS    <user>   **** ""
1 25
ATOM$BLUE        STATIC     ATOMS    COLORGROUP SYSTEM
4 43 44 45 46
ATOM$RED        STATIC     ATOMS    COLORGROUP SYSTEM
1 25
