AV-unprocessed.smi:102|AV-procd|sdf|947|dock2
  -GOLD-   2262017473D 1   1.00000     0.00000
 Structure written by MMmdl.
 44 45  0  0  0  0  0  0  0  0  1 V2000
  149.2170  132.9872  154.0413 C   0  0  0  0  0  0  0  0  0  0  0  0
  149.0395  134.3647  154.6655 C   0  0  0  0  0  0  0  0  0  0  0  0
  149.9864  135.1414  154.7903 O   0  0  0  0  0  0  0  0  0  0  0  0
  147.7745  134.5976  155.0410 O   0  0  0  0  0  0  0  0  0  0  0  0
  147.4244  135.8588  155.5898 C   0  0  0  0  0  0  0  0  0  0  0  0
  147.2309  135.7500  157.1090 C   0  0  2  0  0  0  0  0  0  0  0  0
  147.2919  137.0365  157.7205 O   0  0  0  0  0  0  0  0  0  0  0  0
  148.2859  137.0759  158.7019 C   0  0  2  0  0  0  0  0  0  0  0  0
  149.5122  137.7464  158.0965 N   0  0  0  0  0  0  0  0  0  0  0  0
  149.5042  138.4690  156.9051 C   0  0  0  0  0  0  0  0  0  0  0  0
  150.5985  139.0962  156.4124 C   0  0  0  0  0  0  0  0  0  0  0  0
  150.5083  139.7773  155.2575 F   0  0  0  0  0  0  0  0  0  0  0  0
  151.8696  139.0526  157.1262 C   0  0  0  0  0  0  0  0  0  0  0  0
  152.9125  139.5903  156.7596 O   0  0  0  0  0  0  0  0  0  0  0  0
  151.8323  138.3313  158.3211 N   0  0  0  0  0  0  0  0  0  0  0  0
  150.7124  137.6821  158.8416 C   0  0  0  0  0  0  0  0  0  0  0  0
  150.7976  137.0844  159.9138 O   0  0  0  0  0  0  0  0  0  0  0  0
  148.5004  135.6166  159.1365 C   0  0  1  0  0  0  0  0  0  0  0  0
  147.5271  135.2736  160.1197 O   0  0  0  0  0  0  0  0  0  0  0  0
  147.4240  135.9879  161.2538 C   0  0  0  0  0  0  0  0  0  0  0  0
  146.9227  135.1517  162.4235 C   0  0  0  0  0  0  0  0  0  0  0  0
  147.6834  137.1842  161.3829 O   0  0  0  0  0  0  0  0  0  0  0  0
  148.2488  134.8615  157.8325 C   0  0  1  0  0  0  0  0  0  0  0  0
  147.7590  133.5422  158.0435 O   0  0  0  0  0  0  0  0  0  0  0  0
  148.6198  132.5236  158.2149 C   0  0  0  0  0  0  0  0  0  0  0  0
  147.9215  131.2320  158.6192 C   0  0  0  0  0  0  0  0  0  0  0  0
  149.8425  132.5792  158.0823 O   0  0  0  0  0  0  0  0  0  0  0  0
  152.6872  138.2788  158.8556 H   0  0  0  0  0  0  0  0  0  0  0  0
  148.4465  132.8056  153.2918 H   0  0  0  0  0  0  0  0  0  0  0  0
  149.1461  132.2148  154.8070 H   0  0  0  0  0  0  0  0  0  0  0  0
  150.1919  132.9078  153.5602 H   0  0  0  0  0  0  0  0  0  0  0  0
  148.2042  136.5883  155.3671 H   0  0  0  0  0  0  0  0  0  0  0  0
  146.5034  136.2136  155.1252 H   0  0  0  0  0  0  0  0  0  0  0  0
  146.2259  135.3751  157.3067 H   0  0  0  0  0  0  0  0  0  0  0  0
  148.0051  137.7255  159.5337 H   0  0  0  0  0  0  0  0  0  0  0  0
  148.6086  138.5631  156.3140 H   0  0  0  0  0  0  0  0  0  0  0  0
  149.4999  135.4473  159.5364 H   0  0  0  0  0  0  0  0  0  0  0  0
  147.3753  134.1600  162.4072 H   0  0  0  0  0  0  0  0  0  0  0  0
  145.8399  135.0406  162.3701 H   0  0  0  0  0  0  0  0  0  0  0  0
  147.1750  135.6298  163.3702 H   0  0  0  0  0  0  0  0  0  0  0  0
  149.1651  134.8262  157.2439 H   0  0  0  0  0  0  0  0  0  0  0  0
  146.9542  131.1465  158.1235 H   0  0  0  0  0  0  0  0  0  0  0  0
  147.7624  131.2121  159.6973 H   0  0  0  0  0  0  0  0  0  0  0  0
  148.5271  130.3687  158.3427 H   0  0  0  0  0  0  0  0  0  0  0  0
  1  2  1  0  0  0  0
  1 29  1  0  0  0  0
  1 30  1  0  0  0  0
  1 31  1  0  0  0  0
  2  3  2  0  0  0  0
  2  4  1  0  0  0  0
  4  5  1  0  0  0  0
  5  6  1  0  0  0  0
  5 32  1  0  0  0  0
  5 33  1  0  0  0  0
  6 23  1  0  0  0  0
  6  7  1  0  0  0  0
  6 34  1  0  0  0  0
  7  8  1  0  0  0  0
  8  9  1  0  0  0  0
  8 18  1  0  0  0  0
  8 35  1  0  0  0  0
  9 16  1  0  0  0  0
  9 10  1  0  0  0  0
 10 11  2  0  0  0  0
 10 36  1  0  0  0  0
 11 12  1  0  0  0  0
 11 13  1  0  0  0  0
 13 14  2  0  0  0  0
 13 15  1  0  0  0  0
 15 28  1  0  0  0  0
 15 16  1  0  0  0  0
 16 17  2  0  0  0  0
 18 19  1  0  0  0  0
 18 23  1  0  0  0  0
 18 37  1  0  0  0  0
 19 20  1  0  0  0  0
 20 21  1  0  0  0  0
 20 22  2  0  0  0  0
 21 38  1  0  0  0  0
 21 39  1  0  0  0  0
 21 40  1  0  0  0  0
 23 24  1  0  0  0  0
 23 41  1  0  0  0  0
 24 25  1  0  0  0  0
 25 26  1  0  0  0  0
 25 27  2  0  0  0  0
 26 42  1  0  0  0  0
 26 43  1  0  0  0  0
 26 44  1  0  0  0  0
M  END
> <s_m_source_file>
AV-unprocessed.smi

> <i_m_source_file_index>
102

> <i_lp_mmshare_version>
43012

> <i_f3d_flags>
0

> <s_epik_input>
W0NIM11DKD1PKU9bQ0gyXVtDQEBIXTFPW0NASF0oW0NAQEhdKE9DKD1PKVtDSDNdKVtDQEhdMU9DKD1PKVtDSDNdKW4yW2NIXWMoRiljKD1PKVtuSF1jMj1P

> <s_epik_cmdline>
J2VwaWtfcHl0aG9uJywgJy1waCcsICc3LjAnLCAnLXRuJywgJzgnLCAnLW1hJywgJzIwMCcsICctbWV0YWxfYmluZGluZycsICctaW1hZScsICc8aW5maWxlLm1hZT4nLCAnLW9tYWUnLCAnPG91dGZpbGUubWFlPic=

> <r_lp_tautomer_probability>
0.999537

> <r_epik_Ionization_Penalty>
0.058267

> <r_epik_Ionization_Penalty_Charging>
0.058267

> <r_epik_Ionization_Penalty_Neutral>
6.57791e-16

> <r_epik_State_Penalty>
0.0503774

> <r_epik_Charging_Adjusted_Penalty>
0.108644

> <i_epik_Tot_Q>
0

> <i_epik_Tot_abs_Q>
0

> <r_epik_Metal_State_Penalty>
2.6644

> <b_epik_Metal_Only>
0

> <s_epik_Chemistry_Notes>
This compound has an ester and may undergo hydrolysis at high or low pH. This compound contains an acetal/aminal-like group ( X-CH(R)-Y where X, Y are N, S, or O) that may be acid/base labile, releasing an aldehyde.

> <s_lp_Force_Field>
OPLS_2005

> <r_lp_Energy>
12.8292

> <b_lp_Chiralities_Consistent>
1

> <s_lp_Variant>
AV-unprocessed.smi:102-3

> <Gold.Version>
5.8.1

> <Gold.Id.Protein>
6NUR|6NUR_protein|mol2

> <Gold.PLP.Fitness>
41.2401

> <Gold.PLP.PLP>
-29.5039

> <Gold.PLP.part.hbond>
-5.0989

> <Gold.PLP.part.metal>
0.0000

> <Gold.PLP.part.buried>
-5.4059

> <Gold.PLP.part.nonpolar>
-19.9616

> <Gold.PLP.part.repulsive>
0.2933

> <Gold.PLP.ligand.clash>
0.0000

> <Gold.PLP.ligand.torsion>
1.4838

> <Gold.PLP.Chemscore.Hbond>
4.8313

> <Gold.PLP.Chemscore.CHOScore>
0.0000

> <Gold.PLP.Chemscore.Metal>
0.0000

> <Gold.Chemscore.Hbonds>
donor molecule, donor type, donor heavy atom, donor atom, acceptor molecule, acceptor atom, score
      P1  H  6896  6907       L1    27  1.00
      P1  H  6896  6908       L1    17  1.00
      P1  H  6931  6943       L1    22  0.99
      P1  H  6934  6947       L1    22  0.82
      P1  H  7997  8009       L1    14  1.00

> <Gold.PLP.Chemscore.Internal.Correction>
0.2101

> <Gold.Rescore>
     Score         DG    S(hbond)    S(metal)    S(lipo)     H(rot)  DE(clash)    DE(int)     intcor
     10.07     -14.51       4.76        0.00      30.02       4.05       0.00       4.44       ----

> <Gold.Chemscore.Fitness>
10.0662

> <Gold.Chemscore.DG>
-14.5114

> <Gold.Chemscore.ZeroCoef>
-5.4800

> <Gold.Chemscore.Hbond>
4.7582

> <Gold.Chemscore.Metal>
0.0000

> <Gold.Chemscore.Lipo>
30.0192

> <Gold.Chemscore.Internal_Hbond>
0.0000

> <Gold.Chemscore.DEClash>
0.0011

> <Gold.Chemscore.DEInternal>
4.4441

> <Gold.Chemscore.Rot>
4.0520

> <Gold.Chemscore.Internal.Correction>
   9.000000E+99

> <Gold.Chemscore.Hbonds>
donor molecule, donor type, donor heavy atom, donor atom, acceptor molecule, acceptor atom, score
      P1  H  6896  6907       L1    27  1.00
      P1  H  6896  6908       L1    17  0.93
      P1  H  6931  6943       L1    22  0.93
      P1  H  6934  6947       L1    22  0.81
      P1  H  7997  8009       L1    14  0.94

> <Gold.Chemscore.Hbond.Weighted>
-15.8923

> <Gold.Chemscore.Metal.Weighted>
-0.0000

> <Gold.Chemscore.Lipo.Weighted>
-3.5122

> <Gold.Chemscore.Internal_Hbond.Weighted>
0.0000

> <Gold.Chemscore.DEClash.Weighted>
0.0011

> <Gold.Chemscore.DEInternal.Weighted>
4.4441

> <Gold.Chemscore.Rot.Weighted>
10.3732

> <Gold.Chemscore.Internal.Correction.Weighted>
   9.000000E+99

> <Gold.Protein.RotatedTorsions>
[ 6907 6896 6895 6894 ] final -140.25 input  -60.11 | X-H torsion
[ 7974 7965 7964 7962 ] final -131.62 input  175.53 | X-H torsion
[ 8008 7997 7996 7995 ] final -173.33 input   59.86 | X-H torsion
[ 10167 10162 10161 10158 ] final -172.04 input  -65.29 | X-H torsion
[ 10718 10713 10712 10709 ] final -143.59 input   66.30 | X-H torsion
[ 10763 10752 10751 10750 ] final -141.49 input  -60.55 | X-H torsion
[ 11005 11000 10999 10996 ] final   57.71 input  -57.11 | X-H torsion

> <Gold.Protein.ActiveResidues>
 VAL166  LYS551  ARG553  GLY616  TRP617  ASP618  TYR619  PRO620  LYS621  CYS622 
 ASP623  PHE694  ASN695  SER759  ASP760  ASP761  ALA762  ILE779  LEU786  VAL792 
 PHE793  MET794  SER795  GLU796  ALA797  LYS798  CYS799  TRP800  GLU811  SER814 

> <Gold.Protein.RotatedAtoms>
  151.0582  133.5566  159.2636 H   0  0  0  0  0  0  0  0  0  0  0  0  # atno 6907 bound_to 6896
  151.2551  135.0634  159.9087 H   0  0  0  0  0  0  0  0  0  0  0  0  # atno 6908 bound_to 6896
  152.5393  134.0337  159.8090 H   0  0  0  0  0  0  0  0  0  0  0  0  # atno 6909 bound_to 6896
  144.9362  140.7186  143.4875 H   0  0  0  0  0  0  0  0  0  0  0  0  # atno 7974 bound_to 7965
  155.9561  140.1135  157.0936 H   0  0  0  0  0  0  0  0  0  0  0  0  # atno 8008 bound_to 7997
  154.4121  140.1191  156.5183 H   0  0  0  0  0  0  0  0  0  0  0  0  # atno 8009 bound_to 7997
  155.6780  140.3473  155.4846 H   0  0  0  0  0  0  0  0  0  0  0  0  # atno 8010 bound_to 7997
  139.5767  144.1515  152.1460 H   0  0  0  0  0  0  0  0  0  0  0  0  # atno 10167 bound_to 10162
  156.3598  130.7732  151.1898 H   0  0  0  0  0  0  0  0  0  0  0  0  # atno 10718 bound_to 10713
  154.8543  135.3523  154.5876 H   0  0  0  0  0  0  0  0  0  0  0  0  # atno 10763 bound_to 10752
  153.6486  135.6995  153.5221 H   0  0  0  0  0  0  0  0  0  0  0  0  # atno 10764 bound_to 10752
  153.2913  135.4234  155.1127 H   0  0  0  0  0  0  0  0  0  0  0  0  # atno 10765 bound_to 10752
  140.0432  134.5844  155.9356 H   0  0  0  0  0  0  0  0  0  0  0  0  # atno 11005 bound_to 11000
  145.3063  139.1833  143.4662 LP  0  0  0  0  0  0  0  0  0  0  0  0  # atno 17320 bound_to 7965
  146.3267  140.3061  142.8624 LP  0  0  0  0  0  0  0  0  0  0  0  0  # atno 17321 bound_to 7965
  140.1060  144.5498  150.6957 LP  0  0  0  0  0  0  0  0  0  0  0  0  # atno 17342 bound_to 10162
  140.7049  143.2461  151.4755 LP  0  0  0  0  0  0  0  0  0  0  0  0  # atno 17343 bound_to 10162
  157.7472  131.0403  150.4593 LP  0  0  0  0  0  0  0  0  0  0  0  0  # atno 17370 bound_to 10713
  156.4802  130.4072  149.6466 LP  0  0  0  0  0  0  0  0  0  0  0  0  # atno 17371 bound_to 10713
  141.1893  133.6565  156.5364 LP  0  0  0  0  0  0  0  0  0  0  0  0  # atno 17394 bound_to 11000
  140.4036  134.7335  157.4794 LP  0  0  0  0  0  0  0  0  0  0  0  0  # atno 17395 bound_to 11000

$$$$
