AV-unprocessed.smi:37|AV-procd|sdf|314|dock8
  -GOLD-   2262016133D 1   1.00000     0.00000
 Structure written by MMmdl.
 44 45  0  0  0  0  0  0  0  0  1 V2000
  146.1754  135.0305  162.3946 C   0  0  0  0  0  0  0  0  0  0  0  0
  147.3329  136.0366  162.3175 C   0  0  0  0  0  0  0  0  0  0  0  0
  148.0973  135.9912  160.9928 C   0  0  0  0  0  0  0  0  0  0  0  0
  149.1394  136.6221  160.8072 O   0  0  0  0  0  0  0  0  0  0  0  0
  147.4952  135.1949  160.0979 O   0  0  0  0  0  0  0  0  0  0  0  0
  148.2685  134.5133  159.1241 C   0  0  0  0  0  0  0  0  0  0  0  0
  148.7590  135.5151  158.0719 C   0  0  1  0  0  0  0  0  0  0  0  0
  150.1792  135.4438  157.9623 O   0  0  0  0  0  0  0  0  0  0  0  0
  150.5689  135.6416  156.6361 C   0  0  2  0  0  0  0  0  0  0  0  0
  151.5275  136.8090  156.5937 N   0  0  0  0  0  0  0  0  0  0  0  0
  151.1129  138.0418  156.1086 C   0  0  0  0  0  0  0  0  0  0  0  0
  151.9165  139.1307  156.0751 C   0  0  0  0  0  0  0  0  0  0  0  0
  151.4426  140.2899  155.5880 F   0  0  0  0  0  0  0  0  0  0  0  0
  153.2896  139.0565  156.5649 C   0  0  0  0  0  0  0  0  0  0  0  0
  154.0942  139.9858  156.5739 O   0  0  0  0  0  0  0  0  0  0  0  0
  153.6611  137.7995  157.0512 N   0  0  0  0  0  0  0  0  0  0  0  0
  152.8423  136.6693  157.0926 C   0  0  0  0  0  0  0  0  0  0  0  0
  153.2837  135.6124  157.5409 O   0  0  0  0  0  0  0  0  0  0  0  0
  149.3095  135.9228  155.8157 C   0  0  1  0  0  0  0  0  0  0  0  0
  149.4226  135.1321  153.9927 Br  0  0  0  0  0  0  0  0  0  0  0  0
  148.2411  135.2534  156.6529 C   0  0  2  0  0  0  0  0  0  0  0  0
  146.9846  135.8722  156.4050 O   0  0  0  0  0  0  0  0  0  0  0  0
  146.4283  135.8241  155.1816 C   0  0  0  0  0  0  0  0  0  0  0  0
  146.8526  135.1770  154.2226 O   0  0  0  0  0  0  0  0  0  0  0  0
  145.1609  136.6767  155.0969 C   0  0  0  0  0  0  0  0  0  0  0  0
  145.1897  137.7080  153.9587 C   0  0  0  0  0  0  0  0  0  0  0  0
  154.6028  137.7009  157.4018 H   0  0  0  0  0  0  0  0  0  0  0  0
  145.6625  135.1091  163.3531 H   0  0  0  0  0  0  0  0  0  0  0  0
  146.5317  134.0045  162.2950 H   0  0  0  0  0  0  0  0  0  0  0  0
  145.4388  135.2113  161.6111 H   0  0  0  0  0  0  0  0  0  0  0  0
  146.9493  137.0471  162.4594 H   0  0  0  0  0  0  0  0  0  0  0  0
  148.0367  135.8499  163.1289 H   0  0  0  0  0  0  0  0  0  0  0  0
  149.1206  134.0494  159.6222 H   0  0  0  0  0  0  0  0  0  0  0  0
  147.6934  133.7171  158.6486 H   0  0  0  0  0  0  0  0  0  0  0  0
  148.5141  136.5334  158.3787 H   0  0  0  0  0  0  0  0  0  0  0  0
  151.0902  134.7389  156.3165 H   0  0  0  0  0  0  0  0  0  0  0  0
  150.1039  138.1465  155.7381 H   0  0  0  0  0  0  0  0  0  0  0  0
  149.1344  136.9958  155.7273 H   0  0  0  0  0  0  0  0  0  0  0  0
  148.2412  134.1825  156.4433 H   0  0  0  0  0  0  0  0  0  0  0  0
  144.3060  136.0128  154.9667 H   0  0  0  0  0  0  0  0  0  0  0  0
  145.0226  137.1857  156.0510 H   0  0  0  0  0  0  0  0  0  0  0  0
  144.2616  138.2792  153.9357 H   0  0  0  0  0  0  0  0  0  0  0  0
  145.3034  137.2255  152.9874 H   0  0  0  0  0  0  0  0  0  0  0  0
  146.0090  138.4170  154.0834 H   0  0  0  0  0  0  0  0  0  0  0  0
  1  2  1  0  0  0  0
  1 28  1  0  0  0  0
  1 29  1  0  0  0  0
  1 30  1  0  0  0  0
  2  3  1  0  0  0  0
  2 31  1  0  0  0  0
  2 32  1  0  0  0  0
  3  4  2  0  0  0  0
  3  5  1  0  0  0  0
  5  6  1  0  0  0  0
  6  7  1  0  0  0  0
  6 33  1  0  0  0  0
  6 34  1  0  0  0  0
  7 21  1  0  0  0  0
  7  8  1  0  0  0  0
  7 35  1  0  0  0  0
  8  9  1  0  0  0  0
  9 10  1  0  0  0  0
  9 19  1  0  0  0  0
  9 36  1  0  0  0  0
 10 17  1  0  0  0  0
 10 11  1  0  0  0  0
 11 12  2  0  0  0  0
 11 37  1  0  0  0  0
 12 13  1  0  0  0  0
 12 14  1  0  0  0  0
 14 15  2  0  0  0  0
 14 16  1  0  0  0  0
 16 27  1  0  0  0  0
 16 17  1  0  0  0  0
 17 18  2  0  0  0  0
 19 20  1  0  0  0  0
 19 21  1  0  0  0  0
 19 38  1  0  0  0  0
 21 22  1  0  0  0  0
 21 39  1  0  0  0  0
 22 23  1  0  0  0  0
 23 24  2  0  0  0  0
 23 25  1  0  0  0  0
 25 26  1  0  0  0  0
 25 40  1  0  0  0  0
 25 41  1  0  0  0  0
 26 42  1  0  0  0  0
 26 43  1  0  0  0  0
 26 44  1  0  0  0  0
M  END
> <s_m_source_file>
AV-unprocessed.smi

> <i_m_source_file_index>
37

> <i_lp_mmshare_version>
43012

> <i_f3d_flags>
0

> <s_epik_input>
W0NIM11bQ0gyXUMoPU8pT1tDSDJdW0NAQEhdMU9bQ0BASF0objJbY0hdYyhGKWMoPU8pW25IXWMyPU8pW0NAQEhdKEJyKVtDQEhdMU9DKD1PKVtDSDJdW0NIM10=

> <s_epik_cmdline>
J2VwaWtfcHl0aG9uJywgJy1waCcsICc3LjAnLCAnLXRuJywgJzgnLCAnLW1hJywgJzIwMCcsICctbWV0YWxfYmluZGluZycsICctaW1hZScsICc8aW5maWxlLm1hZT4nLCAnLW9tYWUnLCAnPG91dGZpbGUubWFlPic=

> <r_lp_tautomer_probability>
0.999537

> <r_epik_Ionization_Penalty>
0.104106

> <r_epik_Ionization_Penalty_Charging>
0.104106

> <r_epik_Ionization_Penalty_Neutral>
3.94675e-16

> <r_epik_State_Penalty>
0.0940182

> <r_epik_Charging_Adjusted_Penalty>
0.198124

> <i_epik_Tot_Q>
0

> <i_epik_Tot_abs_Q>
0

> <r_epik_Metal_State_Penalty>
3.05314

> <b_epik_Metal_Only>
0

> <s_epik_Chemistry_Notes>
This compound has an ester and may undergo hydrolysis at high or low pH. This compound contains an acetal/aminal-like group ( X-CH(R)-Y where X, Y are N, S, or O) that may be acid/base labile, releasing an aldehyde.

> <s_lp_Force_Field>
OPLS_2005

> <r_lp_Energy>
22.7414

> <b_lp_Chiralities_Consistent>
1

> <s_lp_Variant>
AV-unprocessed.smi:37-12

> <Gold.Version>
5.8.1

> <Gold.Id.Protein>
6NUR|6NUR_protein|mol2

> <Gold.PLP.Fitness>
41.0110

> <Gold.PLP.PLP>
-32.2484

> <Gold.PLP.part.hbond>
-4.9054

> <Gold.PLP.part.metal>
0.0000

> <Gold.PLP.part.buried>
-3.1659

> <Gold.PLP.part.nonpolar>
-24.5249

> <Gold.PLP.part.repulsive>
0.2416

> <Gold.PLP.ligand.clash>
0.0000

> <Gold.PLP.ligand.torsion>
1.5822

> <Gold.PLP.Chemscore.Hbond>
3.9407

> <Gold.PLP.Chemscore.CHOScore>
0.0000

> <Gold.PLP.Chemscore.Metal>
0.0000

> <Gold.Chemscore.Hbonds>
donor molecule, donor type, donor heavy atom, donor atom, acceptor molecule, acceptor atom, score
      P1  H  6896  6908       L1     8  0.75
      P1  H  6931  6943       L1     4  0.88
      P1  H 10752 10764       L1    18  0.05

> <Gold.PLP.Chemscore.Internal.Correction>
0.1050

> <Gold.Rescore>
     Score         DG    S(hbond)    S(metal)    S(lipo)     H(rot)  DE(clash)    DE(int)     intcor
     10.27     -12.19       3.01        0.00      44.23       3.33       0.00       1.92       ----

> <Gold.Chemscore.Fitness>
10.2710

> <Gold.Chemscore.DG>
-12.1934

> <Gold.Chemscore.ZeroCoef>
-5.4800

> <Gold.Chemscore.Hbond>
3.0133

> <Gold.Chemscore.Metal>
0.0000

> <Gold.Chemscore.Lipo>
44.2272

> <Gold.Chemscore.Internal_Hbond>
0.0000

> <Gold.Chemscore.DEClash>
0.0038

> <Gold.Chemscore.DEInternal>
1.9185

> <Gold.Chemscore.Rot>
3.3303

> <Gold.Chemscore.Internal.Correction>
   9.000000E+99

> <Gold.Chemscore.Hbonds>
donor molecule, donor type, donor heavy atom, donor atom, acceptor molecule, acceptor atom, score
      P1  H  6896  6908       L1     8  0.30
      P1  H  6931  6943       L1     4  0.56

> <Gold.Chemscore.Hbond.Weighted>
-10.0644

> <Gold.Chemscore.Metal.Weighted>
-0.0000

> <Gold.Chemscore.Lipo.Weighted>
-5.1746

> <Gold.Chemscore.Internal_Hbond.Weighted>
0.0000

> <Gold.Chemscore.DEClash.Weighted>
0.0038

> <Gold.Chemscore.DEInternal.Weighted>
1.9185

> <Gold.Chemscore.Rot.Weighted>
8.5256

> <Gold.Chemscore.Internal.Correction.Weighted>
   9.000000E+99

> <Gold.Protein.RotatedTorsions>
[ 6907 6896 6895 6894 ] final  158.15 input  -60.11 | X-H torsion
[ 7974 7965 7964 7962 ] final  -35.48 input  175.53 | X-H torsion
[ 8008 7997 7996 7995 ] final -136.66 input   59.86 | X-H torsion
[ 10167 10162 10161 10158 ] final -161.75 input  -65.29 | X-H torsion
[ 10718 10713 10712 10709 ] final  177.52 input   66.30 | X-H torsion
[ 10763 10752 10751 10750 ] final   17.12 input  -60.55 | X-H torsion
[ 11005 11000 10999 10996 ] final -144.45 input  -57.11 | X-H torsion

> <Gold.Protein.ActiveResidues>
 VAL166  LYS551  ARG553  GLY616  TRP617  ASP618  TYR619  PRO620  LYS621  CYS622 
 ASP623  PHE694  ASN695  SER759  ASP760  ASP761  ALA762  ILE779  LEU786  VAL792 
 PHE793  MET794  SER795  GLU796  ALA797  LYS798  CYS799  TRP800  GLU811  SER814 

> <Gold.Protein.RotatedAtoms>
  152.0046  133.3838  159.4194 H   0  0  0  0  0  0  0  0  0  0  0  0  # atno 6907 bound_to 6896
  150.6906  134.3797  159.5038 H   0  0  0  0  0  0  0  0  0  0  0  0  # atno 6908 bound_to 6896
  152.1549  134.8958  160.0596 H   0  0  0  0  0  0  0  0  0  0  0  0  # atno 6909 bound_to 6896
  146.0742  140.6164  142.8938 H   0  0  0  0  0  0  0  0  0  0  0  0  # atno 7974 bound_to 7965
  155.3989  140.0504  157.3037 H   0  0  0  0  0  0  0  0  0  0  0  0  # atno 8008 bound_to 7997
  154.5000  140.2153  155.9327 H   0  0  0  0  0  0  0  0  0  0  0  0  # atno 8009 bound_to 7997
  156.1455  140.3146  155.8568 H   0  0  0  0  0  0  0  0  0  0  0  0  # atno 8010 bound_to 7997
  139.6442  144.0203  152.2115 H   0  0  0  0  0  0  0  0  0  0  0  0  # atno 10167 bound_to 10162
  156.9041  130.9888  151.3031 H   0  0  0  0  0  0  0  0  0  0  0  0  # atno 10718 bound_to 10713
  153.1368  135.6752  153.9090 H   0  0  0  0  0  0  0  0  0  0  0  0  # atno 10763 bound_to 10752
  153.8559  135.3087  155.3436 H   0  0  0  0  0  0  0  0  0  0  0  0  # atno 10764 bound_to 10752
  154.7754  135.4917  153.9817 H   0  0  0  0  0  0  0  0  0  0  0  0  # atno 10765 bound_to 10752
  140.8023  134.2842  157.4974 H   0  0  0  0  0  0  0  0  0  0  0  0  # atno 11005 bound_to 11000
  144.7251  140.4499  143.6979 LP  0  0  0  0  0  0  0  0  0  0  0  0  # atno 17320 bound_to 7965
  145.6335  139.1540  143.2955 LP  0  0  0  0  0  0  0  0  0  0  0  0  # atno 17321 bound_to 7965
  139.9900  144.6368  150.7823 LP  0  0  0  0  0  0  0  0  0  0  0  0  # atno 17342 bound_to 10162
  140.7506  143.2958  151.3208 LP  0  0  0  0  0  0  0  0  0  0  0  0  # atno 17343 bound_to 10162
  157.6008  130.8511  149.8799 LP  0  0  0  0  0  0  0  0  0  0  0  0  # atno 17370 bound_to 10713
  156.0567  130.3707  150.1074 LP  0  0  0  0  0  0  0  0  0  0  0  0  # atno 17371 bound_to 10713
  139.8720  134.9436  156.3858 LP  0  0  0  0  0  0  0  0  0  0  0  0  # atno 17394 bound_to 11000
  140.9282  133.7597  155.9991 LP  0  0  0  0  0  0  0  0  0  0  0  0  # atno 17395 bound_to 11000

$$$$
