AV-unprocessed.smi:45|AV-procd|sdf|410|dock2
  -GOLD-   2262016273D 1   1.00000     0.00000
 Structure written by MMmdl.
 61 64  0  0  0  0  0  0  0  0  2 V2000
  144.9817  138.0985  161.6346 C   0  0  0  0  0  0  0  0  0  0  0  0
  146.2118  137.6412  161.0923 O   0  0  0  0  0  0  0  0  0  0  0  0
  146.2055  137.1023  159.8221 C   0  0  0  0  0  0  0  0  0  0  0  0
  145.0803  137.1288  158.9594 C   0  0  0  0  0  0  0  0  0  0  0  0
  145.1500  136.5582  157.6740 C   0  0  0  0  0  0  0  0  0  0  0  0
  146.3407  135.9496  157.2291 C   0  0  0  0  0  0  0  0  0  0  0  0
  146.4206  135.3393  155.8433 C   0  0  0  0  0  0  0  0  0  0  0  0
  146.9360  133.9767  155.8387 N   0  0  0  0  0  0  0  0  0  0  0  0
  147.3402  133.3567  154.6440 C   0  0  0  0  0  0  0  0  0  0  0  0
  146.5137  133.4449  153.5779 N   0  0  0  0  0  0  0  0  0  0  0  0
  146.8394  132.8720  152.4121 C   0  0  0  0  0  0  0  0  0  0  0  0
  145.9672  132.9819  151.3297 N   0  0  0  0  0  0  0  0  0  0  0  0
  145.6593  131.8353  150.4818 C   0  0  0  0  0  0  0  0  0  0  0  0
  144.2173  132.0303  150.0160 C   0  0  0  0  0  0  0  0  0  0  0  0
  144.0591  133.5448  150.0172 C   0  0  0  0  0  0  0  0  0  0  0  0
  144.9154  133.9939  151.2101 C   0  0  2  0  0  0  0  0  0  0  0  0
  145.4601  135.4282  151.0397 C   0  0  0  0  0  0  0  0  0  0  0  0
  144.4654  136.3650  151.3941 O   0  0  0  0  0  0  0  0  0  0  0  0
  147.9811  132.1833  152.2567 N   0  3  0  0  0  0  0  0  0  0  0  0
  148.8435  132.0583  153.2936 C   0  0  0  0  0  0  0  0  0  0  0  0
  148.5586  132.6390  154.5483 C   0  0  0  0  0  0  0  0  0  0  0  0
  149.5412  132.5192  155.6824 C   0  0  0  0  0  0  0  0  0  0  0  0
  149.3240  133.0416  156.7757 O   0  0  0  0  0  0  0  0  0  0  0  0
  150.6355  131.7890  155.4149 N   0  0  0  0  0  0  0  0  0  0  0  0
  151.7374  131.5685  156.3441 C   0  0  0  0  0  0  0  0  0  0  0  0
  152.9097  130.8550  155.6939 C   0  0  0  0  0  0  0  0  0  0  0  0
  152.6210  129.7704  154.9662 N   0  0  0  0  0  0  0  0  0  0  0  0
  153.6591  129.1352  154.3801 C   0  0  0  0  0  0  0  0  0  0  0  0
  154.9845  129.5920  154.5228 C   0  0  0  0  0  0  0  0  0  0  0  0
  155.1652  130.7457  155.3122 C   0  0  0  0  0  0  0  0  0  0  0  0
  154.1238  131.3761  155.8975 N   0  0  0  0  0  0  0  0  0  0  0  0
  147.4633  135.9224  158.0794 C   0  0  0  0  0  0  0  0  0  0  0  0
  147.3958  136.4928  159.3658 C   0  0  0  0  0  0  0  0  0  0  0  0
  148.7911  136.4397  160.3829 Cl  0  0  0  0  0  0  0  0  0  0  0  0
  144.3115  133.9396  152.1171 H   0  0  0  0  0  0  0  0  0  0  0  0
  145.1550  138.4924  162.6359 H   0  0  0  0  0  0  0  0  0  0  0  0
  144.2576  137.2874  161.7207 H   0  0  0  0  0  0  0  0  0  0  0  0
  144.5552  138.9029  161.0337 H   0  0  0  0  0  0  0  0  0  0  0  0
  144.1488  137.5834  159.2598 H   0  0  0  0  0  0  0  0  0  0  0  0
  144.2840  136.5907  157.0291 H   0  0  0  0  0  0  0  0  0  0  0  0
  145.4203  135.3483  155.4088 H   0  0  0  0  0  0  0  0  0  0  0  0
  147.0520  135.9614  155.2078 H   0  0  0  0  0  0  0  0  0  0  0  0
  147.1654  133.5447  156.7230 H   0  0  0  0  0  0  0  0  0  0  0  0
  146.3424  131.8361  149.6319 H   0  0  0  0  0  0  0  0  0  0  0  0
  145.7722  130.8867  151.0080 H   0  0  0  0  0  0  0  0  0  0  0  0
  144.0196  131.5795  149.0430 H   0  0  0  0  0  0  0  0  0  0  0  0
  143.5309  131.5888  150.7397 H   0  0  0  0  0  0  0  0  0  0  0  0
  144.4575  133.9495  149.0853 H   0  0  0  0  0  0  0  0  0  0  0  0
  143.0190  133.8615  150.1013 H   0  0  0  0  0  0  0  0  0  0  0  0
  146.3267  135.6131  151.6728 H   0  0  0  0  0  0  0  0  0  0  0  0
  145.7742  135.6068  150.0107 H   0  0  0  0  0  0  0  0  0  0  0  0
  144.2646  136.8938  150.6367 H   0  0  0  0  0  0  0  0  0  0  0  0
  149.7430  131.4993  153.0783 H   0  0  0  0  0  0  0  0  0  0  0  0
  150.7299  131.3813  154.4963 H   0  0  0  0  0  0  0  0  0  0  0  0
  152.0589  132.5166  156.7799 H   0  0  0  0  0  0  0  0  0  0  0  0
  151.3720  130.9611  157.1727 H   0  0  0  0  0  0  0  0  0  0  0  0
  153.4306  128.2574  153.7939 H   0  0  0  0  0  0  0  0  0  0  0  0
  155.8158  129.0859  154.0547 H   0  0  0  0  0  0  0  0  0  0  0  0
  156.1476  131.1637  155.4742 H   0  0  0  0  0  0  0  0  0  0  0  0
  148.3826  135.4619  157.7480 H   0  0  0  0  0  0  0  0  0  0  0  0
  148.2116  131.7555  151.3597 H   0  0  0  0  0  0  0  0  0  0  0  0
  1  2  1  0  0  0  0
  1 36  1  0  0  0  0
  1 37  1  0  0  0  0
  1 38  1  0  0  0  0
  2  3  1  0  0  0  0
  3 33  1  0  0  0  0
  3  4  2  0  0  0  0
  4  5  1  0  0  0  0
  4 39  1  0  0  0  0
  5  6  2  0  0  0  0
  5 40  1  0  0  0  0
  6  7  1  0  0  0  0
  6 32  1  0  0  0  0
  7  8  1  0  0  0  0
  7 41  1  0  0  0  0
  7 42  1  0  0  0  0
  8  9  1  0  0  0  0
  8 43  1  0  0  0  0
  9 21  1  0  0  0  0
  9 10  2  0  0  0  0
 10 11  1  0  0  0  0
 11 12  1  0  0  0  0
 11 19  2  0  0  0  0
 12 16  1  0  0  0  0
 12 13  1  0  0  0  0
 13 14  1  0  0  0  0
 13 44  1  0  0  0  0
 13 45  1  0  0  0  0
 14 15  1  0  0  0  0
 14 46  1  0  0  0  0
 14 47  1  0  0  0  0
 15 16  1  0  0  0  0
 15 48  1  0  0  0  0
 15 49  1  0  0  0  0
 16 35  1  0  0  0  0
 16 17  1  0  0  0  0
 17 18  1  0  0  0  0
 17 50  1  0  0  0  0
 17 51  1  0  0  0  0
 18 52  1  0  0  0  0
 19 20  1  0  0  0  0
 19 61  1  0  0  0  0
 20 21  2  0  0  0  0
 20 53  1  0  0  0  0
 21 22  1  0  0  0  0
 22 23  2  0  0  0  0
 22 24  1  0  0  0  0
 24 25  1  0  0  0  0
 24 54  1  0  0  0  0
 25 26  1  0  0  0  0
 25 55  1  0  0  0  0
 25 56  1  0  0  0  0
 26 31  1  0  0  0  0
 26 27  2  0  0  0  0
 27 28  1  0  0  0  0
 28 29  2  0  0  0  0
 28 57  1  0  0  0  0
 29 30  1  0  0  0  0
 29 58  1  0  0  0  0
 30 31  2  0  0  0  0
 30 59  1  0  0  0  0
 32 33  2  0  0  0  0
 32 60  1  0  0  0  0
 33 34  1  0  0  0  0
M  CHG  1  19   1
M  END
> <s_m_source_file>
AV-unprocessed.smi

> <i_m_source_file_index>
45

> <i_lp_mmshare_version>
43012

> <i_f3d_flags>
0

> <s_epik_input>
W0NIM11PYzFbY0hdW2NIXWMoW2NIXWMxQ2wpW0NIMl1bTkhdYzJuYyhOM1tDSDJdW0NIMl1bQ0gyXVtDQEhdM1tDSDJdW09IXSluW2NIXWMyQyg9TylbTkhdW0NIMl1jNG5bY0hdW2NIXVtjSF1uNA==

> <s_epik_cmdline>
J2VwaWtfcHl0aG9uJywgJy1waCcsICc3LjAnLCAnLXRuJywgJzgnLCAnLW1hJywgJzIwMCcsICctbWV0YWxfYmluZGluZycsICctaW1hZScsICc8aW5maWxlLm1hZT4nLCAnLW9tYWUnLCAnPG91dGZpbGUubWFlPic=

> <r_lp_tautomer_probability>
0.575011

> <r_epik_Ionization_Penalty>
1.61454

> <r_epik_Ionization_Penalty_Charging>
1.61448

> <r_epik_Ionization_Penalty_Neutral>
6.30284e-05

> <r_epik_State_Penalty>
1.91123

> <r_epik_Charging_Adjusted_Penalty>
3.52572

> <i_epik_Tot_Q>
1

> <i_epik_Tot_abs_Q>
1

> <r_epik_Metal_State_Penalty>
1.95488

> <b_epik_Metal_Only>
0

> <s_epik_Chemistry_Notes>
This compound contains an electron-poor aromatic ring that is susceptible to covalent hydrolysis at low pH, typically resulting in measured values for nitrogen ring protonation that are around two units higher than predicted values.

> <s_lp_Force_Field>
OPLS_2005

> <r_lp_Energy>
37.0931

> <b_lp_Chiralities_Consistent>
1

> <s_lp_Variant>
AV-unprocessed.smi:45-4

> <Gold.Version>
5.8.1

> <Gold.Id.Protein>
6NUR|6NUR_protein|mol2

> <Gold.PLP.Fitness>
53.8941

> <Gold.PLP.PLP>
-43.9982

> <Gold.PLP.part.hbond>
-3.0000

> <Gold.PLP.part.metal>
0.0000

> <Gold.PLP.part.buried>
-6.8033

> <Gold.PLP.part.nonpolar>
-36.4040

> <Gold.PLP.part.repulsive>
0.1542

> <Gold.PLP.ligand.clash>
0.0000

> <Gold.PLP.ligand.torsion>
1.4158

> <Gold.PLP.Chemscore.Hbond>
3.0000

> <Gold.PLP.Chemscore.CHOScore>
1.0000

> <Gold.PLP.Chemscore.Metal>
0.0000

> <Gold.Chemscore.Hbonds>
donor molecule, donor type, donor heavy atom, donor atom, acceptor molecule, acceptor atom, score
      L1  H    18    52       P1 10171  1.00
      L1  H    19    61       P1 10747  1.00
      P1  H  6934  6947       L1     2  1.00
      L1  C    28    57       P1 10737  0.74

> <Gold.PLP.Chemscore.Internal.Correction>
0.7274

> <Gold.Rescore>
     Score         DG    S(hbond)    S(metal)    S(lipo)     H(rot)  DE(clash)    DE(int)     intcor
     14.26     -17.63       2.72        0.00      90.55       2.94       0.10       3.27       ----

> <Gold.Chemscore.Fitness>
14.2601

> <Gold.Chemscore.DG>
-17.6263

> <Gold.Chemscore.ZeroCoef>
-5.4800

> <Gold.Chemscore.Hbond>
2.7176

> <Gold.Chemscore.Metal>
0.0000

> <Gold.Chemscore.Lipo>
90.5537

> <Gold.Chemscore.Internal_Hbond>
0.0000

> <Gold.Chemscore.DEClash>
0.0998

> <Gold.Chemscore.DEInternal>
3.2664

> <Gold.Chemscore.Rot>
2.9395

> <Gold.Chemscore.Internal.Correction>
   9.000000E+99

> <Gold.Chemscore.Hbonds>
donor molecule, donor type, donor heavy atom, donor atom, acceptor molecule, acceptor atom, score
      L1  H    18    52       P1 10171  0.96
      L1  H    19    61       P1 10747  0.98
      P1  H  6934  6947       L1     2  0.20

> <Gold.Chemscore.Hbond.Weighted>
-9.0767

> <Gold.Chemscore.Metal.Weighted>
-0.0000

> <Gold.Chemscore.Lipo.Weighted>
-10.5948

> <Gold.Chemscore.Internal_Hbond.Weighted>
0.0000

> <Gold.Chemscore.DEClash.Weighted>
0.0998

> <Gold.Chemscore.DEInternal.Weighted>
3.2664

> <Gold.Chemscore.Rot.Weighted>
7.5251

> <Gold.Chemscore.Internal.Correction.Weighted>
   9.000000E+99

> <Gold.Protein.RotatedTorsions>
[ 6907 6896 6895 6894 ] final    4.95 input  -60.11 | X-H torsion
[ 7974 7965 7964 7962 ] final  150.46 input  175.53 | X-H torsion
[ 8008 7997 7996 7995 ] final  -89.50 input   59.86 | X-H torsion
[ 10167 10162 10161 10158 ] final  -86.86 input  -65.29 | X-H torsion
[ 10718 10713 10712 10709 ] final   16.56 input   66.30 | X-H torsion
[ 10763 10752 10751 10750 ] final  -58.96 input  -60.55 | X-H torsion
[ 11005 11000 10999 10996 ] final -158.32 input  -57.11 | X-H torsion

> <Gold.Protein.ActiveResidues>
 VAL166  LYS551  ARG553  GLY616  TRP617  ASP618  TYR619  PRO620  LYS621  CYS622 
 ASP623  PHE694  ASN695  SER759  ASP760  ASP761  ALA762  ILE779  LEU786  VAL792 
 PHE793  MET794  SER795  GLU796  ALA797  LYS798  CYS799  TRP800  GLU811  SER814 

> <Gold.Protein.RotatedAtoms>
  151.6496  135.1003  160.0157 H   0  0  0  0  0  0  0  0  0  0  0  0  # atno 6907 bound_to 6896
  152.4008  133.6811  159.6323 H   0  0  0  0  0  0  0  0  0  0  0  0  # atno 6908 bound_to 6896
  150.7908  133.8711  159.3300 H   0  0  0  0  0  0  0  0  0  0  0  0  # atno 6909 bound_to 6896
  144.8363  139.6411  143.6036 H   0  0  0  0  0  0  0  0  0  0  0  0  # atno 7974 bound_to 7965
  154.6873  140.0541  157.0328 H   0  0  0  0  0  0  0  0  0  0  0  0  # atno 8008 bound_to 7997
  155.0866  140.3215  155.4567 H   0  0  0  0  0  0  0  0  0  0  0  0  # atno 8009 bound_to 7997
  156.2716  140.2055  156.5993 H   0  0  0  0  0  0  0  0  0  0  0  0  # atno 8010 bound_to 7997
  140.3901  143.2709  151.9275 H   0  0  0  0  0  0  0  0  0  0  0  0  # atno 10167 bound_to 10162
  157.0696  130.6342  149.5803 H   0  0  0  0  0  0  0  0  0  0  0  0  # atno 10718 bound_to 10713
  154.2463  135.6334  153.5224 H   0  0  0  0  0  0  0  0  0  0  0  0  # atno 10763 bound_to 10752
  152.9920  135.5554  154.5856 H   0  0  0  0  0  0  0  0  0  0  0  0  # atno 10764 bound_to 10752
  154.5373  135.2892  155.1102 H   0  0  0  0  0  0  0  0  0  0  0  0  # atno 10765 bound_to 10752
  140.6549  134.4411  157.5235 H   0  0  0  0  0  0  0  0  0  0  0  0  # atno 11005 bound_to 11000
  146.2661  139.6523  142.9328 LP  0  0  0  0  0  0  0  0  0  0  0  0  # atno 17320 bound_to 7965
  145.4789  141.0437  143.2657 LP  0  0  0  0  0  0  0  0  0  0  0  0  # atno 17321 bound_to 7965
  139.4789  144.5736  151.8048 LP  0  0  0  0  0  0  0  0  0  0  0  0  # atno 17342 bound_to 10162
  140.4849  144.1396  150.5939 LP  0  0  0  0  0  0  0  0  0  0  0  0  # atno 17343 bound_to 10162
  155.9954  130.5021  150.7458 LP  0  0  0  0  0  0  0  0  0  0  0  0  # atno 17370 bound_to 10713
  157.4889  131.0909  151.0450 LP  0  0  0  0  0  0  0  0  0  0  0  0  # atno 17371 bound_to 10713
  139.9033  134.8507  156.1808 LP  0  0  0  0  0  0  0  0  0  0  0  0  # atno 17394 bound_to 11000
  141.0509  133.6889  156.1769 LP  0  0  0  0  0  0  0  0  0  0  0  0  # atno 17395 bound_to 11000

$$$$
