AV-unprocessed.smi:3062|AV-procd|sdf|11684|dock7
  -GOLD-   2272017 93D 1   1.00000     0.00000
 Structure written by MMmdl.
 39 40  0  0  0  0  0  0  0  0  1 V2000
  153.2434  142.8457  163.6381 C   0  0  0  0  0  0  0  0  0  0  0  0
  152.9108  142.8145  162.1706 C   0  0  0  0  0  0  0  0  0  0  0  0
  152.2947  143.8455  161.6928 N   0  0  0  0  0  0  0  0  0  0  0  0
  151.9455  143.9206  160.3592 N   0  0  0  0  0  0  0  0  0  0  0  0
  151.2509  145.1613  159.9955 C   0  0  0  0  0  0  0  0  0  0  0  0
  149.7148  145.0149  160.0706 C   0  0  1  0  0  0  0  0  0  0  0  0
  149.0845  146.2115  159.6603 O   0  0  0  0  0  0  0  0  0  0  0  0
  149.1768  143.8778  159.1868 C   0  0  0  0  0  0  0  0  0  0  0  0
  147.8775  143.5086  159.6196 O   0  0  0  0  0  0  0  0  0  0  0  0
  146.8505  144.2720  159.0089 C   0  0  0  0  0  0  0  0  0  0  0  0
  145.5751  144.0074  159.7470 C   0  0  0  0  0  0  0  0  0  0  0  0
  145.3528  144.1918  161.0881 C   0  0  0  0  0  0  0  0  0  0  0  0
  144.0317  143.8422  161.4957 C   0  0  0  0  0  0  0  0  0  0  0  0
  143.2585  143.3902  160.4600 C   0  0  0  0  0  0  0  0  0  0  0  0
  144.1425  143.3824  158.9590 S   0  0  0  0  0  0  0  0  0  0  0  0
  152.2041  142.9540  159.4328 C   0  0  0  0  0  0  0  0  0  0  0  0
  151.8729  143.0632  158.2511 O   0  0  0  0  0  0  0  0  0  0  0  0
  152.9020  141.7884  159.9804 C   0  0  0  0  0  0  0  0  0  0  0  0
  153.1952  140.7523  159.0433 C   0  0  0  0  0  0  0  0  0  0  0  0
  153.4346  139.8985  158.2989 N   0  0  0  0  0  0  0  0  0  0  0  0
  153.2468  141.7007  161.2894 C   0  0  0  0  0  0  0  0  0  0  0  0
  153.9731  140.5131  161.9064 C   0  0  0  0  0  0  0  0  0  0  0  0
  154.3097  142.6861  163.7975 H   0  0  0  0  0  0  0  0  0  0  0  0
  152.6999  142.0669  164.1734 H   0  0  0  0  0  0  0  0  0  0  0  0
  152.9842  143.8026  164.0943 H   0  0  0  0  0  0  0  0  0  0  0  0
  151.5850  145.9915  160.6213 H   0  0  0  0  0  0  0  0  0  0  0  0
  151.5424  145.4407  158.9815 H   0  0  0  0  0  0  0  0  0  0  0  0
  149.4020  144.8174  161.0965 H   0  0  0  0  0  0  0  0  0  0  0  0
  148.7368  146.0811  158.7912 H   0  0  0  0  0  0  0  0  0  0  0  0
  149.1194  144.2238  158.1536 H   0  0  0  0  0  0  0  0  0  0  0  0
  149.8515  143.0199  159.2009 H   0  0  0  0  0  0  0  0  0  0  0  0
  147.0911  145.3350  159.0506 H   0  0  0  0  0  0  0  0  0  0  0  0
  146.7430  143.9921  157.9599 H   0  0  0  0  0  0  0  0  0  0  0  0
  146.0881  144.5643  161.7861 H   0  0  0  0  0  0  0  0  0  0  0  0
  143.6996  143.9328  162.5194 H   0  0  0  0  0  0  0  0  0  0  0  0
  142.2298  143.0620  160.4862 H   0  0  0  0  0  0  0  0  0  0  0  0
  154.0921  139.6907  161.2015 H   0  0  0  0  0  0  0  0  0  0  0  0
  153.4229  140.1265  162.7649 H   0  0  0  0  0  0  0  0  0  0  0  0
  154.9683  140.8089  162.2399 H   0  0  0  0  0  0  0  0  0  0  0  0
  1  2  1  0  0  0  0
  1 23  1  0  0  0  0
  1 24  1  0  0  0  0
  1 25  1  0  0  0  0
  2 21  1  0  0  0  0
  2  3  2  0  0  0  0
  3  4  1  0  0  0  0
  4  5  1  0  0  0  0
  4 16  1  0  0  0  0
  5  6  1  0  0  0  0
  5 26  1  0  0  0  0
  5 27  1  0  0  0  0
  6  7  1  0  0  0  0
  6  8  1  0  0  0  0
  6 28  1  0  0  0  0
  7 29  1  0  0  0  0
  8  9  1  0  0  0  0
  8 30  1  0  0  0  0
  8 31  1  0  0  0  0
  9 10  1  0  0  0  0
 10 11  1  0  0  0  0
 10 32  1  0  0  0  0
 10 33  1  0  0  0  0
 11 15  1  0  0  0  0
 11 12  2  0  0  0  0
 12 13  1  0  0  0  0
 12 34  1  0  0  0  0
 13 14  2  0  0  0  0
 13 35  1  0  0  0  0
 14 15  1  0  0  0  0
 14 36  1  0  0  0  0
 16 17  2  0  0  0  0
 16 18  1  0  0  0  0
 18 19  1  0  0  0  0
 18 21  2  0  0  0  0
 19 20  3  0  0  0  0
 21 22  1  0  0  0  0
 22 37  1  0  0  0  0
 22 38  1  0  0  0  0
 22 39  1  0  0  0  0
M  END
> <s_m_source_file>
AV-unprocessed.smi

> <i_m_source_file_index>
3062

> <i_lp_mmshare_version>
43012

> <i_f3d_flags>
0

> <s_epik_input>
TiNDYyhjMVtDSDNdKWMoPU8pbihuYzFbQ0gzXSlbQ0gyXVtDQEhdKFtPSF0pW0NIMl1PW0NIMl1jMltjSF1bY0hdW2NIXXMy

> <s_epik_cmdline>
J2VwaWtfcHl0aG9uJywgJy1waCcsICc3LjAnLCAnLXRuJywgJzgnLCAnLW1hJywgJzIwMCcsICctbWV0YWxfYmluZGluZycsICctaW1hZScsICc8aW5maWxlLm1hZT4nLCAnLW9tYWUnLCAnPG91dGZpbGUubWFlPic=

> <r_lp_tautomer_probability>
1

> <r_epik_Ionization_Penalty>
6.86395e-08

> <r_epik_Ionization_Penalty_Charging>
2.24757e-10

> <r_epik_Ionization_Penalty_Neutral>
6.84147e-08

> <r_epik_State_Penalty>
-0

> <r_epik_Charging_Adjusted_Penalty>
2.24757e-10

> <i_epik_Tot_Q>
0

> <i_epik_Tot_abs_Q>
0

> <r_epik_Metal_State_Penalty>
-0

> <b_epik_Metal_Only>
0

> <s_lp_Force_Field>
OPLS_2005

> <r_lp_Energy>
25.5383

> <b_lp_Chiralities_Consistent>
1

> <s_lp_Variant>
AV-unprocessed.smi:3062-2

> <Gold.Version>
5.8.1

> <Gold.Id.Protein>
6NUR|6NUR_protein|mol2

> <Gold.PLP.Fitness>
55.6556

> <Gold.PLP.PLP>
-48.6583

> <Gold.PLP.part.hbond>
-3.2805

> <Gold.PLP.part.metal>
0.0000

> <Gold.PLP.part.buried>
-4.0416

> <Gold.PLP.part.nonpolar>
-39.6739

> <Gold.PLP.part.repulsive>
0.2826

> <Gold.PLP.ligand.clash>
0.0000

> <Gold.PLP.ligand.torsion>
0.7377

> <Gold.PLP.Chemscore.Hbond>
2.8000

> <Gold.PLP.Chemscore.CHOScore>
0.0000

> <Gold.PLP.Chemscore.Metal>
0.0000

> <Gold.Chemscore.Hbonds>
donor molecule, donor type, donor heavy atom, donor atom, acceptor molecule, acceptor atom, score
      L1  H     7    29       P1  8029  1.00
      P1  H  6933  6944       L1     9  0.36
      P1  H  7997  8009       L1    20  0.85

> <Gold.PLP.Chemscore.Internal.Correction>
0.0727

> <Gold.Rescore>
     Score         DG    S(hbond)    S(metal)    S(lipo)     H(rot)  DE(clash)    DE(int)     intcor
     13.78     -17.14       1.91        0.00     100.05       2.51       2.53       0.82       ----

> <Gold.Chemscore.Fitness>
13.7814

> <Gold.Chemscore.DG>
-17.1378

> <Gold.Chemscore.ZeroCoef>
-5.4800

> <Gold.Chemscore.Hbond>
1.9110

> <Gold.Chemscore.Metal>
0.0000

> <Gold.Chemscore.Lipo>
100.0479

> <Gold.Chemscore.Internal_Hbond>
0.0000

> <Gold.Chemscore.DEClash>
2.5331

> <Gold.Chemscore.DEInternal>
0.8233

> <Gold.Chemscore.Rot>
2.5119

> <Gold.Chemscore.Internal.Correction>
   9.000000E+99

> <Gold.Chemscore.Hbonds>
donor molecule, donor type, donor heavy atom, donor atom, acceptor molecule, acceptor atom, score
      L1  H     7    29       P1  8029  1.00
      P1  H  6933  6944       L1     9  0.06
      P1  H  7997  8009       L1    20  0.83

> <Gold.Chemscore.Hbond.Weighted>
-6.3827

> <Gold.Chemscore.Metal.Weighted>
-0.0000

> <Gold.Chemscore.Lipo.Weighted>
-11.7056

> <Gold.Chemscore.Internal_Hbond.Weighted>
0.0000

> <Gold.Chemscore.DEClash.Weighted>
2.5331

> <Gold.Chemscore.DEInternal.Weighted>
0.8233

> <Gold.Chemscore.Rot.Weighted>
6.4305

> <Gold.Chemscore.Internal.Correction.Weighted>
   9.000000E+99

> <Gold.Protein.RotatedTorsions>
[ 6907 6896 6895 6894 ] final  164.95 input  -60.11 | X-H torsion
[ 7974 7965 7964 7962 ] final  119.23 input  175.53 | X-H torsion
[ 8008 7997 7996 7995 ] final  171.21 input   59.86 | X-H torsion
[ 10167 10162 10161 10158 ] final  -23.22 input  -65.29 | X-H torsion
[ 10718 10713 10712 10709 ] final  133.47 input   66.30 | X-H torsion
[ 10763 10752 10751 10750 ] final  -16.32 input  -60.55 | X-H torsion
[ 11005 11000 10999 10996 ] final  -62.70 input  -57.11 | X-H torsion

> <Gold.Protein.ActiveResidues>
 VAL166  LYS551  ARG553  GLY616  TRP617  ASP618  TYR619  PRO620  LYS621  CYS622 
 ASP623  PHE694  ASN695  SER759  ASP760  ASP761  ALA762  ILE779  LEU786  VAL792 
 PHE793  MET794  SER795  GLU796  ALA797  LYS798  CYS799  TRP800  GLU811  SER814 

> <Gold.Protein.RotatedAtoms>
  151.9020  133.3540  159.3833 H   0  0  0  0  0  0  0  0  0  0  0  0  # atno 6907 bound_to 6896
  150.7078  134.4819  159.5483 H   0  0  0  0  0  0  0  0  0  0  0  0  # atno 6908 bound_to 6896
  152.2409  134.8230  160.0511 H   0  0  0  0  0  0  0  0  0  0  0  0  # atno 6909 bound_to 6896
  145.1457  139.3241  143.4593 H   0  0  0  0  0  0  0  0  0  0  0  0  # atno 7974 bound_to 7965
  156.1293  140.1518  156.9090 H   0  0  0  0  0  0  0  0  0  0  0  0  # atno 8008 bound_to 7997
  154.4896  140.0855  156.7605 H   0  0  0  0  0  0  0  0  0  0  0  0  # atno 8009 bound_to 7997
  155.4286  140.3426  155.4280 H   0  0  0  0  0  0  0  0  0  0  0  0  # atno 8010 bound_to 7997
  140.7287  143.4463  151.0582 H   0  0  0  0  0  0  0  0  0  0  0  0  # atno 10167 bound_to 10162
  157.4770  131.1083  150.9730 H   0  0  0  0  0  0  0  0  0  0  0  0  # atno 10718 bound_to 10713
  153.5568  135.7010  153.5566 H   0  0  0  0  0  0  0  0  0  0  0  0  # atno 10763 bound_to 10752
  153.3465  135.4006  155.1613 H   0  0  0  0  0  0  0  0  0  0  0  0  # atno 10764 bound_to 10752
  154.8653  135.3755  154.5082 H   0  0  0  0  0  0  0  0  0  0  0  0  # atno 10765 bound_to 10752
  141.1368  133.6643  156.5568 H   0  0  0  0  0  0  0  0  0  0  0  0  # atno 11005 bound_to 11000
  146.3500  140.1511  142.8592 LP  0  0  0  0  0  0  0  0  0  0  0  0  # atno 17320 bound_to 7965
  145.0484  140.8999  143.5010 LP  0  0  0  0  0  0  0  0  0  0  0  0  # atno 17321 bound_to 7965
  139.8135  143.7918  152.3173 LP  0  0  0  0  0  0  0  0  0  0  0  0  # atno 17342 bound_to 10162
  139.7976  144.7386  150.9869 LP  0  0  0  0  0  0  0  0  0  0  0  0  # atno 17343 bound_to 10162
  157.0476  130.5774  149.5365 LP  0  0  0  0  0  0  0  0  0  0  0  0  # atno 17370 bound_to 10713
  156.0102  130.5192  150.7963 LP  0  0  0  0  0  0  0  0  0  0  0  0  # atno 17371 bound_to 10713
  140.4020  134.7348  157.4785 LP  0  0  0  0  0  0  0  0  0  0  0  0  # atno 17394 bound_to 11000
  140.0489  134.6159  155.8886 LP  0  0  0  0  0  0  0  0  0  0  0  0  # atno 17395 bound_to 11000

$$$$
