AV-unprocessed.smi:1033|AV-procd|sdf|4505|dock7
  -GOLD-   22720 2503D 1   1.00000     0.00000
 Structure written by MMmdl.
 57 59  0  0  0  0  0  0  0  0  3 V2000
  152.6909  143.6534  161.2238 C   0  0  0  0  0  0  0  0  0  0  0  0
  152.3530  142.8138  160.0036 C   0  0  0  0  0  0  0  0  0  0  0  0
  151.4573  143.3439  159.0473 C   0  0  0  0  0  0  0  0  0  0  0  0
  151.1695  142.5533  157.9411 C   0  0  0  0  0  0  0  0  0  0  0  0
  150.3418  142.7848  156.8402 N   0  3  0  0  0  0  0  0  0  0  0  0
  150.3824  141.7086  156.0064 C   0  0  0  0  0  0  0  0  0  0  0  0
  151.2202  140.7914  156.5621 N   0  0  0  0  0  0  0  0  0  0  0  0
  151.6205  139.4629  156.0806 C   0  0  0  0  0  0  0  0  0  0  0  0
  150.5565  138.8101  155.1728 C   0  0  1  0  0  0  0  0  0  0  0  0
  150.4154  139.5119  153.9536 O   0  0  0  0  0  0  0  0  0  0  0  0
  150.7807  137.3054  154.9065 C   0  0  0  0  0  0  0  0  0  0  0  0
  150.5544  136.3905  156.0346 N   0  0  0  0  0  0  0  0  0  0  0  0
  149.1386  136.2648  156.3798 C   0  0  0  0  0  0  0  0  0  0  0  0
  148.3250  135.4700  155.3368 C   0  0  0  0  0  0  0  0  0  0  0  0
  148.9113  134.1193  155.1367 N   0  3  0  0  0  0  0  0  0  0  0  0
  148.1240  133.2979  154.1826 C   0  0  0  0  0  0  0  0  0  0  0  0
  148.9150  132.0961  153.6276 C   0  0  1  0  0  0  0  0  0  0  0  0
  149.6027  131.2675  154.7229 C   0  0  0  0  0  0  0  0  0  0  0  0
  148.0162  131.2537  152.9380 O   0  0  0  0  0  0  0  0  0  0  0  0
  150.3543  134.2185  154.7894 C   0  0  0  0  0  0  0  0  0  0  0  0
  151.1028  135.0441  155.8542 C   0  0  0  0  0  0  0  0  0  0  0  0
  151.7380  141.2766  157.7675 C   0  0  0  0  0  0  0  0  0  0  0  0
  152.6228  140.7392  158.6989 C   0  0  0  0  0  0  0  0  0  0  0  0
  152.9284  141.5279  159.8311 C   0  0  0  0  0  0  0  0  0  0  0  0
  153.8912  140.9688  160.8647 C   0  0  0  0  0  0  0  0  0  0  0  0
  152.1477  144.5989  161.2203 H   0  0  0  0  0  0  0  0  0  0  0  0
  153.7566  143.8816  161.2470 H   0  0  0  0  0  0  0  0  0  0  0  0
  152.4294  143.1236  162.1400 H   0  0  0  0  0  0  0  0  0  0  0  0
  151.0162  144.3222  159.1711 H   0  0  0  0  0  0  0  0  0  0  0  0
  149.8456  141.6019  155.0746 H   0  0  0  0  0  0  0  0  0  0  0  0
  152.5621  139.5867  155.5448 H   0  0  0  0  0  0  0  0  0  0  0  0
  151.8370  138.8329  156.9442 H   0  0  0  0  0  0  0  0  0  0  0  0
  149.5878  138.8996  155.6649 H   0  0  0  0  0  0  0  0  0  0  0  0
  149.9438  138.9634  153.3456 H   0  0  0  0  0  0  0  0  0  0  0  0
  150.0821  137.0283  154.1159 H   0  0  0  0  0  0  0  0  0  0  0  0
  151.7700  137.1569  154.4747 H   0  0  0  0  0  0  0  0  0  0  0  0
  149.0523  135.7684  157.3474 H   0  0  0  0  0  0  0  0  0  0  0  0
  148.7001  137.2541  156.5161 H   0  0  0  0  0  0  0  0  0  0  0  0
  147.2965  135.3718  155.6859 H   0  0  0  0  0  0  0  0  0  0  0  0
  148.2823  136.0020  154.3855 H   0  0  0  0  0  0  0  0  0  0  0  0
  147.2298  132.9213  154.6826 H   0  0  0  0  0  0  0  0  0  0  0  0
  147.7726  133.9352  153.3690 H   0  0  0  0  0  0  0  0  0  0  0  0
  149.6574  132.4262  152.9017 H   0  0  0  0  0  0  0  0  0  0  0  0
  150.3411  131.8606  155.2628 H   0  0  0  0  0  0  0  0  0  0  0  0
  150.1236  130.4098  154.2960 H   0  0  0  0  0  0  0  0  0  0  0  0
  148.8824  130.8909  155.4502 H   0  0  0  0  0  0  0  0  0  0  0  0
  148.3665  131.0718  152.0790 H   0  0  0  0  0  0  0  0  0  0  0  0
  150.7993  133.2255  154.7425 H   0  0  0  0  0  0  0  0  0  0  0  0
  150.4738  134.6606  153.7995 H   0  0  0  0  0  0  0  0  0  0  0  0
  152.1639  135.0911  155.6147 H   0  0  0  0  0  0  0  0  0  0  0  0
  151.0501  134.5132  156.8059 H   0  0  0  0  0  0  0  0  0  0  0  0
  153.0605  139.7606  158.5671 H   0  0  0  0  0  0  0  0  0  0  0  0
  154.2501  139.9788  160.5817 H   0  0  0  0  0  0  0  0  0  0  0  0
  153.4033  140.8812  161.8357 H   0  0  0  0  0  0  0  0  0  0  0  0
  154.7595  141.6196  160.9703 H   0  0  0  0  0  0  0  0  0  0  0  0
  148.8564  133.6556  156.0323 H   0  0  0  0  0  0  0  0  0  0  0  0
  149.7909  143.6159  156.6668 H   0  0  0  0  0  0  0  0  0  0  0  0
  1  2  1  0  0  0  0
  1 26  1  0  0  0  0
  1 27  1  0  0  0  0
  1 28  1  0  0  0  0
  2 24  1  0  0  0  0
  2  3  2  0  0  0  0
  3  4  1  0  0  0  0
  3 29  1  0  0  0  0
  4 22  2  0  0  0  0
  4  5  1  0  0  0  0
  5  6  2  0  0  0  0
  5 57  1  0  0  0  0
  6  7  1  0  0  0  0
  6 30  1  0  0  0  0
  7  8  1  0  0  0  0
  7 22  1  0  0  0  0
  8  9  1  0  0  0  0
  8 31  1  0  0  0  0
  8 32  1  0  0  0  0
  9 10  1  0  0  0  0
  9 11  1  0  0  0  0
  9 33  1  0  0  0  0
 10 34  1  0  0  0  0
 11 12  1  0  0  0  0
 11 35  1  0  0  0  0
 11 36  1  0  0  0  0
 12 21  1  0  0  0  0
 12 13  1  0  0  0  0
 13 14  1  0  0  0  0
 13 37  1  0  0  0  0
 13 38  1  0  0  0  0
 14 15  1  0  0  0  0
 14 39  1  0  0  0  0
 14 40  1  0  0  0  0
 15 16  1  0  0  0  0
 15 20  1  0  0  0  0
 15 56  1  0  0  0  0
 16 17  1  0  0  0  0
 16 41  1  0  0  0  0
 16 42  1  0  0  0  0
 17 18  1  0  0  0  0
 17 19  1  0  0  0  0
 17 43  1  0  0  0  0
 18 44  1  0  0  0  0
 18 45  1  0  0  0  0
 18 46  1  0  0  0  0
 19 47  1  0  0  0  0
 20 21  1  0  0  0  0
 20 48  1  0  0  0  0
 20 49  1  0  0  0  0
 21 50  1  0  0  0  0
 21 51  1  0  0  0  0
 22 23  1  0  0  0  0
 23 24  2  0  0  0  0
 23 52  1  0  0  0  0
 24 25  1  0  0  0  0
 25 53  1  0  0  0  0
 25 54  1  0  0  0  0
 25 55  1  0  0  0  0
M  CHG  1   5   1
M  CHG  1  15   1
M  END
> <s_m_source_file>
AV-unprocessed.smi

> <i_m_source_file_index>
1033

> <i_lp_mmshare_version>
43012

> <i_f3d_flags>
0

> <s_epik_input>
W0NIM11jKFtjSF0xKWMoW0NIM10pW2NIXWMoYzEyKW4oW2NIXW4yKVtDSDJdW0NASF0oW09IXSlbQ0gyXU4zW0NIMl1bQ0gyXU4oW0NIMl1bQ0gyXTMpW0NIMl1bQ0BIXShbQ0gzXSlbT0hd

> <s_epik_cmdline>
J2VwaWtfcHl0aG9uJywgJy1waCcsICc3LjAnLCAnLXRuJywgJzgnLCAnLW1hJywgJzIwMCcsICctbWV0YWxfYmluZGluZycsICctaW1hZScsICc8aW5maWxlLm1hZT4nLCAnLW9tYWUnLCAnPG91dGZpbGUubWFlPic=

> <r_epik_Ionization_Penalty>
1.28617

> <r_epik_Ionization_Penalty_Charging>
1.23646

> <r_epik_Ionization_Penalty_Neutral>
0.0497112

> <r_epik_State_Penalty>
1.79157

> <r_epik_Charging_Adjusted_Penalty>
3.02803

> <i_epik_Tot_Q>
2

> <i_epik_Tot_abs_Q>
2

> <r_epik_Metal_State_Penalty>
5.81739

> <b_epik_Metal_Only>
0

> <s_lp_Force_Field>
OPLS_2005

> <r_lp_Energy>
43.5011

> <b_lp_Chiralities_Consistent>
1

> <s_lp_Variant>
AV-unprocessed.smi:1033-16

> <Gold.Version>
5.8.1

> <Gold.Id.Protein>
6NUR|6NUR_protein|mol2

> <Gold.PLP.Fitness>
60.4406

> <Gold.PLP.PLP>
-49.2710

> <Gold.PLP.part.hbond>
-4.0000

> <Gold.PLP.part.metal>
0.0000

> <Gold.PLP.part.buried>
-4.6892

> <Gold.PLP.part.nonpolar>
-40.1724

> <Gold.PLP.part.repulsive>
0.1103

> <Gold.PLP.ligand.clash>
0.0000

> <Gold.PLP.ligand.torsion>
0.8755

> <Gold.PLP.Chemscore.Hbond>
4.2455

> <Gold.PLP.Chemscore.CHOScore>
0.0000

> <Gold.PLP.Chemscore.Metal>
0.0000

> <Gold.Chemscore.Hbonds>
donor molecule, donor type, donor heavy atom, donor atom, acceptor molecule, acceptor atom, score
      L1  H     5    57       P1  8028  2.00
      L1  H    19    47       P1 10747  1.00
      P1  H  7989  7998       L1    10  1.00

> <Gold.PLP.Chemscore.Internal.Correction>
0.1842

> <Gold.Rescore>
     Score         DG    S(hbond)    S(metal)    S(lipo)     H(rot)  DE(clash)    DE(int)     intcor
     20.63     -22.77       3.19        0.00     125.45       3.15       0.53       1.62       ----

> <Gold.Chemscore.Fitness>
20.6261

> <Gold.Chemscore.DG>
-22.7681

> <Gold.Chemscore.ZeroCoef>
-5.4800

> <Gold.Chemscore.Hbond>
3.1947

> <Gold.Chemscore.Metal>
0.0000

> <Gold.Chemscore.Lipo>
125.4480

> <Gold.Chemscore.Internal_Hbond>
0.0000

> <Gold.Chemscore.DEClash>
0.5257

> <Gold.Chemscore.DEInternal>
1.6162

> <Gold.Chemscore.Rot>
3.1483

> <Gold.Chemscore.Internal.Correction>
   9.000000E+99

> <Gold.Chemscore.Hbonds>
donor molecule, donor type, donor heavy atom, donor atom, acceptor molecule, acceptor atom, score
      L1  H     5    57       P1  8028  0.98
      L1  H    10    34       P1  7957  0.01
      L1  H    19    47       P1 10747  0.99
      P1  H  7989  7998       L1    10  0.96

> <Gold.Chemscore.Hbond.Weighted>
-10.6704

> <Gold.Chemscore.Metal.Weighted>
-0.0000

> <Gold.Chemscore.Lipo.Weighted>
-14.6774

> <Gold.Chemscore.Internal_Hbond.Weighted>
0.0000

> <Gold.Chemscore.DEClash.Weighted>
0.5257

> <Gold.Chemscore.DEInternal.Weighted>
1.6162

> <Gold.Chemscore.Rot.Weighted>
8.0597

> <Gold.Chemscore.Internal.Correction.Weighted>
   9.000000E+99

> <Gold.Protein.RotatedTorsions>
[ 6907 6896 6895 6894 ] final  -42.77 input  -60.11 | X-H torsion
[ 7974 7965 7964 7962 ] final   57.88 input  175.53 | X-H torsion
[ 8008 7997 7996 7995 ] final  169.68 input   59.86 | X-H torsion
[ 10167 10162 10161 10158 ] final   29.39 input  -65.29 | X-H torsion
[ 10718 10713 10712 10709 ] final  -62.97 input   66.30 | X-H torsion
[ 10763 10752 10751 10750 ] final  131.68 input  -60.55 | X-H torsion
[ 11005 11000 10999 10996 ] final -151.04 input  -57.11 | X-H torsion

> <Gold.Protein.ActiveResidues>
 VAL166  LYS551  ARG553  GLY616  TRP617  ASP618  TYR619  PRO620  LYS621  CYS622 
 ASP623  PHE694  ASN695  SER759  ASP760  ASP761  ALA762  ILE779  LEU786  VAL792 
 PHE793  MET794  SER795  GLU796  ALA797  LYS798  CYS799  TRP800  GLU811  SER814 

> <Gold.Protein.RotatedAtoms>
  150.9515  134.8914  159.7674 H   0  0  0  0  0  0  0  0  0  0  0  0  # atno 6907 bound_to 6896
  152.5121  134.3800  159.9358 H   0  0  0  0  0  0  0  0  0  0  0  0  # atno 6908 bound_to 6896
  151.3816  133.3779  159.2745 H   0  0  0  0  0  0  0  0  0  0  0  0  # atno 6909 bound_to 6896
  145.9242  139.3754  143.0460 H   0  0  0  0  0  0  0  0  0  0  0  0  # atno 7974 bound_to 7965
  156.1435  140.1558  156.8884 H   0  0  0  0  0  0  0  0  0  0  0  0  # atno 8008 bound_to 7997
  154.5008  140.0826  156.7831 H   0  0  0  0  0  0  0  0  0  0  0  0  # atno 8009 bound_to 7997
  155.4034  140.3415  155.4261 H   0  0  0  0  0  0  0  0  0  0  0  0  # atno 8010 bound_to 7997
  140.4770  144.0675  150.6253 H   0  0  0  0  0  0  0  0  0  0  0  0  # atno 10167 bound_to 10162
  156.0821  130.4215  150.1210 H   0  0  0  0  0  0  0  0  0  0  0  0  # atno 10718 bound_to 10713
  153.7784  135.3172  155.3362 H   0  0  0  0  0  0  0  0  0  0  0  0  # atno 10763 bound_to 10752
  154.8171  135.4629  154.0676 H   0  0  0  0  0  0  0  0  0  0  0  0  # atno 10764 bound_to 10752
  153.1957  135.6915  153.8381 H   0  0  0  0  0  0  0  0  0  0  0  0  # atno 10765 bound_to 10752
  140.7338  134.3591  157.5161 H   0  0  0  0  0  0  0  0  0  0  0  0  # atno 11005 bound_to 11000
  145.8510  140.9529  143.0749 LP  0  0  0  0  0  0  0  0  0  0  0  0  # atno 17320 bound_to 7965
  144.6756  140.0407  143.7481 LP  0  0  0  0  0  0  0  0  0  0  0  0  # atno 17321 bound_to 7965
  140.3906  143.2754  152.0064 LP  0  0  0  0  0  0  0  0  0  0  0  0  # atno 17342 bound_to 10162
  139.4827  144.6080  151.7485 LP  0  0  0  0  0  0  0  0  0  0  0  0  # atno 17343 bound_to 10162
  156.9239  130.9692  151.3544 LP  0  0  0  0  0  0  0  0  0  0  0  0  # atno 17370 bound_to 10713
  157.5942  130.8465  149.8704 LP  0  0  0  0  0  0  0  0  0  0  0  0  # atno 17371 bound_to 10713
  139.8820  134.9036  156.2859 LP  0  0  0  0  0  0  0  0  0  0  0  0  # atno 17394 bound_to 11000
  140.9897  133.7216  156.0795 LP  0  0  0  0  0  0  0  0  0  0  0  0  # atno 17395 bound_to 11000

$$$$
