#       Name:                AV-unprocessed.smi:2532
#       Creating user name   scv26
#       Creation time:       Fri Mar 27 14:01:26 2020


#       File generated by GOLD software.
#

@<TRIPOS>MOLECULE
AV-unprocessed.smi:2532
    41    43     1
SMALL
NO_CHARGES


@<TRIPOS>ATOM
      1 ****        -0.4766  -0.3162  -0.9942 O.3            1 S1                 0.0000
      2 ****         0.0743   0.2156   0.1952 C.3            1 S1                 0.0000
      3 ****         1.6052   0.2355   0.0586 C.3            1 S1                 0.0000
      4 ****         2.1172  -1.0495   0.3702 O.3            1 S1                 0.0000
      5 ****         3.5287  -1.1206   0.2480 C.3            1 S1                 0.0000
      6 ****         3.9514  -2.5041   0.6266 C.2            1 S1                 0.0000
      7 ****         5.0560  -3.1812   0.1755 C.2            1 S1                 0.0000
      8 ****         5.1925  -4.4811   0.7451 C.2            1 S1                 0.0000
      9 ****         4.1932  -4.7795   1.6325 C.2            1 S1                 0.0000
     10 ****         3.0617  -3.4634   1.7872 S.3            1 S1                 0.0000
     11 ****        -0.4992   1.6275   0.4243 C.3            1 S1                 0.0000
     12 ****        -1.9459   1.6288   0.5554 N.pl3          1 S1                 0.0000
     13 ****        -2.6583   1.3127   1.6539 C.2            1 S1                 0.0000
     14 ****        -3.9833   1.3825   1.5623 N.2            1 S1                 0.0000
     15 ****        -4.1515   1.7937   0.2511 C.ar           1 S1                 0.0000
     16 ****        -5.3298   2.0589  -0.4829 C.ar           1 S1                 0.0000
     17 ****        -5.2549   2.4723  -1.8293 C.ar           1 S1                 0.0000
     18 ****        -4.0041   2.6250  -2.4620 C.ar           1 S1                 0.0000
     19 ****        -2.8163   2.3661  -1.7513 C.ar           1 S1                 0.0000
     20 ****        -2.8950   1.9562  -0.4073 C.ar           1 S1                 0.0000
     21 ****        -1.4158  -0.3558  -0.8975 H              1 S1                 0.0000
     22 ****        -0.2099  -0.4226   1.0333 H              1 S1                 0.0000
     23 ****         1.9083   0.5566  -0.9397 H              1 S1                 0.0000
     24 ****         2.0280   0.9486   0.7682 H              1 S1                 0.0000
     25 ****         3.8323  -0.8981  -0.7762 H              1 S1                 0.0000
     26 ****         4.0070  -0.3937   0.9058 H              1 S1                 0.0000
     27 ****         5.7652  -2.7915  -0.5399 H              1 S1                 0.0000
     28 ****         6.0083  -5.1412   0.4891 H              1 S1                 0.0000
     29 ****         4.0540  -5.6853   2.2038 H              1 S1                 0.0000
     30 ****        -0.0779   2.0614   1.3321 H              1 S1                 0.0000
     31 ****        -0.2195   2.2913  -0.3949 H              1 S1                 0.0000
     32 ****        -2.1758   1.0127   2.5728 H              1 S1                 0.0000
     33 ****        -6.2933   1.9438  -0.0089 H              1 S1                 0.0000
     34 ****        -6.1624   2.6729  -2.3798 H              1 S1                 0.0000
     35 ****        -3.9569   2.9410  -3.4939 H              1 S1                 0.0000
     36 ****        -1.8567   2.4799  -2.2338 H              1 S1                 0.0000
     37 ****        -0.1146  -1.2348  -1.1524 LP             1 S1                 0.0000
     38 ****        -0.2415   0.2725  -1.7676 LP             1 S1                 0.0000
     39 ****         1.7081  -1.7165  -0.2525 LP             1 S1                 0.0000
     40 ****         1.8658  -1.2744   1.3116 LP             1 S1                 0.0000
     41 ****        -4.6757   1.1890   2.2574 LP             1 S1                 0.0000
@<TRIPOS>BOND
    1    1    2 1     
    2    1   21 1     
    3    2    3 1     
    4    2   11 1     
    5    2   22 1     
    6    3    4 1     
    7    3   23 1     
    8    3   24 1     
    9    4    5 1     
   10    5    6 1     
   11    5   25 1     
   12    5   26 1     
   13    6   10 1     
   14    6    7 2     
   15    7    8 1     
   16    7   27 1     
   17    8    9 2     
   18    8   28 1     
   19    9   10 1     
   20    9   29 1     
   21   11   12 1     
   22   11   30 1     
   23   11   31 1     
   24   12   20 1     
   25   12   13 1     
   26   13   14 2     
   27   13   32 1     
   28   14   15 1     
   29   15   20 ar    
   30   15   16 ar    
   31   16   17 ar    
   32   16   33 1     
   33   17   18 ar    
   34   17   34 1     
   35   18   19 ar    
   36   18   35 1     
   37   19   20 ar    
   38   19   36 1     
   39    1   37 1     
   40    1   38 1     
   41    4   39 1     
   42    4   40 1     
   43   14   41 1     
@<TRIPOS>SUBSTRUCTURE
      1 S1             1
@<TRIPOS>SET
LONE_PAIRS      STATIC     ATOMS    <user>   **** ""
5 37 38 39 40 41
DONOR_HYDROGENS      STATIC     ATOMS    <user>   **** ""
1 21
ATOM$BLUE        STATIC     ATOMS    COLORGROUP SYSTEM
5 37 38 39 40 41
ATOM$RED        STATIC     ATOMS    COLORGROUP SYSTEM
1 21
