#       Name:                AV-unprocessed.smi:584
#       Creating user name   scv26
#       Creation time:       Thu Mar 26 23:50:28 2020


#       File generated by GOLD software.
#

@<TRIPOS>MOLECULE
AV-unprocessed.smi:584
    45    46     1
SMALL
NO_CHARGES


@<TRIPOS>ATOM
      1 ****        -0.0702   0.6232  -1.6880 O.2            1 S1                 0.0000
      2 ****         0.6073  -0.3813  -1.4649 C.2            1 S1                 0.0000
      3 ****         2.1405  -0.3110  -1.4220 C.3            1 S1                 0.0000
      4 ****         2.6655   1.0635  -1.4798 N.am           1 S1                 0.0000
      5 ****         2.8535   1.7239  -0.2499 C.2            1 S1                 0.0000
      6 ****         3.3033   2.9898  -0.1584 C.2            1 S1                 0.0000
      7 ****         3.5378   3.6586   1.1870 C.3            1 S1                 0.0000
      8 ****         4.4837   4.5941   1.1013 F              1 S1                 0.0000
      9 ****         2.4144   4.2404   1.6044 F              1 S1                 0.0000
     10 ****         3.9107   2.7686   2.1076 F              1 S1                 0.0000
     11 ****         3.6274   3.6506  -1.4074 C.2            1 S1                 0.0000
     12 ****         3.4566   3.0322  -2.5924 C.2            1 S1                 0.0000
     13 ****         2.9397   1.6642  -2.6763 C.2            1 S1                 0.0000
     14 ****         2.7645   1.0952  -3.7540 O.2            1 S1                 0.0000
     15 ****         0.0745  -1.5913  -1.2354 N.am           1 S1                 0.0000
     16 ****        -1.3525  -1.8992  -1.2034 C.3            1 S1                 0.0000
     17 ****        -1.8983  -2.0169   0.2359 C.3            1 S1                 0.0000
     18 ****        -3.3632  -2.5013   0.2206 C.3            1 S1                 0.0000
     19 ****        -3.9364  -2.6415   1.6400 C.3            1 S1                 0.0000
     20 ****        -3.8152  -1.3257   2.4221 C.3            1 S1                 0.0000
     21 ****        -2.3591  -0.8401   2.4559 C.3            1 S1                 0.0000
     22 ****        -1.7834  -0.6994   1.0373 C.3            1 S1                 0.0000
     23 ****         2.4857  -0.7996  -0.5093 H              1 S1                 0.0000
     24 ****         2.5410  -0.9169  -2.2366 H              1 S1                 0.0000
     25 ****         2.5993   1.1338   0.6189 H              1 S1                 0.0000
     26 ****         4.0076   4.6614  -1.3936 H              1 S1                 0.0000
     27 ****         3.7039   3.5566  -3.5037 H              1 S1                 0.0000
     28 ****         0.7066  -2.3593  -1.0617 H              1 S1                 0.0000
     29 ****        -1.9266  -1.1637  -1.7693 H              1 S1                 0.0000
     30 ****        -1.4879  -2.8483  -1.7226 H              1 S1                 0.0000
     31 ****        -1.3066  -2.7737   0.7535 H              1 S1                 0.0000
     32 ****        -3.9766  -1.8030  -0.3508 H              1 S1                 0.0000
     33 ****        -3.4330  -3.4610  -0.2926 H              1 S1                 0.0000
     34 ****        -4.9812  -2.9492   1.5899 H              1 S1                 0.0000
     35 ****        -3.4058  -3.4326   2.1714 H              1 S1                 0.0000
     36 ****        -4.4449  -0.5645   1.9598 H              1 S1                 0.0000
     37 ****        -4.1867  -1.4605   3.4384 H              1 S1                 0.0000
     38 ****        -2.2977   0.1149   2.9786 H              1 S1                 0.0000
     39 ****        -1.7526  -1.5440   3.0274 H              1 S1                 0.0000
     40 ****        -0.7417  -0.3881   1.1140 H              1 S1                 0.0000
     41 ****        -2.3051   0.1000   0.5094 H              1 S1                 0.0000
     42 ****         0.3775   1.5035  -1.8450 LP             1 S1                 0.0000
     43 ****        -1.0678   0.5583  -1.7122 LP             1 S1                 0.0000
     44 ****         2.4098   0.1605  -3.7741 LP             1 S1                 0.0000
     45 ****         2.9770   1.5678  -4.6093 LP             1 S1                 0.0000
@<TRIPOS>BOND
    1    1    2 2     
    2    2    3 1     
    3    2   15 am    
    4    3    4 1     
    5    3   23 1     
    6    3   24 1     
    7    4   13 am    
    8    4    5 1     
    9    5    6 2     
   10    5   25 1     
   11    6    7 1     
   12    6   11 1     
   13    7    8 1     
   14    7    9 1     
   15    7   10 1     
   16   11   12 2     
   17   11   26 1     
   18   12   13 1     
   19   12   27 1     
   20   13   14 2     
   21   15   16 1     
   22   15   28 1     
   23   16   17 1     
   24   16   29 1     
   25   16   30 1     
   26   17   22 1     
   27   17   18 1     
   28   17   31 1     
   29   18   19 1     
   30   18   32 1     
   31   18   33 1     
   32   19   20 1     
   33   19   34 1     
   34   19   35 1     
   35   20   21 1     
   36   20   36 1     
   37   20   37 1     
   38   21   22 1     
   39   21   38 1     
   40   21   39 1     
   41   22   40 1     
   42   22   41 1     
   43    1   42 1     
   44    1   43 1     
   45   14   44 1     
   46   14   45 1     
@<TRIPOS>SUBSTRUCTURE
      1 S1             1
@<TRIPOS>SET
LONE_PAIRS      STATIC     ATOMS    <user>   **** ""
4 42 43 44 45
DONOR_HYDROGENS      STATIC     ATOMS    <user>   **** ""
1 28
ATOM$BLUE        STATIC     ATOMS    COLORGROUP SYSTEM
4 42 43 44 45
ATOM$RED        STATIC     ATOMS    COLORGROUP SYSTEM
1 28
