AV-unprocessed.smi:1805|AV-procd|sdf|7297|dock2
  -GOLD-   22720 8553D 1   1.00000     0.00000
 Structure written by MMmdl.
 29 30  0  0  0  0  0  0  0  0  1 V2000
  150.9095  140.6272  155.4156 O   0  0  0  0  0  0  0  0  0  0  0  0
  150.0255  141.4562  155.6326 C   0  0  0  0  0  0  0  0  0  0  0  0
  150.1897  142.5298  156.4181 N   0  0  0  0  0  0  0  0  0  0  0  0
  151.4151  142.8661  157.1342 C   0  0  0  0  0  0  0  0  0  0  0  0
  151.2461  144.1457  157.9694 C   0  0  2  0  0  0  0  0  0  0  0  0
  152.4895  144.5264  158.7718 C   0  0  0  0  0  0  0  0  0  0  0  0
  151.9345  145.3213  159.9446 C   0  0  0  0  0  0  0  0  0  0  0  0
  150.4287  145.0474  159.9041 C   0  0  0  0  0  0  0  0  0  0  0  0
  150.2753  143.9724  158.9894 O   0  0  0  0  0  0  0  0  0  0  0  0
  148.7836  141.4113  155.1230 N   0  0  0  0  0  0  0  0  0  0  0  0
  148.2477  140.4350  154.2456 C   0  0  0  0  0  0  0  0  0  0  0  0
  147.0402  140.5828  153.5106 C   0  0  0  0  0  0  0  0  0  0  0  0
  146.7891  139.5113  152.7721 N   0  0  0  0  0  0  0  0  0  0  0  0
  147.8250  138.6809  153.0287 N   0  0  0  0  0  0  0  0  0  0  0  0
  148.7372  139.2011  153.9202 C   0  0  0  0  0  0  0  0  0  0  0  0
  147.8949  137.7725  152.5925 H   0  0  0  0  0  0  0  0  0  0  0  0
  149.4075  143.1564  156.5372 H   0  0  0  0  0  0  0  0  0  0  0  0
  151.7433  142.0344  157.7602 H   0  0  0  0  0  0  0  0  0  0  0  0
  152.1974  143.0189  156.3903 H   0  0  0  0  0  0  0  0  0  0  0  0
  150.9488  144.9811  157.3322 H   0  0  0  0  0  0  0  0  0  0  0  0
  152.9873  143.6301  159.1450 H   0  0  0  0  0  0  0  0  0  0  0  0
  153.2125  145.0896  158.1812 H   0  0  0  0  0  0  0  0  0  0  0  0
  152.3775  144.9850  160.8825 H   0  0  0  0  0  0  0  0  0  0  0  0
  152.1363  146.3881  159.8412 H   0  0  0  0  0  0  0  0  0  0  0  0
  150.0214  144.7934  160.8830 H   0  0  0  0  0  0  0  0  0  0  0  0
  149.8906  145.9180  159.5263 H   0  0  0  0  0  0  0  0  0  0  0  0
  148.1562  142.1568  155.3869 H   0  0  0  0  0  0  0  0  0  0  0  0
  146.3518  141.4149  153.4885 H   0  0  0  0  0  0  0  0  0  0  0  0
  149.6197  138.6596  154.2269 H   0  0  0  0  0  0  0  0  0  0  0  0
  1  2  2  0  0  0  0
  2  3  1  0  0  0  0
  2 10  1  0  0  0  0
  3  4  1  0  0  0  0
  3 17  1  0  0  0  0
  4  5  1  0  0  0  0
  4 18  1  0  0  0  0
  4 19  1  0  0  0  0
  5  9  1  0  0  0  0
  5  6  1  0  0  0  0
  5 20  1  0  0  0  0
  6  7  1  0  0  0  0
  6 21  1  0  0  0  0
  6 22  1  0  0  0  0
  7  8  1  0  0  0  0
  7 23  1  0  0  0  0
  7 24  1  0  0  0  0
  8  9  1  0  0  0  0
  8 25  1  0  0  0  0
  8 26  1  0  0  0  0
 10 11  1  0  0  0  0
 10 27  1  0  0  0  0
 11 15  2  0  0  0  0
 11 12  1  0  0  0  0
 12 13  2  0  0  0  0
 12 28  1  0  0  0  0
 13 14  1  0  0  0  0
 14 16  1  0  0  0  0
 14 15  1  0  0  0  0
 15 29  1  0  0  0  0
M  END
> <s_m_source_file>
AV-unprocessed.smi

> <i_m_source_file_index>
1805

> <i_lp_mmshare_version>
43012

> <i_f3d_flags>
0

> <s_epik_input>
W2NIXTFbbkhdbltjSF1jMVtOSF1DKD1PKVtOSF1bQ0gyXVtDQEBIXTJbQ0gyXVtDSDJdW0NIMl1PMg==

> <s_epik_cmdline>
J2VwaWtfcHl0aG9uJywgJy1waCcsICc3LjAnLCAnLXRuJywgJzgnLCAnLW1hJywgJzIwMCcsICctbWV0YWxfYmluZGluZycsICctaW1hZScsICc8aW5maWxlLm1hZT4nLCAnLW9tYWUnLCAnPG91dGZpbGUubWFlPic=

> <r_lp_tautomer_probability>
1

> <r_epik_Ionization_Penalty>
4.81496e-05

> <r_epik_Ionization_Penalty_Charging>
0

> <r_epik_Ionization_Penalty_Neutral>
4.81496e-05

> <r_epik_State_Penalty>
-0

> <r_epik_Charging_Adjusted_Penalty>
0

> <i_epik_Tot_Q>
0

> <i_epik_Tot_abs_Q>
0

> <r_epik_Metal_State_Penalty>
-0

> <b_epik_Metal_Only>
0

> <s_lp_Force_Field>
OPLS_2005

> <r_lp_Energy>
19.369

> <b_lp_Chiralities_Consistent>
1

> <s_lp_Variant>
AV-unprocessed.smi:1805-1

> <Gold.Version>
5.8.1

> <Gold.Id.Protein>
6NUR|6NUR_protein|mol2

> <Gold.PLP.Fitness>
40.7253

> <Gold.PLP.PLP>
-32.7323

> <Gold.PLP.part.hbond>
-4.2761

> <Gold.PLP.part.metal>
0.0000

> <Gold.PLP.part.buried>
-4.2686

> <Gold.PLP.part.nonpolar>
-26.0755

> <Gold.PLP.part.repulsive>
1.4543

> <Gold.PLP.ligand.clash>
0.0000

> <Gold.PLP.ligand.torsion>
0.0508

> <Gold.PLP.Chemscore.Hbond>
2.6954

> <Gold.PLP.Chemscore.CHOScore>
0.0000

> <Gold.PLP.Chemscore.Metal>
0.0000

> <Gold.Chemscore.Hbonds>
donor molecule, donor type, donor heavy atom, donor atom, acceptor molecule, acceptor atom, score
      L1  H     3    17       P1  8028  0.67
      L1  H    14    16       P1  7948  1.00
      P1  H  7989  7998       L1     1  0.83

> <Gold.PLP.Chemscore.Internal.Correction>
0.0085

> <Gold.Rescore>
     Score         DG    S(hbond)    S(metal)    S(lipo)     H(rot)  DE(clash)    DE(int)     intcor
     16.31     -17.73       1.98        0.00      77.13       1.33       0.31       1.11       ----

> <Gold.Chemscore.Fitness>
16.3113

> <Gold.Chemscore.DG>
-17.7266

> <Gold.Chemscore.ZeroCoef>
-5.4800

> <Gold.Chemscore.Hbond>
1.9845

> <Gold.Chemscore.Metal>
0.0000

> <Gold.Chemscore.Lipo>
77.1329

> <Gold.Chemscore.Internal_Hbond>
0.0000

> <Gold.Chemscore.DEClash>
0.3097

> <Gold.Chemscore.DEInternal>
1.1056

> <Gold.Chemscore.Rot>
1.3306

> <Gold.Chemscore.Internal.Correction>
   9.000000E+99

> <Gold.Chemscore.Hbonds>
donor molecule, donor type, donor heavy atom, donor atom, acceptor molecule, acceptor atom, score
      L1  H     3    17       P1  8028  0.66
      L1  H    14    16       P1  7948  0.93
      P1  H  7989  7998       L1     1  0.55

> <Gold.Chemscore.Hbond.Weighted>
-6.6283

> <Gold.Chemscore.Metal.Weighted>
-0.0000

> <Gold.Chemscore.Lipo.Weighted>
-9.0245

> <Gold.Chemscore.Internal_Hbond.Weighted>
0.0000

> <Gold.Chemscore.DEClash.Weighted>
0.3097

> <Gold.Chemscore.DEInternal.Weighted>
1.1056

> <Gold.Chemscore.Rot.Weighted>
3.4063

> <Gold.Chemscore.Internal.Correction.Weighted>
   9.000000E+99

> <Gold.Protein.RotatedTorsions>
[ 6907 6896 6895 6894 ] final -126.39 input  -60.11 | X-H torsion
[ 7974 7965 7964 7962 ] final  135.27 input  175.53 | X-H torsion
[ 8008 7997 7996 7995 ] final -110.58 input   59.86 | X-H torsion
[ 10167 10162 10161 10158 ] final  -74.51 input  -65.29 | X-H torsion
[ 10718 10713 10712 10709 ] final  -25.30 input   66.30 | X-H torsion
[ 10763 10752 10751 10750 ] final  -61.19 input  -60.55 | X-H torsion
[ 11005 11000 10999 10996 ] final  157.70 input  -57.11 | X-H torsion

> <Gold.Protein.ActiveResidues>
 VAL166  LYS551  ARG553  GLY616  TRP617  ASP618  TYR619  PRO620  LYS621  CYS622 
 ASP623  PHE694  ASN695  SER759  ASP760  ASP761  ALA762  ILE779  LEU786  VAL792 
 PHE793  MET794  SER795  GLU796  ALA797  LYS798  CYS799  TRP800  GLU811  SER814 

> <Gold.Protein.RotatedAtoms>
  150.8964  133.7175  159.2890 H   0  0  0  0  0  0  0  0  0  0  0  0  # atno 6907 bound_to 6896
  151.4708  135.1044  159.9760 H   0  0  0  0  0  0  0  0  0  0  0  0  # atno 6908 bound_to 6896
  152.4851  133.8304  159.7156 H   0  0  0  0  0  0  0  0  0  0  0  0  # atno 6909 bound_to 6896
  144.9680  139.4636  143.5447 H   0  0  0  0  0  0  0  0  0  0  0  0  # atno 7974 bound_to 7965
  154.9767  140.0397  157.2259 H   0  0  0  0  0  0  0  0  0  0  0  0  # atno 8008 bound_to 7997
  154.7751  140.2809  155.6084 H   0  0  0  0  0  0  0  0  0  0  0  0  # atno 8009 bound_to 7997
  156.2927  140.2602  156.2564 H   0  0  0  0  0  0  0  0  0  0  0  0  # atno 8010 bound_to 7997
  140.5020  143.2359  151.7736 H   0  0  0  0  0  0  0  0  0  0  0  0  # atno 10167 bound_to 10162
  156.4662  130.4514  149.6898 H   0  0  0  0  0  0  0  0  0  0  0  0  # atno 10718 bound_to 10713
  154.2808  135.6272  153.5346 H   0  0  0  0  0  0  0  0  0  0  0  0  # atno 10763 bound_to 10752
  152.9866  135.5632  154.5498 H   0  0  0  0  0  0  0  0  0  0  0  0  # atno 10764 bound_to 10752
  154.5088  135.2876  155.1335 H   0  0  0  0  0  0  0  0  0  0  0  0  # atno 10765 bound_to 10752
  140.1794  134.8486  157.2785 H   0  0  0  0  0  0  0  0  0  0  0  0  # atno 11005 bound_to 11000
  146.3373  139.8874  142.8814 LP  0  0  0  0  0  0  0  0  0  0  0  0  # atno 17320 bound_to 7965
  145.2601  141.0074  143.3831 LP  0  0  0  0  0  0  0  0  0  0  0  0  # atno 17321 bound_to 7965
  139.4874  144.4508  151.9656 LP  0  0  0  0  0  0  0  0  0  0  0  0  # atno 17342 bound_to 10162
  140.3598  144.2987  150.5935 LP  0  0  0  0  0  0  0  0  0  0  0  0  # atno 17343 bound_to 10162
  156.3666  130.7509  151.2487 LP  0  0  0  0  0  0  0  0  0  0  0  0  # atno 17370 bound_to 10713
  157.7494  131.0335  150.4275 LP  0  0  0  0  0  0  0  0  0  0  0  0  # atno 17371 bound_to 10713
  140.2285  134.3938  155.7533 LP  0  0  0  0  0  0  0  0  0  0  0  0  # atno 17394 bound_to 11000
  141.2222  133.7202  156.8603 LP  0  0  0  0  0  0  0  0  0  0  0  0  # atno 17395 bound_to 11000

$$$$
