AV-unprocessed.smi:2618|AV-procd|sdf|10221|dock7
  -GOLD-   2272014223D 1   1.00000     0.00000
 Structure written by MMmdl.
 38 39  0  0  0  0  0  0  0  0  2 V2000
  154.3788  136.8059  163.6878 C   0  0  0  0  0  0  0  0  0  0  0  0
  154.1314  137.5027  162.4792 O   0  0  0  0  0  0  0  0  0  0  0  0
  154.9881  137.0863  161.4286 C   0  0  0  0  0  0  0  0  0  0  0  0
  154.1298  136.6935  160.2133 C   0  0  0  0  0  0  0  0  0  0  0  0
  153.5106  137.8701  159.5001 C   0  0  0  0  0  0  0  0  0  0  0  0
  153.5090  139.0721  159.9481 N   0  0  0  0  0  0  0  0  0  0  0  0
  152.8915  139.9068  159.1098 N   0  0  0  0  0  0  0  0  0  0  0  0
  152.7002  141.2664  159.4316 C   0  0  0  0  0  0  0  0  0  0  0  0
  152.2708  142.1240  158.4875 N   0  0  0  0  0  0  0  0  0  0  0  0
  152.1047  143.4177  158.8322 C   0  0  0  0  0  0  0  0  0  0  0  0
  151.6080  144.3488  157.7475 C   0  0  0  0  0  0  0  0  0  0  0  0
  152.3808  143.8803  160.1339 C   0  0  0  0  0  0  0  0  0  0  0  0
  152.8359  142.9097  161.0481 C   0  0  0  0  0  0  0  0  0  0  0  0
  153.1785  143.2673  162.4783 C   0  0  0  0  0  0  0  0  0  0  0  0
  152.9923  141.6161  160.6952 N   0  0  0  0  0  0  0  0  0  0  0  0
  152.3807  139.1848  157.9234 C   0  0  2  0  0  0  0  0  0  0  0  0
  152.9603  139.6011  156.8196 O   0  5  0  0  0  0  0  0  0  0  0  0
  150.8355  139.2883  157.7853 C   0  0  0  0  0  0  0  0  0  0  0  0
  150.4162  138.5431  156.7607 F   0  0  0  0  0  0  0  0  0  0  0  0
  150.2065  138.8684  158.8842 F   0  0  0  0  0  0  0  0  0  0  0  0
  150.4720  140.5518  157.5536 F   0  0  0  0  0  0  0  0  0  0  0  0
  152.8312  137.7403  158.1843 C   0  0  0  0  0  0  0  0  0  0  0  0
  153.6979  137.1605  164.4616 H   0  0  0  0  0  0  0  0  0  0  0  0
  155.3993  136.9706  164.0361 H   0  0  0  0  0  0  0  0  0  0  0  0
  154.2196  135.7339  163.5644 H   0  0  0  0  0  0  0  0  0  0  0  0
  155.6693  137.8982  161.1668 H   0  0  0  0  0  0  0  0  0  0  0  0
  155.5908  136.2388  161.7602 H   0  0  0  0  0  0  0  0  0  0  0  0
  154.7389  136.1295  159.5065 H   0  0  0  0  0  0  0  0  0  0  0  0
  153.3359  136.0207  160.5390 H   0  0  0  0  0  0  0  0  0  0  0  0
  151.3562  145.3284  158.1544 H   0  0  0  0  0  0  0  0  0  0  0  0
  150.7163  143.9383  157.2726 H   0  0  0  0  0  0  0  0  0  0  0  0
  152.3749  144.4806  156.9841 H   0  0  0  0  0  0  0  0  0  0  0  0
  152.2530  144.9158  160.4129 H   0  0  0  0  0  0  0  0  0  0  0  0
  152.9513  144.3129  162.6882 H   0  0  0  0  0  0  0  0  0  0  0  0
  154.2404  143.1041  162.6642 H   0  0  0  0  0  0  0  0  0  0  0  0
  152.6086  142.6484  163.1717 H   0  0  0  0  0  0  0  0  0  0  0  0
  153.5222  137.3482  157.4352 H   0  0  0  0  0  0  0  0  0  0  0  0
  151.9913  137.0491  158.2581 H   0  0  0  0  0  0  0  0  0  0  0  0
  1  2  1  0  0  0  0
  1 23  1  0  0  0  0
  1 24  1  0  0  0  0
  1 25  1  0  0  0  0
  2  3  1  0  0  0  0
  3  4  1  0  0  0  0
  3 26  1  0  0  0  0
  3 27  1  0  0  0  0
  4  5  1  0  0  0  0
  4 28  1  0  0  0  0
  4 29  1  0  0  0  0
  5 22  1  0  0  0  0
  5  6  2  0  0  0  0
  6  7  1  0  0  0  0
  7  8  1  0  0  0  0
  7 16  1  0  0  0  0
  8 15  1  0  0  0  0
  8  9  2  0  0  0  0
  9 10  1  0  0  0  0
 10 11  1  0  0  0  0
 10 12  2  0  0  0  0
 11 30  1  0  0  0  0
 11 31  1  0  0  0  0
 11 32  1  0  0  0  0
 12 13  1  0  0  0  0
 12 33  1  0  0  0  0
 13 14  1  0  0  0  0
 13 15  2  0  0  0  0
 14 34  1  0  0  0  0
 14 35  1  0  0  0  0
 14 36  1  0  0  0  0
 16 17  1  0  0  0  0
 16 18  1  0  0  0  0
 16 22  1  0  0  0  0
 18 19  1  0  0  0  0
 18 20  1  0  0  0  0
 18 21  1  0  0  0  0
 22 37  1  0  0  0  0
 22 38  1  0  0  0  0
M  CHG  1  17  -1
M  END
> <s_m_source_file>
AV-unprocessed.smi

> <i_m_source_file_index>
2618

> <i_lp_mmshare_version>
43012

> <i_f3d_flags>
0

> <s_epik_input>
W0NIM11PW0NIMl1bQ0gyXUMoW0NIMl0xKT1OTihbQ0BAXTEoW09IXSlDKEYpKEYpRiljMm5jKFtDSDNdKVtjSF1jKG4yKVtDSDNd

> <s_epik_cmdline>
J2VwaWtfcHl0aG9uJywgJy1waCcsICc3LjAnLCAnLXRuJywgJzgnLCAnLW1hJywgJzIwMCcsICctbWV0YWxfYmluZGluZycsICctaW1hZScsICc8aW5maWxlLm1hZT4nLCAnLW9tYWUnLCAnPG91dGZpbGUubWFlPic=

> <r_lp_tautomer_probability>
1

> <r_epik_Ionization_Penalty>
1.35617

> <r_epik_Ionization_Penalty_Charging>
1.35566

> <r_epik_Ionization_Penalty_Neutral>
0.000506926

> <r_epik_State_Penalty>
1.43411

> <r_epik_Charging_Adjusted_Penalty>
2.78977

> <i_epik_Tot_Q>
-1

> <i_epik_Tot_abs_Q>
1

> <r_epik_Metal_State_Penalty>
1.43499

> <b_epik_Metal_Only>
0

> <s_epik_Chemistry_Notes>
This compound has an imine and may undergo hydrolysis.

> <s_lp_Force_Field>
OPLS_2005

> <r_lp_Energy>
21.8368

> <b_lp_Chiralities_Consistent>
1

> <s_lp_Variant>
AV-unprocessed.smi:2618-4

> <Gold.Version>
5.8.1

> <Gold.Id.Protein>
6NUR|6NUR_protein|mol2

> <Gold.PLP.Fitness>
44.1206

> <Gold.PLP.PLP>
-39.1691

> <Gold.PLP.part.hbond>
-0.9021

> <Gold.PLP.part.metal>
0.0000

> <Gold.PLP.part.buried>
-6.0546

> <Gold.PLP.part.nonpolar>
-33.0178

> <Gold.PLP.part.repulsive>
0.0000

> <Gold.PLP.ligand.clash>
0.0000

> <Gold.PLP.ligand.torsion>
0.5940

> <Gold.PLP.Chemscore.Hbond>
2.0000

> <Gold.PLP.Chemscore.CHOScore>
0.0000

> <Gold.PLP.Chemscore.Metal>
0.0000

> <Gold.Chemscore.Hbonds>
donor molecule, donor type, donor heavy atom, donor atom, acceptor molecule, acceptor atom, score
      P1  H  7997  8008       L1    17  2.00

> <Gold.PLP.Chemscore.Internal.Correction>
0.1394

> <Gold.Rescore>
     Score         DG    S(hbond)    S(metal)    S(lipo)     H(rot)  DE(clash)    DE(int)     intcor
     13.77     -16.17       0.99        0.00      95.22       1.47       0.05       2.34       ----

> <Gold.Chemscore.Fitness>
13.7691

> <Gold.Chemscore.DG>
-16.1675

> <Gold.Chemscore.ZeroCoef>
-5.4800

> <Gold.Chemscore.Hbond>
0.9944

> <Gold.Chemscore.Metal>
0.0000

> <Gold.Chemscore.Lipo>
95.2151

> <Gold.Chemscore.Internal_Hbond>
0.0000

> <Gold.Chemscore.DEClash>
0.0543

> <Gold.Chemscore.DEInternal>
2.3442

> <Gold.Chemscore.Rot>
1.4742

> <Gold.Chemscore.Internal.Correction>
   9.000000E+99

> <Gold.Chemscore.Hbonds>
donor molecule, donor type, donor heavy atom, donor atom, acceptor molecule, acceptor atom, score
      P1  H  7997  8008       L1    17  0.94

> <Gold.Chemscore.Hbond.Weighted>
-3.3214

> <Gold.Chemscore.Metal.Weighted>
-0.0000

> <Gold.Chemscore.Lipo.Weighted>
-11.1402

> <Gold.Chemscore.Internal_Hbond.Weighted>
0.0000

> <Gold.Chemscore.DEClash.Weighted>
0.0543

> <Gold.Chemscore.DEInternal.Weighted>
2.3442

> <Gold.Chemscore.Rot.Weighted>
3.7740

> <Gold.Chemscore.Internal.Correction.Weighted>
   9.000000E+99

> <Gold.Protein.RotatedTorsions>
[ 6907 6896 6895 6894 ] final -142.66 input  -60.11 | X-H torsion
[ 7974 7965 7964 7962 ] final -122.74 input  175.53 | X-H torsion
[ 8008 7997 7996 7995 ] final  -43.50 input   59.86 | X-H torsion
[ 10167 10162 10161 10158 ] final -120.72 input  -65.29 | X-H torsion
[ 10718 10713 10712 10709 ] final  -14.47 input   66.30 | X-H torsion
[ 10763 10752 10751 10750 ] final   19.07 input  -60.55 | X-H torsion
[ 11005 11000 10999 10996 ] final  -63.86 input  -57.11 | X-H torsion

> <Gold.Protein.ActiveResidues>
 VAL166  LYS551  ARG553  GLY616  TRP617  ASP618  TYR619  PRO620  LYS621  CYS622 
 ASP623  PHE694  ASN695  SER759  ASP760  ASP761  ALA762  ILE779  LEU786  VAL792 
 PHE793  MET794  SER795  GLU796  ALA797  LYS798  CYS799  TRP800  GLU811  SER814 

> <Gold.Protein.RotatedAtoms>
  151.0900  133.5323  159.2615 H   0  0  0  0  0  0  0  0  0  0  0  0  # atno 6907 bound_to 6896
  151.2194  135.0512  159.8953 H   0  0  0  0  0  0  0  0  0  0  0  0  # atno 6908 bound_to 6896
  152.5433  134.0705  159.8245 H   0  0  0  0  0  0  0  0  0  0  0  0  # atno 6909 bound_to 6896
  145.0262  140.8030  143.4351 H   0  0  0  0  0  0  0  0  0  0  0  0  # atno 7974 bound_to 7965
  154.3997  140.1446  156.3529 H   0  0  0  0  0  0  0  0  0  0  0  0  # atno 8008 bound_to 7997
  155.8253  140.3468  155.5518 H   0  0  0  0  0  0  0  0  0  0  0  0  # atno 8009 bound_to 7997
  155.8245  140.0903  157.1819 H   0  0  0  0  0  0  0  0  0  0  0  0  # atno 8010 bound_to 7997
  140.0328  143.5231  152.2168 H   0  0  0  0  0  0  0  0  0  0  0  0  # atno 10167 bound_to 10162
  156.6154  130.4861  149.6185 H   0  0  0  0  0  0  0  0  0  0  0  0  # atno 10718 bound_to 10713
  153.1194  135.6715  153.9361 H   0  0  0  0  0  0  0  0  0  0  0  0  # atno 10763 bound_to 10752
  153.8881  135.3050  155.3448 H   0  0  0  0  0  0  0  0  0  0  0  0  # atno 10764 bound_to 10752
  154.7607  135.4989  153.9538 H   0  0  0  0  0  0  0  0  0  0  0  0  # atno 10765 bound_to 10752
  141.1406  133.6657  156.5744 H   0  0  0  0  0  0  0  0  0  0  0  0  # atno 11005 bound_to 11000
  145.1830  139.2341  143.5282 LP  0  0  0  0  0  0  0  0  0  0  0  0  # atno 17320 bound_to 7965
  146.3492  140.1609  142.8591 LP  0  0  0  0  0  0  0  0  0  0  0  0  # atno 17321 bound_to 7965
  139.6065  144.7597  151.3051 LP  0  0  0  0  0  0  0  0  0  0  0  0  # atno 17342 bound_to 10162
  140.7294  143.6907  150.7924 LP  0  0  0  0  0  0  0  0  0  0  0  0  # atno 17343 bound_to 10162
  156.2355  130.6820  151.1505 LP  0  0  0  0  0  0  0  0  0  0  0  0  # atno 17370 bound_to 10713
  157.7242  131.0661  150.6003 LP  0  0  0  0  0  0  0  0  0  0  0  0  # atno 17371 bound_to 10713
  140.3887  134.7459  157.4708 LP  0  0  0  0  0  0  0  0  0  0  0  0  # atno 17394 bound_to 11000
  140.0582  134.6033  155.8780 LP  0  0  0  0  0  0  0  0  0  0  0  0  # atno 17395 bound_to 11000

$$$$
