#       Name:                AV-unprocessed.smi:1673
#       Creating user name   scv26
#       Creation time:       Fri Mar 27 07:45:38 2020


#       File generated by GOLD software.
#

@<TRIPOS>MOLECULE
AV-unprocessed.smi:1673
    44    45     1
SMALL
NO_CHARGES


@<TRIPOS>ATOM
      1 ****        -3.5554  -2.1223   0.1391 C.3            1 S1                 0.0000
      2 ****        -3.9518  -0.7808   0.6905 C.2            1 S1                 0.0000
      3 ****        -5.2248  -0.5548   0.9799 N.2            1 S1                 0.0000
      4 ****        -5.2900   0.7319   1.5367 O.3            1 S1                 0.0000
      5 ****        -4.0389   1.2605   1.5699 C.2            1 S1                 0.0000
      6 ****        -3.8953   2.6264   2.1511 C.3            1 S1                 0.0000
      7 ****        -3.1690   0.3638   1.0233 C.2            1 S1                 0.0000
      8 ****        -1.7698   0.5610   0.9129 N.am           1 S1                 0.0000
      9 ****        -0.9764   0.1432  -0.0849 C.2            1 S1                 0.0000
     10 ****        -1.3671  -0.4469  -1.0917 O.2            1 S1                 0.0000
     11 ****         0.3049   0.4661   0.1433 N.am           1 S1                 0.0000
     12 ****         1.4325   0.1735  -0.7409 C.3            1 S1                 0.0000
     13 ****         2.2355   1.4704  -0.9625 C.3            1 S1                 0.0000
     14 ****         3.4736   1.2306  -1.8383 C.3            1 S1                 0.0000
     15 ****         4.3644   0.1335  -1.2406 C.3            1 S1                 0.0000
     16 ****         3.5727  -1.1665  -1.0334 C.3            1 S1                 0.0000
     17 ****         2.3269  -0.9480  -0.1506 C.3            1 S1                 0.0000
     18 ****         1.5713  -2.2744   0.0482 C.3            1 S1                 0.0000
     19 ****        -2.5603  -2.4102   0.4784 H              1 S1                 0.0000
     20 ****        -3.5503  -2.1117  -0.9508 H              1 S1                 0.0000
     21 ****        -4.2449  -2.9044   0.4583 H              1 S1                 0.0000
     22 ****        -2.8465   2.9137   2.2253 H              1 S1                 0.0000
     23 ****        -4.3276   2.6676   3.1509 H              1 S1                 0.0000
     24 ****        -4.4044   3.3644   1.5311 H              1 S1                 0.0000
     25 ****        -1.3467   1.1459   1.6184 H              1 S1                 0.0000
     26 ****         0.5215   0.9543   0.9998 H              1 S1                 0.0000
     27 ****         1.0669  -0.1570  -1.7152 H              1 S1                 0.0000
     28 ****         1.6016   2.2265  -1.4275 H              1 S1                 0.0000
     29 ****         2.5495   1.8804  -0.0013 H              1 S1                 0.0000
     30 ****         3.1619   0.9437  -2.8435 H              1 S1                 0.0000
     31 ****         4.0414   2.1557  -1.9419 H              1 S1                 0.0000
     32 ****         5.2172  -0.0501  -1.8947 H              1 S1                 0.0000
     33 ****         4.7724   0.4708  -0.2869 H              1 S1                 0.0000
     34 ****         3.2703  -1.5641  -2.0035 H              1 S1                 0.0000
     35 ****         4.2223  -1.9178  -0.5829 H              1 S1                 0.0000
     36 ****         2.6740  -0.6214   0.8311 H              1 S1                 0.0000
     37 ****         1.1558  -2.6367  -0.8927 H              1 S1                 0.0000
     38 ****         0.7496  -2.1689   0.7566 H              1 S1                 0.0000
     39 ****         2.2335  -3.0475   0.4387 H              1 S1                 0.0000
     40 ****        -5.9909  -1.1800   0.8305 LP             1 S1                 0.0000
     41 ****        -5.6563   0.6776   2.4656 LP             1 S1                 0.0000
     42 ****        -5.8841   1.3101   0.9774 LP             1 S1                 0.0000
     43 ****        -2.3400  -0.6465  -1.2083 LP             1 S1                 0.0000
     44 ****        -0.7117  -0.7268  -1.7932 LP             1 S1                 0.0000
@<TRIPOS>BOND
    1    1    2 1     
    2    1   19 1     
    3    1   20 1     
    4    1   21 1     
    5    2    7 1     
    6    2    3 2     
    7    3    4 1     
    8    4    5 1     
    9    5    6 1     
   10    5    7 2     
   11    6   22 1     
   12    6   23 1     
   13    6   24 1     
   14    7    8 1     
   15    8    9 am    
   16    8   25 1     
   17    9   10 2     
   18    9   11 am    
   19   11   12 1     
   20   11   26 1     
   21   12   17 1     
   22   12   13 1     
   23   12   27 1     
   24   13   14 1     
   25   13   28 1     
   26   13   29 1     
   27   14   15 1     
   28   14   30 1     
   29   14   31 1     
   30   15   16 1     
   31   15   32 1     
   32   15   33 1     
   33   16   17 1     
   34   16   34 1     
   35   16   35 1     
   36   17   18 1     
   37   17   36 1     
   38   18   37 1     
   39   18   38 1     
   40   18   39 1     
   41    3   40 1     
   42    4   41 1     
   43    4   42 1     
   44   10   43 1     
   45   10   44 1     
@<TRIPOS>SUBSTRUCTURE
      1 S1             1
@<TRIPOS>SET
LONE_PAIRS      STATIC     ATOMS    <user>   **** ""
5 40 41 42 43 44
DONOR_HYDROGENS      STATIC     ATOMS    <user>   **** ""
2 25 26
ATOM$BLUE        STATIC     ATOMS    COLORGROUP SYSTEM
5 40 41 42 43 44
ATOM$RED        STATIC     ATOMS    COLORGROUP SYSTEM
2 25 26
