AV-unprocessed.smi:1072|AV-procd|sdf|4683|dock5
  -GOLD-   22720 3203D 1   1.00000     0.00000
 Structure written by MMmdl.
 46 47  0  0  0  0  0  0  0  0  1 V2000
  151.7981  145.5071  159.6288 C   0  0  0  0  0  0  0  0  0  0  0  0
  151.8171  143.9982  159.5059 C   0  0  0  0  0  0  0  0  0  0  0  0
  152.6601  143.2360  160.1213 N   0  0  0  0  0  0  0  0  0  0  0  0
  152.5780  141.8496  159.9311 C   0  0  0  0  0  0  0  0  0  0  0  0
  153.5985  141.0216  160.6932 C   0  0  0  0  0  0  0  0  0  0  0  0
  151.6358  141.2935  159.1141 C   0  0  0  0  0  0  0  0  0  0  0  0
  151.5198  139.7862  158.8918 C   0  0  0  0  0  0  0  0  0  0  0  0
  151.5760  139.3233  157.4340 C   0  0  0  0  0  0  0  0  0  0  0  0
  152.6398  139.3586  156.8159 O   0  0  0  0  0  0  0  0  0  0  0  0
  150.4127  138.9044  156.9061 N   0  0  0  0  0  0  0  0  0  0  0  0
  150.1391  138.4418  155.5375 C   0  0  1  0  0  0  0  0  0  0  0  0
  150.9262  137.1425  155.2615 C   0  0  0  0  0  0  0  0  0  0  0  0
  148.6226  138.2160  155.2974 C   0  0  0  0  0  0  0  0  0  0  0  0
  147.8004  139.5121  155.4114 C   0  0  0  0  0  0  0  0  0  0  0  0
  148.3119  140.5899  154.4388 C   0  0  1  0  0  0  0  0  0  0  0  0
  147.4978  141.8857  154.5584 C   0  0  0  0  0  0  0  0  0  0  0  0
  149.8138  140.8429  154.6624 C   0  0  0  0  0  0  0  0  0  0  0  0
  150.6309  139.5402  154.5639 C   0  0  0  0  0  0  0  0  0  0  0  0
  150.6784  142.1735  158.4162 C   0  0  0  0  0  0  0  0  0  0  0  0
  149.7882  141.7794  157.6644 O   0  0  0  0  0  0  0  0  0  0  0  0
  150.8316  143.4946  158.6583 N   0  0  0  0  0  0  0  0  0  0  0  0
  150.1996  144.1380  158.2047 H   0  0  0  0  0  0  0  0  0  0  0  0
  151.6194  145.7959  160.6647 H   0  0  0  0  0  0  0  0  0  0  0  0
  151.0181  145.9526  159.0103 H   0  0  0  0  0  0  0  0  0  0  0  0
  152.7574  145.9210  159.3182 H   0  0  0  0  0  0  0  0  0  0  0  0
  154.2526  140.4903  160.0019 H   0  0  0  0  0  0  0  0  0  0  0  0
  153.1030  140.2922  161.3341 H   0  0  0  0  0  0  0  0  0  0  0  0
  154.2234  141.6503  161.3285 H   0  0  0  0  0  0  0  0  0  0  0  0
  152.2933  139.2536  159.4459 H   0  0  0  0  0  0  0  0  0  0  0  0
  150.5809  139.4484  159.3320 H   0  0  0  0  0  0  0  0  0  0  0  0
  149.6125  138.9203  157.5214 H   0  0  0  0  0  0  0  0  0  0  0  0
  150.8132  136.8265  154.2241 H   0  0  0  0  0  0  0  0  0  0  0  0
  150.5847  136.3157  155.8843 H   0  0  0  0  0  0  0  0  0  0  0  0
  151.9924  137.2768  155.4480 H   0  0  0  0  0  0  0  0  0  0  0  0
  148.4772  137.8014  154.2989 H   0  0  0  0  0  0  0  0  0  0  0  0
  148.2221  137.4678  155.9809 H   0  0  0  0  0  0  0  0  0  0  0  0
  146.7517  139.2948  155.2057 H   0  0  0  0  0  0  0  0  0  0  0  0
  147.8386  139.8859  156.4354 H   0  0  0  0  0  0  0  0  0  0  0  0
  148.1830  140.2137  153.4229 H   0  0  0  0  0  0  0  0  0  0  0  0
  147.5766  142.3123  155.5588 H   0  0  0  0  0  0  0  0  0  0  0  0
  146.4418  141.7052  154.3556 H   0  0  0  0  0  0  0  0  0  0  0  0
  147.8462  142.6357  153.8479 H   0  0  0  0  0  0  0  0  0  0  0  0
  150.1825  141.5574  153.9256 H   0  0  0  0  0  0  0  0  0  0  0  0
  149.9691  141.3060  155.6378 H   0  0  0  0  0  0  0  0  0  0  0  0
  151.6850  139.7574  154.7424 H   0  0  0  0  0  0  0  0  0  0  0  0
  150.5715  139.1705  153.5391 H   0  0  0  0  0  0  0  0  0  0  0  0
  1  2  1  0  0  0  0
  1 23  1  0  0  0  0
  1 24  1  0  0  0  0
  1 25  1  0  0  0  0
  2 21  1  0  0  0  0
  2  3  2  0  0  0  0
  3  4  1  0  0  0  0
  4  5  1  0  0  0  0
  4  6  2  0  0  0  0
  5 26  1  0  0  0  0
  5 27  1  0  0  0  0
  5 28  1  0  0  0  0
  6  7  1  0  0  0  0
  6 19  1  0  0  0  0
  7  8  1  0  0  0  0
  7 29  1  0  0  0  0
  7 30  1  0  0  0  0
  8  9  2  0  0  0  0
  8 10  1  0  0  0  0
 10 11  1  0  0  0  0
 10 31  1  0  0  0  0
 11 18  1  0  0  0  0
 11 12  1  0  0  0  0
 11 13  1  0  0  0  0
 12 32  1  0  0  0  0
 12 33  1  0  0  0  0
 12 34  1  0  0  0  0
 13 14  1  0  0  0  0
 13 35  1  0  0  0  0
 13 36  1  0  0  0  0
 14 15  1  0  0  0  0
 14 37  1  0  0  0  0
 14 38  1  0  0  0  0
 15 16  1  0  0  0  0
 15 17  1  0  0  0  0
 15 39  1  0  0  0  0
 16 40  1  0  0  0  0
 16 41  1  0  0  0  0
 16 42  1  0  0  0  0
 17 18  1  0  0  0  0
 17 43  1  0  0  0  0
 17 44  1  0  0  0  0
 18 45  1  0  0  0  0
 18 46  1  0  0  0  0
 19 20  2  0  0  0  0
 19 21  1  0  0  0  0
 21 22  1  0  0  0  0
M  END
> <s_m_source_file>
AV-unprocessed.smi

> <i_m_source_file_index>
1072

> <i_lp_mmshare_version>
43012

> <i_f3d_flags>
0

> <s_epik_input>
W0NIM11jMW5jKFtDSDNdKWMoYyg9TylbbkhdMSlbQ0gyXUMoPU8pW05IXVtDQEBdMihbQ0gzXSlbQ0gyXVtDSDJdW0NAQEhdKFtDSDNdKVtDSDJdW0NIMl0y

> <s_epik_cmdline>
J2VwaWtfcHl0aG9uJywgJy1waCcsICc3LjAnLCAnLXRuJywgJzgnLCAnLW1hJywgJzIwMCcsICctbWV0YWxfYmluZGluZycsICctaW1hZScsICc8aW5maWxlLm1hZT4nLCAnLW9tYWUnLCAnPG91dGZpbGUubWFlPic=

> <r_lp_tautomer_probability>
0.839158

> <r_epik_Ionization_Penalty>
0.000352328

> <r_epik_Ionization_Penalty_Charging>
0.000314696

> <r_epik_Ionization_Penalty_Neutral>
3.76315e-05

> <r_epik_State_Penalty>
0.09125

> <r_epik_Charging_Adjusted_Penalty>
0.0915647

> <i_epik_Tot_Q>
0

> <i_epik_Tot_abs_Q>
0

> <r_epik_Metal_State_Penalty>
0.245598

> <b_epik_Metal_Only>
0

> <s_lp_Force_Field>
OPLS_2005

> <r_lp_Energy>
11.0611

> <b_lp_Chiralities_Consistent>
1

> <s_lp_Variant>
AV-unprocessed.smi:1072-1

> <Gold.Version>
5.8.1

> <Gold.Id.Protein>
6NUR|6NUR_protein|mol2

> <Gold.PLP.Fitness>
39.6445

> <Gold.PLP.PLP>
-37.0641

> <Gold.PLP.part.hbond>
-1.0000

> <Gold.PLP.part.metal>
0.0000

> <Gold.PLP.part.buried>
-2.7574

> <Gold.PLP.part.nonpolar>
-33.6923

> <Gold.PLP.part.repulsive>
0.1361

> <Gold.PLP.ligand.clash>
0.0000

> <Gold.PLP.ligand.torsion>
0.2121

> <Gold.PLP.Chemscore.Hbond>
1.0000

> <Gold.PLP.Chemscore.CHOScore>
0.0000

> <Gold.PLP.Chemscore.Metal>
0.0000

> <Gold.Chemscore.Hbonds>
donor molecule, donor type, donor heavy atom, donor atom, acceptor molecule, acceptor atom, score
      P1  H  7997  8010       L1     9  1.00

> <Gold.PLP.Chemscore.Internal.Correction>
0.0048

> <Gold.Rescore>
     Score         DG    S(hbond)    S(metal)    S(lipo)     H(rot)  DE(clash)    DE(int)     intcor
     13.81     -14.94       1.00        0.00      84.47       1.47       0.01       1.12       ----

> <Gold.Chemscore.Fitness>
13.8130

> <Gold.Chemscore.DG>
-14.9417

> <Gold.Chemscore.ZeroCoef>
-5.4800

> <Gold.Chemscore.Hbond>
0.9999

> <Gold.Chemscore.Metal>
0.0000

> <Gold.Chemscore.Lipo>
84.4669

> <Gold.Chemscore.Internal_Hbond>
0.0000

> <Gold.Chemscore.DEClash>
0.0117

> <Gold.Chemscore.DEInternal>
1.1170

> <Gold.Chemscore.Rot>
1.4690

> <Gold.Chemscore.Internal.Correction>
   9.000000E+99

> <Gold.Chemscore.Hbonds>
donor molecule, donor type, donor heavy atom, donor atom, acceptor molecule, acceptor atom, score
      P1  H  7997  8010       L1     9  1.00

> <Gold.Chemscore.Hbond.Weighted>
-3.3397

> <Gold.Chemscore.Metal.Weighted>
-0.0000

> <Gold.Chemscore.Lipo.Weighted>
-9.8826

> <Gold.Chemscore.Internal_Hbond.Weighted>
0.0000

> <Gold.Chemscore.DEClash.Weighted>
0.0117

> <Gold.Chemscore.DEInternal.Weighted>
1.1170

> <Gold.Chemscore.Rot.Weighted>
3.7607

> <Gold.Chemscore.Internal.Correction.Weighted>
   9.000000E+99

> <Gold.Protein.RotatedTorsions>
[ 6907 6896 6895 6894 ] final -130.86 input  -60.11 | X-H torsion
[ 7974 7965 7964 7962 ] final  -57.77 input  175.53 | X-H torsion
[ 8008 7997 7996 7995 ] final   54.37 input   59.86 | X-H torsion
[ 10167 10162 10161 10158 ] final  103.32 input  -65.29 | X-H torsion
[ 10718 10713 10712 10709 ] final -173.40 input   66.30 | X-H torsion
[ 10763 10752 10751 10750 ] final  -70.29 input  -60.55 | X-H torsion
[ 11005 11000 10999 10996 ] final -172.64 input  -57.11 | X-H torsion

> <Gold.Protein.ActiveResidues>
 VAL166  LYS551  ARG553  GLY616  TRP617  ASP618  TYR619  PRO620  LYS621  CYS622 
 ASP623  PHE694  ASN695  SER759  ASP760  ASP761  ALA762  ILE779  LEU786  VAL792 
 PHE793  MET794  SER795  GLU796  ALA797  LYS798  CYS799  TRP800  GLU811  SER814 

> <Gold.Protein.RotatedAtoms>
  150.9444  133.6620  159.2784 H   0  0  0  0  0  0  0  0  0  0  0  0  # atno 6907 bound_to 6896
  151.3997  135.0968  159.9562 H   0  0  0  0  0  0  0  0  0  0  0  0  # atno 6908 bound_to 6896
  152.5083  133.8941  159.7463 H   0  0  0  0  0  0  0  0  0  0  0  0  # atno 6909 bound_to 6896
  145.8472  140.8377  143.0004 H   0  0  0  0  0  0  0  0  0  0  0  0  # atno 7974 bound_to 7965
  155.4836  140.3469  155.4343 H   0  0  0  0  0  0  0  0  0  0  0  0  # atno 8008 bound_to 7997
  156.1023  140.1439  156.9479 H   0  0  0  0  0  0  0  0  0  0  0  0  # atno 8009 bound_to 7997
  154.4702  140.0903  156.7102 H   0  0  0  0  0  0  0  0  0  0  0  0  # atno 8010 bound_to 7997
  139.7273  144.7044  151.0777 H   0  0  0  0  0  0  0  0  0  0  0  0  # atno 10167 bound_to 10162
  156.7698  130.9444  151.3119 H   0  0  0  0  0  0  0  0  0  0  0  0  # atno 10718 bound_to 10713
  154.4155  135.5999  153.5978 H   0  0  0  0  0  0  0  0  0  0  0  0  # atno 10763 bound_to 10752
  152.9792  135.5939  154.4018 H   0  0  0  0  0  0  0  0  0  0  0  0  # atno 10764 bound_to 10752
  154.3836  135.2841  155.2175 H   0  0  0  0  0  0  0  0  0  0  0  0  # atno 10765 bound_to 10752
  140.4947  134.5951  157.4967 H   0  0  0  0  0  0  0  0  0  0  0  0  # atno 11005 bound_to 11000
  144.6730  140.0899  143.7465 LP  0  0  0  0  0  0  0  0  0  0  0  0  # atno 17320 bound_to 7965
  145.9399  139.2662  143.1275 LP  0  0  0  0  0  0  0  0  0  0  0  0  # atno 17321 bound_to 7965
  140.7765  143.5088  150.9679 LP  0  0  0  0  0  0  0  0  0  0  0  0  # atno 17342 bound_to 10162
  139.8776  143.7113  152.3160 LP  0  0  0  0  0  0  0  0  0  0  0  0  # atno 17343 bound_to 10162
  157.6696  130.9039  150.0010 LP  0  0  0  0  0  0  0  0  0  0  0  0  # atno 17370 bound_to 10713
  156.1285  130.3644  149.9770 LP  0  0  0  0  0  0  0  0  0  0  0  0  # atno 17371 bound_to 10713
  139.9748  134.7233  155.9971 LP  0  0  0  0  0  0  0  0  0  0  0  0  # atno 17394 bound_to 11000
  141.1466  133.6555  156.3886 LP  0  0  0  0  0  0  0  0  0  0  0  0  # atno 17395 bound_to 11000

$$$$
