AV-unprocessed.smi:1033|AV-procd|sdf|4500|dock5
  -GOLD-   22720 2493D 1   1.00000     0.00000
 Structure written by MMmdl.
 57 59  0  0  0  0  0  0  0  0  3 V2000
  152.2424  144.1421  160.3444 C   0  0  0  0  0  0  0  0  0  0  0  0
  151.8864  143.1108  159.2871 C   0  0  0  0  0  0  0  0  0  0  0  0
  151.1018  143.5182  158.1847 C   0  0  0  0  0  0  0  0  0  0  0  0
  150.7913  142.5516  157.2355 C   0  0  0  0  0  0  0  0  0  0  0  0
  150.0481  142.6348  156.0563 N   0  3  0  0  0  0  0  0  0  0  0  0
  150.0182  141.4158  155.4506 C   0  0  0  0  0  0  0  0  0  0  0  0
  150.7296  140.5531  156.2268 N   0  0  0  0  0  0  0  0  0  0  0  0
  151.0134  139.1250  156.0221 C   0  0  0  0  0  0  0  0  0  0  0  0
  149.7409  138.2847  155.7963 C   0  0  2  0  0  0  0  0  0  0  0  0
  149.3687  138.3459  154.4332 O   0  0  0  0  0  0  0  0  0  0  0  0
  148.5650  138.7967  156.6524 C   0  0  0  0  0  0  0  0  0  0  0  0
  147.7654  137.6992  157.2541 N   0  3  0  0  0  0  0  0  0  0  0  0
  146.7596  138.2012  158.2261 C   0  0  0  0  0  0  0  0  0  0  0  0
  145.9093  137.0368  158.7752 C   0  0  0  0  0  0  0  0  0  0  0  0
  146.7080  135.9809  159.3967 N   0  0  0  0  0  0  0  0  0  0  0  0
  147.2797  136.3874  160.6889 C   0  0  0  0  0  0  0  0  0  0  0  0
  146.2851  136.6061  161.8515 C   0  0  1  0  0  0  0  0  0  0  0  0
  145.6363  135.3216  162.3906 C   0  0  0  0  0  0  0  0  0  0  0  0
  146.8925  137.3323  162.9004 O   0  0  0  0  0  0  0  0  0  0  0  0
  147.6836  135.5031  158.4139 C   0  0  0  0  0  0  0  0  0  0  0  0
  148.5902  136.6206  157.8617 C   0  0  0  0  0  0  0  0  0  0  0  0
  151.2332  141.2190  157.3515 C   0  0  0  0  0  0  0  0  0  0  0  0
  152.0073  140.8016  158.4321 C   0  0  0  0  0  0  0  0  0  0  0  0
  152.3333  141.7696  159.4090 C   0  0  0  0  0  0  0  0  0  0  0  0
  153.1750  141.3424  160.5996 C   0  0  0  0  0  0  0  0  0  0  0  0
  151.8047  145.1146  160.1167 H   0  0  0  0  0  0  0  0  0  0  0  0
  153.3234  144.2696  160.4062 H   0  0  0  0  0  0  0  0  0  0  0  0
  151.8733  143.8325  161.3223 H   0  0  0  0  0  0  0  0  0  0  0  0
  150.7584  144.5376  158.0850 H   0  0  0  0  0  0  0  0  0  0  0  0
  149.5216  141.1781  154.5205 H   0  0  0  0  0  0  0  0  0  0  0  0
  151.6623  139.0536  155.1480 H   0  0  0  0  0  0  0  0  0  0  0  0
  151.5967  138.7483  156.8629 H   0  0  0  0  0  0  0  0  0  0  0  0
  149.9675  137.2475  156.0404 H   0  0  0  0  0  0  0  0  0  0  0  0
  148.7891  137.6226  154.2469 H   0  0  0  0  0  0  0  0  0  0  0  0
  148.9260  139.4522  157.4463 H   0  0  0  0  0  0  0  0  0  0  0  0
  147.9215  139.4118  156.0207 H   0  0  0  0  0  0  0  0  0  0  0  0
  147.2584  138.7358  159.0354 H   0  0  0  0  0  0  0  0  0  0  0  0
  146.1042  138.9200  157.7332 H   0  0  0  0  0  0  0  0  0  0  0  0
  145.1769  137.4168  159.4883 H   0  0  0  0  0  0  0  0  0  0  0  0
  145.3294  136.6077  157.9568 H   0  0  0  0  0  0  0  0  0  0  0  0
  148.0647  135.7000  161.0035 H   0  0  0  0  0  0  0  0  0  0  0  0
  147.7844  137.3425  160.5367 H   0  0  0  0  0  0  0  0  0  0  0  0
  145.4861  137.2480  161.4791 H   0  0  0  0  0  0  0  0  0  0  0  0
  145.1489  134.7656  161.5893 H   0  0  0  0  0  0  0  0  0  0  0  0
  144.8781  135.5527  163.1396 H   0  0  0  0  0  0  0  0  0  0  0  0
  146.3678  134.6618  162.8577 H   0  0  0  0  0  0  0  0  0  0  0  0
  146.2137  137.7303  163.4237 H   0  0  0  0  0  0  0  0  0  0  0  0
  148.2898  134.7020  158.8336 H   0  0  0  0  0  0  0  0  0  0  0  0
  147.1472  135.0472  157.5804 H   0  0  0  0  0  0  0  0  0  0  0  0
  149.2578  136.1908  157.1161 H   0  0  0  0  0  0  0  0  0  0  0  0
  149.2244  137.0301  158.6489 H   0  0  0  0  0  0  0  0  0  0  0  0
  152.3459  139.7808  158.5299 H   0  0  0  0  0  0  0  0  0  0  0  0
  153.4561  140.2909  160.5335 H   0  0  0  0  0  0  0  0  0  0  0  0
  152.6216  141.4816  161.5286 H   0  0  0  0  0  0  0  0  0  0  0  0
  154.0927  141.9287  160.6510 H   0  0  0  0  0  0  0  0  0  0  0  0
  147.2406  137.2799  156.4992 H   0  0  0  0  0  0  0  0  0  0  0  0
  149.5968  143.4625  155.6878 H   0  0  0  0  0  0  0  0  0  0  0  0
  1  2  1  0  0  0  0
  1 26  1  0  0  0  0
  1 27  1  0  0  0  0
  1 28  1  0  0  0  0
  2 24  1  0  0  0  0
  2  3  2  0  0  0  0
  3  4  1  0  0  0  0
  3 29  1  0  0  0  0
  4 22  2  0  0  0  0
  4  5  1  0  0  0  0
  5  6  2  0  0  0  0
  5 57  1  0  0  0  0
  6  7  1  0  0  0  0
  6 30  1  0  0  0  0
  7  8  1  0  0  0  0
  7 22  1  0  0  0  0
  8  9  1  0  0  0  0
  8 31  1  0  0  0  0
  8 32  1  0  0  0  0
  9 10  1  0  0  0  0
  9 11  1  0  0  0  0
  9 33  1  0  0  0  0
 10 34  1  0  0  0  0
 11 12  1  0  0  0  0
 11 35  1  0  0  0  0
 11 36  1  0  0  0  0
 12 21  1  0  0  0  0
 12 13  1  0  0  0  0
 12 56  1  0  0  0  0
 13 14  1  0  0  0  0
 13 37  1  0  0  0  0
 13 38  1  0  0  0  0
 14 15  1  0  0  0  0
 14 39  1  0  0  0  0
 14 40  1  0  0  0  0
 15 16  1  0  0  0  0
 15 20  1  0  0  0  0
 16 17  1  0  0  0  0
 16 41  1  0  0  0  0
 16 42  1  0  0  0  0
 17 18  1  0  0  0  0
 17 19  1  0  0  0  0
 17 43  1  0  0  0  0
 18 44  1  0  0  0  0
 18 45  1  0  0  0  0
 18 46  1  0  0  0  0
 19 47  1  0  0  0  0
 20 21  1  0  0  0  0
 20 48  1  0  0  0  0
 20 49  1  0  0  0  0
 21 50  1  0  0  0  0
 21 51  1  0  0  0  0
 22 23  1  0  0  0  0
 23 24  2  0  0  0  0
 23 52  1  0  0  0  0
 24 25  1  0  0  0  0
 25 53  1  0  0  0  0
 25 54  1  0  0  0  0
 25 55  1  0  0  0  0
M  CHG  1   5   1
M  CHG  1  12   1
M  END
> <s_m_source_file>
AV-unprocessed.smi

> <i_m_source_file_index>
1033

> <i_lp_mmshare_version>
43012

> <i_f3d_flags>
0

> <s_epik_input>
W0NIM11jKFtjSF0xKWMoW0NIM10pW2NIXWMoYzEyKW4oW2NIXW4yKVtDSDJdW0NASF0oW09IXSlbQ0gyXU4zW0NIMl1bQ0gyXU4oW0NIMl1bQ0gyXTMpW0NIMl1bQ0BIXShbQ0gzXSlbT0hd

> <s_epik_cmdline>
J2VwaWtfcHl0aG9uJywgJy1waCcsICc3LjAnLCAnLXRuJywgJzgnLCAnLW1hJywgJzIwMCcsICctbWV0YWxfYmluZGluZycsICctaW1hZScsICc8aW5maWxlLm1hZT4nLCAnLW9tYWUnLCAnPG91dGZpbGUubWFlPic=

> <r_epik_Ionization_Penalty>
1.22049

> <r_epik_Ionization_Penalty_Charging>
1.17952

> <r_epik_Ionization_Penalty_Neutral>
0.0409743

> <r_epik_State_Penalty>
1.61468

> <r_epik_Charging_Adjusted_Penalty>
2.7942

> <i_epik_Tot_Q>
2

> <i_epik_Tot_abs_Q>
2

> <r_epik_Metal_State_Penalty>
5.63169

> <b_epik_Metal_Only>
0

> <s_lp_Force_Field>
OPLS_2005

> <r_lp_Energy>
46.6999

> <b_lp_Chiralities_Consistent>
1

> <s_lp_Variant>
AV-unprocessed.smi:1033-11

> <Gold.Version>
5.8.1

> <Gold.Id.Protein>
6NUR|6NUR_protein|mol2

> <Gold.PLP.Fitness>
52.5719

> <Gold.PLP.PLP>
-46.0706

> <Gold.PLP.part.hbond>
-2.5092

> <Gold.PLP.part.metal>
0.0000

> <Gold.PLP.part.buried>
-6.2014

> <Gold.PLP.part.nonpolar>
-37.0833

> <Gold.PLP.part.repulsive>
0.1593

> <Gold.PLP.ligand.clash>
0.0000

> <Gold.PLP.ligand.torsion>
1.0923

> <Gold.PLP.Chemscore.Hbond>
2.8480

> <Gold.PLP.Chemscore.CHOScore>
0.0000

> <Gold.PLP.Chemscore.Metal>
0.0000

> <Gold.Chemscore.Hbonds>
donor molecule, donor type, donor heavy atom, donor atom, acceptor molecule, acceptor atom, score
      L1  H     5    57       P1  8028  1.56

> <Gold.PLP.Chemscore.Internal.Correction>
0.1418

> <Gold.Rescore>
     Score         DG    S(hbond)    S(metal)    S(lipo)     H(rot)  DE(clash)    DE(int)     intcor
     14.25     -15.24       1.02        0.00     123.20       3.15       0.05       0.94       ----

> <Gold.Chemscore.Fitness>
14.2487

> <Gold.Chemscore.DG>
-15.2406

> <Gold.Chemscore.ZeroCoef>
-5.4800

> <Gold.Chemscore.Hbond>
1.0199

> <Gold.Chemscore.Metal>
0.0000

> <Gold.Chemscore.Lipo>
123.1957

> <Gold.Chemscore.Internal_Hbond>
0.0000

> <Gold.Chemscore.DEClash>
0.0489

> <Gold.Chemscore.DEInternal>
0.9430

> <Gold.Chemscore.Rot>
3.1483

> <Gold.Chemscore.Internal.Correction>
   9.000000E+99

> <Gold.Chemscore.Hbonds>
donor molecule, donor type, donor heavy atom, donor atom, acceptor molecule, acceptor atom, score
      L1  H     5    57       P1  8028  0.76

> <Gold.Chemscore.Hbond.Weighted>
-3.4064

> <Gold.Chemscore.Metal.Weighted>
-0.0000

> <Gold.Chemscore.Lipo.Weighted>
-14.4139

> <Gold.Chemscore.Internal_Hbond.Weighted>
0.0000

> <Gold.Chemscore.DEClash.Weighted>
0.0489

> <Gold.Chemscore.DEInternal.Weighted>
0.9430

> <Gold.Chemscore.Rot.Weighted>
8.0597

> <Gold.Chemscore.Internal.Correction.Weighted>
   9.000000E+99

> <Gold.Protein.RotatedTorsions>
[ 6907 6896 6895 6894 ] final -137.90 input  -60.11 | X-H torsion
[ 7974 7965 7964 7962 ] final   33.44 input  175.53 | X-H torsion
[ 8008 7997 7996 7995 ] final   25.55 input   59.86 | X-H torsion
[ 10167 10162 10161 10158 ] final   43.51 input  -65.29 | X-H torsion
[ 10718 10713 10712 10709 ] final -104.80 input   66.30 | X-H torsion
[ 10763 10752 10751 10750 ] final  -89.45 input  -60.55 | X-H torsion
[ 11005 11000 10999 10996 ] final  -43.45 input  -57.11 | X-H torsion

> <Gold.Protein.ActiveResidues>
 VAL166  LYS551  ARG553  GLY616  TRP617  ASP618  TYR619  PRO620  LYS621  CYS622 
 ASP623  PHE694  ASN695  SER759  ASP760  ASP761  ALA762  ILE779  LEU786  VAL792 
 PHE793  MET794  SER795  GLU796  ALA797  LYS798  CYS799  TRP800  GLU811  SER814 

> <Gold.Protein.RotatedAtoms>
  151.0283  133.5813  159.2663 H   0  0  0  0  0  0  0  0  0  0  0  0  # atno 6907 bound_to 6896
  151.2904  135.0739  159.9212 H   0  0  0  0  0  0  0  0  0  0  0  0  # atno 6908 bound_to 6896
  152.5339  133.9982  159.7936 H   0  0  0  0  0  0  0  0  0  0  0  0  # atno 6909 bound_to 6896
  146.1420  139.6396  142.9156 H   0  0  0  0  0  0  0  0  0  0  0  0  # atno 7974 bound_to 7965
  155.0135  140.3139  155.4821 H   0  0  0  0  0  0  0  0  0  0  0  0  # atno 8008 bound_to 7997
  156.2905  140.2210  156.5191 H   0  0  0  0  0  0  0  0  0  0  0  0  # atno 8009 bound_to 7997
  154.7514  140.0466  157.0884 H   0  0  0  0  0  0  0  0  0  0  0  0  # atno 8010 bound_to 7997
  140.3436  144.2439  150.6153 H   0  0  0  0  0  0  0  0  0  0  0  0  # atno 10167 bound_to 10162
  156.0319  130.5532  150.7448 H   0  0  0  0  0  0  0  0  0  0  0  0  # atno 10718 bound_to 10713
  154.6554  135.5340  153.7953 H   0  0  0  0  0  0  0  0  0  0  0  0  # atno 10763 bound_to 10752
  153.0410  135.6493  154.0953 H   0  0  0  0  0  0  0  0  0  0  0  0  # atno 10764 bound_to 10752
  154.0866  135.2943  155.3260 H   0  0  0  0  0  0  0  0  0  0  0  0  # atno 10765 bound_to 10752
  141.0384  133.6790  156.2735 H   0  0  0  0  0  0  0  0  0  0  0  0  # atno 11005 bound_to 11000
  145.5024  141.0437  143.2533 LP  0  0  0  0  0  0  0  0  0  0  0  0  # atno 17320 bound_to 7965
  144.7803  139.6540  143.7157 LP  0  0  0  0  0  0  0  0  0  0  0  0  # atno 17321 bound_to 7965
  140.5286  143.2248  151.8275 LP  0  0  0  0  0  0  0  0  0  0  0  0  # atno 17342 bound_to 10162
  139.4837  144.4749  151.9379 LP  0  0  0  0  0  0  0  0  0  0  0  0  # atno 17343 bound_to 10162
  157.5007  131.0918  151.0317 LP  0  0  0  0  0  0  0  0  0  0  0  0  # atno 17370 bound_to 10713
  157.0699  130.5860  149.5400 LP  0  0  0  0  0  0  0  0  0  0  0  0  # atno 17371 bound_to 10713
  140.6279  134.5294  157.5556 LP  0  0  0  0  0  0  0  0  0  0  0  0  # atno 17394 bound_to 11000
  139.9258  134.8059  156.1074 LP  0  0  0  0  0  0  0  0  0  0  0  0  # atno 17395 bound_to 11000

$$$$
