#       Name:                AV-unprocessed.smi:2237
#       Creating user name   scv26
#       Creation time:       Fri Mar 27 12:25:35 2020


#       File generated by GOLD software.
#

@<TRIPOS>MOLECULE
AV-unprocessed.smi:2237
    58    60     1
SMALL
NO_CHARGES


@<TRIPOS>ATOM
      1 ****        -5.5189   5.9063   1.4177 C.3            1 S1                 0.0000
      2 ****        -5.7148   4.6071   0.6649 C.ar           1 S1                 0.0000
      3 ****        -6.9951   4.2003   0.2406 C.ar           1 S1                 0.0000
      4 ****        -7.1079   2.9801  -0.4494 C.ar           1 S1                 0.0000
      5 ****        -5.9446   2.2229  -0.6863 C.ar           1 S1                 0.0000
      6 ****        -4.6975   2.7030  -0.2272 C.ar           1 S1                 0.0000
      7 ****        -3.5865   1.8674  -0.5182 N.am           1 S1                 0.0000
      8 ****        -2.2954   2.0600  -0.1955 C.2            1 S1                 0.0000
      9 ****        -1.8523   3.0196   0.4361 O.2            1 S1                 0.0000
     10 ****        -1.5262   1.0590  -0.6490 N.am           1 S1                 0.0000
     11 ****        -0.0794   0.9679  -0.4756 C.3            1 S1                 0.0000
     12 ****         0.5180   0.0537  -1.5595 C.3            1 S1                 0.0000
     13 ****         2.0266  -0.1513  -1.3313 C.3            1 S1                 0.0000
     14 ****         2.3067  -0.7413   0.0090 N.4            1 S1                 1.0000
     15 ****         1.9270  -2.1861   0.1913 C.3            1 S1                 0.0000
     16 ****         2.5853  -2.8176   1.4419 C.3            1 S1                 0.0000
     17 ****         4.1046  -3.0005   1.2655 C.3            1 S1                 0.0000
     18 ****         4.4081  -3.8348   0.0762 N.4            1 S1                 1.0000
     19 ****         5.8549  -4.1050  -0.0700 C.3            1 S1                 0.0000
     20 ****         3.8072  -3.2836  -1.1634 C.3            1 S1                 0.0000
     21 ****         2.2861  -3.1029  -1.0046 C.3            1 S1                 0.0000
     22 ****         1.7896   0.1746   1.0673 C.3            1 S1                 0.0000
     23 ****         0.2758   0.4370   0.9279 C.3            1 S1                 0.0000
     24 ****        -4.5990   3.8808   0.4383 N.ar           1 S1                 0.0000
     25 ****        -6.4404   6.4882   1.4492 H              1 S1                 0.0000
     26 ****        -4.7505   6.5133   0.9378 H              1 S1                 0.0000
     27 ****        -5.2069   5.7047   2.4429 H              1 S1                 0.0000
     28 ****        -7.8688   4.8038   0.4382 H              1 S1                 0.0000
     29 ****        -8.0701   2.6293  -0.7918 H              1 S1                 0.0000
     30 ****        -6.0147   1.2834  -1.2151 H              1 S1                 0.0000
     31 ****        -3.8011   1.0270  -1.0339 H              1 S1                 0.0000
     32 ****        -1.9737   0.3115  -1.1592 H              1 S1                 0.0000
     33 ****         0.3564   1.9619  -0.5952 H              1 S1                 0.0000
     34 ****         0.0076  -0.9102  -1.5655 H              1 S1                 0.0000
     35 ****         0.3534   0.4930  -2.5441 H              1 S1                 0.0000
     36 ****         2.4745  -0.7281  -2.1379 H              1 S1                 0.0000
     37 ****         2.5247   0.8180  -1.3837 H              1 S1                 0.0000
     38 ****         0.8455  -2.2354   0.3141 H              1 S1                 0.0000
     39 ****         2.3774  -2.2558   2.3502 H              1 S1                 0.0000
     40 ****         2.1378  -3.7975   1.6158 H              1 S1                 0.0000
     41 ****         4.5953  -2.0307   1.1706 H              1 S1                 0.0000
     42 ****         4.5178  -3.4774   2.1552 H              1 S1                 0.0000
     43 ****         6.4113  -3.1827  -0.2426 H              1 S1                 0.0000
     44 ****         6.0390  -4.7771  -0.9090 H              1 S1                 0.0000
     45 ****         6.2505  -4.5804   0.8282 H              1 S1                 0.0000
     46 ****         4.2820  -2.3332  -1.4116 H              1 S1                 0.0000
     47 ****         4.0066  -3.9622  -1.9937 H              1 S1                 0.0000
     48 ****         1.8435  -4.0852  -0.8316 H              1 S1                 0.0000
     49 ****         1.8320  -2.7666  -1.9354 H              1 S1                 0.0000
     50 ****         2.0199  -0.1839   2.0678 H              1 S1                 0.0000
     51 ****         2.3200   1.1240   0.9796 H              1 S1                 0.0000
     52 ****        -0.0351   1.1571   1.6859 H              1 S1                 0.0000
     53 ****        -0.2846  -0.4744   1.1374 H              1 S1                 0.0000
     54 ****         3.3126  -0.7222   0.0982 H              1 S1                 0.0000
     55 ****         3.9680  -4.7306   0.2340 H              1 S1                 0.0000
     56 ****        -2.4713   3.7379   0.7539 LP             1 S1                 0.0000
     57 ****        -0.8735   3.0807   0.6312 LP             1 S1                 0.0000
     58 ****        -3.7097   4.2079   0.7577 LP             1 S1                 0.0000
@<TRIPOS>BOND
    1    1    2 1     
    2    1   25 1     
    3    1   26 1     
    4    1   27 1     
    5    2   24 ar    
    6    2    3 ar    
    7    3    4 ar    
    8    3   28 1     
    9    4    5 ar    
   10    4   29 1     
   11    5    6 ar    
   12    5   30 1     
   13    6    7 1     
   14    6   24 ar    
   15    7    8 am    
   16    7   31 1     
   17    8    9 2     
   18    8   10 am    
   19   10   11 1     
   20   10   32 1     
   21   11   23 1     
   22   11   12 1     
   23   11   33 1     
   24   12   13 1     
   25   12   34 1     
   26   12   35 1     
   27   13   14 1     
   28   13   36 1     
   29   13   37 1     
   30   14   15 1     
   31   14   22 1     
   32   14   54 1     
   33   15   21 1     
   34   15   16 1     
   35   15   38 1     
   36   16   17 1     
   37   16   39 1     
   38   16   40 1     
   39   17   18 1     
   40   17   41 1     
   41   17   42 1     
   42   18   19 1     
   43   18   20 1     
   44   18   55 1     
   45   19   43 1     
   46   19   44 1     
   47   19   45 1     
   48   20   21 1     
   49   20   46 1     
   50   20   47 1     
   51   21   48 1     
   52   21   49 1     
   53   22   23 1     
   54   22   50 1     
   55   22   51 1     
   56   23   52 1     
   57   23   53 1     
   58    9   56 1     
   59    9   57 1     
   60   24   58 1     
@<TRIPOS>SUBSTRUCTURE
      1 S1             1
@<TRIPOS>SET
LONE_PAIRS      STATIC     ATOMS    <user>   **** ""
3 56 57 58
DONOR_HYDROGENS      STATIC     ATOMS    <user>   **** ""
4 31 32 54 55
ATOM$BLUE        STATIC     ATOMS    COLORGROUP SYSTEM
3 56 57 58
ATOM$RED        STATIC     ATOMS    COLORGROUP SYSTEM
4 31 32 54 55
