AV-unprocessed.smi:235|AV-procd|sdf|1802|dock5
  -GOLD-   2262020373D 1   1.00000     0.00000
 Structure written by MMmdl.
 54 58  0  0  0  0  0  0  0  0  1 V2000
  145.1520  137.5729  154.2533 O   0  0  0  0  0  0  0  0  0  0  0  0
  146.3045  137.2114  154.0159 C   0  0  0  0  0  0  0  0  0  0  0  0
  146.6775  136.7073  152.8279 N   0  0  0  0  0  0  0  0  0  0  0  0
  145.8356  136.5170  151.6936 C   0  0  0  0  0  0  0  0  0  0  0  0
  144.5701  135.7116  151.8950 C   0  0  0  0  0  0  0  0  0  0  0  0
  145.7211  135.1160  151.1324 C   0  0  0  0  0  0  0  0  0  0  0  0
  147.3839  137.3624  155.1081 C   0  0  1  0  0  0  0  0  0  0  0  0
  147.9059  136.0031  155.6235 C   0  0  0  0  0  0  0  0  0  0  0  0
  149.3000  135.8587  155.0181 C   0  0  0  0  0  0  0  0  0  0  0  0
  149.7781  137.3037  154.9568 C   0  0  0  0  0  0  0  0  0  0  0  0
  148.5831  138.0643  154.6331 N   0  0  0  0  0  0  0  0  0  0  0  0
  148.6572  139.3990  154.8245 C   0  0  0  0  0  0  0  0  0  0  0  0
  147.8205  140.2337  154.1550 N   0  0  0  0  0  0  0  0  0  0  0  0
  147.9095  141.5545  154.3438 C   0  0  0  0  0  0  0  0  0  0  0  0
  148.7444  142.2317  155.1367 N   0  0  0  0  0  0  0  0  0  0  0  0
  149.5804  141.3897  155.8102 C   0  0  0  0  0  0  0  0  0  0  0  0
  149.5993  139.9712  155.7169 C   0  0  0  0  0  0  0  0  0  0  0  0
  150.5820  139.4483  156.5478 N   0  0  0  0  0  0  0  0  0  0  0  0
  151.1216  140.5021  157.0978 C   0  0  0  0  0  0  0  0  0  0  0  0
  150.5816  141.7082  156.7096 N   0  0  0  0  0  0  0  0  0  0  0  0
  150.9868  143.0300  157.1535 C   0  0  0  0  0  0  0  0  0  0  0  0
  150.5265  143.3337  158.5957 C   0  0  2  0  0  0  0  0  0  0  0  0
  149.8488  144.5760  158.5890 O   0  0  0  0  0  0  0  0  0  0  0  0
  151.6968  143.4398  159.5939 C   0  0  2  0  0  0  0  0  0  0  0  0
  152.6473  142.2404  159.5978 C   0  0  0  0  0  0  0  0  0  0  0  0
  153.2693  142.2795  160.9837 C   0  0  0  0  0  0  0  0  0  0  0  0
  152.3105  143.1575  161.7908 C   0  0  0  0  0  0  0  0  0  0  0  0
  151.2080  143.3953  160.9265 O   0  0  0  0  0  0  0  0  0  0  0  0
  147.6465  136.4430  152.7185 H   0  0  0  0  0  0  0  0  0  0  0  0
  145.7728  137.3316  150.9735 H   0  0  0  0  0  0  0  0  0  0  0  0
  144.3707  135.3160  152.8894 H   0  0  0  0  0  0  0  0  0  0  0  0
  143.6910  136.0086  151.3269 H   0  0  0  0  0  0  0  0  0  0  0  0
  145.6120  135.0159  150.0545 H   0  0  0  0  0  0  0  0  0  0  0  0
  146.2899  134.3247  151.6175 H   0  0  0  0  0  0  0  0  0  0  0  0
  146.9176  137.8961  155.9380 H   0  0  0  0  0  0  0  0  0  0  0  0
  147.9861  136.0376  156.7108 H   0  0  0  0  0  0  0  0  0  0  0  0
  147.2651  135.1553  155.3772 H   0  0  0  0  0  0  0  0  0  0  0  0
  149.9577  135.2157  155.6033 H   0  0  0  0  0  0  0  0  0  0  0  0
  149.2262  135.4460  154.0109 H   0  0  0  0  0  0  0  0  0  0  0  0
  150.1838  137.6144  155.9214 H   0  0  0  0  0  0  0  0  0  0  0  0
  150.5514  137.4405  154.2001 H   0  0  0  0  0  0  0  0  0  0  0  0
  147.2139  142.1547  153.7761 H   0  0  0  0  0  0  0  0  0  0  0  0
  151.9376  140.4282  157.8019 H   0  0  0  0  0  0  0  0  0  0  0  0
  152.0727  143.0857  157.0752 H   0  0  0  0  0  0  0  0  0  0  0  0
  150.5863  143.7705  156.4595 H   0  0  0  0  0  0  0  0  0  0  0  0
  149.8336  142.5574  158.9234 H   0  0  0  0  0  0  0  0  0  0  0  0
  148.9357  144.4213  158.7761 H   0  0  0  0  0  0  0  0  0  0  0  0
  152.2647  144.3594  159.4381 H   0  0  0  0  0  0  0  0  0  0  0  0
  152.0825  141.3144  159.4793 H   0  0  0  0  0  0  0  0  0  0  0  0
  153.3908  142.2859  158.8014 H   0  0  0  0  0  0  0  0  0  0  0  0
  153.3601  141.2774  161.4040 H   0  0  0  0  0  0  0  0  0  0  0  0
  154.2640  142.7259  160.9584 H   0  0  0  0  0  0  0  0  0  0  0  0
  151.9839  142.6817  162.7156 H   0  0  0  0  0  0  0  0  0  0  0  0
  152.7815  144.1081  162.0442 H   0  0  0  0  0  0  0  0  0  0  0  0
  1  2  2  0  0  0  0
  2  3  1  0  0  0  0
  2  7  1  0  0  0  0
  3  4  1  0  0  0  0
  3 29  1  0  0  0  0
  4  6  1  0  0  0  0
  4  5  1  0  0  0  0
  4 30  1  0  0  0  0
  5  6  1  0  0  0  0
  5 31  1  0  0  0  0
  5 32  1  0  0  0  0
  6 33  1  0  0  0  0
  6 34  1  0  0  0  0
  7 11  1  0  0  0  0
  7  8  1  0  0  0  0
  7 35  1  0  0  0  0
  8  9  1  0  0  0  0
  8 36  1  0  0  0  0
  8 37  1  0  0  0  0
  9 10  1  0  0  0  0
  9 38  1  0  0  0  0
  9 39  1  0  0  0  0
 10 11  1  0  0  0  0
 10 40  1  0  0  0  0
 10 41  1  0  0  0  0
 11 12  1  0  0  0  0
 12 17  1  0  0  0  0
 12 13  2  0  0  0  0
 13 14  1  0  0  0  0
 14 15  2  0  0  0  0
 14 42  1  0  0  0  0
 15 16  1  0  0  0  0
 16 20  1  0  0  0  0
 16 17  2  0  0  0  0
 17 18  1  0  0  0  0
 18 19  2  0  0  0  0
 19 20  1  0  0  0  0
 19 43  1  0  0  0  0
 20 21  1  0  0  0  0
 21 22  1  0  0  0  0
 21 44  1  0  0  0  0
 21 45  1  0  0  0  0
 22 23  1  0  0  0  0
 22 24  1  0  0  0  0
 22 46  1  0  0  0  0
 23 47  1  0  0  0  0
 24 28  1  0  0  0  0
 24 25  1  0  0  0  0
 24 48  1  0  0  0  0
 25 26  1  0  0  0  0
 25 49  1  0  0  0  0
 25 50  1  0  0  0  0
 26 27  1  0  0  0  0
 26 51  1  0  0  0  0
 26 52  1  0  0  0  0
 27 28  1  0  0  0  0
 27 53  1  0  0  0  0
 27 54  1  0  0  0  0
M  END
> <s_m_source_file>
AV-unprocessed.smi

> <i_m_source_file_index>
235

> <i_lp_mmshare_version>
43012

> <i_f3d_flags>
0

> <s_epik_input>
W0NIMl0xW0NIMl1bQ0hdMVtOSF1DKD1PKVtDQEBIXTJbQ0gyXVtDSDJdW0NIMl1OMmMobltjSF1uMyljKGMzNCluW2NIXW40W0NIMl1bQ0BIXShbT0hdKVtDQEBIXTVbQ0gyXVtDSDJdW0NIMl1PNQ==

> <s_epik_cmdline>
J2VwaWtfcHl0aG9uJywgJy1waCcsICc3LjAnLCAnLXRuJywgJzgnLCAnLW1hJywgJzIwMCcsICctbWV0YWxfYmluZGluZycsICctaW1hZScsICc8aW5maWxlLm1hZT4nLCAnLW9tYWUnLCAnPG91dGZpbGUubWFlPic=

> <r_lp_tautomer_probability>
1

> <r_epik_Ionization_Penalty>
0.000526714

> <r_epik_Ionization_Penalty_Charging>
0

> <r_epik_Ionization_Penalty_Neutral>
0.000526714

> <r_epik_State_Penalty>
0.000272704

> <r_epik_Charging_Adjusted_Penalty>
0.000272704

> <i_epik_Tot_Q>
0

> <i_epik_Tot_abs_Q>
0

> <r_epik_Metal_State_Penalty>
-0

> <b_epik_Metal_Only>
0

> <s_lp_Force_Field>
OPLS_2005

> <r_lp_Energy>
60.5906

> <b_lp_Chiralities_Consistent>
1

> <s_lp_Variant>
AV-unprocessed.smi:235-2

> <Gold.Version>
5.8.1

> <Gold.Id.Protein>
6NUR|6NUR_protein|mol2

> <Gold.PLP.Fitness>
44.5233

> <Gold.PLP.PLP>
-43.8365

> <Gold.PLP.part.hbond>
-4.1324

> <Gold.PLP.part.metal>
0.0000

> <Gold.PLP.part.buried>
-5.8606

> <Gold.PLP.part.nonpolar>
-38.5381

> <Gold.PLP.part.repulsive>
4.2352

> <Gold.PLP.ligand.clash>
0.0000

> <Gold.PLP.ligand.torsion>
1.5290

> <Gold.PLP.Chemscore.Hbond>
1.1090

> <Gold.PLP.Chemscore.CHOScore>
0.0000

> <Gold.PLP.Chemscore.Metal>
0.0000

> <Gold.Chemscore.Hbonds>
donor molecule, donor type, donor heavy atom, donor atom, acceptor molecule, acceptor atom, score
      L1  H     3    29       P1  7948  1.00
      P1  H  6933  6945       L1    28  0.01

> <Gold.PLP.Chemscore.Internal.Correction>
0.4179

> <Gold.Rescore>
     Score         DG    S(hbond)    S(metal)    S(lipo)     H(rot)  DE(clash)    DE(int)     intcor
      8.11     -11.92       0.97        0.00      92.95       3.00       0.73       3.08       ----

> <Gold.Chemscore.Fitness>
8.1069

> <Gold.Chemscore.DG>
-11.9157

> <Gold.Chemscore.ZeroCoef>
-5.4800

> <Gold.Chemscore.Hbond>
0.9693

> <Gold.Chemscore.Metal>
0.0000

> <Gold.Chemscore.Lipo>
92.9539

> <Gold.Chemscore.Internal_Hbond>
0.0000

> <Gold.Chemscore.DEClash>
0.7295

> <Gold.Chemscore.DEInternal>
3.0793

> <Gold.Chemscore.Rot>
2.9989

> <Gold.Chemscore.Internal.Correction>
   9.000000E+99

> <Gold.Chemscore.Hbonds>
donor molecule, donor type, donor heavy atom, donor atom, acceptor molecule, acceptor atom, score
      L1  H     3    29       P1  7948  0.94
      L1  H    23    47       P1  8029  0.01

> <Gold.Chemscore.Hbond.Weighted>
-3.2373

> <Gold.Chemscore.Metal.Weighted>
-0.0000

> <Gold.Chemscore.Lipo.Weighted>
-10.8756

> <Gold.Chemscore.Internal_Hbond.Weighted>
0.0000

> <Gold.Chemscore.DEClash.Weighted>
0.7295

> <Gold.Chemscore.DEInternal.Weighted>
3.0793

> <Gold.Chemscore.Rot.Weighted>
7.6772

> <Gold.Chemscore.Internal.Correction.Weighted>
   9.000000E+99

> <Gold.Protein.RotatedTorsions>
[ 6907 6896 6895 6894 ] final -165.00 input  -60.11 | X-H torsion
[ 7974 7965 7964 7962 ] final  113.12 input  175.53 | X-H torsion
[ 8008 7997 7996 7995 ] final   29.14 input   59.86 | X-H torsion
[ 10167 10162 10161 10158 ] final -133.42 input  -65.29 | X-H torsion
[ 10718 10713 10712 10709 ] final -117.47 input   66.30 | X-H torsion
[ 10763 10752 10751 10750 ] final -133.34 input  -60.55 | X-H torsion
[ 11005 11000 10999 10996 ] final   12.03 input  -57.11 | X-H torsion

> <Gold.Protein.ActiveResidues>
 VAL166  LYS551  ARG553  GLY616  TRP617  ASP618  TYR619  PRO620  LYS621  CYS622 
 ASP623  PHE694  ASN695  SER759  ASP760  ASP761  ALA762  ILE779  LEU786  VAL792 
 PHE793  MET794  SER795  GLU796  ALA797  LYS798  CYS799  TRP800  GLU811  SER814 

> <Gold.Protein.RotatedAtoms>
  151.4208  133.3699  159.2755 H   0  0  0  0  0  0  0  0  0  0  0  0  # atno 6907 bound_to 6896
  150.9295  134.8712  159.7553 H   0  0  0  0  0  0  0  0  0  0  0  0  # atno 6908 bound_to 6896
  152.5021  134.4151  159.9514 H   0  0  0  0  0  0  0  0  0  0  0  0  # atno 6909 bound_to 6896
  145.2209  139.2862  143.4218 H   0  0  0  0  0  0  0  0  0  0  0  0  # atno 7974 bound_to 7965
  155.0698  140.3199  155.4634 H   0  0  0  0  0  0  0  0  0  0  0  0  # atno 8008 bound_to 7997
  156.2793  140.2114  156.5771 H   0  0  0  0  0  0  0  0  0  0  0  0  # atno 8009 bound_to 7997
  154.7064  140.0502  157.0495 H   0  0  0  0  0  0  0  0  0  0  0  0  # atno 8010 bound_to 7997
  139.8985  143.6637  152.2599 H   0  0  0  0  0  0  0  0  0  0  0  0  # atno 10167 bound_to 10162
  156.1036  130.6192  150.9168 H   0  0  0  0  0  0  0  0  0  0  0  0  # atno 10718 bound_to 10713
  154.8733  135.3769  154.4556 H   0  0  0  0  0  0  0  0  0  0  0  0  # atno 10763 bound_to 10752
  153.5229  135.7028  153.5727 H   0  0  0  0  0  0  0  0  0  0  0  0  # atno 10764 bound_to 10752
  153.3966  135.3959  155.1925 H   0  0  0  0  0  0  0  0  0  0  0  0  # atno 10765 bound_to 10752
  140.4965  134.0788  155.7783 H   0  0  0  0  0  0  0  0  0  0  0  0  # atno 11005 bound_to 11000
  146.3376  140.2515  142.8598 LP  0  0  0  0  0  0  0  0  0  0  0  0  # atno 17320 bound_to 7965
  144.9766  140.8420  143.5423 LP  0  0  0  0  0  0  0  0  0  0  0  0  # atno 17321 bound_to 7965
  139.7047  144.7630  151.1214 LP  0  0  0  0  0  0  0  0  0  0  0  0  # atno 17342 bound_to 10162
  140.7712  143.5411  150.9311 LP  0  0  0  0  0  0  0  0  0  0  0  0  # atno 17343 bound_to 10162
  157.6210  131.0929  150.8623 LP  0  0  0  0  0  0  0  0  0  0  0  0  # atno 17370 bound_to 10713
  156.8746  130.5158  149.5294 LP  0  0  0  0  0  0  0  0  0  0  0  0  # atno 17371 bound_to 10713
  141.1457  133.9059  157.2220 LP  0  0  0  0  0  0  0  0  0  0  0  0  # atno 17394 bound_to 11000
  139.9738  135.0120  156.9579 LP  0  0  0  0  0  0  0  0  0  0  0  0  # atno 17395 bound_to 11000

$$$$
