AV-unprocessed.smi:807|AV-procd|sdf|3803|dock4
  -GOLD-   22720 1243D 1   1.00000     0.00000
 Structure written by MMmdl.
 35 37  0  0  0  0  0  0  0  0  1 V2000
  145.2259  142.7235  157.4393 C   0  0  0  0  0  0  0  0  0  0  0  0
  146.5772  142.2146  157.2688 N   0  0  0  0  0  0  0  0  0  0  0  0
  146.9782  141.6453  156.0517 C   0  0  0  0  0  0  0  0  0  0  0  0
  146.0619  141.3920  155.0888 N   0  0  0  0  0  0  0  0  0  0  0  0
  146.4926  140.8496  153.9422 C   0  0  0  0  0  0  0  0  0  0  0  0
  147.7397  140.5044  153.5853 N   0  0  0  0  0  0  0  0  0  0  0  0
  148.6544  140.7499  154.5335 C   0  0  0  0  0  0  0  0  0  0  0  0
  150.0118  140.4937  154.4403 N   0  0  0  0  0  0  0  0  0  0  0  0
  150.4477  140.9102  155.6271 C   0  0  0  0  0  0  0  0  0  0  0  0
  149.5352  141.4088  156.4841 N   0  0  0  0  0  0  0  0  0  0  0  0
  149.7851  141.9123  157.8233 C   0  0  0  0  0  0  0  0  0  0  0  0
  150.9448  142.9293  157.8617 C   0  0  1  0  0  0  0  0  0  0  0  0
  150.4559  144.2419  158.0593 O   0  0  0  0  0  0  0  0  0  0  0  0
  152.0259  142.5342  158.8649 C   0  0  0  0  0  0  0  0  0  0  0  0
  152.6486  141.2747  158.7126 C   0  0  0  0  0  0  0  0  0  0  0  0
  153.6486  140.8518  159.6081 C   0  0  0  0  0  0  0  0  0  0  0  0
  154.0361  141.6855  160.6718 C   0  0  0  0  0  0  0  0  0  0  0  0
  153.4201  142.9392  160.8382 C   0  0  0  0  0  0  0  0  0  0  0  0
  152.4177  143.3696  159.9453 C   0  0  0  0  0  0  0  0  0  0  0  0
  151.6991  144.9185  160.2221 Cl  0  0  0  0  0  0  0  0  0  0  0  0
  148.3264  141.3242  155.7980 C   0  0  0  0  0  0  0  0  0  0  0  0
  145.1047  143.1282  158.4439 H   0  0  0  0  0  0  0  0  0  0  0  0
  144.4929  141.9279  157.3011 H   0  0  0  0  0  0  0  0  0  0  0  0
  145.0187  143.5195  156.7232 H   0  0  0  0  0  0  0  0  0  0  0  0
  147.2248  142.2659  158.0419 H   0  0  0  0  0  0  0  0  0  0  0  0
  145.7291  140.6642  153.2012 H   0  0  0  0  0  0  0  0  0  0  0  0
  151.4931  140.8457  155.8916 H   0  0  0  0  0  0  0  0  0  0  0  0
  148.8642  142.3533  158.2044 H   0  0  0  0  0  0  0  0  0  0  0  0
  150.0052  141.0626  158.4701 H   0  0  0  0  0  0  0  0  0  0  0  0
  151.4051  142.9466  156.8733 H   0  0  0  0  0  0  0  0  0  0  0  0
  149.8705  144.4543  157.3483 H   0  0  0  0  0  0  0  0  0  0  0  0
  152.3608  140.6201  157.9027 H   0  0  0  0  0  0  0  0  0  0  0  0
  154.1174  139.8875  159.4789 H   0  0  0  0  0  0  0  0  0  0  0  0
  154.8032  141.3634  161.3607 H   0  0  0  0  0  0  0  0  0  0  0  0
  153.7186  143.5751  161.6587 H   0  0  0  0  0  0  0  0  0  0  0  0
  1  2  1  0  0  0  0
  1 22  1  0  0  0  0
  1 23  1  0  0  0  0
  1 24  1  0  0  0  0
  2  3  1  0  0  0  0
  2 25  1  0  0  0  0
  3 21  1  0  0  0  0
  3  4  2  0  0  0  0
  4  5  1  0  0  0  0
  5  6  2  0  0  0  0
  5 26  1  0  0  0  0
  6  7  1  0  0  0  0
  7 21  2  0  0  0  0
  7  8  1  0  0  0  0
  8  9  2  0  0  0  0
  9 10  1  0  0  0  0
  9 27  1  0  0  0  0
 10 11  1  0  0  0  0
 10 21  1  0  0  0  0
 11 12  1  0  0  0  0
 11 28  1  0  0  0  0
 11 29  1  0  0  0  0
 12 13  1  0  0  0  0
 12 14  1  0  0  0  0
 12 30  1  0  0  0  0
 13 31  1  0  0  0  0
 14 19  1  0  0  0  0
 14 15  2  0  0  0  0
 15 16  1  0  0  0  0
 15 32  1  0  0  0  0
 16 17  2  0  0  0  0
 16 33  1  0  0  0  0
 17 18  1  0  0  0  0
 17 34  1  0  0  0  0
 18 19  2  0  0  0  0
 18 35  1  0  0  0  0
 19 20  1  0  0  0  0
M  END
> <s_m_source_file>
AV-unprocessed.smi

> <i_m_source_file_index>
807

> <i_lp_mmshare_version>
43012

> <i_f3d_flags>
0

> <s_epik_input>
bjFbY0hdbmMoW05IXVtDSDNdKWMoYzEyKW4oW2NIXW4yKVtDSDJdW0NASF0oW09IXSljM1tjSF1bY0hdW2NIXVtjSF1jM0Ns

> <s_epik_cmdline>
J2VwaWtfcHl0aG9uJywgJy1waCcsICc3LjAnLCAnLXRuJywgJzgnLCAnLW1hJywgJzIwMCcsICctbWV0YWxfYmluZGluZycsICctaW1hZScsICc8aW5maWxlLm1hZT4nLCAnLW9tYWUnLCAnPG91dGZpbGUubWFlPic=

> <r_lp_tautomer_probability>
1

> <r_epik_Ionization_Penalty>
0.00695285

> <r_epik_Ionization_Penalty_Charging>
0

> <r_epik_Ionization_Penalty_Neutral>
0.00695285

> <r_epik_State_Penalty>
-0

> <r_epik_Charging_Adjusted_Penalty>
0

> <i_epik_Tot_Q>
0

> <i_epik_Tot_abs_Q>
0

> <r_epik_Metal_State_Penalty>
-0

> <b_epik_Metal_Only>
0

> <s_lp_Force_Field>
OPLS_2005

> <r_lp_Energy>
12.6911

> <b_lp_Chiralities_Consistent>
1

> <s_lp_Variant>
AV-unprocessed.smi:807-2

> <Gold.Version>
5.8.1

> <Gold.Id.Protein>
6NUR|6NUR_protein|mol2

> <Gold.PLP.Fitness>
49.2309

> <Gold.PLP.PLP>
-41.8661

> <Gold.PLP.part.hbond>
-2.8304

> <Gold.PLP.part.metal>
0.0000

> <Gold.PLP.part.buried>
-7.5123

> <Gold.PLP.part.nonpolar>
-35.8773

> <Gold.PLP.part.repulsive>
2.8326

> <Gold.PLP.ligand.clash>
0.0000

> <Gold.PLP.ligand.torsion>
0.8409

> <Gold.PLP.Chemscore.Hbond>
1.9920

> <Gold.PLP.Chemscore.CHOScore>
1.0000

> <Gold.PLP.Chemscore.Metal>
0.0000

> <Gold.Chemscore.Hbonds>
donor molecule, donor type, donor heavy atom, donor atom, acceptor molecule, acceptor atom, score
      L1  H    13    31       P1  8028  1.00
      P1  H  7989  7998       L1     8  0.69
      L1  C     5    26       P1 10175  1.00

> <Gold.PLP.Chemscore.Internal.Correction>
0.0706

> <Gold.Rescore>
     Score         DG    S(hbond)    S(metal)    S(lipo)     H(rot)  DE(clash)    DE(int)     intcor
     11.88     -15.74       1.47        0.00      96.38       2.31       1.48       2.39       ----

> <Gold.Chemscore.Fitness>
11.8781

> <Gold.Chemscore.DG>
-15.7418

> <Gold.Chemscore.ZeroCoef>
-5.4800

> <Gold.Chemscore.Hbond>
1.4678

> <Gold.Chemscore.Metal>
0.0000

> <Gold.Chemscore.Lipo>
96.3840

> <Gold.Chemscore.Internal_Hbond>
0.0000

> <Gold.Chemscore.DEClash>
1.4774

> <Gold.Chemscore.DEInternal>
2.3863

> <Gold.Chemscore.Rot>
2.3115

> <Gold.Chemscore.Internal.Correction>
   9.000000E+99

> <Gold.Chemscore.Hbonds>
donor molecule, donor type, donor heavy atom, donor atom, acceptor molecule, acceptor atom, score
      L1  H    13    31       P1  8028  0.25
      P1  H  7989  7998       L1     8  0.10

> <Gold.Chemscore.Hbond.Weighted>
-4.9023

> <Gold.Chemscore.Metal.Weighted>
-0.0000

> <Gold.Chemscore.Lipo.Weighted>
-11.2769

> <Gold.Chemscore.Internal_Hbond.Weighted>
0.0000

> <Gold.Chemscore.DEClash.Weighted>
1.4774

> <Gold.Chemscore.DEInternal.Weighted>
2.3863

> <Gold.Chemscore.Rot.Weighted>
5.9174

> <Gold.Chemscore.Internal.Correction.Weighted>
   9.000000E+99

> <Gold.Protein.RotatedTorsions>
[ 6907 6896 6895 6894 ] final  -68.26 input  -60.11 | X-H torsion
[ 7974 7965 7964 7962 ] final  148.78 input  175.53 | X-H torsion
[ 8008 7997 7996 7995 ] final  -94.64 input   59.86 | X-H torsion
[ 10167 10162 10161 10158 ] final   47.43 input  -65.29 | X-H torsion
[ 10718 10713 10712 10709 ] final   82.07 input   66.30 | X-H torsion
[ 10763 10752 10751 10750 ] final   30.45 input  -60.55 | X-H torsion
[ 11005 11000 10999 10996 ] final   42.70 input  -57.11 | X-H torsion

> <Gold.Protein.ActiveResidues>
 VAL166  LYS551  ARG553  GLY616  TRP617  ASP618  TYR619  PRO620  LYS621  CYS622 
 ASP623  PHE694  ASN695  SER759  ASP760  ASP761  ALA762  ILE779  LEU786  VAL792 
 PHE793  MET794  SER795  GLU796  ALA797  LYS798  CYS799  TRP800  GLU811  SER814 

> <Gold.Protein.RotatedAtoms>
  150.7365  134.5764  159.5915 H   0  0  0  0  0  0  0  0  0  0  0  0  # atno 6907 bound_to 6896
  152.3189  134.7402  160.0327 H   0  0  0  0  0  0  0  0  0  0  0  0  # atno 6908 bound_to 6896
  151.7924  133.3325  159.3539 H   0  0  0  0  0  0  0  0  0  0  0  0  # atno 6909 bound_to 6896
  144.8487  139.6197  143.5983 H   0  0  0  0  0  0  0  0  0  0  0  0  # atno 7974 bound_to 7965
  154.7510  140.0487  157.0893 H   0  0  0  0  0  0  0  0  0  0  0  0  # atno 8008 bound_to 7997
  155.0057  140.3130  155.4830 H   0  0  0  0  0  0  0  0  0  0  0  0  # atno 8009 bound_to 7997
  156.2885  140.2193  156.5169 H   0  0  0  0  0  0  0  0  0  0  0  0  # atno 8010 bound_to 7997
  140.3037  144.2904  150.6214 H   0  0  0  0  0  0  0  0  0  0  0  0  # atno 10167 bound_to 10162
  157.6848  131.0031  150.2320 H   0  0  0  0  0  0  0  0  0  0  0  0  # atno 10718 bound_to 10713
  153.0371  135.6464  154.1047 H   0  0  0  0  0  0  0  0  0  0  0  0  # atno 10763 bound_to 10752
  154.0759  135.2877  155.3301 H   0  0  0  0  0  0  0  0  0  0  0  0  # atno 10764 bound_to 10752
  154.6562  135.5408  153.8026 H   0  0  0  0  0  0  0  0  0  0  0  0  # atno 10765 bound_to 10752
  140.1714  134.4217  155.8255 H   0  0  0  0  0  0  0  0  0  0  0  0  # atno 11005 bound_to 11000
  146.2767  139.6770  142.9258 LP  0  0  0  0  0  0  0  0  0  0  0  0  # atno 17320 bound_to 7965
  145.4543  141.0430  143.2787 LP  0  0  0  0  0  0  0  0  0  0  0  0  # atno 17321 bound_to 7965
  140.5629  143.2190  151.7734 LP  0  0  0  0  0  0  0  0  0  0  0  0  # atno 17342 bound_to 10162
  139.4909  144.4324  151.9857 LP  0  0  0  0  0  0  0  0  0  0  0  0  # atno 17343 bound_to 10162
  156.2951  130.3751  149.7804 LP  0  0  0  0  0  0  0  0  0  0  0  0  # atno 17370 bound_to 10713
  156.5452  130.8317  151.3282 LP  0  0  0  0  0  0  0  0  0  0  0  0  # atno 17371 bound_to 10713
  141.2217  133.6958  156.7770 LP  0  0  0  0  0  0  0  0  0  0  0  0  # atno 17394 bound_to 11000
  140.2373  134.8640  157.3538 LP  0  0  0  0  0  0  0  0  0  0  0  0  # atno 17395 bound_to 11000

$$$$
