AV-unprocessed.smi:12|AV-procd|sdf|68|dock1
  -GOLD-   2262015193D 1   1.00000     0.00000
 Structure written by MMmdl.
 41 44  0  0  0  0  0  0  0  0  1 V2000
  152.2267  143.2018  162.0579 C   0  0  0  0  0  0  0  0  0  0  0  0
  152.5477  142.1752  160.9868 C   0  0  0  0  0  0  0  0  0  0  0  0
  151.8257  142.0887  159.8448 C   0  0  0  0  0  0  0  0  0  0  0  0
  152.1497  141.1393  158.9163 N   0  0  0  0  0  0  0  0  0  0  0  0
  153.2424  140.2766  159.1498 C   0  0  0  0  0  0  0  0  0  0  0  0
  153.9823  140.2975  160.2145 N   0  0  0  0  0  0  0  0  0  0  0  0
  153.6832  141.2457  161.2116 C   0  0  0  0  0  0  0  0  0  0  0  0
  154.3522  141.2989  162.2426 O   0  0  0  0  0  0  0  0  0  0  0  0
  153.3797  139.4422  158.0831 O   0  0  0  0  0  0  0  0  0  0  0  0
  152.3569  139.7161  157.1145 C   0  0  1  0  0  0  0  0  0  0  0  0
  151.3615  138.5599  157.0634 C   0  0  2  0  0  0  0  0  0  0  0  0
  150.8960  138.3634  155.7413 O   0  0  0  0  0  0  0  0  0  0  0  0
  150.2447  139.0039  158.0184 C   0  0  2  0  0  0  0  0  0  0  0  0
  148.8647  138.3808  157.7692 C   0  0  0  0  0  0  0  0  0  0  0  0
  148.4930  137.6228  158.9084 O   0  0  0  0  0  0  0  0  0  0  0  0
  148.7584  136.3038  158.9595 C   0  0  0  0  0  0  0  0  0  0  0  0
  149.5364  135.7339  158.1916 O   0  0  0  0  0  0  0  0  0  0  0  0
  148.0145  135.6055  160.0474 C   0  0  0  0  0  0  0  0  0  0  0  0
  147.4086  136.3678  161.0734 C   0  0  0  0  0  0  0  0  0  0  0  0
  146.6995  135.7357  162.1131 C   0  0  0  0  0  0  0  0  0  0  0  0
  146.5892  134.3332  162.1408 C   0  0  0  0  0  0  0  0  0  0  0  0
  147.1885  133.5635  161.1269 C   0  0  0  0  0  0  0  0  0  0  0  0
  147.8971  134.1940  160.0853 C   0  0  0  0  0  0  0  0  0  0  0  0
  150.2119  140.4148  157.8438 O   0  0  0  0  0  0  0  0  0  0  0  0
  151.5033  140.8966  157.6225 C   0  0  1  0  0  0  0  0  0  0  0  0
  151.3800  143.8247  161.7683 H   0  0  0  0  0  0  0  0  0  0  0  0
  153.0824  143.8553  162.2308 H   0  0  0  0  0  0  0  0  0  0  0  0
  151.9756  142.7067  162.9965 H   0  0  0  0  0  0  0  0  0  0  0  0
  150.9938  142.7524  159.6597 H   0  0  0  0  0  0  0  0  0  0  0  0
  152.8008  139.9479  156.1450 H   0  0  0  0  0  0  0  0  0  0  0  0
  151.8145  137.6240  157.3927 H   0  0  0  0  0  0  0  0  0  0  0  0
  150.6943  137.4473  155.6258 H   0  0  0  0  0  0  0  0  0  0  0  0
  150.5607  138.7902  159.0413 H   0  0  0  0  0  0  0  0  0  0  0  0
  148.1207  139.1518  157.5638 H   0  0  0  0  0  0  0  0  0  0  0  0
  148.9093  137.7214  156.9012 H   0  0  0  0  0  0  0  0  0  0  0  0
  147.4799  137.4460  161.0732 H   0  0  0  0  0  0  0  0  0  0  0  0
  146.2393  136.3285  162.8898 H   0  0  0  0  0  0  0  0  0  0  0  0
  146.0459  133.8485  162.9387 H   0  0  0  0  0  0  0  0  0  0  0  0
  147.1054  132.4869  161.1469 H   0  0  0  0  0  0  0  0  0  0  0  0
  148.3466  133.5733  159.3241 H   0  0  0  0  0  0  0  0  0  0  0  0
  151.5754  141.8316  157.0663 H   0  0  0  0  0  0  0  0  0  0  0  0
  1  2  1  0  0  0  0
  1 26  1  0  0  0  0
  1 27  1  0  0  0  0
  1 28  1  0  0  0  0
  2  7  1  0  0  0  0
  2  3  2  0  0  0  0
  3  4  1  0  0  0  0
  3 29  1  0  0  0  0
  4 25  1  0  0  0  0
  4  5  1  0  0  0  0
  5  6  2  0  0  0  0
  5  9  1  0  0  0  0
  6  7  1  0  0  0  0
  7  8  2  0  0  0  0
  9 10  1  0  0  0  0
 10 25  1  0  0  0  0
 10 11  1  0  0  0  0
 10 30  1  0  0  0  0
 11 12  1  0  0  0  0
 11 13  1  0  0  0  0
 11 31  1  0  0  0  0
 12 32  1  0  0  0  0
 13 14  1  0  0  0  0
 13 24  1  0  0  0  0
 13 33  1  0  0  0  0
 14 15  1  0  0  0  0
 14 34  1  0  0  0  0
 14 35  1  0  0  0  0
 15 16  1  0  0  0  0
 16 17  2  0  0  0  0
 16 18  1  0  0  0  0
 18 23  1  0  0  0  0
 18 19  2  0  0  0  0
 19 20  1  0  0  0  0
 19 36  1  0  0  0  0
 20 21  2  0  0  0  0
 20 37  1  0  0  0  0
 21 22  1  0  0  0  0
 21 38  1  0  0  0  0
 22 23  2  0  0  0  0
 22 39  1  0  0  0  0
 23 40  1  0  0  0  0
 24 25  1  0  0  0  0
 25 41  1  0  0  0  0
M  END
> <s_m_source_file>
AV-unprocessed.smi

> <i_m_source_file_index>
12

> <i_lp_mmshare_version>
43012

> <i_f3d_flags>
0

> <s_epik_input>
W0NIM11jKFtjSF0xKWMoPU8pbmMobjEyKU9bQ0BIXTNbQ0BASF0yT1tDQEBIXShbQ0BASF0zW09IXSlbQ0gyXU9DKD1PKWM0W2NIXVtjSF1bY0hdW2NIXVtjSF00

> <s_epik_cmdline>
J2VwaWtfcHl0aG9uJywgJy1waCcsICc3LjAnLCAnLXRuJywgJzgnLCAnLW1hJywgJzIwMCcsICctbWV0YWxfYmluZGluZycsICctaW1hZScsICc8aW5maWxlLm1hZT4nLCAnLW9tYWUnLCAnPG91dGZpbGUubWFlPic=

> <r_lp_tautomer_probability>
0.933681

> <r_epik_Ionization_Penalty>
0.00399549

> <r_epik_Ionization_Penalty_Charging>
3.09373e-09

> <r_epik_Ionization_Penalty_Neutral>
0.00399549

> <r_epik_State_Penalty>
0.00284953

> <r_epik_Charging_Adjusted_Penalty>
0.00284953

> <i_epik_Tot_Q>
0

> <i_epik_Tot_abs_Q>
0

> <r_epik_Metal_State_Penalty>
-0

> <b_epik_Metal_Only>
0

> <s_epik_Chemistry_Notes>
This compound has an ester and may undergo hydrolysis at high or low pH. This compound contains an acetal/aminal-like group ( X-CH(R)-Y where X, Y are N, S, or O) that may be acid/base labile, releasing an aldehyde.

> <s_lp_Force_Field>
OPLS_2005

> <r_lp_Energy>
39.7302

> <b_lp_Chiralities_Consistent>
1

> <s_lp_Variant>
AV-unprocessed.smi:12-8

> <Gold.Version>
5.8.1

> <Gold.Id.Protein>
6NUR|6NUR_protein|mol2

> <Gold.PLP.Fitness>
50.8562

> <Gold.PLP.PLP>
-47.3371

> <Gold.PLP.part.hbond>
-4.4391

> <Gold.PLP.part.metal>
0.0000

> <Gold.PLP.part.buried>
-3.7827

> <Gold.PLP.part.nonpolar>
-38.8197

> <Gold.PLP.part.repulsive>
0.0000

> <Gold.PLP.ligand.clash>
0.0000

> <Gold.PLP.ligand.torsion>
1.2467

> <Gold.PLP.Chemscore.Hbond>
2.0000

> <Gold.PLP.Chemscore.CHOScore>
0.0000

> <Gold.PLP.Chemscore.Metal>
0.0000

> <Gold.Chemscore.Hbonds>
donor molecule, donor type, donor heavy atom, donor atom, acceptor molecule, acceptor atom, score
      P1  H  6896  6907       L1    17  0.69
      P1  H  7997  8008       L1     9  0.65

> <Gold.PLP.Chemscore.Internal.Correction>
0.0124

> <Gold.Rescore>
     Score         DG    S(hbond)    S(metal)    S(lipo)     H(rot)  DE(clash)    DE(int)     intcor
     12.30     -13.62       1.10        0.00      85.86       2.18       0.08       1.25       ----

> <Gold.Chemscore.Fitness>
12.2971

> <Gold.Chemscore.DG>
-13.6199

> <Gold.Chemscore.ZeroCoef>
-5.4800

> <Gold.Chemscore.Hbond>
1.1004

> <Gold.Chemscore.Metal>
0.0000

> <Gold.Chemscore.Lipo>
85.8569

> <Gold.Chemscore.Internal_Hbond>
0.0000

> <Gold.Chemscore.DEClash>
0.0766

> <Gold.Chemscore.DEInternal>
1.2462

> <Gold.Chemscore.Rot>
2.1800

> <Gold.Chemscore.Internal.Correction>
   9.000000E+99

> <Gold.Chemscore.Hbonds>
donor molecule, donor type, donor heavy atom, donor atom, acceptor molecule, acceptor atom, score
      P1  H  6896  6907       L1    17  0.15
      P1  H  7997  8008       L1     9  0.04

> <Gold.Chemscore.Hbond.Weighted>
-3.6754

> <Gold.Chemscore.Metal.Weighted>
-0.0000

> <Gold.Chemscore.Lipo.Weighted>
-10.0453

> <Gold.Chemscore.Internal_Hbond.Weighted>
0.0000

> <Gold.Chemscore.DEClash.Weighted>
0.0766

> <Gold.Chemscore.DEInternal.Weighted>
1.2462

> <Gold.Chemscore.Rot.Weighted>
5.5807

> <Gold.Chemscore.Internal.Correction.Weighted>
   9.000000E+99

> <Gold.Protein.RotatedTorsions>
[ 6907 6896 6895 6894 ] final  -54.05 input  -60.11 | X-H torsion
[ 7974 7965 7964 7962 ] final  -58.97 input  175.53 | X-H torsion
[ 8008 7997 7996 7995 ] final  -89.01 input   59.86 | X-H torsion
[ 10167 10162 10161 10158 ] final  -21.80 input  -65.29 | X-H torsion
[ 10718 10713 10712 10709 ] final -142.26 input   66.30 | X-H torsion
[ 10763 10752 10751 10750 ] final -161.63 input  -60.55 | X-H torsion
[ 11005 11000 10999 10996 ] final  132.51 input  -57.11 | X-H torsion

> <Gold.Protein.ActiveResidues>
 VAL166  LYS551  ARG553  GLY616  TRP617  ASP618  TYR619  PRO620  LYS621  CYS622 
 ASP623  PHE694  ASN695  SER759  ASP760  ASP761  ALA762  ILE779  LEU786  VAL792 
 PHE793  MET794  SER795  GLU796  ALA797  LYS798  CYS799  TRP800  GLU811  SER814 

> <Gold.Protein.RotatedAtoms>
  150.8372  134.7650  159.6902 H   0  0  0  0  0  0  0  0  0  0  0  0  # atno 6907 bound_to 6896
  152.4466  134.5478  159.9867 H   0  0  0  0  0  0  0  0  0  0  0  0  # atno 6908 bound_to 6896
  151.5625  133.3363  159.3009 H   0  0  0  0  0  0  0  0  0  0  0  0  # atno 6909 bound_to 6896
  145.8331  140.8467  143.0073 H   0  0  0  0  0  0  0  0  0  0  0  0  # atno 7974 bound_to 7965
  154.6815  140.0547  157.0271 H   0  0  0  0  0  0  0  0  0  0  0  0  # atno 8008 bound_to 7997
  155.0944  140.3222  155.4546 H   0  0  0  0  0  0  0  0  0  0  0  0  # atno 8009 bound_to 7997
  156.2696  140.2042  156.6071 H   0  0  0  0  0  0  0  0  0  0  0  0  # atno 8010 bound_to 7997
  140.7283  143.4593  151.0402 H   0  0  0  0  0  0  0  0  0  0  0  0  # atno 10167 bound_to 10162
  156.3438  130.7651  151.1792 H   0  0  0  0  0  0  0  0  0  0  0  0  # atno 10718 bound_to 10713
  154.7286  135.3041  154.8929 H   0  0  0  0  0  0  0  0  0  0  0  0  # atno 10763 bound_to 10752
  153.9779  135.6734  153.4753 H   0  0  0  0  0  0  0  0  0  0  0  0  # atno 10764 bound_to 10752
  153.0897  135.4965  154.8587 H   0  0  0  0  0  0  0  0  0  0  0  0  # atno 10765 bound_to 10752
  139.9794  134.9553  156.9592 H   0  0  0  0  0  0  0  0  0  0  0  0  # atno 11005 bound_to 11000
  144.6738  140.0701  143.7473 LP  0  0  0  0  0  0  0  0  0  0  0  0  # atno 17320 bound_to 7965
  145.9549  139.2760  143.1190 LP  0  0  0  0  0  0  0  0  0  0  0  0  # atno 17321 bound_to 7965
  139.8277  143.7734  152.3179 LP  0  0  0  0  0  0  0  0  0  0  0  0  # atno 17342 bound_to 10162
  139.7838  144.7435  151.0050 LP  0  0  0  0  0  0  0  0  0  0  0  0  # atno 17343 bound_to 10162
  157.7451  131.0447  150.4806 LP  0  0  0  0  0  0  0  0  0  0  0  0  # atno 17370 bound_to 10713
  156.4990  130.4113  149.6363 LP  0  0  0  0  0  0  0  0  0  0  0  0  # atno 17371 bound_to 10713
  140.5127  134.0986  155.7274 LP  0  0  0  0  0  0  0  0  0  0  0  0  # atno 17394 bound_to 11000
  141.1468  133.9040  157.2195 LP  0  0  0  0  0  0  0  0  0  0  0  0  # atno 17395 bound_to 11000

$$$$
