#       Name:                AV-unprocessed.smi:1618
#       Creating user name   scv26
#       Creation time:       Fri Mar 27 07:14:57 2020


#       File generated by GOLD software.
#

@<TRIPOS>MOLECULE
AV-unprocessed.smi:1618
    35    36     1
SMALL
NO_CHARGES


@<TRIPOS>ATOM
      1 ****        -0.6444   3.4196  -0.2525 C.3            1 S1                 0.0000
      2 ****        -0.8078   1.9535  -0.2645 N.am           1 S1                 0.0000
      3 ****         0.3201   1.1754  -0.2491 C.2            1 S1                 0.0000
      4 ****         1.4726   1.6076  -0.2086 O.2            1 S1                 0.0000
      5 ****         0.0492  -0.2658  -0.2788 C.2            1 S1                 0.0000
      6 ****        -1.2070  -0.7766  -0.2945 C.2            1 S1                 0.0000
      7 ****        -1.1923  -2.1661  -0.3004 N.2            1 S1                 0.0000
      8 ****         0.1156  -2.4193  -0.2911 C.2            1 S1                 0.0000
      9 ****         0.8010  -3.9994  -0.2669 Cl             1 S1                 0.0000
     10 ****         0.9364  -1.3437  -0.2890 N.pl3          1 S1                 0.0000
     11 ****         2.3938  -1.3240  -0.2864 C.3            1 S1                 0.0000
     12 ****         2.9546  -1.2392   1.1394 C.3            1 S1                 0.0000
     13 ****         4.3647  -1.2318   1.0968 O.3            1 S1                 0.0000
     14 ****        -2.3063   0.1173  -0.2978 N.am           1 S1                 0.0000
     15 ****        -3.6480  -0.4730  -0.3210 C.3            1 S1                 0.0000
     16 ****        -2.1077   1.4767  -0.2863 C.2            1 S1                 0.0000
     17 ****        -3.0667   2.2532  -0.2938 O.2            1 S1                 0.0000
     18 ****         0.3890   3.7676  -0.2652 H              1 S1                 0.0000
     19 ****        -1.1054   3.8453   0.6401 H              1 S1                 0.0000
     20 ****        -1.1280   3.8642  -1.1239 H              1 S1                 0.0000
     21 ****         2.7672  -2.2167  -0.7882 H              1 S1                 0.0000
     22 ****         2.7403  -0.4857  -0.8902 H              1 S1                 0.0000
     23 ****         2.6094  -0.3336   1.6389 H              1 S1                 0.0000
     24 ****         2.6216  -2.0893   1.7357 H              1 S1                 0.0000
     25 ****         4.6922  -1.1659   1.9808 H              1 S1                 0.0000
     26 ****        -4.4614   0.2529  -0.3177 H              1 S1                 0.0000
     27 ****        -3.7858  -1.1167   0.5485 H              1 S1                 0.0000
     28 ****        -3.7663  -1.0876  -1.2140 H              1 S1                 0.0000
     29 ****         1.6362   2.5939  -0.1842 LP             1 S1                 0.0000
     30 ****         2.2448   0.9724  -0.2001 LP             1 S1                 0.0000
     31 ****        -1.9603  -2.8065  -0.3093 LP             1 S1                 0.0000
     32 ****         4.6816  -0.4493   0.5608 LP             1 S1                 0.0000
     33 ****         4.6936  -2.0780   0.6777 LP             1 S1                 0.0000
     34 ****        -2.9105   3.2409  -0.2841 LP             1 S1                 0.0000
     35 ****        -4.0002   1.8948  -0.3096 LP             1 S1                 0.0000
@<TRIPOS>BOND
    1    1    2 1     
    2    1   18 1     
    3    1   19 1     
    4    1   20 1     
    5    2   16 am    
    6    2    3 am    
    7    3    4 2     
    8    3    5 1     
    9    5   10 1     
   10    5    6 2     
   11    6    7 1     
   12    6   14 1     
   13    7    8 2     
   14    8    9 1     
   15    8   10 1     
   16   10   11 1     
   17   11   12 1     
   18   11   21 1     
   19   11   22 1     
   20   12   13 1     
   21   12   23 1     
   22   12   24 1     
   23   13   25 1     
   24   14   15 1     
   25   14   16 am    
   26   15   26 1     
   27   15   27 1     
   28   15   28 1     
   29   16   17 2     
   30    4   29 1     
   31    4   30 1     
   32    7   31 1     
   33   13   32 1     
   34   13   33 1     
   35   17   34 1     
   36   17   35 1     
@<TRIPOS>SUBSTRUCTURE
      1 S1             1
@<TRIPOS>SET
LONE_PAIRS      STATIC     ATOMS    <user>   **** ""
7 29 30 31 32 33 34 35
DONOR_HYDROGENS      STATIC     ATOMS    <user>   **** ""
1 25
ATOM$BLUE        STATIC     ATOMS    COLORGROUP SYSTEM
7 29 30 31 32 33 34 35
ATOM$RED        STATIC     ATOMS    COLORGROUP SYSTEM
1 25
