AV-unprocessed.smi:193|AV-procd|sdf|1517|dock3
  -GOLD-   2262019353D 1   1.00000     0.00000
 Structure written by MMmdl.
 61 65  0  0  0  0  0  0  0  0  1 V2000
  150.2427  142.0732  156.0272 C   0  0  0  0  0  0  0  0  0  0  0  0
  150.8397  141.3295  157.2313 C   0  0  1  0  0  0  0  0  0  0  0  0
  151.5740  140.0597  156.7500 C   0  0  0  0  0  0  0  0  0  0  0  0
  151.6636  139.0102  157.7693 N   0  0  0  0  0  0  0  0  0  0  0  0
  150.7771  137.9861  157.6832 C   0  0  0  0  0  0  0  0  0  0  0  0
  150.0334  137.6380  158.7678 N   0  0  0  0  0  0  0  0  0  0  0  0
  149.1840  136.6091  158.7010 C   0  0  0  0  0  0  0  0  0  0  0  0
  148.9267  135.8050  157.6678 N   0  0  0  0  0  0  0  0  0  0  0  0
  149.6640  136.1529  156.5746 C   0  0  0  0  0  0  0  0  0  0  0  0
  150.6057  137.2178  156.4976 C   0  0  0  0  0  0  0  0  0  0  0  0
  151.1615  137.2669  155.2244 N   0  0  0  0  0  0  0  0  0  0  0  0
  150.5872  136.2826  154.5884 C   0  0  0  0  0  0  0  0  0  0  0  0
  149.6691  135.5648  155.3215 N   0  0  0  0  0  0  0  0  0  0  0  0
  148.8911  134.4225  154.8653 C   0  0  0  0  0  0  0  0  0  0  0  0
  149.2559  133.0873  155.5613 C   0  0  0  0  0  0  0  0  0  0  0  0
  148.5537  132.0469  154.9038 O   0  0  0  0  0  0  0  0  0  0  0  0
  150.7667  132.7736  155.4925 C   0  0  0  0  0  0  0  0  0  0  0  0
  151.1494  131.5667  156.3680 C   0  0  0  0  0  0  0  0  0  0  0  0
  150.7186  131.7757  157.7073 O   0  0  0  0  0  0  0  0  0  0  0  0
  149.3049  131.8843  157.8180 C   0  0  0  0  0  0  0  0  0  0  0  0
  148.8104  133.1151  157.0376 C   0  0  0  0  0  0  0  0  0  0  0  0
  151.9677  139.3667  159.1544 C   0  0  0  0  0  0  0  0  0  0  0  0
  152.9089  140.5727  159.3011 C   0  0  0  0  0  0  0  0  0  0  0  0
  152.1331  141.8109  159.3451 N   0  0  0  0  0  0  0  0  0  0  0  0
  152.9383  142.8468  159.9790 C   0  0  2  0  0  0  0  0  0  0  0  0
  152.5736  143.2554  161.3889 C   0  0  0  0  0  0  0  0  0  0  0  0
  152.3106  144.2041  160.2435 C   0  0  2  0  0  0  0  0  0  0  0  0
  150.8862  144.5443  159.8474 C   0  0  0  0  0  0  0  0  0  0  0  0
  151.7920  142.2732  157.9993 C   0  0  0  0  0  0  0  0  0  0  0  0
  151.0203  142.3914  155.3318 H   0  0  0  0  0  0  0  0  0  0  0  0
  149.6949  142.9610  156.3442 H   0  0  0  0  0  0  0  0  0  0  0  0
  149.5444  141.4386  155.4805 H   0  0  0  0  0  0  0  0  0  0  0  0
  150.0033  141.0519  157.8749 H   0  0  0  0  0  0  0  0  0  0  0  0
  151.0865  139.6599  155.8594 H   0  0  0  0  0  0  0  0  0  0  0  0
  152.5822  140.3129  156.4211 H   0  0  0  0  0  0  0  0  0  0  0  0
  148.6349  136.3968  159.6065 H   0  0  0  0  0  0  0  0  0  0  0  0
  150.8150  136.0547  153.5573 H   0  0  0  0  0  0  0  0  0  0  0  0
  147.8372  134.6511  155.0290 H   0  0  0  0  0  0  0  0  0  0  0  0
  149.0150  134.3334  153.7850 H   0  0  0  0  0  0  0  0  0  0  0  0
  147.6946  132.3639  154.6705 H   0  0  0  0  0  0  0  0  0  0  0  0
  151.0794  132.5898  154.4641 H   0  0  0  0  0  0  0  0  0  0  0  0
  151.3297  133.6429  155.8346 H   0  0  0  0  0  0  0  0  0  0  0  0
  150.7179  130.6446  155.9756 H   0  0  0  0  0  0  0  0  0  0  0  0
  152.2314  131.4338  156.3650 H   0  0  0  0  0  0  0  0  0  0  0  0
  148.8282  130.9710  157.4582 H   0  0  0  0  0  0  0  0  0  0  0  0
  149.0426  131.9813  158.8719 H   0  0  0  0  0  0  0  0  0  0  0  0
  149.2102  134.0091  157.5180 H   0  0  0  0  0  0  0  0  0  0  0  0
  147.7245  133.1920  157.1084 H   0  0  0  0  0  0  0  0  0  0  0  0
  151.0451  139.5279  159.7152 H   0  0  0  0  0  0  0  0  0  0  0  0
  152.4576  138.5118  159.6199 H   0  0  0  0  0  0  0  0  0  0  0  0
  153.4166  140.4586  160.2599 H   0  0  0  0  0  0  0  0  0  0  0  0
  153.6923  140.5950  158.5422 H   0  0  0  0  0  0  0  0  0  0  0  0
  154.0049  142.8696  159.7605 H   0  0  0  0  0  0  0  0  0  0  0  0
  151.7164  142.7700  161.8522 H   0  0  0  0  0  0  0  0  0  0  0  0
  153.3890  143.5004  162.0662 H   0  0  0  0  0  0  0  0  0  0  0  0
  152.9889  145.0514  160.1629 H   0  0  0  0  0  0  0  0  0  0  0  0
  150.2223  143.6914  159.9911 H   0  0  0  0  0  0  0  0  0  0  0  0
  150.8495  144.8417  158.7996 H   0  0  0  0  0  0  0  0  0  0  0  0
  150.5184  145.3711  160.4551 H   0  0  0  0  0  0  0  0  0  0  0  0
  152.6995  142.4500  157.4194 H   0  0  0  0  0  0  0  0  0  0  0  0
  151.3036  143.2431  158.0998 H   0  0  0  0  0  0  0  0  0  0  0  0
  1  2  1  0  0  0  0
  1 30  1  0  0  0  0
  1 31  1  0  0  0  0
  1 32  1  0  0  0  0
  2 29  1  0  0  0  0
  2  3  1  0  0  0  0
  2 33  1  0  0  0  0
  3  4  1  0  0  0  0
  3 34  1  0  0  0  0
  3 35  1  0  0  0  0
  4  5  1  0  0  0  0
  4 22  1  0  0  0  0
  5 10  1  0  0  0  0
  5  6  2  0  0  0  0
  6  7  1  0  0  0  0
  7  8  2  0  0  0  0
  7 36  1  0  0  0  0
  8  9  1  0  0  0  0
  9 13  1  0  0  0  0
  9 10  2  0  0  0  0
 10 11  1  0  0  0  0
 11 12  2  0  0  0  0
 12 13  1  0  0  0  0
 12 37  1  0  0  0  0
 13 14  1  0  0  0  0
 14 15  1  0  0  0  0
 14 38  1  0  0  0  0
 14 39  1  0  0  0  0
 15 21  1  0  0  0  0
 15 16  1  0  0  0  0
 15 17  1  0  0  0  0
 16 40  1  0  0  0  0
 17 18  1  0  0  0  0
 17 41  1  0  0  0  0
 17 42  1  0  0  0  0
 18 19  1  0  0  0  0
 18 43  1  0  0  0  0
 18 44  1  0  0  0  0
 19 20  1  0  0  0  0
 20 21  1  0  0  0  0
 20 45  1  0  0  0  0
 20 46  1  0  0  0  0
 21 47  1  0  0  0  0
 21 48  1  0  0  0  0
 22 23  1  0  0  0  0
 22 49  1  0  0  0  0
 22 50  1  0  0  0  0
 23 24  1  0  0  0  0
 23 51  1  0  0  0  0
 23 52  1  0  0  0  0
 24 25  1  0  0  0  0
 24 29  1  0  0  0  0
 25 27  1  0  0  0  0
 25 26  1  0  0  0  0
 25 53  1  0  0  0  0
 26 27  1  0  0  0  0
 26 54  1  0  0  0  0
 26 55  1  0  0  0  0
 27 28  1  0  0  0  0
 27 56  1  0  0  0  0
 28 57  1  0  0  0  0
 28 58  1  0  0  0  0
 28 59  1  0  0  0  0
 29 60  1  0  0  0  0
 29 61  1  0  0  0  0
M  END
> <s_m_source_file>
AV-unprocessed.smi

> <i_m_source_file_index>
193

> <i_lp_mmshare_version>
43012

> <i_f3d_flags>
0

> <s_epik_input>
W0NIM11bQ0BASF0xW0NIMl1bQ0BIXTFOKFtDSDJdMilbQ0gyXVtDSDJdTihbQ0gyXVtDQEhdMltDSDNdKWMobltjSF1uMyljKGMzNCluW2NIXW40W0NIMl1DNShbT0hdKVtDSDJdW0NIMl1PW0NIMl1bQ0gyXTU=

> <s_epik_cmdline>
J2VwaWtfcHl0aG9uJywgJy1waCcsICc3LjAnLCAnLXRuJywgJzgnLCAnLW1hJywgJzIwMCcsICctbWV0YWxfYmluZGluZycsICctaW1hZScsICc8aW5maWxlLm1hZT4nLCAnLW9tYWUnLCAnPG91dGZpbGUubWFlPic=

> <r_lp_tautomer_probability>
1

> <r_epik_Ionization_Penalty>
1.45227

> <r_epik_Ionization_Penalty_Charging>
0

> <r_epik_Ionization_Penalty_Neutral>
1.45227

> <r_epik_State_Penalty>
2.02377

> <r_epik_Charging_Adjusted_Penalty>
2.02377

> <i_epik_Tot_Q>
0

> <i_epik_Tot_abs_Q>
0

> <r_epik_Metal_State_Penalty>
2.01937

> <b_epik_Metal_Only>
0

> <s_lp_Force_Field>
OPLS_2005

> <r_lp_Energy>
53.149

> <b_lp_Chiralities_Consistent>
1

> <s_lp_Variant>
AV-unprocessed.smi:193-22

> <Gold.Version>
5.8.1

> <Gold.Id.Protein>
6NUR|6NUR_protein|mol2

> <Gold.PLP.Fitness>
46.7806

> <Gold.PLP.PLP>
-41.1564

> <Gold.PLP.part.hbond>
-1.0968

> <Gold.PLP.part.metal>
0.0000

> <Gold.PLP.part.buried>
-5.5111

> <Gold.PLP.part.nonpolar>
-33.7823

> <Gold.PLP.part.repulsive>
0.0847

> <Gold.PLP.ligand.clash>
0.0000

> <Gold.PLP.ligand.torsion>
1.0466

> <Gold.PLP.Chemscore.Hbond>
1.0000

> <Gold.PLP.Chemscore.CHOScore>
1.0000

> <Gold.PLP.Chemscore.Metal>
0.0000

> <Gold.Chemscore.Hbonds>
donor molecule, donor type, donor heavy atom, donor atom, acceptor molecule, acceptor atom, score
      P1  H  6896  6909       L1    19  0.29
      L1  C    12    37       P1  7949  0.67

> <Gold.PLP.Chemscore.Internal.Correction>
1.7174

> <Gold.Rescore>
     Score         DG    S(hbond)    S(metal)    S(lipo)     H(rot)  DE(clash)    DE(int)     intcor
     13.51     -15.98       0.77        0.00     115.13       2.17       0.01       2.46       ----

> <Gold.Chemscore.Fitness>
13.5063

> <Gold.Chemscore.DG>
-15.9772

> <Gold.Chemscore.ZeroCoef>
-5.4800

> <Gold.Chemscore.Hbond>
0.7703

> <Gold.Chemscore.Metal>
0.0000

> <Gold.Chemscore.Lipo>
115.1314

> <Gold.Chemscore.Internal_Hbond>
0.0000

> <Gold.Chemscore.DEClash>
0.0061

> <Gold.Chemscore.DEInternal>
2.4648

> <Gold.Chemscore.Rot>
2.1664

> <Gold.Chemscore.Internal.Correction>
   9.000000E+99

> <Gold.Chemscore.Hbonds>
donor molecule, donor type, donor heavy atom, donor atom, acceptor molecule, acceptor atom, score
      P1  H  6896  6909       L1    19  0.13

> <Gold.Chemscore.Hbond.Weighted>
-2.5728

> <Gold.Chemscore.Metal.Weighted>
-0.0000

> <Gold.Chemscore.Lipo.Weighted>
-13.4704

> <Gold.Chemscore.Internal_Hbond.Weighted>
0.0000

> <Gold.Chemscore.DEClash.Weighted>
0.0061

> <Gold.Chemscore.DEInternal.Weighted>
2.4648

> <Gold.Chemscore.Rot.Weighted>
5.5459

> <Gold.Chemscore.Internal.Correction.Weighted>
   9.000000E+99

> <Gold.Protein.RotatedTorsions>
[ 6907 6896 6895 6894 ] final  -53.47 input  -60.11 | X-H torsion
[ 7974 7965 7964 7962 ] final  147.43 input  175.53 | X-H torsion
[ 8008 7997 7996 7995 ] final   51.42 input   59.86 | X-H torsion
[ 10167 10162 10161 10158 ] final  117.18 input  -65.29 | X-H torsion
[ 10718 10713 10712 10709 ] final -111.61 input   66.30 | X-H torsion
[ 10763 10752 10751 10750 ] final -139.86 input  -60.55 | X-H torsion
[ 11005 11000 10999 10996 ] final -160.34 input  -57.11 | X-H torsion

> <Gold.Protein.ActiveResidues>
 VAL166  LYS551  ARG553  GLY616  TRP617  ASP618  TYR619  PRO620  LYS621  CYS622 
 ASP623  PHE694  ASN695  SER759  ASP760  ASP761  ALA762  ILE779  LEU786  VAL792 
 PHE793  MET794  SER795  GLU796  ALA797  LYS798  CYS799  TRP800  GLU811  SER814 

> <Gold.Protein.RotatedAtoms>
  150.8424  134.7720  159.6942 H   0  0  0  0  0  0  0  0  0  0  0  0  # atno 6907 bound_to 6896
  152.4508  134.5394  159.9844 H   0  0  0  0  0  0  0  0  0  0  0  0  # atno 6908 bound_to 6896
  151.5531  133.3376  159.2992 H   0  0  0  0  0  0  0  0  0  0  0  0  # atno 6909 bound_to 6896
  144.8592  139.6028  143.5938 H   0  0  0  0  0  0  0  0  0  0  0  0  # atno 7974 bound_to 7965
  155.4351  140.3452  155.4284 H   0  0  0  0  0  0  0  0  0  0  0  0  # atno 8008 bound_to 7997
  156.1313  140.1515  156.9092 H   0  0  0  0  0  0  0  0  0  0  0  0  # atno 8009 bound_to 7997
  154.4897  140.0845  156.7546 H   0  0  0  0  0  0  0  0  0  0  0  0  # atno 8010 bound_to 7997
  139.6196  144.7098  151.2663 H   0  0  0  0  0  0  0  0  0  0  0  0  # atno 10167 bound_to 10162
  156.0657  130.5876  150.8397 H   0  0  0  0  0  0  0  0  0  0  0  0  # atno 10718 bound_to 10713
  154.8596  135.3570  154.5614 H   0  0  0  0  0  0  0  0  0  0  0  0  # atno 10763 bound_to 10752
  153.6229  135.7005  153.5308 H   0  0  0  0  0  0  0  0  0  0  0  0  # atno 10764 bound_to 10752
  153.3114  135.4177  155.1298 H   0  0  0  0  0  0  0  0  0  0  0  0  # atno 10765 bound_to 10752
  140.6325  134.4636  157.5230 H   0  0  0  0  0  0  0  0  0  0  0  0  # atno 11005 bound_to 11000
  146.2847  139.6972  142.9204 LP  0  0  0  0  0  0  0  0  0  0  0  0  # atno 17320 bound_to 7965
  145.4345  141.0418  143.2892 LP  0  0  0  0  0  0  0  0  0  0  0  0  # atno 17321 bound_to 7965
  140.7373  143.6681  150.8105 LP  0  0  0  0  0  0  0  0  0  0  0  0  # atno 17342 bound_to 10162
  140.0289  143.5464  152.2768 LP  0  0  0  0  0  0  0  0  0  0  0  0  # atno 17343 bound_to 10162
  157.5697  131.0946  150.9436 LP  0  0  0  0  0  0  0  0  0  0  0  0  # atno 17370 bound_to 10713
  156.9655  130.5471  149.5288 LP  0  0  0  0  0  0  0  0  0  0  0  0  # atno 17371 bound_to 10713
  139.9110  134.8344  156.1528 LP  0  0  0  0  0  0  0  0  0  0  0  0  # atno 17394 bound_to 11000
  141.0665  133.6817  156.2054 LP  0  0  0  0  0  0  0  0  0  0  0  0  # atno 17395 bound_to 11000

$$$$
