AV-unprocessed.smi:290|AV-procd|sdf|2226|dock7
  -GOLD-   2262022 83D 1   1.00000     0.00000
 Structure written by MMmdl.
 59 62  0  0  0  0  0  0  0  0  2 V2000
  153.4318  142.2685  160.4630 C   0  0  0  0  0  0  0  0  0  0  0  0
  152.2561  143.1472  160.0074 C   0  0  1  0  0  0  0  0  0  0  0  0
  152.7654  144.4456  159.7162 O   0  0  0  0  0  0  0  0  0  0  0  0
  151.9358  145.0467  158.7386 C   0  0  0  0  0  0  0  0  0  0  0  0
  151.6698  143.8908  157.7870 C   0  0  0  0  0  0  0  0  0  0  0  0
  151.4945  142.6996  158.7271 C   0  0  2  0  0  0  0  0  0  0  0  0
  150.1186  142.6075  159.0563 O   0  0  0  0  0  0  0  0  0  0  0  0
  151.9304  141.3485  158.1014 C   0  0  0  0  0  0  0  0  0  0  0  0
  151.0607  140.9046  157.0226 N   0  0  0  0  0  0  0  0  0  0  0  0
  150.8074  141.5689  155.8425 C   0  0  0  0  0  0  0  0  0  0  0  0
  149.9848  140.9663  155.0276 N   0  0  0  0  0  0  0  0  0  0  0  0
  149.6554  139.7936  155.6939 C   0  0  0  0  0  0  0  0  0  0  0  0
  148.8237  138.6874  155.3849 C   0  0  0  0  0  0  0  0  0  0  0  0
  148.1390  138.6232  154.2218 N   0  0  0  0  0  0  0  0  0  0  0  0
  147.8643  139.9140  153.6105 C   0  0  0  0  0  0  0  0  0  0  0  0
  146.7981  139.6518  152.5396 C   0  0  0  0  0  0  0  0  0  0  0  0
  146.1784  138.2882  152.9171 C   0  0  1  0  0  0  0  0  0  0  0  0
  146.2715  137.2358  151.8568 N   0  3  2  0  0  0  0  0  0  0  0  0
  146.2265  137.7289  150.4559 C   0  0  0  0  0  0  0  0  0  0  0  0
  145.3524  136.0891  152.0736 C   0  0  0  0  0  0  0  0  0  0  0  0
  145.6862  134.8951  151.1627 C   0  0  0  0  0  0  0  0  0  0  0  0
  144.9855  135.0088  149.9423 O   0  0  0  0  0  0  0  0  0  0  0  0
  146.8689  137.9108  154.2433 C   0  0  1  0  0  0  0  0  0  0  0  0
  146.9894  136.4080  154.5675 C   0  0  0  0  0  0  0  0  0  0  0  0
  148.7369  137.6803  156.2937 N   0  0  0  0  0  0  0  0  0  0  0  0
  149.4259  137.7543  157.4369 C   0  0  0  0  0  0  0  0  0  0  0  0
  150.2409  138.7240  157.8591 N   0  0  0  0  0  0  0  0  0  0  0  0
  150.3260  139.7344  156.9467 C   0  0  0  0  0  0  0  0  0  0  0  0
  145.1237  138.4347  153.1485 H   0  0  0  0  0  0  0  0  0  0  0  0
  146.2668  138.3556  155.0378 H   0  0  0  0  0  0  0  0  0  0  0  0
  153.1032  141.2584  160.7077 H   0  0  0  0  0  0  0  0  0  0  0  0
  153.8966  142.6852  161.3567 H   0  0  0  0  0  0  0  0  0  0  0  0
  154.2046  142.2018  159.6969 H   0  0  0  0  0  0  0  0  0  0  0  0
  151.5620  143.2502  160.8440 H   0  0  0  0  0  0  0  0  0  0  0  0
  151.0122  145.4000  159.1997 H   0  0  0  0  0  0  0  0  0  0  0  0
  152.4281  145.8894  158.2533 H   0  0  0  0  0  0  0  0  0  0  0  0
  150.8183  144.0644  157.1274 H   0  0  0  0  0  0  0  0  0  0  0  0
  152.5508  143.7484  157.1602 H   0  0  0  0  0  0  0  0  0  0  0  0
  149.9385  141.7288  159.3538 H   0  0  0  0  0  0  0  0  0  0  0  0
  152.9388  141.4247  157.6938 H   0  0  0  0  0  0  0  0  0  0  0  0
  151.9624  140.5667  158.8614 H   0  0  0  0  0  0  0  0  0  0  0  0
  151.2522  142.5245  155.6051 H   0  0  0  0  0  0  0  0  0  0  0  0
  147.4871  140.6182  154.3538 H   0  0  0  0  0  0  0  0  0  0  0  0
  148.7698  140.3380  153.1752 H   0  0  0  0  0  0  0  0  0  0  0  0
  146.0478  140.4429  152.5490 H   0  0  0  0  0  0  0  0  0  0  0  0
  147.2424  139.6615  151.5463 H   0  0  0  0  0  0  0  0  0  0  0  0
  145.2121  137.9725  150.1410 H   0  0  0  0  0  0  0  0  0  0  0  0
  146.5980  136.9560  149.7826 H   0  0  0  0  0  0  0  0  0  0  0  0
  146.8492  138.6101  150.3084 H   0  0  0  0  0  0  0  0  0  0  0  0
  145.3830  135.7902  153.1224 H   0  0  0  0  0  0  0  0  0  0  0  0
  144.3224  136.3917  151.8764 H   0  0  0  0  0  0  0  0  0  0  0  0
  146.7544  134.8123  150.9644 H   0  0  0  0  0  0  0  0  0  0  0  0
  145.3815  133.9664  151.6457 H   0  0  0  0  0  0  0  0  0  0  0  0
  145.5815  134.8200  149.2327 H   0  0  0  0  0  0  0  0  0  0  0  0
  146.0166  135.9190  154.5111 H   0  0  0  0  0  0  0  0  0  0  0  0
  147.3696  136.2563  155.5782 H   0  0  0  0  0  0  0  0  0  0  0  0
  147.6658  135.8903  153.8884 H   0  0  0  0  0  0  0  0  0  0  0  0
  149.3081  136.9172  158.1092 H   0  0  0  0  0  0  0  0  0  0  0  0
  147.1961  136.8415  151.9600 H   0  0  0  0  0  0  0  0  0  0  0  0
  1  2  1  0  0  0  0
  1 31  1  0  0  0  0
  1 32  1  0  0  0  0
  1 33  1  0  0  0  0
  2  6  1  0  0  0  0
  2  3  1  0  0  0  0
  2 34  1  0  0  0  0
  3  4  1  0  0  0  0
  4  5  1  0  0  0  0
  4 35  1  0  0  0  0
  4 36  1  0  0  0  0
  5  6  1  0  0  0  0
  5 37  1  0  0  0  0
  5 38  1  0  0  0  0
  6  7  1  0  0  0  0
  6  8  1  0  0  0  0
  7 39  1  0  0  0  0
  8  9  1  0  0  0  0
  8 40  1  0  0  0  0
  8 41  1  0  0  0  0
  9 28  1  0  0  0  0
  9 10  1  0  0  0  0
 10 11  2  0  0  0  0
 10 42  1  0  0  0  0
 11 12  1  0  0  0  0
 12 28  2  0  0  0  0
 12 13  1  0  0  0  0
 13 14  1  0  0  0  0
 13 25  2  0  0  0  0
 14 23  1  0  0  0  0
 14 15  1  0  0  0  0
 15 16  1  0  0  0  0
 15 43  1  0  0  0  0
 15 44  1  0  0  0  0
 16 17  1  0  0  0  0
 16 45  1  0  0  0  0
 16 46  1  0  0  0  0
 17 29  1  0  0  0  0
 17 18  1  0  0  0  0
 17 23  1  0  0  0  0
 18 19  1  0  0  0  0
 18 20  1  0  0  0  0
 18 59  1  0  0  0  0
 19 47  1  0  0  0  0
 19 48  1  0  0  0  0
 19 49  1  0  0  0  0
 20 21  1  0  0  0  0
 20 50  1  0  0  0  0
 20 51  1  0  0  0  0
 21 22  1  0  0  0  0
 21 52  1  0  0  0  0
 21 53  1  0  0  0  0
 22 54  1  0  0  0  0
 23 30  1  0  0  0  0
 23 24  1  0  0  0  0
 24 55  1  0  0  0  0
 24 56  1  0  0  0  0
 24 57  1  0  0  0  0
 25 26  1  0  0  0  0
 26 27  2  0  0  0  0
 26 58  1  0  0  0  0
 27 28  1  0  0  0  0
M  CHG  1  18   1
M  END
> <s_m_source_file>
AV-unprocessed.smi

> <i_m_source_file_index>
290

> <i_lp_mmshare_version>
43012

> <i_f3d_flags>
0

> <s_epik_input>
W0NIMl0xW0NIMl1PW0NAQEhdKFtDSDNdKVtDQEBdMShbT0hdKVtDSDJdbihbY0hdbjIpYyhjMjMpbltjSF1uYzNONFtDSDJdW0NIMl1bQ0BIXShbQ0BIXTRbQ0gzXSlOKFtDSDNdKVtDSDJdW0NIMl1bT0hd

> <s_epik_cmdline>
J2VwaWtfcHl0aG9uJywgJy1waCcsICc3LjAnLCAnLXRuJywgJzgnLCAnLW1hJywgJzIwMCcsICctbWV0YWxfYmluZGluZycsICctaW1hZScsICc8aW5maWxlLm1hZT4nLCAnLW9tYWUnLCAnPG91dGZpbGUubWFlPic=

> <r_lp_tautomer_probability>
1

> <r_epik_Ionization_Penalty>
0.0036983

> <r_epik_Ionization_Penalty_Charging>
0.0032725

> <r_epik_Ionization_Penalty_Neutral>
0.000425798

> <r_epik_State_Penalty>
-0

> <r_epik_Charging_Adjusted_Penalty>
0.0032725

> <i_epik_Tot_Q>
1

> <i_epik_Tot_abs_Q>
1

> <r_epik_Metal_State_Penalty>
-0

> <b_epik_Metal_Only>
0

> <s_lp_Force_Field>
OPLS_2005

> <r_lp_Energy>
69.8612

> <b_lp_Chiralities_Consistent>
1

> <s_lp_Variant>
AV-unprocessed.smi:290-12

> <Gold.Version>
5.8.1

> <Gold.Id.Protein>
6NUR|6NUR_protein|mol2

> <Gold.PLP.Fitness>
47.9919

> <Gold.PLP.PLP>
-41.2549

> <Gold.PLP.part.hbond>
-3.8359

> <Gold.PLP.part.metal>
0.0000

> <Gold.PLP.part.buried>
3.4653

> <Gold.PLP.part.nonpolar>
-40.9466

> <Gold.PLP.part.repulsive>
0.3581

> <Gold.PLP.ligand.clash>
0.0000

> <Gold.PLP.ligand.torsion>
1.4538

> <Gold.PLP.Chemscore.Hbond>
3.1404

> <Gold.PLP.Chemscore.CHOScore>
0.0000

> <Gold.PLP.Chemscore.Metal>
0.0000

> <Gold.Chemscore.Hbonds>
donor molecule, donor type, donor heavy atom, donor atom, acceptor molecule, acceptor atom, score
      L1  H    18    59       P1  7948  2.00
      L1  H    22    54       P1  7921  1.00
      P1  H  7989  7998       L1    11  0.15

> <Gold.PLP.Chemscore.Internal.Correction>
0.2235

> <Gold.Rescore>
     Score         DG    S(hbond)    S(metal)    S(lipo)     H(rot)  DE(clash)    DE(int)     intcor
      6.79     -16.09       1.90        0.00     116.57       3.67       3.26       6.05       ----

> <Gold.Chemscore.Fitness>
6.7873

> <Gold.Chemscore.DG>
-16.0894

> <Gold.Chemscore.ZeroCoef>
-5.4800

> <Gold.Chemscore.Hbond>
1.9028

> <Gold.Chemscore.Metal>
0.0000

> <Gold.Chemscore.Lipo>
116.5691

> <Gold.Chemscore.Internal_Hbond>
0.0000

> <Gold.Chemscore.DEClash>
3.2568

> <Gold.Chemscore.DEInternal>
6.0453

> <Gold.Chemscore.Rot>
3.6658

> <Gold.Chemscore.Internal.Correction>
   9.000000E+99

> <Gold.Chemscore.Hbonds>
donor molecule, donor type, donor heavy atom, donor atom, acceptor molecule, acceptor atom, score
      L1  H    18    59       P1  7948  1.00
      L1  H    22    54       P1  7921  0.98
      P1  H  7989  7998       L1    11  0.01

> <Gold.Chemscore.Hbond.Weighted>
-6.3552

> <Gold.Chemscore.Metal.Weighted>
-0.0000

> <Gold.Chemscore.Lipo.Weighted>
-13.6386

> <Gold.Chemscore.Internal_Hbond.Weighted>
0.0000

> <Gold.Chemscore.DEClash.Weighted>
3.2568

> <Gold.Chemscore.DEInternal.Weighted>
6.0453

> <Gold.Chemscore.Rot.Weighted>
9.3844

> <Gold.Chemscore.Internal.Correction.Weighted>
   9.000000E+99

> <Gold.Protein.RotatedTorsions>
[ 6907 6896 6895 6894 ] final   83.48 input  -60.11 | X-H torsion
[ 7974 7965 7964 7962 ] final -120.26 input  175.53 | X-H torsion
[ 8008 7997 7996 7995 ] final -173.74 input   59.86 | X-H torsion
[ 10167 10162 10161 10158 ] final   90.22 input  -65.29 | X-H torsion
[ 10718 10713 10712 10709 ] final  145.36 input   66.30 | X-H torsion
[ 10763 10752 10751 10750 ] final   96.16 input  -60.55 | X-H torsion
[ 11005 11000 10999 10996 ] final  108.60 input  -57.11 | X-H torsion

> <Gold.Protein.ActiveResidues>
 VAL166  LYS551  ARG553  GLY616  TRP617  ASP618  TYR619  PRO620  LYS621  CYS622 
 ASP623  PHE694  ASN695  SER759  ASP760  ASP761  ALA762  ILE779  LEU786  VAL792 
 PHE793  MET794  SER795  GLU796  ALA797  LYS798  CYS799  TRP800  GLU811  SER814 

> <Gold.Protein.RotatedAtoms>
  152.5328  134.2889  159.9035 H   0  0  0  0  0  0  0  0  0  0  0  0  # atno 6907 bound_to 6896
  151.2841  133.4189  159.2636 H   0  0  0  0  0  0  0  0  0  0  0  0  # atno 6908 bound_to 6896
  151.0257  134.9518  159.8141 H   0  0  0  0  0  0  0  0  0  0  0  0  # atno 6909 bound_to 6896
  145.0534  140.8236  143.4195 H   0  0  0  0  0  0  0  0  0  0  0  0  # atno 7974 bound_to 7965
  155.9612  140.1145  157.0894 H   0  0  0  0  0  0  0  0  0  0  0  0  # atno 8008 bound_to 7997
  154.4132  140.1181  156.5249 H   0  0  0  0  0  0  0  0  0  0  0  0  # atno 8009 bound_to 7997
  155.6718  140.3473  155.4823 H   0  0  0  0  0  0  0  0  0  0  0  0  # atno 8010 bound_to 7997
  139.8495  144.6600  150.9186 H   0  0  0  0  0  0  0  0  0  0  0  0  # atno 10167 bound_to 10162
  157.3461  131.0943  151.1040 H   0  0  0  0  0  0  0  0  0  0  0  0  # atno 10718 bound_to 10713
  153.2617  135.4228  155.0900 H   0  0  0  0  0  0  0  0  0  0  0  0  # atno 10763 bound_to 10752
  154.8422  135.3450  154.6369 H   0  0  0  0  0  0  0  0  0  0  0  0  # atno 10764 bound_to 10752
  153.6789  135.7040  153.5181 H   0  0  0  0  0  0  0  0  0  0  0  0  # atno 10765 bound_to 10752
  139.8847  134.9435  156.5998 H   0  0  0  0  0  0  0  0  0  0  0  0  # atno 11005 bound_to 11000
  145.1499  139.2521  143.5446 LP  0  0  0  0  0  0  0  0  0  0  0  0  # atno 17320 bound_to 7965
  146.3519  140.1198  142.8600 LP  0  0  0  0  0  0  0  0  0  0  0  0  # atno 17321 bound_to 7965
  140.7789  143.3840  151.1426 LP  0  0  0  0  0  0  0  0  0  0  0  0  # atno 17342 bound_to 10162
  139.7479  143.8823  152.3069 LP  0  0  0  0  0  0  0  0  0  0  0  0  # atno 17343 bound_to 10162
  157.2233  130.6491  149.5820 LP  0  0  0  0  0  0  0  0  0  0  0  0  # atno 17370 bound_to 10713
  155.9714  130.4622  150.6137 LP  0  0  0  0  0  0  0  0  0  0  0  0  # atno 17371 bound_to 10713
  140.7892  133.8596  155.8632 LP  0  0  0  0  0  0  0  0  0  0  0  0  # atno 17394 bound_to 11000
  140.9692  134.1554  157.4590 LP  0  0  0  0  0  0  0  0  0  0  0  0  # atno 17395 bound_to 11000

$$$$
