AV-unprocessed.smi:3046|AV-procd|sdf|11617|dock2
  -GOLD-   2272017 03D 1   1.00000     0.00000
 Structure written by MMmdl.
 37 37  0  0  0  0  0  0  0  0  1 V2000
  144.4175  144.6129  154.7236 C   0  0  0  0  0  0  0  0  0  0  0  0
  145.5170  143.8590  154.8725 C   0  0  0  0  0  0  0  0  0  0  0  0
  146.3754  143.3619  153.7293 C   0  0  0  0  0  0  0  0  0  0  0  0
  147.5666  142.7013  154.2390 N   0  0  0  0  0  0  0  0  0  0  0  0
  147.9269  141.4436  153.9461 C   0  0  0  0  0  0  0  0  0  0  0  0
  147.2706  140.7117  153.2041 O   0  0  0  0  0  0  0  0  0  0  0  0
  149.2111  140.9393  154.6159 C   0  0  2  0  0  0  0  0  0  0  0  0
  149.4686  139.4506  154.3082 C   0  0  0  0  0  0  0  0  0  0  0  0
  149.1377  141.1732  156.0666 N   0  0  0  0  0  0  0  0  0  0  0  0
  150.3633  141.7332  156.6319 C   0  0  2  0  0  0  0  0  0  0  0  0
  151.4603  140.6665  156.5119 C   0  0  0  0  0  0  0  0  0  0  0  0
  150.1273  142.1319  158.1051 C   0  0  0  0  0  0  0  0  0  0  0  0
  151.3499  142.4871  158.8049 N   0  0  0  0  0  0  0  0  0  0  0  0
  152.2589  143.4754  158.4905 C   0  0  0  0  0  0  0  0  0  0  0  0
  153.2526  143.4261  159.4257 C   0  0  0  0  0  0  0  0  0  0  0  0
  152.8513  142.3687  160.2892 C   0  0  0  0  0  0  0  0  0  0  0  0
  151.7101  141.8114  159.9177 N   0  0  0  0  0  0  0  0  0  0  0  0
  144.0753  144.9189  153.7458 H   0  0  0  0  0  0  0  0  0  0  0  0
  143.8444  144.9339  155.5809 H   0  0  0  0  0  0  0  0  0  0  0  0
  145.8262  143.5690  155.8665 H   0  0  0  0  0  0  0  0  0  0  0  0
  145.7932  142.6570  153.1342 H   0  0  0  0  0  0  0  0  0  0  0  0
  146.6565  144.1912  153.0778 H   0  0  0  0  0  0  0  0  0  0  0  0
  148.1585  143.2329  154.8610 H   0  0  0  0  0  0  0  0  0  0  0  0
  150.0307  141.5235  154.1945 H   0  0  0  0  0  0  0  0  0  0  0  0
  149.4715  139.2652  153.2334 H   0  0  0  0  0  0  0  0  0  0  0  0
  148.7075  138.8094  154.7545 H   0  0  0  0  0  0  0  0  0  0  0  0
  150.4356  139.1247  154.6912 H   0  0  0  0  0  0  0  0  0  0  0  0
  148.8873  140.3280  156.5600 H   0  0  0  0  0  0  0  0  0  0  0  0
  150.6945  142.6081  156.0702 H   0  0  0  0  0  0  0  0  0  0  0  0
  152.4049  141.0314  156.9158 H   0  0  0  0  0  0  0  0  0  0  0  0
  151.6336  140.3958  155.4697 H   0  0  0  0  0  0  0  0  0  0  0  0
  151.1976  139.7575  157.0547 H   0  0  0  0  0  0  0  0  0  0  0  0
  149.4346  142.9726  158.1669 H   0  0  0  0  0  0  0  0  0  0  0  0
  149.6593  141.3072  158.6448 H   0  0  0  0  0  0  0  0  0  0  0  0
  152.1302  144.1165  157.6307 H   0  0  0  0  0  0  0  0  0  0  0  0
  154.1321  144.0501  159.4836 H   0  0  0  0  0  0  0  0  0  0  0  0
  153.3520  141.9914  161.1687 H   0  0  0  0  0  0  0  0  0  0  0  0
  1  2  2  0  0  0  0
  1 18  1  0  0  0  0
  1 19  1  0  0  0  0
  2  3  1  0  0  0  0
  2 20  1  0  0  0  0
  3  4  1  0  0  0  0
  3 21  1  0  0  0  0
  3 22  1  0  0  0  0
  4  5  1  0  0  0  0
  4 23  1  0  0  0  0
  5  6  2  0  0  0  0
  5  7  1  0  0  0  0
  7  8  1  0  0  0  0
  7  9  1  0  0  0  0
  7 24  1  0  0  0  0
  8 25  1  0  0  0  0
  8 26  1  0  0  0  0
  8 27  1  0  0  0  0
  9 10  1  0  0  0  0
  9 28  1  0  0  0  0
 10 11  1  0  0  0  0
 10 12  1  0  0  0  0
 10 29  1  0  0  0  0
 11 30  1  0  0  0  0
 11 31  1  0  0  0  0
 11 32  1  0  0  0  0
 12 13  1  0  0  0  0
 12 33  1  0  0  0  0
 12 34  1  0  0  0  0
 13 17  1  0  0  0  0
 13 14  1  0  0  0  0
 14 15  2  0  0  0  0
 14 35  1  0  0  0  0
 15 16  1  0  0  0  0
 15 36  1  0  0  0  0
 16 17  2  0  0  0  0
 16 37  1  0  0  0  0
M  END
> <s_m_source_file>
AV-unprocessed.smi

> <i_m_source_file_index>
3046

> <i_lp_mmshare_version>
43012

> <i_f3d_flags>
0

> <s_epik_input>
W0NIMl09W0NIXVtDSDJdW05IXUMoPU8pW0NASF0oW0NIM10pW05IXVtDQEhdKFtDSDNdKVtDSDJdbjFbY0hdW2NIXVtjSF1uMQ==

> <s_epik_cmdline>
J2VwaWtfcHl0aG9uJywgJy1waCcsICc3LjAnLCAnLXRuJywgJzgnLCAnLW1hJywgJzIwMCcsICctbWV0YWxfYmluZGluZycsICctaW1hZScsICc8aW5maWxlLm1hZT4nLCAnLW9tYWUnLCAnPG91dGZpbGUubWFlPic=

> <r_lp_tautomer_probability>
1

> <r_epik_Ionization_Penalty>
0.950627

> <r_epik_Ionization_Penalty_Charging>
0

> <r_epik_Ionization_Penalty_Neutral>
0.950627

> <r_epik_State_Penalty>
0.994814

> <r_epik_Charging_Adjusted_Penalty>
0.994814

> <i_epik_Tot_Q>
0

> <i_epik_Tot_abs_Q>
0

> <r_epik_Metal_State_Penalty>
0.994788

> <b_epik_Metal_Only>
0

> <s_lp_Force_Field>
OPLS_2005

> <r_lp_Energy>
5.49444

> <b_lp_Chiralities_Consistent>
1

> <s_lp_Variant>
AV-unprocessed.smi:3046-5

> <Gold.Version>
5.8.1

> <Gold.Id.Protein>
6NUR|6NUR_protein|mol2

> <Gold.PLP.Fitness>
41.0980

> <Gold.PLP.PLP>
-39.5200

> <Gold.PLP.part.hbond>
-1.5398

> <Gold.PLP.part.metal>
0.0000

> <Gold.PLP.part.buried>
-6.8768

> <Gold.PLP.part.nonpolar>
-31.5873

> <Gold.PLP.part.repulsive>
0.3407

> <Gold.PLP.ligand.clash>
0.0000

> <Gold.PLP.ligand.torsion>
0.7887

> <Gold.PLP.Chemscore.Hbond>
1.0000

> <Gold.PLP.Chemscore.CHOScore>
0.0000

> <Gold.PLP.Chemscore.Metal>
0.0000

> <Gold.Chemscore.Hbonds>
donor molecule, donor type, donor heavy atom, donor atom, acceptor molecule, acceptor atom, score
      L1  H     4    23       P1  8028  1.00

> <Gold.PLP.Chemscore.Internal.Correction>
0.1555

> <Gold.Rescore>
     Score         DG    S(hbond)    S(metal)    S(lipo)     H(rot)  DE(clash)    DE(int)     intcor
     12.28     -13.02       0.84        0.00      88.06       2.17       0.04       0.70       ----

> <Gold.Chemscore.Fitness>
12.2789

> <Gold.Chemscore.DG>
-13.0184

> <Gold.Chemscore.ZeroCoef>
-5.4800

> <Gold.Chemscore.Hbond>
0.8383

> <Gold.Chemscore.Metal>
0.0000

> <Gold.Chemscore.Lipo>
88.0647

> <Gold.Chemscore.Internal_Hbond>
0.0000

> <Gold.Chemscore.DEClash>
0.0351

> <Gold.Chemscore.DEInternal>
0.7043

> <Gold.Chemscore.Rot>
2.1739

> <Gold.Chemscore.Internal.Correction>
   9.000000E+99

> <Gold.Chemscore.Hbonds>
donor molecule, donor type, donor heavy atom, donor atom, acceptor molecule, acceptor atom, score
      L1  H     4    23       P1  8028  0.94

> <Gold.Chemscore.Hbond.Weighted>
-2.8000

> <Gold.Chemscore.Metal.Weighted>
-0.0000

> <Gold.Chemscore.Lipo.Weighted>
-10.3036

> <Gold.Chemscore.Internal_Hbond.Weighted>
0.0000

> <Gold.Chemscore.DEClash.Weighted>
0.0351

> <Gold.Chemscore.DEInternal.Weighted>
0.7043

> <Gold.Chemscore.Rot.Weighted>
5.5652

> <Gold.Chemscore.Internal.Correction.Weighted>
   9.000000E+99

> <Gold.Protein.RotatedTorsions>
[ 6907 6896 6895 6894 ] final  -12.16 input  -60.11 | X-H torsion
[ 7974 7965 7964 7962 ] final  109.03 input  175.53 | X-H torsion
[ 8008 7997 7996 7995 ] final  -53.07 input   59.86 | X-H torsion
[ 10167 10162 10161 10158 ] final  104.03 input  -65.29 | X-H torsion
[ 10718 10713 10712 10709 ] final  -40.58 input   66.30 | X-H torsion
[ 10763 10752 10751 10750 ] final -153.66 input  -60.55 | X-H torsion
[ 11005 11000 10999 10996 ] final  -94.85 input  -57.11 | X-H torsion

> <Gold.Protein.ActiveResidues>
 VAL166  LYS551  ARG553  GLY616  TRP617  ASP618  TYR619  PRO620  LYS621  CYS622 
 ASP623  PHE694  ASN695  SER759  ASP760  ASP761  ALA762  ILE779  LEU786  VAL792 
 PHE793  MET794  SER795  GLU796  ALA797  LYS798  CYS799  TRP800  GLU811  SER814 

> <Gold.Protein.RotatedAtoms>
  151.3749  135.0929  159.9477 H   0  0  0  0  0  0  0  0  0  0  0  0  # atno 6907 bound_to 6896
  152.5125  133.9128  159.7507 H   0  0  0  0  0  0  0  0  0  0  0  0  # atno 6908 bound_to 6896
  150.9550  133.6453  159.2794 H   0  0  0  0  0  0  0  0  0  0  0  0  # atno 6909 bound_to 6896
  145.2730  139.2660  143.3956 H   0  0  0  0  0  0  0  0  0  0  0  0  # atno 7974 bound_to 7965
  154.4123  140.1209  156.5094 H   0  0  0  0  0  0  0  0  0  0  0  0  # atno 8008 bound_to 7997
  155.6814  140.3496  155.4837 H   0  0  0  0  0  0  0  0  0  0  0  0  # atno 8009 bound_to 7997
  155.9548  140.1111  157.0936 H   0  0  0  0  0  0  0  0  0  0  0  0  # atno 8010 bound_to 7997
  139.7212  144.7057  151.0869 H   0  0  0  0  0  0  0  0  0  0  0  0  # atno 10167 bound_to 10162
  156.2798  130.4216  149.8349 H   0  0  0  0  0  0  0  0  0  0  0  0  # atno 10718 bound_to 10713
  154.7912  135.3207  154.7772 H   0  0  0  0  0  0  0  0  0  0  0  0  # atno 10763 bound_to 10752
  153.8461  135.6866  153.4802 H   0  0  0  0  0  0  0  0  0  0  0  0  # atno 10764 bound_to 10752
  153.1583  135.4671  154.9676 H   0  0  0  0  0  0  0  0  0  0  0  0  # atno 10765 bound_to 10752
  141.1459  133.7985  157.0355 H   0  0  0  0  0  0  0  0  0  0  0  0  # atno 11005 bound_to 11000
  146.3240  140.3178  142.8631 LP  0  0  0  0  0  0  0  0  0  0  0  0  # atno 17320 bound_to 7965
  144.9318  140.7983  143.5684 LP  0  0  0  0  0  0  0  0  0  0  0  0  # atno 17321 bound_to 7965
  140.7754  143.5163  150.9590 LP  0  0  0  0  0  0  0  0  0  0  0  0  # atno 17342 bound_to 10162
  139.8850  143.7024  152.3152 LP  0  0  0  0  0  0  0  0  0  0  0  0  # atno 17343 bound_to 10162
  156.5800  130.8461  151.3380 LP  0  0  0  0  0  0  0  0  0  0  0  0  # atno 17370 bound_to 10713
  157.7311  130.9695  150.1863 LP  0  0  0  0  0  0  0  0  0  0  0  0  # atno 17371 bound_to 10713
  140.0726  134.9693  157.1493 LP  0  0  0  0  0  0  0  0  0  0  0  0  # atno 17394 bound_to 11000
  140.3688  134.2413  155.7180 LP  0  0  0  0  0  0  0  0  0  0  0  0  # atno 17395 bound_to 11000

$$$$
