AV-unprocessed.smi:2604|AV-procd|sdf|10191|dock7
  -GOLD-   2272014203D 1   1.00000     0.00000
 Structure written by MMmdl.
 26 27  0  0  0  0  0  0  0  0  2 V2000
  152.7996  142.7221  159.7370 C   0  0  0  0  0  0  0  0  0  0  0  0
  152.2446  143.9919  159.9899 C   0  0  0  0  0  0  0  0  0  0  0  0
  151.1339  144.4493  159.3735 N   0  0  0  0  0  0  0  0  0  0  0  0
  150.5309  143.6431  158.4740 C   0  0  0  0  0  0  0  0  0  0  0  0
  151.0013  142.3526  158.1455 C   0  0  0  0  0  0  0  0  0  0  0  0
  150.2744  141.5059  157.1121 C   0  0  2  0  0  0  0  0  0  0  0  0
  151.1417  141.1937  155.8707 C   0  0  0  0  0  0  0  0  0  0  0  0
  150.3966  140.3495  154.9418 N   0  0  0  0  0  0  0  0  0  0  0  0
  149.2124  141.0739  154.4902 C   0  0  0  0  0  0  0  0  0  0  0  0
  148.2951  141.3735  155.6907 C   0  0  0  0  0  0  0  0  0  0  0  0
  149.0212  142.1730  156.6983 N   0  3  0  0  0  0  0  0  0  0  0  0
  152.1651  141.8877  158.7970 C   0  0  0  0  0  0  0  0  0  0  0  0
  153.6924  142.3978  160.2511 H   0  0  0  0  0  0  0  0  0  0  0  0
  152.7065  144.6590  160.7029 H   0  0  0  0  0  0  0  0  0  0  0  0
  149.6476  144.0451  157.9999 H   0  0  0  0  0  0  0  0  0  0  0  0
  150.0024  140.5613  157.5871 H   0  0  0  0  0  0  0  0  0  0  0  0
  151.4560  142.1049  155.3602 H   0  0  0  0  0  0  0  0  0  0  0  0
  152.0477  140.6660  156.1707 H   0  0  0  0  0  0  0  0  0  0  0  0
  150.9797  140.1240  154.1475 H   0  0  0  0  0  0  0  0  0  0  0  0
  149.5073  141.9948  153.9849 H   0  0  0  0  0  0  0  0  0  0  0  0
  148.6828  140.4630  153.7588 H   0  0  0  0  0  0  0  0  0  0  0  0
  147.4131  141.9258  155.3663 H   0  0  0  0  0  0  0  0  0  0  0  0
  147.9428  140.4466  156.1459 H   0  0  0  0  0  0  0  0  0  0  0  0
  148.4314  142.3124  157.5061 H   0  0  0  0  0  0  0  0  0  0  0  0
  152.5744  140.9124  158.5789 H   0  0  0  0  0  0  0  0  0  0  0  0
  149.2497  143.0706  156.2959 H   0  0  0  0  0  0  0  0  0  0  0  0
  1 12  1  0  0  0  0
  1  2  2  0  0  0  0
  1 13  1  0  0  0  0
  2  3  1  0  0  0  0
  2 14  1  0  0  0  0
  3  4  2  0  0  0  0
  4  5  1  0  0  0  0
  4 15  1  0  0  0  0
  5  6  1  0  0  0  0
  5 12  2  0  0  0  0
  6 11  1  0  0  0  0
  6  7  1  0  0  0  0
  6 16  1  0  0  0  0
  7  8  1  0  0  0  0
  7 17  1  0  0  0  0
  7 18  1  0  0  0  0
  8  9  1  0  0  0  0
  8 19  1  0  0  0  0
  9 10  1  0  0  0  0
  9 20  1  0  0  0  0
  9 21  1  0  0  0  0
 10 11  1  0  0  0  0
 10 22  1  0  0  0  0
 10 23  1  0  0  0  0
 11 24  1  0  0  0  0
 11 26  1  0  0  0  0
 12 25  1  0  0  0  0
M  CHG  1  11   1
M  END
> <s_m_source_file>
AV-unprocessed.smi

> <i_m_source_file_index>
2604

> <i_lp_mmshare_version>
43012

> <i_f3d_flags>
0

> <s_epik_input>
W2NIXTFbY0hdW2NIXW5bY0hdYzFbQ0BASF0yW0NIMl1bTkhdW0NIMl1bQ0gyXVtOSF0y

> <s_epik_cmdline>
J2VwaWtfcHl0aG9uJywgJy1waCcsICc3LjAnLCAnLXRuJywgJzgnLCAnLW1hJywgJzIwMCcsICctbWV0YWxfYmluZGluZycsICctaW1hZScsICc8aW5maWxlLm1hZT4nLCAnLW9tYWUnLCAnPG91dGZpbGUubWFlPic=

> <r_epik_Ionization_Penalty>
0.0278512

> <r_epik_Ionization_Penalty_Charging>
0.015072

> <r_epik_Ionization_Penalty_Neutral>
0.0127792

> <r_epik_State_Penalty>
0.548815

> <r_epik_Charging_Adjusted_Penalty>
0.563887

> <i_epik_Tot_Q>
1

> <i_epik_Tot_abs_Q>
1

> <r_epik_Metal_State_Penalty>
0.542887

> <b_epik_Metal_Only>
0

> <s_lp_Force_Field>
OPLS_2005

> <r_lp_Energy>
7.72855

> <b_lp_Chiralities_Consistent>
1

> <s_lp_Variant>
AV-unprocessed.smi:2604-3

> <Gold.Version>
5.8.1

> <Gold.Id.Protein>
6NUR|6NUR_protein|mol2

> <Gold.PLP.Fitness>
35.2471

> <Gold.PLP.PLP>
-25.9235

> <Gold.PLP.part.hbond>
-2.0000

> <Gold.PLP.part.metal>
0.0000

> <Gold.PLP.part.buried>
-3.5243

> <Gold.PLP.part.nonpolar>
-20.5391

> <Gold.PLP.part.repulsive>
0.1156

> <Gold.PLP.ligand.clash>
0.0000

> <Gold.PLP.ligand.torsion>
0.0433

> <Gold.PLP.Chemscore.Hbond>
2.0000

> <Gold.PLP.Chemscore.CHOScore>
1.1327

> <Gold.PLP.Chemscore.Metal>
0.0000

> <Gold.Chemscore.Hbonds>
donor molecule, donor type, donor heavy atom, donor atom, acceptor molecule, acceptor atom, score
      L1  H    11    26       P1  8028  2.00
      L1  C     4    15       P1  8028  0.82
      L1  C     4    15       P1  8029  0.30

> <Gold.PLP.Chemscore.Internal.Correction>
0.0121

> <Gold.Rescore>
     Score         DG    S(hbond)    S(metal)    S(lipo)     H(rot)  DE(clash)    DE(int)     intcor
     15.01     -15.18       0.98        0.00      76.93       1.00       0.16       0.01       ----

> <Gold.Chemscore.Fitness>
15.0109

> <Gold.Chemscore.DG>
-15.1780

> <Gold.Chemscore.ZeroCoef>
-5.4800

> <Gold.Chemscore.Hbond>
0.9753

> <Gold.Chemscore.Metal>
0.0000

> <Gold.Chemscore.Lipo>
76.9263

> <Gold.Chemscore.Internal_Hbond>
0.0000

> <Gold.Chemscore.DEClash>
0.1596

> <Gold.Chemscore.DEInternal>
0.0074

> <Gold.Chemscore.Rot>
1.0000

> <Gold.Chemscore.Internal.Correction>
   9.000000E+99

> <Gold.Chemscore.Hbonds>
donor molecule, donor type, donor heavy atom, donor atom, acceptor molecule, acceptor atom, score
      L1  H    11    26       P1  8028  0.98

> <Gold.Chemscore.Hbond.Weighted>
-3.2576

> <Gold.Chemscore.Metal.Weighted>
-0.0000

> <Gold.Chemscore.Lipo.Weighted>
-9.0004

> <Gold.Chemscore.Internal_Hbond.Weighted>
0.0000

> <Gold.Chemscore.DEClash.Weighted>
0.1596

> <Gold.Chemscore.DEInternal.Weighted>
0.0074

> <Gold.Chemscore.Rot.Weighted>
2.5600

> <Gold.Chemscore.Internal.Correction.Weighted>
   9.000000E+99

> <Gold.Protein.RotatedTorsions>
[ 6907 6896 6895 6894 ] final -100.03 input  -60.11 | X-H torsion
[ 7974 7965 7964 7962 ] final -175.25 input  175.53 | X-H torsion
[ 8008 7997 7996 7995 ] final -178.57 input   59.86 | X-H torsion
[ 10167 10162 10161 10158 ] final   54.10 input  -65.29 | X-H torsion
[ 10718 10713 10712 10709 ] final   69.60 input   66.30 | X-H torsion
[ 10763 10752 10751 10750 ] final  169.70 input  -60.55 | X-H torsion
[ 11005 11000 10999 10996 ] final   70.23 input  -57.11 | X-H torsion

> <Gold.Protein.ActiveResidues>
 VAL166  LYS551  ARG553  GLY616  TRP617  ASP618  TYR619  PRO620  LYS621  CYS622 
 ASP623  PHE694  ASN695  SER759  ASP760  ASP761  ALA762  ILE779  LEU786  VAL792 
 PHE793  MET794  SER795  GLU796  ALA797  LYS798  CYS799  TRP800  GLU811  SER814 

> <Gold.Protein.RotatedAtoms>
  150.7101  134.0949  159.3944 H   0  0  0  0  0  0  0  0  0  0  0  0  # atno 6907 bound_to 6896
  151.8935  135.0405  160.0509 H   0  0  0  0  0  0  0  0  0  0  0  0  # atno 6908 bound_to 6896
  152.2472  133.5149  159.5341 H   0  0  0  0  0  0  0  0  0  0  0  0  # atno 6909 bound_to 6896
  144.7129  140.1349  143.6396 H   0  0  0  0  0  0  0  0  0  0  0  0  # atno 7974 bound_to 7965
  156.0204  140.1260  157.0363 H   0  0  0  0  0  0  0  0  0  0  0  0  # atno 8008 bound_to 7997
  154.4309  140.1070  156.6025 H   0  0  0  0  0  0  0  0  0  0  0  0  # atno 8009 bound_to 7997
  155.5953  140.3470  155.4580 H   0  0  0  0  0  0  0  0  0  0  0  0  # atno 8010 bound_to 7997
  140.2337  144.3659  150.6405 H   0  0  0  0  0  0  0  0  0  0  0  0  # atno 10167 bound_to 10162
  157.6355  130.9434  150.0536 H   0  0  0  0  0  0  0  0  0  0  0  0  # atno 10718 bound_to 10713
  154.3869  135.2754  155.2178 H   0  0  0  0  0  0  0  0  0  0  0  0  # atno 10763 bound_to 10752
  154.4261  135.5988  153.6043 H   0  0  0  0  0  0  0  0  0  0  0  0  # atno 10764 bound_to 10752
  152.9833  135.5984  154.4119 H   0  0  0  0  0  0  0  0  0  0  0  0  # atno 10765 bound_to 10752
  139.9609  134.7063  156.0648 H   0  0  0  0  0  0  0  0  0  0  0  0  # atno 11005 bound_to 11000
  145.9254  139.2572  143.1357 LP  0  0  0  0  0  0  0  0  0  0  0  0  # atno 17320 bound_to 7965
  145.9578  140.8859  143.0226 LP  0  0  0  0  0  0  0  0  0  0  0  0  # atno 17321 bound_to 7965
  140.6166  143.2173  151.6780 LP  0  0  0  0  0  0  0  0  0  0  0  0  # atno 17342 bound_to 10162
  139.5101  144.3555  152.0612 LP  0  0  0  0  0  0  0  0  0  0  0  0  # atno 17343 bound_to 10162
  156.1590  130.3643  149.9326 LP  0  0  0  0  0  0  0  0  0  0  0  0  # atno 17370 bound_to 10713
  156.7329  130.9050  151.3627 LP  0  0  0  0  0  0  0  0  0  0  0  0  # atno 17371 bound_to 10713
  141.1286  133.6592  156.3403 LP  0  0  0  0  0  0  0  0  0  0  0  0  # atno 17394 bound_to 11000
  140.5503  134.6034  157.5405 LP  0  0  0  0  0  0  0  0  0  0  0  0  # atno 17395 bound_to 11000

$$$$
