AV-unprocessed.smi:2061|AV-procd|sdf|8363|dock6
  -GOLD-   2272011 33D 1   1.00000     0.00000
 Structure written by MMmdl.
 45 46  0  0  0  0  0  0  0  0  1 V2000
  149.8316  131.5757  155.0592 C   0  0  0  0  0  0  0  0  0  0  0  0
  149.8778  132.8587  155.8158 C   0  0  0  0  0  0  0  0  0  0  0  0
  149.7489  134.1658  155.4384 C   0  0  0  0  0  0  0  0  0  0  0  0
  149.9005  134.8685  156.6634 C   0  0  0  0  0  0  0  0  0  0  0  0
  149.8315  136.2845  156.7027 N   0  0  0  0  0  0  0  0  0  0  0  0
  150.3393  137.1041  157.6388 C   0  0  0  0  0  0  0  0  0  0  0  0
  150.9545  136.7388  158.6408 O   0  0  0  0  0  0  0  0  0  0  0  0
  150.0861  138.3885  157.3470 N   0  0  0  0  0  0  0  0  0  0  0  0
  150.4923  139.5412  158.1483 C   0  0  0  0  0  0  0  0  0  0  0  0
  151.8392  140.1605  157.6781 C   0  0  1  0  0  0  0  0  0  0  0  0
  151.8121  140.3130  156.1356 C   0  0  0  0  0  0  0  0  0  0  0  0
  152.1731  141.4268  158.3733 N   0  0  0  0  0  0  0  0  0  0  0  0
  152.4109  141.2397  159.8079 C   0  0  0  0  0  0  0  0  0  0  0  0
  152.7841  142.5476  160.5284 C   0  0  2  0  0  0  0  0  0  0  0  0
  152.9509  142.3458  162.0384 C   0  0  0  0  0  0  0  0  0  0  0  0
  151.7574  143.5121  160.3243 O   0  0  0  0  0  0  0  0  0  0  0  0
  151.4440  143.7682  158.9574 C   0  0  1  0  0  0  0  0  0  0  0  0
  152.5298  144.6117  158.2673 C   0  0  0  0  0  0  0  0  0  0  0  0
  151.1327  142.4507  158.2195 C   0  0  0  0  0  0  0  0  0  0  0  0
  150.1037  134.0634  157.6950 N   0  0  0  0  0  0  0  0  0  0  0  0
  150.0911  132.7712  157.1568 O   0  0  0  0  0  0  0  0  0  0  0  0
  149.4206  131.7280  154.0610 H   0  0  0  0  0  0  0  0  0  0  0  0
  149.2080  130.8442  155.5735 H   0  0  0  0  0  0  0  0  0  0  0  0
  150.8313  131.1544  154.9532 H   0  0  0  0  0  0  0  0  0  0  0  0
  149.5744  134.5531  154.4454 H   0  0  0  0  0  0  0  0  0  0  0  0
  149.3432  136.7202  155.9344 H   0  0  0  0  0  0  0  0  0  0  0  0
  149.5708  138.5882  156.5023 H   0  0  0  0  0  0  0  0  0  0  0  0
  149.7176  140.3096  158.1708 H   0  0  0  0  0  0  0  0  0  0  0  0
  150.5665  139.1518  159.1616 H   0  0  0  0  0  0  0  0  0  0  0  0
  152.6204  139.4349  157.9105 H   0  0  0  0  0  0  0  0  0  0  0  0
  151.5213  139.3935  155.6296 H   0  0  0  0  0  0  0  0  0  0  0  0
  152.7905  140.5582  155.7256 H   0  0  0  0  0  0  0  0  0  0  0  0
  151.1110  141.0901  155.8290 H   0  0  0  0  0  0  0  0  0  0  0  0
  151.5271  140.8016  160.2746 H   0  0  0  0  0  0  0  0  0  0  0  0
  153.2325  140.5458  159.9736 H   0  0  0  0  0  0  0  0  0  0  0  0
  153.7253  142.9267  160.1293 H   0  0  0  0  0  0  0  0  0  0  0  0
  153.7338  141.6182  162.2538 H   0  0  0  0  0  0  0  0  0  0  0  0
  152.0265  141.9882  162.4929 H   0  0  0  0  0  0  0  0  0  0  0  0
  153.2230  143.2808  162.5285 H   0  0  0  0  0  0  0  0  0  0  0  0
  150.5340  144.3688  158.9623 H   0  0  0  0  0  0  0  0  0  0  0  0
  152.2156  144.9004  157.2641 H   0  0  0  0  0  0  0  0  0  0  0  0
  153.4706  144.0706  158.1690 H   0  0  0  0  0  0  0  0  0  0  0  0
  152.7260  145.5263  158.8272 H   0  0  0  0  0  0  0  0  0  0  0  0
  150.9823  142.7014  157.1716 H   0  0  0  0  0  0  0  0  0  0  0  0
  150.1835  142.0569  158.5862 H   0  0  0  0  0  0  0  0  0  0  0  0
  1  2  1  0  0  0  0
  1 22  1  0  0  0  0
  1 23  1  0  0  0  0
  1 24  1  0  0  0  0
  2 21  1  0  0  0  0
  2  3  2  0  0  0  0
  3  4  1  0  0  0  0
  3 25  1  0  0  0  0
  4  5  1  0  0  0  0
  4 20  2  0  0  0  0
  5  6  1  0  0  0  0
  5 26  1  0  0  0  0
  6  7  2  0  0  0  0
  6  8  1  0  0  0  0
  8  9  1  0  0  0  0
  8 27  1  0  0  0  0
  9 10  1  0  0  0  0
  9 28  1  0  0  0  0
  9 29  1  0  0  0  0
 10 11  1  0  0  0  0
 10 12  1  0  0  0  0
 10 30  1  0  0  0  0
 11 31  1  0  0  0  0
 11 32  1  0  0  0  0
 11 33  1  0  0  0  0
 12 19  1  0  0  0  0
 12 13  1  0  0  0  0
 13 14  1  0  0  0  0
 13 34  1  0  0  0  0
 13 35  1  0  0  0  0
 14 15  1  0  0  0  0
 14 16  1  0  0  0  0
 14 36  1  0  0  0  0
 15 37  1  0  0  0  0
 15 38  1  0  0  0  0
 15 39  1  0  0  0  0
 16 17  1  0  0  0  0
 17 18  1  0  0  0  0
 17 19  1  0  0  0  0
 17 40  1  0  0  0  0
 18 41  1  0  0  0  0
 18 42  1  0  0  0  0
 18 43  1  0  0  0  0
 19 44  1  0  0  0  0
 19 45  1  0  0  0  0
 20 21  1  0  0  0  0
M  END
> <s_m_source_file>
AV-unprocessed.smi

> <i_m_source_file_index>
2061

> <i_lp_mmshare_version>
43012

> <i_f3d_flags>
0

> <s_epik_input>
W0NIM11jMVtjSF1jKG5vMSlbTkhdQyg9TylbTkhdW0NIMl1bQ0BIXShbQ0gzXSlOMltDSDJdW0NAQEhdKFtDSDNdKU9bQ0BASF0oW0NIM10pW0NIMl0y

> <s_epik_cmdline>
J2VwaWtfcHl0aG9uJywgJy1waCcsICc3LjAnLCAnLXRuJywgJzgnLCAnLW1hJywgJzIwMCcsICctbWV0YWxfYmluZGluZycsICctaW1hZScsICc8aW5maWxlLm1hZT4nLCAnLW9tYWUnLCAnPG91dGZpbGUubWFlPic=

> <r_epik_Ionization_Penalty>
0.214073

> <r_epik_Ionization_Penalty_Charging>
0

> <r_epik_Ionization_Penalty_Neutral>
0.214073

> <r_epik_State_Penalty>
0.204211

> <r_epik_Charging_Adjusted_Penalty>
0.204211

> <i_epik_Tot_Q>
0

> <i_epik_Tot_abs_Q>
0

> <r_epik_Metal_State_Penalty>
0.217067

> <b_epik_Metal_Only>
0

> <s_lp_Force_Field>
OPLS_2005

> <r_lp_Energy>
29.4213

> <b_lp_Chiralities_Consistent>
1

> <s_lp_Variant>
AV-unprocessed.smi:2061-4

> <Gold.Version>
5.8.1

> <Gold.Id.Protein>
6NUR|6NUR_protein|mol2

> <Gold.PLP.Fitness>
41.6361

> <Gold.PLP.PLP>
-37.5261

> <Gold.PLP.part.hbond>
-2.0535

> <Gold.PLP.part.metal>
0.0000

> <Gold.PLP.part.buried>
-6.0353

> <Gold.PLP.part.nonpolar>
-30.7572

> <Gold.PLP.part.repulsive>
0.1441

> <Gold.PLP.ligand.clash>
0.0000

> <Gold.PLP.ligand.torsion>
0.3822

> <Gold.PLP.Chemscore.Hbond>
1.6160

> <Gold.PLP.Chemscore.CHOScore>
0.0000

> <Gold.PLP.Chemscore.Metal>
0.0000

> <Gold.Chemscore.Hbonds>
donor molecule, donor type, donor heavy atom, donor atom, acceptor molecule, acceptor atom, score
      P1  H  6896  6907       L1     7  0.74
      P1  H  6896  6909       L1    20  0.67

> <Gold.PLP.Chemscore.Internal.Correction>
0.0264

> <Gold.Rescore>
     Score         DG    S(hbond)    S(metal)    S(lipo)     H(rot)  DE(clash)    DE(int)     intcor
     16.12     -17.62       1.52        0.00      94.21       1.55       0.00       1.50       ----

> <Gold.Chemscore.Fitness>
16.1184

> <Gold.Chemscore.DG>
-17.6227

> <Gold.Chemscore.ZeroCoef>
-5.4800

> <Gold.Chemscore.Hbond>
1.5213

> <Gold.Chemscore.Metal>
0.0000

> <Gold.Chemscore.Lipo>
94.2130

> <Gold.Chemscore.Internal_Hbond>
0.0000

> <Gold.Chemscore.DEClash>
0.0000

> <Gold.Chemscore.DEInternal>
1.5043

> <Gold.Chemscore.Rot>
1.5474

> <Gold.Chemscore.Internal.Correction>
   9.000000E+99

> <Gold.Chemscore.Hbonds>
donor molecule, donor type, donor heavy atom, donor atom, acceptor molecule, acceptor atom, score
      P1  H  6896  6907       L1     7  0.73
      P1  H  6896  6909       L1    20  0.11

> <Gold.Chemscore.Hbond.Weighted>
-5.0810

> <Gold.Chemscore.Metal.Weighted>
-0.0000

> <Gold.Chemscore.Lipo.Weighted>
-11.0229

> <Gold.Chemscore.Internal_Hbond.Weighted>
0.0000

> <Gold.Chemscore.DEClash.Weighted>
0.0000

> <Gold.Chemscore.DEInternal.Weighted>
1.5043

> <Gold.Chemscore.Rot.Weighted>
3.9612

> <Gold.Chemscore.Internal.Correction.Weighted>
   9.000000E+99

> <Gold.Protein.RotatedTorsions>
[ 6907 6896 6895 6894 ] final  -11.36 input  -60.11 | X-H torsion
[ 7974 7965 7964 7962 ] final   97.16 input  175.53 | X-H torsion
[ 8008 7997 7996 7995 ] final -126.87 input   59.86 | X-H torsion
[ 10167 10162 10161 10158 ] final  -92.52 input  -65.29 | X-H torsion
[ 10718 10713 10712 10709 ] final   -7.93 input   66.30 | X-H torsion
[ 10763 10752 10751 10750 ] final   36.95 input  -60.55 | X-H torsion
[ 11005 11000 10999 10996 ] final   -4.63 input  -57.11 | X-H torsion

> <Gold.Protein.ActiveResidues>
 VAL166  LYS551  ARG553  GLY616  TRP617  ASP618  TYR619  PRO620  LYS621  CYS622 
 ASP623  PHE694  ASN695  SER759  ASP760  ASP761  ALA762  ILE779  LEU786  VAL792 
 PHE793  MET794  SER795  GLU796  ALA797  LYS798  CYS799  TRP800  GLU811  SER814 

> <Gold.Protein.RotatedAtoms>
  151.3875  135.0950  159.9515 H   0  0  0  0  0  0  0  0  0  0  0  0  # atno 6907 bound_to 6896
  152.5090  133.9012  159.7452 H   0  0  0  0  0  0  0  0  0  0  0  0  # atno 6908 bound_to 6896
  150.9459  133.6548  159.2810 H   0  0  0  0  0  0  0  0  0  0  0  0  # atno 6909 bound_to 6896
  145.4292  139.2312  143.3153 H   0  0  0  0  0  0  0  0  0  0  0  0  # atno 7974 bound_to 7965
  155.2367  140.0427  157.2969 H   0  0  0  0  0  0  0  0  0  0  0  0  # atno 8008 bound_to 7997
  154.5854  140.2412  155.7965 H   0  0  0  0  0  0  0  0  0  0  0  0  # atno 8009 bound_to 7997
  156.2222  140.2966  155.9989 H   0  0  0  0  0  0  0  0  0  0  0  0  # atno 8010 bound_to 7997
  140.3339  143.2979  151.9911 H   0  0  0  0  0  0  0  0  0  0  0  0  # atno 10167 bound_to 10162
  156.7100  130.5119  149.5894 H   0  0  0  0  0  0  0  0  0  0  0  0  # atno 10718 bound_to 10713
  153.0057  135.6291  154.2066 H   0  0  0  0  0  0  0  0  0  0  0  0  # atno 10763 bound_to 10752
  154.1810  135.2813  155.3054 H   0  0  0  0  0  0  0  0  0  0  0  0  # atno 10764 bound_to 10752
  154.5835  135.5640  153.7268 H   0  0  0  0  0  0  0  0  0  0  0  0  # atno 10765 bound_to 10752
  140.6823  133.9143  155.8563 H   0  0  0  0  0  0  0  0  0  0  0  0  # atno 11005 bound_to 11000
  146.2616  140.5026  142.8851 LP  0  0  0  0  0  0  0  0  0  0  0  0  # atno 17320 bound_to 7965
  144.8194  140.6524  143.6363 LP  0  0  0  0  0  0  0  0  0  0  0  0  # atno 17321 bound_to 7965
  139.4851  144.6212  151.7251 LP  0  0  0  0  0  0  0  0  0  0  0  0  # atno 17342 bound_to 10162
  140.5371  144.0638  150.6074 LP  0  0  0  0  0  0  0  0  0  0  0  0  # atno 17343 bound_to 10162
  156.1668  130.6410  151.0787 LP  0  0  0  0  0  0  0  0  0  0  0  0  # atno 17370 bound_to 10713
  157.6940  131.0800  150.7025 LP  0  0  0  0  0  0  0  0  0  0  0  0  # atno 17371 bound_to 10713
  141.0308  134.0759  157.4017 LP  0  0  0  0  0  0  0  0  0  0  0  0  # atno 17394 bound_to 11000
  139.8948  135.0138  156.6969 LP  0  0  0  0  0  0  0  0  0  0  0  0  # atno 17395 bound_to 11000

$$$$
