AV-unprocessed.smi:1250|AV-procd|sdf|5255|dock4
  -GOLD-   22720 4363D 1   1.00000     0.00000
 Structure written by MMmdl.
 41 42  0  0  0  0  0  0  0  0  1 V2000
  146.8706  134.7793  162.7290 C   0  0  0  0  0  0  0  0  0  0  0  0
  147.2505  135.9908  161.8550 C   0  0  0  0  0  0  0  0  0  0  0  0
  146.0927  137.0058  161.8566 C   0  0  0  0  0  0  0  0  0  0  0  0
  147.6666  135.5740  160.4191 C   0  0  1  0  0  0  0  0  0  0  0  0
  146.5871  134.7559  159.6854 C   0  0  0  0  0  0  0  0  0  0  0  0
  147.9826  136.7566  159.6187 N   0  0  0  0  0  0  0  0  0  0  0  0
  149.0813  136.9187  158.8642 C   0  0  0  0  0  0  0  0  0  0  0  0
  149.9683  136.0714  158.7625 O   0  0  0  0  0  0  0  0  0  0  0  0
  149.1973  138.2394  158.1021 C   0  0  0  0  0  0  0  0  0  0  0  0
  150.3584  139.0392  158.6191 C   0  0  0  0  0  0  0  0  0  0  0  0
  151.4788  138.5537  159.2493 C   0  0  0  0  0  0  0  0  0  0  0  0
  152.5838  139.8251  159.6913 S   0  0  0  0  0  0  0  0  0  0  0  0
  151.4589  140.9974  158.9984 C   0  0  0  0  0  0  0  0  0  0  0  0
  151.6297  142.4137  158.9648 N   0  0  0  0  0  0  0  0  0  0  0  0
  151.0762  143.2301  157.8887 C   0  0  0  0  0  0  0  0  0  0  0  0
  151.2598  144.6865  158.3284 C   0  0  0  0  0  0  0  0  0  0  0  0
  152.2635  144.6378  159.4786 C   0  0  0  0  0  0  0  0  0  0  0  0
  152.3058  143.1652  159.8520 C   0  0  0  0  0  0  0  0  0  0  0  0
  152.9082  142.7732  160.8504 O   0  0  0  0  0  0  0  0  0  0  0  0
  150.3598  140.4323  158.4867 N   0  0  0  0  0  0  0  0  0  0  0  0
  146.0496  134.2152  162.2857 H   0  0  0  0  0  0  0  0  0  0  0  0
  146.5551  135.0959  163.7235 H   0  0  0  0  0  0  0  0  0  0  0  0
  147.7087  134.0959  162.8662 H   0  0  0  0  0  0  0  0  0  0  0  0
  148.1063  136.4736  162.3291 H   0  0  0  0  0  0  0  0  0  0  0  0
  145.2214  136.6132  161.3316 H   0  0  0  0  0  0  0  0  0  0  0  0
  146.3752  137.9456  161.3835 H   0  0  0  0  0  0  0  0  0  0  0  0
  145.7836  137.2474  162.8740 H   0  0  0  0  0  0  0  0  0  0  0  0
  148.5634  134.9566  160.5005 H   0  0  0  0  0  0  0  0  0  0  0  0
  146.3973  133.8023  160.1769 H   0  0  0  0  0  0  0  0  0  0  0  0
  146.8935  134.5265  158.6642 H   0  0  0  0  0  0  0  0  0  0  0  0
  145.6439  135.3007  159.6323 H   0  0  0  0  0  0  0  0  0  0  0  0
  147.3091  137.5089  159.6373 H   0  0  0  0  0  0  0  0  0  0  0  0
  149.3032  138.0323  157.0361 H   0  0  0  0  0  0  0  0  0  0  0  0
  148.2692  138.8011  158.2143 H   0  0  0  0  0  0  0  0  0  0  0  0
  151.7211  137.5256  159.4749 H   0  0  0  0  0  0  0  0  0  0  0  0
  151.6273  143.0317  156.9681 H   0  0  0  0  0  0  0  0  0  0  0  0
  150.0243  143.0019  157.7112 H   0  0  0  0  0  0  0  0  0  0  0  0
  151.6040  145.3176  157.5085 H   0  0  0  0  0  0  0  0  0  0  0  0
  150.3118  145.0942  158.6820 H   0  0  0  0  0  0  0  0  0  0  0  0
  153.2547  144.9574  159.1557 H   0  0  0  0  0  0  0  0  0  0  0  0
  151.9535  145.2554  160.3223 H   0  0  0  0  0  0  0  0  0  0  0  0
  1  2  1  0  0  0  0
  1 21  1  0  0  0  0
  1 22  1  0  0  0  0
  1 23  1  0  0  0  0
  2  3  1  0  0  0  0
  2  4  1  0  0  0  0
  2 24  1  0  0  0  0
  3 25  1  0  0  0  0
  3 26  1  0  0  0  0
  3 27  1  0  0  0  0
  4  5  1  0  0  0  0
  4  6  1  0  0  0  0
  4 28  1  0  0  0  0
  5 29  1  0  0  0  0
  5 30  1  0  0  0  0
  5 31  1  0  0  0  0
  6  7  1  0  0  0  0
  6 32  1  0  0  0  0
  7  8  2  0  0  0  0
  7  9  1  0  0  0  0
  9 10  1  0  0  0  0
  9 33  1  0  0  0  0
  9 34  1  0  0  0  0
 10 20  1  0  0  0  0
 10 11  2  0  0  0  0
 11 12  1  0  0  0  0
 11 35  1  0  0  0  0
 12 13  1  0  0  0  0
 13 14  1  0  0  0  0
 13 20  2  0  0  0  0
 14 18  1  0  0  0  0
 14 15  1  0  0  0  0
 15 16  1  0  0  0  0
 15 36  1  0  0  0  0
 15 37  1  0  0  0  0
 16 17  1  0  0  0  0
 16 38  1  0  0  0  0
 16 39  1  0  0  0  0
 17 18  1  0  0  0  0
 17 40  1  0  0  0  0
 17 41  1  0  0  0  0
 18 19  2  0  0  0  0
M  END
> <s_m_source_file>
AV-unprocessed.smi

> <i_m_source_file_index>
1250

> <i_lp_mmshare_version>
43012

> <i_f3d_flags>
0

> <s_epik_input>
W0NIM11bQ0hdKFtDSDNdKVtDQEhdKFtDSDNdKVtOSF1DKD1PKVtDSDJdYzFbY0hdc2MobjEpTjJbQ0gyXVtDSDJdW0NIMl1DMj1P

> <s_epik_cmdline>
J2VwaWtfcHl0aG9uJywgJy1waCcsICc3LjAnLCAnLXRuJywgJzgnLCAnLW1hJywgJzIwMCcsICctbWV0YWxfYmluZGluZycsICctaW1hZScsICc8aW5maWxlLm1hZT4nLCAnLW9tYWUnLCAnPG91dGZpbGUubWFlPic=

> <r_lp_tautomer_probability>
1

> <r_epik_Ionization_Penalty>
3.03552e-05

> <r_epik_Ionization_Penalty_Charging>
0

> <r_epik_Ionization_Penalty_Neutral>
3.03552e-05

> <r_epik_State_Penalty>
-0

> <r_epik_Charging_Adjusted_Penalty>
0

> <i_epik_Tot_Q>
0

> <i_epik_Tot_abs_Q>
0

> <r_epik_Metal_State_Penalty>
-0

> <b_epik_Metal_Only>
0

> <s_lp_Force_Field>
OPLS_2005

> <r_lp_Energy>
19.4329

> <b_lp_Chiralities_Consistent>
1

> <s_lp_Variant>
AV-unprocessed.smi:1250-2

> <Gold.Version>
5.8.1

> <Gold.Id.Protein>
6NUR|6NUR_protein|mol2

> <Gold.PLP.Fitness>
43.2433

> <Gold.PLP.PLP>
-42.1192

> <Gold.PLP.part.hbond>
-1.0000

> <Gold.PLP.part.metal>
0.0000

> <Gold.PLP.part.buried>
-5.9256

> <Gold.PLP.part.nonpolar>
-35.0120

> <Gold.PLP.part.repulsive>
0.2060

> <Gold.PLP.ligand.clash>
0.0000

> <Gold.PLP.ligand.torsion>
0.9552

> <Gold.PLP.Chemscore.Hbond>
1.0000

> <Gold.PLP.Chemscore.CHOScore>
0.0000

> <Gold.PLP.Chemscore.Metal>
0.0000

> <Gold.Chemscore.Hbonds>
donor molecule, donor type, donor heavy atom, donor atom, acceptor molecule, acceptor atom, score
      P1  H  6896  6907       L1     8  1.00

> <Gold.PLP.Chemscore.Internal.Correction>
0.0346

> <Gold.Rescore>
     Score         DG    S(hbond)    S(metal)    S(lipo)     H(rot)  DE(clash)    DE(int)     intcor
     13.62     -15.91       1.00        0.00      95.13       1.58       0.00       2.29       ----

> <Gold.Chemscore.Fitness>
13.6202

> <Gold.Chemscore.DG>
-15.9080

> <Gold.Chemscore.ZeroCoef>
-5.4800

> <Gold.Chemscore.Hbond>
0.9989

> <Gold.Chemscore.Metal>
0.0000

> <Gold.Chemscore.Lipo>
95.1288

> <Gold.Chemscore.Internal_Hbond>
0.0000

> <Gold.Chemscore.DEClash>
0.0015

> <Gold.Chemscore.DEInternal>
2.2863

> <Gold.Chemscore.Rot>
1.5775

> <Gold.Chemscore.Internal.Correction>
   9.000000E+99

> <Gold.Chemscore.Hbonds>
donor molecule, donor type, donor heavy atom, donor atom, acceptor molecule, acceptor atom, score
      P1  H  6896  6907       L1     8  1.00

> <Gold.Chemscore.Hbond.Weighted>
-3.3364

> <Gold.Chemscore.Metal.Weighted>
-0.0000

> <Gold.Chemscore.Lipo.Weighted>
-11.1301

> <Gold.Chemscore.Internal_Hbond.Weighted>
0.0000

> <Gold.Chemscore.DEClash.Weighted>
0.0015

> <Gold.Chemscore.DEInternal.Weighted>
2.2863

> <Gold.Chemscore.Rot.Weighted>
4.0385

> <Gold.Chemscore.Internal.Correction.Weighted>
   9.000000E+99

> <Gold.Protein.RotatedTorsions>
[ 6907 6896 6895 6894 ] final  -49.20 input  -60.11 | X-H torsion
[ 7974 7965 7964 7962 ] final  107.41 input  175.53 | X-H torsion
[ 8008 7997 7996 7995 ] final   45.37 input   59.86 | X-H torsion
[ 10167 10162 10161 10158 ] final  134.63 input  -65.29 | X-H torsion
[ 10718 10713 10712 10709 ] final   26.47 input   66.30 | X-H torsion
[ 10763 10752 10751 10750 ] final   72.22 input  -60.55 | X-H torsion
[ 11005 11000 10999 10996 ] final  -20.94 input  -57.11 | X-H torsion

> <Gold.Protein.ActiveResidues>
 VAL166  LYS551  ARG553  GLY616  TRP617  ASP618  TYR619  PRO620  LYS621  CYS622 
 ASP623  PHE694  ASN695  SER759  ASP760  ASP761  ALA762  ILE779  LEU786  VAL792 
 PHE793  MET794  SER795  GLU796  ALA797  LYS798  CYS799  TRP800  GLU811  SER814 

> <Gold.Protein.RotatedAtoms>
  150.8829  134.8223  159.7237 H   0  0  0  0  0  0  0  0  0  0  0  0  # atno 6907 bound_to 6896
  152.4789  134.4768  159.9663 H   0  0  0  0  0  0  0  0  0  0  0  0  # atno 6908 bound_to 6896
  151.4840  133.3501  159.2878 H   0  0  0  0  0  0  0  0  0  0  0  0  # atno 6909 bound_to 6896
  145.2940  139.2591  143.3849 H   0  0  0  0  0  0  0  0  0  0  0  0  # atno 7974 bound_to 7965
  155.3348  140.3404  155.4239 H   0  0  0  0  0  0  0  0  0  0  0  0  # atno 8008 bound_to 7997
  156.1843  140.1675  156.8251 H   0  0  0  0  0  0  0  0  0  0  0  0  # atno 8009 bound_to 7997
  154.5369  140.0733  156.8425 H   0  0  0  0  0  0  0  0  0  0  0  0  # atno 8010 bound_to 7997
  139.5249  144.6558  151.5167 H   0  0  0  0  0  0  0  0  0  0  0  0  # atno 10167 bound_to 10162
  157.2072  130.6917  149.6213 H   0  0  0  0  0  0  0  0  0  0  0  0  # atno 10718 bound_to 10713
  153.0445  135.5108  154.7710 H   0  0  0  0  0  0  0  0  0  0  0  0  # atno 10763 bound_to 10752
  154.6621  135.2940  154.9855 H   0  0  0  0  0  0  0  0  0  0  0  0  # atno 10764 bound_to 10752
  154.0702  135.6678  153.4876 H   0  0  0  0  0  0  0  0  0  0  0  0  # atno 10765 bound_to 10752
  140.8513  133.7854  155.9969 H   0  0  0  0  0  0  0  0  0  0  0  0  # atno 11005 bound_to 11000
  146.3175  140.3438  142.8650 LP  0  0  0  0  0  0  0  0  0  0  0  0  # atno 17320 bound_to 7965
  144.9149  140.7800  143.5784 LP  0  0  0  0  0  0  0  0  0  0  0  0  # atno 17321 bound_to 7965
  140.6383  143.8941  150.6667 LP  0  0  0  0  0  0  0  0  0  0  0  0  # atno 17342 bound_to 10162
  140.2267  143.3767  152.1599 LP  0  0  0  0  0  0  0  0  0  0  0  0  # atno 17343 bound_to 10162
  155.9694  130.4563  150.5920 LP  0  0  0  0  0  0  0  0  0  0  0  0  # atno 17370 bound_to 10713
  157.3708  131.0765  151.1559 LP  0  0  0  0  0  0  0  0  0  0  0  0  # atno 17371 bound_to 10713
  140.8786  134.2638  157.5155 LP  0  0  0  0  0  0  0  0  0  0  0  0  # atno 17394 bound_to 11000
  139.8704  134.9604  156.4362 LP  0  0  0  0  0  0  0  0  0  0  0  0  # atno 17395 bound_to 11000

$$$$
