AV-unprocessed.smi:2655|AV-procd|sdf|10304|dock8
  -GOLD-   2272014323D 1   1.00000     0.00000
 Structure written by MMmdl.
 33 34  0  0  0  0  0  0  0  0  2 V2000
  151.1819  140.8210  157.0215 C   0  0  0  0  0  0  0  0  0  0  0  0
  151.5012  139.7247  156.0459 C   0  0  0  0  0  0  0  0  0  0  0  0
  152.5594  139.8575  155.2518 N   0  0  0  0  0  0  0  0  0  0  0  0
  152.5659  138.7328  154.5118 N   0  0  0  0  0  0  0  0  0  0  0  0
  151.5236  137.9048  154.8416 C   0  0  0  0  0  0  0  0  0  0  0  0
  151.3454  136.7142  154.2080 O   0  0  0  0  0  0  0  0  0  0  0  0
  150.8007  138.4957  155.8365 C   0  0  0  0  0  0  0  0  0  0  0  0
  149.5698  137.9886  156.5391 C   0  0  0  0  0  0  0  0  0  0  0  0
  149.9119  136.8922  157.5564 C   0  0  0  0  0  0  0  0  0  0  0  0
  149.0902  137.0274  158.7521 N   0  0  0  0  0  0  0  0  0  0  0  0
  148.5824  136.0092  159.4595 C   0  0  0  0  0  0  0  0  0  0  0  0
  148.8068  134.8479  159.1103 O   0  0  0  0  0  0  0  0  0  0  0  0
  147.8470  136.3992  160.5266 N   0  5  0  0  0  0  0  0  0  0  0  0
  147.1639  135.4941  161.2444 C   0  0  0  0  0  0  0  0  0  0  0  0
  145.8311  135.0640  160.9993 C   0  0  0  0  0  0  0  0  0  0  0  0
  145.6151  134.1403  161.9821 C   0  0  0  0  0  0  0  0  0  0  0  0
  144.4402  133.2929  162.3340 C   0  0  0  0  0  0  0  0  0  0  0  0
  146.7245  134.0087  162.7579 O   0  0  0  0  0  0  0  0  0  0  0  0
  147.7134  134.8741  162.2753 N   0  0  0  0  0  0  0  0  0  0  0  0
  150.1435  140.7713  157.3493 H   0  0  0  0  0  0  0  0  0  0  0  0
  151.3375  141.8047  156.5775 H   0  0  0  0  0  0  0  0  0  0  0  0
  151.8131  140.7506  157.9074 H   0  0  0  0  0  0  0  0  0  0  0  0
  153.2701  138.5569  153.8093 H   0  0  0  0  0  0  0  0  0  0  0  0
  148.8523  137.5984  155.8162 H   0  0  0  0  0  0  0  0  0  0  0  0
  149.0579  138.8049  157.0500 H   0  0  0  0  0  0  0  0  0  0  0  0
  149.7501  135.9078  157.1140 H   0  0  0  0  0  0  0  0  0  0  0  0
  150.9649  136.9530  157.8357 H   0  0  0  0  0  0  0  0  0  0  0  0
  148.8863  137.9643  159.0682 H   0  0  0  0  0  0  0  0  0  0  0  0
  145.1453  135.3851  160.2295 H   0  0  0  0  0  0  0  0  0  0  0  0
  144.1760  132.6375  161.5042 H   0  0  0  0  0  0  0  0  0  0  0  0
  143.5742  133.9130  162.5656 H   0  0  0  0  0  0  0  0  0  0  0  0
  144.6506  132.6690  163.2029 H   0  0  0  0  0  0  0  0  0  0  0  0
  150.7825  136.1799  154.7461 H   0  0  0  0  0  0  0  0  0  0  0  0
  1 20  1  0  0  0  0
  1 21  1  0  0  0  0
  1 22  1  0  0  0  0
  1  2  1  0  0  0  0
  2  7  1  0  0  0  0
  2  3  2  0  0  0  0
  3  4  1  0  0  0  0
  4 23  1  0  0  0  0
  4  5  1  0  0  0  0
  5  7  2  0  0  0  0
  5  6  1  0  0  0  0
  6 33  1  0  0  0  0
  7  8  1  0  0  0  0
  8  9  1  0  0  0  0
  8 24  1  0  0  0  0
  8 25  1  0  0  0  0
  9 10  1  0  0  0  0
  9 26  1  0  0  0  0
  9 27  1  0  0  0  0
 10 11  1  0  0  0  0
 10 28  1  0  0  0  0
 11 12  2  0  0  0  0
 11 13  1  0  0  0  0
 13 14  1  0  0  0  0
 14 19  2  0  0  0  0
 14 15  1  0  0  0  0
 15 16  2  0  0  0  0
 15 29  1  0  0  0  0
 16 17  1  0  0  0  0
 16 18  1  0  0  0  0
 17 30  1  0  0  0  0
 17 31  1  0  0  0  0
 17 32  1  0  0  0  0
 18 19  1  0  0  0  0
M  CHG  1  13  -1
M  END
> <s_m_source_file>
AV-unprocessed.smi

> <i_m_source_file_index>
2655

> <i_lp_mmshare_version>
43012

> <i_f3d_flags>
0

> <s_epik_input>
W0NIM11DMT1OW05IXUMoPU8pW0NASF0xW0NIMl1bQ0gyXVtOSF1DKD1PKVtOSF1jMltjSF1jKFtDSDNdKW9uMg==

> <s_epik_cmdline>
J2VwaWtfcHl0aG9uJywgJy1waCcsICc3LjAnLCAnLXRuJywgJzgnLCAnLW1hJywgJzIwMCcsICctbWV0YWxfYmluZGluZycsICctaW1hZScsICc8aW5maWxlLm1hZT4nLCAnLW9tYWUnLCAnPG91dGZpbGUubWFlPic=

> <r_lp_tautomer_probability>
0.0227396

> <r_epik_Ionization_Penalty>
10.1454

> <r_epik_Ionization_Penalty_Charging>
6.5559

> <r_epik_Ionization_Penalty_Neutral>
3.58948

> <r_epik_State_Penalty>
8.16616

> <r_epik_Charging_Adjusted_Penalty>
14.7221

> <i_epik_Tot_Q>
-1

> <i_epik_Tot_abs_Q>
1

> <r_epik_Metal_State_Penalty>
5.48631

> <b_epik_Metal_Only>
1

> <s_lp_Force_Field>
OPLS_2005

> <r_lp_Energy>
-4.29972

> <b_lp_Chiralities_Consistent>
1

> <s_lp_Variant>
AV-unprocessed.smi:2655-7

> <Gold.Version>
5.8.1

> <Gold.Id.Protein>
6NUR|6NUR_protein|mol2

> <Gold.PLP.Fitness>
46.7873

> <Gold.PLP.PLP>
-29.4757

> <Gold.PLP.part.hbond>
-7.4947

> <Gold.PLP.part.metal>
0.0000

> <Gold.PLP.part.buried>
-5.1275

> <Gold.PLP.part.nonpolar>
-17.6136

> <Gold.PLP.part.repulsive>
0.4326

> <Gold.PLP.ligand.clash>
0.0000

> <Gold.PLP.ligand.torsion>
1.3904

> <Gold.PLP.Chemscore.Hbond>
6.6811

> <Gold.PLP.Chemscore.CHOScore>
0.0000

> <Gold.PLP.Chemscore.Metal>
0.0000

> <Gold.Chemscore.Hbonds>
donor molecule, donor type, donor heavy atom, donor atom, acceptor molecule, acceptor atom, score
      P1  H  6896  6907       L1    12  1.00
      P1  H  7989  7998       L1     3  0.12
      P1  H  7997  8008       L1     3  1.00
      P1  H 10752 10765       L1     6  0.80

> <Gold.PLP.Chemscore.Internal.Correction>
0.0491

> <Gold.Rescore>
     Score         DG    S(hbond)    S(metal)    S(lipo)     H(rot)  DE(clash)    DE(int)     intcor
     14.34     -15.82       3.50        0.00      42.98       2.49       0.05       1.43       ----

> <Gold.Chemscore.Fitness>
14.3434

> <Gold.Chemscore.DG>
-15.8229

> <Gold.Chemscore.ZeroCoef>
-5.4800

> <Gold.Chemscore.Hbond>
3.5014

> <Gold.Chemscore.Metal>
0.0000

> <Gold.Chemscore.Lipo>
42.9759

> <Gold.Chemscore.Internal_Hbond>
0.0000

> <Gold.Chemscore.DEClash>
0.0497

> <Gold.Chemscore.DEInternal>
1.4298

> <Gold.Chemscore.Rot>
2.4922

> <Gold.Chemscore.Internal.Correction>
   9.000000E+99

> <Gold.Chemscore.Hbonds>
donor molecule, donor type, donor heavy atom, donor atom, acceptor molecule, acceptor atom, score
      P1  H  6896  6907       L1    12  0.65
      P1  H  7997  8008       L1     3  0.69
      P1  H 10752 10765       L1     6  0.08

> <Gold.Chemscore.Hbond.Weighted>
-11.6947

> <Gold.Chemscore.Metal.Weighted>
-0.0000

> <Gold.Chemscore.Lipo.Weighted>
-5.0282

> <Gold.Chemscore.Internal_Hbond.Weighted>
0.0000

> <Gold.Chemscore.DEClash.Weighted>
0.0497

> <Gold.Chemscore.DEInternal.Weighted>
1.4298

> <Gold.Chemscore.Rot.Weighted>
6.3800

> <Gold.Chemscore.Internal.Correction.Weighted>
   9.000000E+99

> <Gold.Protein.RotatedTorsions>
[ 6907 6896 6895 6894 ] final  -78.17 input  -60.11 | X-H torsion
[ 7974 7965 7964 7962 ] final   -9.62 input  175.53 | X-H torsion
[ 8008 7997 7996 7995 ] final  -25.51 input   59.86 | X-H torsion
[ 10167 10162 10161 10158 ] final -124.77 input  -65.29 | X-H torsion
[ 10718 10713 10712 10709 ] final  -88.40 input   66.30 | X-H torsion
[ 10763 10752 10751 10750 ] final  171.23 input  -60.55 | X-H torsion
[ 11005 11000 10999 10996 ] final   66.52 input  -57.11 | X-H torsion

> <Gold.Protein.ActiveResidues>
 VAL166  LYS551  ARG553  GLY616  TRP617  ASP618  TYR619  PRO620  LYS621  CYS622 
 ASP623  PHE694  ASN695  SER759  ASP760  ASP761  ALA762  ILE779  LEU786  VAL792 
 PHE793  MET794  SER795  GLU796  ALA797  LYS798  CYS799  TRP800  GLU811  SER814 

> <Gold.Protein.RotatedAtoms>
  150.6980  134.4313  159.5249 H   0  0  0  0  0  0  0  0  0  0  0  0  # atno 6907 bound_to 6896
  152.2039  134.8560  160.0514 H   0  0  0  0  0  0  0  0  0  0  0  0  # atno 6908 bound_to 6896
  151.9470  133.3620  159.4023 H   0  0  0  0  0  0  0  0  0  0  0  0  # atno 6909 bound_to 6896
  146.2246  140.2644  142.8353 H   0  0  0  0  0  0  0  0  0  0  0  0  # atno 7974 bound_to 7965
  154.4472  140.1924  156.0630 H   0  0  0  0  0  0  0  0  0  0  0  0  # atno 8008 bound_to 7997
  156.0568  140.3301  155.7388 H   0  0  0  0  0  0  0  0  0  0  0  0  # atno 8009 bound_to 7997
  155.5472  140.0591  157.2848 H   0  0  0  0  0  0  0  0  0  0  0  0  # atno 8010 bound_to 7997
  139.9892  143.5659  152.2348 H   0  0  0  0  0  0  0  0  0  0  0  0  # atno 10167 bound_to 10162
  155.9984  130.4834  150.5014 H   0  0  0  0  0  0  0  0  0  0  0  0  # atno 10718 bound_to 10713
  154.4089  135.2756  155.2049 H   0  0  0  0  0  0  0  0  0  0  0  0  # atno 10763 bound_to 10752
  154.4043  135.6037  153.5919 H   0  0  0  0  0  0  0  0  0  0  0  0  # atno 10764 bound_to 10752
  152.9831  135.5934  154.4368 H   0  0  0  0  0  0  0  0  0  0  0  0  # atno 10765 bound_to 10752
  139.9827  134.6718  156.0233 H   0  0  0  0  0  0  0  0  0  0  0  0  # atno 11005 bound_to 11000
  144.9315  140.7980  143.5686 LP  0  0  0  0  0  0  0  0  0  0  0  0  # atno 17320 bound_to 7965
  145.2588  139.2001  143.4903 LP  0  0  0  0  0  0  0  0  0  0  0  0  # atno 17321 bound_to 7965
  139.6352  144.7649  151.2452 LP  0  0  0  0  0  0  0  0  0  0  0  0  # atno 17342 bound_to 10162
  140.7461  143.6410  150.8335 LP  0  0  0  0  0  0  0  0  0  0  0  0  # atno 17343 bound_to 10162
  157.2997  131.0643  151.2076 LP  0  0  0  0  0  0  0  0  0  0  0  0  # atno 17370 bound_to 10713
  157.3060  130.6866  149.6189 LP  0  0  0  0  0  0  0  0  0  0  0  0  # atno 17371 bound_to 10713
  141.1496  133.6550  156.3974 LP  0  0  0  0  0  0  0  0  0  0  0  0  # atno 17394 bound_to 11000
  140.5065  134.6436  157.5268 LP  0  0  0  0  0  0  0  0  0  0  0  0  # atno 17395 bound_to 11000

$$$$
