AV-unprocessed.smi:3181|AV-procd|sdf|12141|dock1
  -GOLD-   2272017583D 1   1.00000     0.00000
 Structure written by MMmdl.
 42 43  0  0  0  0  0  0  0  0  2 V2000
  151.4050  140.0849  155.3217 C   0  0  0  0  0  0  0  0  0  0  0  0
  150.1234  140.8876  155.6020 C   0  0  2  0  0  0  0  0  0  0  0  0
  149.1490  140.9061  154.4012 C   0  0  0  0  0  0  0  0  0  0  0  0
  147.9466  141.6772  154.6586 N   0  0  0  0  0  0  0  0  0  0  0  0
  147.0885  142.2516  153.8140 C   0  0  0  0  0  0  0  0  0  0  0  0
  146.0903  142.8844  154.4138 N   0  0  0  0  0  0  0  0  0  0  0  0
  146.4147  142.6391  155.7183 C   0  0  0  0  0  0  0  0  0  0  0  0
  147.5179  141.9179  155.9197 N   0  0  0  0  0  0  0  0  0  0  0  0
  150.4932  142.2599  156.0206 N   0  3  0  0  0  0  0  0  0  0  0  0
  150.7216  142.4628  157.4694 C   0  0  1  0  0  0  0  0  0  0  0  0
  151.7088  141.4116  157.9975 C   0  0  0  0  0  0  0  0  0  0  0  0
  151.9746  141.6127  159.4958 C   0  0  0  0  0  0  0  0  0  0  0  0
  152.5033  143.0281  159.8065 C   0  0  2  0  0  0  0  0  0  0  0  0
  152.7507  143.1717  161.3188 C   0  0  0  0  0  0  0  0  0  0  0  0
  151.5423  144.1102  159.2451 C   0  0  1  0  0  0  0  0  0  0  0  0
  152.0621  145.5425  159.4627 C   0  0  0  0  0  0  0  0  0  0  0  0
  151.2716  143.8746  157.7444 C   0  0  0  0  0  0  0  0  0  0  0  0
  151.1885  139.0340  155.1279 H   0  0  0  0  0  0  0  0  0  0  0  0
  152.0826  140.1184  156.1756 H   0  0  0  0  0  0  0  0  0  0  0  0
  151.9395  140.4803  154.4576 H   0  0  0  0  0  0  0  0  0  0  0  0
  149.6262  140.4082  156.4467 H   0  0  0  0  0  0  0  0  0  0  0  0
  149.6295  141.3384  153.5235 H   0  0  0  0  0  0  0  0  0  0  0  0
  148.8613  139.8887  154.1300 H   0  0  0  0  0  0  0  0  0  0  0  0
  147.1973  142.2083  152.7401 H   0  0  0  0  0  0  0  0  0  0  0  0
  145.8208  143.0036  156.5437 H   0  0  0  0  0  0  0  0  0  0  0  0
  151.3619  142.4809  155.5552 H   0  0  0  0  0  0  0  0  0  0  0  0
  149.7798  142.3369  158.0065 H   0  0  0  0  0  0  0  0  0  0  0  0
  151.3143  140.4087  157.8283 H   0  0  0  0  0  0  0  0  0  0  0  0
  152.6502  141.4713  157.4491 H   0  0  0  0  0  0  0  0  0  0  0  0
  151.0548  141.4320  160.0541 H   0  0  0  0  0  0  0  0  0  0  0  0
  152.6912  140.8647  159.8375 H   0  0  0  0  0  0  0  0  0  0  0  0
  153.4664  143.1377  159.3051 H   0  0  0  0  0  0  0  0  0  0  0  0
  151.8154  143.1439  161.8790 H   0  0  0  0  0  0  0  0  0  0  0  0
  153.2594  144.1045  161.5600 H   0  0  0  0  0  0  0  0  0  0  0  0
  153.3818  142.3638  161.6899 H   0  0  0  0  0  0  0  0  0  0  0  0
  150.5897  144.0243  159.7702 H   0  0  0  0  0  0  0  0  0  0  0  0
  153.0505  145.6772  159.0222 H   0  0  0  0  0  0  0  0  0  0  0  0
  152.1289  145.7931  160.5210 H   0  0  0  0  0  0  0  0  0  0  0  0
  151.3948  146.2751  159.0078 H   0  0  0  0  0  0  0  0  0  0  0  0
  152.1941  144.0237  157.1807 H   0  0  0  0  0  0  0  0  0  0  0  0
  150.5708  144.6258  157.3802 H   0  0  0  0  0  0  0  0  0  0  0  0
  149.7912  142.9116  155.6998 H   0  0  0  0  0  0  0  0  0  0  0  0
  1  2  1  0  0  0  0
  1 18  1  0  0  0  0
  1 19  1  0  0  0  0
  1 20  1  0  0  0  0
  2  3  1  0  0  0  0
  2  9  1  0  0  0  0
  2 21  1  0  0  0  0
  3  4  1  0  0  0  0
  3 22  1  0  0  0  0
  3 23  1  0  0  0  0
  4  8  1  0  0  0  0
  4  5  1  0  0  0  0
  5  6  2  0  0  0  0
  5 24  1  0  0  0  0
  6  7  1  0  0  0  0
  7  8  2  0  0  0  0
  7 25  1  0  0  0  0
  9 10  1  0  0  0  0
  9 26  1  0  0  0  0
  9 42  1  0  0  0  0
 10 17  1  0  0  0  0
 10 11  1  0  0  0  0
 10 27  1  0  0  0  0
 11 12  1  0  0  0  0
 11 28  1  0  0  0  0
 11 29  1  0  0  0  0
 12 13  1  0  0  0  0
 12 30  1  0  0  0  0
 12 31  1  0  0  0  0
 13 14  1  0  0  0  0
 13 15  1  0  0  0  0
 13 32  1  0  0  0  0
 14 33  1  0  0  0  0
 14 34  1  0  0  0  0
 14 35  1  0  0  0  0
 15 16  1  0  0  0  0
 15 17  1  0  0  0  0
 15 36  1  0  0  0  0
 16 37  1  0  0  0  0
 16 38  1  0  0  0  0
 16 39  1  0  0  0  0
 17 40  1  0  0  0  0
 17 41  1  0  0  0  0
M  CHG  1   9   1
M  END
> <s_m_source_file>
AV-unprocessed.smi

> <i_m_source_file_index>
3181

> <i_lp_mmshare_version>
43012

> <i_f3d_flags>
0

> <s_epik_input>
bjFbY0hdbltjSF1uMVtDSDJdW0NAQEhdKFtDSDNdKVtOSF1bQ0BASF0yW0NIMl1bQ0gyXVtDQEBIXShbQ0gzXSlbQ0BASF0oW0NIM10pW0NIMl0y

> <s_epik_cmdline>
J2VwaWtfcHl0aG9uJywgJy1waCcsICc3LjAnLCAnLXRuJywgJzgnLCAnLW1hJywgJzIwMCcsICctbWV0YWxfYmluZGluZycsICctaW1hZScsICc8aW5maWxlLm1hZT4nLCAnLW9tYWUnLCAnPG91dGZpbGUubWFlPic=

> <r_lp_tautomer_probability>
1

> <r_epik_Ionization_Penalty>
0.000617007

> <r_epik_Ionization_Penalty_Charging>
0.000616215

> <r_epik_Ionization_Penalty_Neutral>
7.92544e-07

> <r_epik_State_Penalty>
0.000388807

> <r_epik_Charging_Adjusted_Penalty>
0.00100502

> <i_epik_Tot_Q>
1

> <i_epik_Tot_abs_Q>
1

> <r_epik_Metal_State_Penalty>
-0

> <b_epik_Metal_Only>
0

> <s_lp_Force_Field>
OPLS_2005

> <r_lp_Energy>
19.8131

> <b_lp_Chiralities_Consistent>
1

> <s_lp_Variant>
AV-unprocessed.smi:3181-7

> <Gold.Version>
5.8.1

> <Gold.Id.Protein>
6NUR|6NUR_protein|mol2

> <Gold.PLP.Fitness>
46.4231

> <Gold.PLP.PLP>
-41.8465

> <Gold.PLP.part.hbond>
-1.0000

> <Gold.PLP.part.metal>
0.0000

> <Gold.PLP.part.buried>
-2.5387

> <Gold.PLP.part.nonpolar>
-37.9037

> <Gold.PLP.part.repulsive>
0.4653

> <Gold.PLP.ligand.clash>
0.0000

> <Gold.PLP.ligand.torsion>
0.7495

> <Gold.PLP.Chemscore.Hbond>
2.0000

> <Gold.PLP.Chemscore.CHOScore>
0.0000

> <Gold.PLP.Chemscore.Metal>
0.0000

> <Gold.Chemscore.Hbonds>
donor molecule, donor type, donor heavy atom, donor atom, acceptor molecule, acceptor atom, score
      L1  H     9    42       P1  8028  2.00

> <Gold.PLP.Chemscore.Internal.Correction>
0.0757

> <Gold.Rescore>
     Score         DG    S(hbond)    S(metal)    S(lipo)     H(rot)  DE(clash)    DE(int)     intcor
     13.55     -15.91       0.97        0.00     107.53       2.11       1.59       0.77       ----

> <Gold.Chemscore.Fitness>
13.5495

> <Gold.Chemscore.DG>
-15.9081

> <Gold.Chemscore.ZeroCoef>
-5.4800

> <Gold.Chemscore.Hbond>
0.9721

> <Gold.Chemscore.Metal>
0.0000

> <Gold.Chemscore.Lipo>
107.5341

> <Gold.Chemscore.Internal_Hbond>
0.0000

> <Gold.Chemscore.DEClash>
1.5888

> <Gold.Chemscore.DEInternal>
0.7698

> <Gold.Chemscore.Rot>
2.1095

> <Gold.Chemscore.Internal.Correction>
   9.000000E+99

> <Gold.Chemscore.Hbonds>
donor molecule, donor type, donor heavy atom, donor atom, acceptor molecule, acceptor atom, score
      L1  H     9    42       P1  8028  0.92

> <Gold.Chemscore.Hbond.Weighted>
-3.2469

> <Gold.Chemscore.Metal.Weighted>
-0.0000

> <Gold.Chemscore.Lipo.Weighted>
-12.5815

> <Gold.Chemscore.Internal_Hbond.Weighted>
0.0000

> <Gold.Chemscore.DEClash.Weighted>
1.5888

> <Gold.Chemscore.DEInternal.Weighted>
0.7698

> <Gold.Chemscore.Rot.Weighted>
5.4003

> <Gold.Chemscore.Internal.Correction.Weighted>
   9.000000E+99

> <Gold.Protein.RotatedTorsions>
[ 6907 6896 6895 6894 ] final -130.56 input  -60.11 | X-H torsion
[ 7974 7965 7964 7962 ] final  112.36 input  175.53 | X-H torsion
[ 8008 7997 7996 7995 ] final  139.38 input   59.86 | X-H torsion
[ 10167 10162 10161 10158 ] final  135.73 input  -65.29 | X-H torsion
[ 10718 10713 10712 10709 ] final  174.95 input   66.30 | X-H torsion
[ 10763 10752 10751 10750 ] final   -4.60 input  -60.55 | X-H torsion
[ 11005 11000 10999 10996 ] final   21.36 input  -57.11 | X-H torsion

> <Gold.Protein.ActiveResidues>
 VAL166  LYS551  ARG553  GLY616  TRP617  ASP618  TYR619  PRO620  LYS621  CYS622 
 ASP623  PHE694  ASN695  SER759  ASP760  ASP761  ALA762  ILE779  LEU786  VAL792 
 PHE793  MET794  SER795  GLU796  ALA797  LYS798  CYS799  TRP800  GLU811  SER814 

> <Gold.Protein.RotatedAtoms>
  150.9411  133.6656  159.2790 H   0  0  0  0  0  0  0  0  0  0  0  0  # atno 6907 bound_to 6896
  151.4044  135.0974  159.9575 H   0  0  0  0  0  0  0  0  0  0  0  0  # atno 6908 bound_to 6896
  152.5069  133.8898  159.7443 H   0  0  0  0  0  0  0  0  0  0  0  0  # atno 6909 bound_to 6896
  145.2305  139.2821  143.4170 H   0  0  0  0  0  0  0  0  0  0  0  0  # atno 7974 bound_to 7965
  156.2990  140.2369  156.4229 H   0  0  0  0  0  0  0  0  0  0  0  0  # atno 8008 bound_to 7997
  154.8339  140.0431  157.1516 H   0  0  0  0  0  0  0  0  0  0  0  0  # atno 8009 bound_to 7997
  154.9177  140.2999  155.5236 H   0  0  0  0  0  0  0  0  0  0  0  0  # atno 8010 bound_to 7997
  139.5206  144.6502  151.5325 H   0  0  0  0  0  0  0  0  0  0  0  0  # atno 10167 bound_to 10162
  156.9420  131.0004  151.2966 H   0  0  0  0  0  0  0  0  0  0  0  0  # atno 10718 bound_to 10713
  153.3871  135.7000  153.6522 H   0  0  0  0  0  0  0  0  0  0  0  0  # atno 10763 bound_to 10752
  153.5110  135.3632  155.2587 H   0  0  0  0  0  0  0  0  0  0  0  0  # atno 10764 bound_to 10752
  154.8698  135.4135  154.3180 H   0  0  0  0  0  0  0  0  0  0  0  0  # atno 10765 bound_to 10752
  140.3924  134.1804  155.7663 H   0  0  0  0  0  0  0  0  0  0  0  0  # atno 11005 bound_to 11000
  146.3354  140.2639  142.8603 LP  0  0  0  0  0  0  0  0  0  0  0  0  # atno 17320 bound_to 7965
  144.9681  140.8341  143.5472 LP  0  0  0  0  0  0  0  0  0  0  0  0  # atno 17321 bound_to 7965
  140.6303  143.9089  150.6600 LP  0  0  0  0  0  0  0  0  0  0  0  0  # atno 17342 bound_to 10162
  140.2391  143.3678  152.1502 LP  0  0  0  0  0  0  0  0  0  0  0  0  # atno 17343 bound_to 10162
  157.5778  130.8355  149.8480 LP  0  0  0  0  0  0  0  0  0  0  0  0  # atno 17370 bound_to 10713
  156.0400  130.3741  150.1460 LP  0  0  0  0  0  0  0  0  0  0  0  0  # atno 17371 bound_to 10713
  141.1886  133.8257  157.0989 LP  0  0  0  0  0  0  0  0  0  0  0  0  # atno 17394 bound_to 11000
  140.0396  134.9861  157.0937 LP  0  0  0  0  0  0  0  0  0  0  0  0  # atno 17395 bound_to 11000

$$$$
