AV-unprocessed.smi:1433|AV-procd|sdf|5840|dock9
  -GOLD-   22720 5503D 1   1.00000     0.00000
 Structure written by MMmdl.
 44 45  0  0  0  0  0  0  0  0  1 V2000
  151.9582  144.9912  159.8721 C   0  0  0  0  0  0  0  0  0  0  0  0
  152.0301  143.7200  159.0198 C   0  0  1  0  0  0  0  0  0  0  0  0
  152.6936  142.5543  159.7752 C   0  0  0  0  0  0  0  0  0  0  0  0
  152.6966  141.3051  159.0082 N   0  0  0  0  0  0  0  0  0  0  0  0
  153.3484  140.1871  159.7305 C   0  0  1  0  0  0  0  0  0  0  0  0
  153.6674  138.9831  158.8054 C   0  0  0  0  0  0  0  0  0  0  0  0
  154.6478  140.6068  160.4721 C   0  0  0  0  0  0  0  0  0  0  0  0
  154.6825  140.1124  161.8430 N   0  0  0  0  0  0  0  0  0  0  0  0
  155.5468  139.2017  162.3140 C   0  0  0  0  0  0  0  0  0  0  0  0
  156.4566  138.7169  161.6420 O   0  0  0  0  0  0  0  0  0  0  0  0
  155.3520  138.7683  163.7683 C   0  0  0  0  0  0  0  0  0  0  0  0
  154.9974  137.3618  163.8546 N   0  0  0  0  0  0  0  0  0  0  0  0
  153.8283  136.8010  164.3252 C   0  0  0  0  0  0  0  0  0  0  0  0
  153.9590  135.4454  164.2263 C   0  0  0  0  0  0  0  0  0  0  0  0
  155.2594  135.2701  163.6760 C   0  0  0  0  0  0  0  0  0  0  0  0
  155.8792  136.4183  163.4550 N   0  0  0  0  0  0  0  0  0  0  0  0
  151.3096  141.0003  158.6375 C   0  0  0  0  0  0  0  0  0  0  0  0
  150.5956  142.1535  157.9050 C   0  0  2  0  0  0  0  0  0  0  0  0
  151.0668  142.3378  156.4521 C   0  0  0  0  0  0  0  0  0  0  0  0
  150.7018  143.3598  158.6568 O   0  0  0  0  0  0  0  0  0  0  0  0
  152.9534  145.3220  160.1697 H   0  0  0  0  0  0  0  0  0  0  0  0
  151.3753  144.8261  160.7786 H   0  0  0  0  0  0  0  0  0  0  0  0
  151.4896  145.8053  159.3185 H   0  0  0  0  0  0  0  0  0  0  0  0
  152.6049  143.9447  158.1209 H   0  0  0  0  0  0  0  0  0  0  0  0
  153.7102  142.8695  160.0007 H   0  0  0  0  0  0  0  0  0  0  0  0
  152.1891  142.3994  160.7304 H   0  0  0  0  0  0  0  0  0  0  0  0
  152.6523  139.8281  160.4905 H   0  0  0  0  0  0  0  0  0  0  0  0
  154.1968  138.1832  159.3224 H   0  0  0  0  0  0  0  0  0  0  0  0
  154.2854  139.2894  157.9606 H   0  0  0  0  0  0  0  0  0  0  0  0
  152.7672  138.5135  158.4120 H   0  0  0  0  0  0  0  0  0  0  0  0
  155.5188  140.2493  159.9195 H   0  0  0  0  0  0  0  0  0  0  0  0
  154.7385  141.6888  160.5512 H   0  0  0  0  0  0  0  0  0  0  0  0
  153.9694  140.4560  162.4705 H   0  0  0  0  0  0  0  0  0  0  0  0
  156.2694  138.9330  164.3352 H   0  0  0  0  0  0  0  0  0  0  0  0
  154.5723  139.3728  164.2344 H   0  0  0  0  0  0  0  0  0  0  0  0
  153.0122  137.4077  164.6901 H   0  0  0  0  0  0  0  0  0  0  0  0
  153.2360  134.6936  164.5052 H   0  0  0  0  0  0  0  0  0  0  0  0
  155.7684  134.3489  163.4333 H   0  0  0  0  0  0  0  0  0  0  0  0
  151.2630  140.1283  157.9876 H   0  0  0  0  0  0  0  0  0  0  0  0
  150.7434  140.7493  159.5359 H   0  0  0  0  0  0  0  0  0  0  0  0
  149.5327  141.9144  157.8639 H   0  0  0  0  0  0  0  0  0  0  0  0
  150.8612  141.4440  155.8627 H   0  0  0  0  0  0  0  0  0  0  0  0
  152.1380  142.5284  156.3881 H   0  0  0  0  0  0  0  0  0  0  0  0
  150.5491  143.1718  155.9781 H   0  0  0  0  0  0  0  0  0  0  0  0
  1  2  1  0  0  0  0
  1 21  1  0  0  0  0
  1 22  1  0  0  0  0
  1 23  1  0  0  0  0
  2 20  1  0  0  0  0
  2  3  1  0  0  0  0
  2 24  1  0  0  0  0
  3  4  1  0  0  0  0
  3 25  1  0  0  0  0
  3 26  1  0  0  0  0
  4  5  1  0  0  0  0
  4 17  1  0  0  0  0
  5  6  1  0  0  0  0
  5  7  1  0  0  0  0
  5 27  1  0  0  0  0
  6 28  1  0  0  0  0
  6 29  1  0  0  0  0
  6 30  1  0  0  0  0
  7  8  1  0  0  0  0
  7 31  1  0  0  0  0
  7 32  1  0  0  0  0
  8  9  1  0  0  0  0
  8 33  1  0  0  0  0
  9 10  2  0  0  0  0
  9 11  1  0  0  0  0
 11 12  1  0  0  0  0
 11 34  1  0  0  0  0
 11 35  1  0  0  0  0
 12 16  1  0  0  0  0
 12 13  1  0  0  0  0
 13 14  2  0  0  0  0
 13 36  1  0  0  0  0
 14 15  1  0  0  0  0
 14 37  1  0  0  0  0
 15 16  2  0  0  0  0
 15 38  1  0  0  0  0
 17 18  1  0  0  0  0
 17 39  1  0  0  0  0
 17 40  1  0  0  0  0
 18 19  1  0  0  0  0
 18 20  1  0  0  0  0
 18 41  1  0  0  0  0
 19 42  1  0  0  0  0
 19 43  1  0  0  0  0
 19 44  1  0  0  0  0
M  END
> <s_m_source_file>
AV-unprocessed.smi

> <i_m_source_file_index>
1433

> <i_lp_mmshare_version>
43012

> <i_f3d_flags>
0

> <s_epik_input>
W0NIM11bQ0BASF0xW0NIMl1OKFtDSDJdW0NASF0oTzEpW0NIM10pW0NASF0oW0NIM10pW0NIMl1bTkhdQyg9TylbQ0gyXW4yW2NIXVtjSF1bY0hdbjI=

> <s_epik_cmdline>
J2VwaWtfcHl0aG9uJywgJy1waCcsICc3LjAnLCAnLXRuJywgJzgnLCAnLW1hJywgJzIwMCcsICctbWV0YWxfYmluZGluZycsICctaW1hZScsICc8aW5maWxlLm1hZT4nLCAnLW9tYWUnLCAnPG91dGZpbGUubWFlPic=

> <r_lp_tautomer_probability>
1

> <r_epik_Ionization_Penalty>
0.196927

> <r_epik_Ionization_Penalty_Charging>
0

> <r_epik_Ionization_Penalty_Neutral>
0.196927

> <r_epik_State_Penalty>
0.186684

> <r_epik_Charging_Adjusted_Penalty>
0.186684

> <i_epik_Tot_Q>
0

> <i_epik_Tot_abs_Q>
0

> <r_epik_Metal_State_Penalty>
0.186682

> <b_epik_Metal_Only>
0

> <s_lp_Force_Field>
OPLS_2005

> <r_lp_Energy>
30.3055

> <b_lp_Chiralities_Consistent>
1

> <s_lp_Variant>
AV-unprocessed.smi:1433-6

> <Gold.Version>
5.8.1

> <Gold.Id.Protein>
6NUR|6NUR_protein|mol2

> <Gold.PLP.Fitness>
38.2914

> <Gold.PLP.PLP>
-40.0683

> <Gold.PLP.part.hbond>
0.0000

> <Gold.PLP.part.metal>
0.0000

> <Gold.PLP.part.buried>
-5.0433

> <Gold.PLP.part.nonpolar>
-34.5234

> <Gold.PLP.part.repulsive>
0.1334

> <Gold.PLP.ligand.clash>
0.0000

> <Gold.PLP.ligand.torsion>
0.9133

> <Gold.PLP.Chemscore.Hbond>
0.0000

> <Gold.PLP.Chemscore.CHOScore>
0.0000

> <Gold.PLP.Chemscore.Metal>
0.0000

> <Gold.PLP.Chemscore.Internal.Correction>
0.0496

> <Gold.Rescore>
     Score         DG    S(hbond)    S(metal)    S(lipo)     H(rot)  DE(clash)    DE(int)     intcor
     12.60     -13.83       0.00        0.00     110.83       1.80       0.17       1.06       ----

> <Gold.Chemscore.Fitness>
12.6001

> <Gold.Chemscore.DG>
-13.8289

> <Gold.Chemscore.ZeroCoef>
-5.4800

> <Gold.Chemscore.Hbond>
0.0000

> <Gold.Chemscore.Metal>
0.0000

> <Gold.Chemscore.Lipo>
110.8260

> <Gold.Chemscore.Internal_Hbond>
0.0000

> <Gold.Chemscore.DEClash>
0.1671

> <Gold.Chemscore.DEInternal>
1.0617

> <Gold.Chemscore.Rot>
1.8038

> <Gold.Chemscore.Internal.Correction>
   9.000000E+99

> <Gold.Chemscore.Hbond.Weighted>
-0.0000

> <Gold.Chemscore.Metal.Weighted>
-0.0000

> <Gold.Chemscore.Lipo.Weighted>
-12.9666

> <Gold.Chemscore.Internal_Hbond.Weighted>
0.0000

> <Gold.Chemscore.DEClash.Weighted>
0.1671

> <Gold.Chemscore.DEInternal.Weighted>
1.0617

> <Gold.Chemscore.Rot.Weighted>
4.6178

> <Gold.Chemscore.Internal.Correction.Weighted>
   9.000000E+99

> <Gold.Protein.RotatedTorsions>
[ 6907 6896 6895 6894 ] final -101.89 input  -60.11 | X-H torsion
[ 7974 7965 7964 7962 ] final  170.54 input  175.53 | X-H torsion
[ 8008 7997 7996 7995 ] final   83.61 input   59.86 | X-H torsion
[ 10167 10162 10161 10158 ] final  -31.94 input  -65.29 | X-H torsion
[ 10718 10713 10712 10709 ] final  174.19 input   66.30 | X-H torsion
[ 10763 10752 10751 10750 ] final  -65.01 input  -60.55 | X-H torsion
[ 11005 11000 10999 10996 ] final  -20.63 input  -57.11 | X-H torsion

> <Gold.Protein.ActiveResidues>
 VAL166  LYS551  ARG553  GLY616  TRP617  ASP618  TYR619  PRO620  LYS621  CYS622 
 ASP623  PHE694  ASN695  SER759  ASP760  ASP761  ALA762  ILE779  LEU786  VAL792 
 PHE793  MET794  SER795  GLU796  ALA797  LYS798  CYS799  TRP800  GLU811  SER814 

> <Gold.Protein.RotatedAtoms>
  150.7173  134.0664  159.3848 H   0  0  0  0  0  0  0  0  0  0  0  0  # atno 6907 bound_to 6896
  151.8645  135.0510  160.0482 H   0  0  0  0  0  0  0  0  0  0  0  0  # atno 6908 bound_to 6896
  152.2691  133.5330  159.5465 H   0  0  0  0  0  0  0  0  0  0  0  0  # atno 6909 bound_to 6896
  144.7321  139.9217  143.6420 H   0  0  0  0  0  0  0  0  0  0  0  0  # atno 7974 bound_to 7965
  155.9262  140.3418  155.6212 H   0  0  0  0  0  0  0  0  0  0  0  0  # atno 8008 bound_to 7997
  155.7213  140.0784  157.2348 H   0  0  0  0  0  0  0  0  0  0  0  0  # atno 8009 bound_to 7997
  154.4077  140.1605  156.2393 H   0  0  0  0  0  0  0  0  0  0  0  0  # atno 8010 bound_to 7997
  140.7229  143.3732  151.1738 H   0  0  0  0  0  0  0  0  0  0  0  0  # atno 10167 bound_to 10162
  156.9532  131.0037  151.2944 H   0  0  0  0  0  0  0  0  0  0  0  0  # atno 10718 bound_to 10713
  154.3386  135.6161  153.5585 H   0  0  0  0  0  0  0  0  0  0  0  0  # atno 10763 bound_to 10752
  152.9806  135.5764  154.4879 H   0  0  0  0  0  0  0  0  0  0  0  0  # atno 10764 bound_to 10752
  154.4579  135.2855  155.1711 H   0  0  0  0  0  0  0  0  0  0  0  0  # atno 10765 bound_to 10752
  140.8483  133.7876  155.9937 H   0  0  0  0  0  0  0  0  0  0  0  0  # atno 11005 bound_to 11000
  146.0924  139.3915  143.0397 LP  0  0  0  0  0  0  0  0  0  0  0  0  # atno 17320 bound_to 7965
  145.7692  140.9903  143.1158 LP  0  0  0  0  0  0  0  0  0  0  0  0  # atno 17321 bound_to 7965
  139.7308  143.9076  152.3018 LP  0  0  0  0  0  0  0  0  0  0  0  0  # atno 17342 bound_to 10162
  139.8864  144.6989  150.8819 LP  0  0  0  0  0  0  0  0  0  0  0  0  # atno 17343 bound_to 10162
  157.5708  130.8309  149.8388 LP  0  0  0  0  0  0  0  0  0  0  0  0  # atno 17370 bound_to 10713
  156.0354  130.3753  150.1575 LP  0  0  0  0  0  0  0  0  0  0  0  0  # atno 17371 bound_to 10713
  140.8819  134.2601  157.5140 LP  0  0  0  0  0  0  0  0  0  0  0  0  # atno 17394 bound_to 11000
  139.8704  134.9619  156.4412 LP  0  0  0  0  0  0  0  0  0  0  0  0  # atno 17395 bound_to 11000

$$$$
