AV-unprocessed.smi:1027|AV-procd|sdf|4472|dock10
  -GOLD-   22720 2453D 1   1.00000     0.00000
 Structure written by MMmdl.
 34 35  0  0  0  0  0  0  0  0  2 V2000
  152.2798  144.5840  158.8200 C   0  0  0  0  0  0  0  0  0  0  0  0
  152.2448  143.7392  160.1088 C   0  0  0  0  0  0  0  0  0  0  0  0
  152.2128  144.6738  161.3319 C   0  0  0  0  0  0  0  0  0  0  0  0
  153.4121  142.7185  160.1734 C   0  0  1  0  0  0  0  0  0  0  0  0
  153.3963  141.8553  161.4495 C   0  0  0  0  0  0  0  0  0  0  0  0
  153.3736  141.8363  159.0062 N   0  0  0  0  0  0  0  0  0  0  0  0
  152.3670  141.0230  158.6536 C   0  0  0  0  0  0  0  0  0  0  0  0
  151.3399  140.9804  159.3347 O   0  0  0  0  0  0  0  0  0  0  0  0
  152.6140  140.3082  157.5323 N   0  5  0  0  0  0  0  0  0  0  0  0
  151.7424  140.3398  156.5108 C   0  0  0  0  0  0  0  0  0  0  0  0
  151.9406  139.6560  155.3751 N   0  0  0  0  0  0  0  0  0  0  0  0
  150.9194  139.8262  154.4518 N   0  0  0  0  0  0  0  0  0  0  0  0
  149.9576  140.6325  154.9074 C   0  0  0  0  0  0  0  0  0  0  0  0
  148.7519  140.9753  154.0979 C   0  0  0  0  0  0  0  0  0  0  0  0
  147.3670  140.8784  154.6959 C   0  0  0  0  0  0  0  0  0  0  0  0
  147.7893  139.9098  153.6212 C   0  0  0  0  0  0  0  0  0  0  0  0
  150.2304  141.2468  156.5303 S   0  0  0  0  0  0  0  0  0  0  0  0
  153.2164  145.1360  158.7364 H   0  0  0  0  0  0  0  0  0  0  0  0
  151.4653  145.3085  158.8028 H   0  0  0  0  0  0  0  0  0  0  0  0
  152.1757  143.9691  157.9258 H   0  0  0  0  0  0  0  0  0  0  0  0
  151.3081  143.1800  160.1021 H   0  0  0  0  0  0  0  0  0  0  0  0
  153.1515  145.2182  161.4387 H   0  0  0  0  0  0  0  0  0  0  0  0
  152.0340  144.1266  162.2567 H   0  0  0  0  0  0  0  0  0  0  0  0
  151.4126  145.4090  161.2424 H   0  0  0  0  0  0  0  0  0  0  0  0
  154.3466  143.2825  160.1556 H   0  0  0  0  0  0  0  0  0  0  0  0
  153.5470  142.4552  162.3464 H   0  0  0  0  0  0  0  0  0  0  0  0
  154.1945  141.1124  161.4318 H   0  0  0  0  0  0  0  0  0  0  0  0
  152.4513  141.3215  161.5554 H   0  0  0  0  0  0  0  0  0  0  0  0
  154.1911  141.8351  158.4143 H   0  0  0  0  0  0  0  0  0  0  0  0
  148.9621  141.8068  153.4282 H   0  0  0  0  0  0  0  0  0  0  0  0
  147.2804  140.4950  155.7107 H   0  0  0  0  0  0  0  0  0  0  0  0
  146.6493  141.6500  154.4253 H   0  0  0  0  0  0  0  0  0  0  0  0
  147.3531  140.0352  152.6323 H   0  0  0  0  0  0  0  0  0  0  0  0
  147.9695  138.8803  153.9236 H   0  0  0  0  0  0  0  0  0  0  0  0
  1  2  1  0  0  0  0
  1 18  1  0  0  0  0
  1 19  1  0  0  0  0
  1 20  1  0  0  0  0
  2  3  1  0  0  0  0
  2  4  1  0  0  0  0
  2 21  1  0  0  0  0
  3 22  1  0  0  0  0
  3 23  1  0  0  0  0
  3 24  1  0  0  0  0
  4  5  1  0  0  0  0
  4  6  1  0  0  0  0
  4 25  1  0  0  0  0
  5 26  1  0  0  0  0
  5 27  1  0  0  0  0
  5 28  1  0  0  0  0
  6  7  1  0  0  0  0
  6 29  1  0  0  0  0
  7  8  2  0  0  0  0
  7  9  1  0  0  0  0
  9 10  1  0  0  0  0
 10 17  1  0  0  0  0
 10 11  2  0  0  0  0
 11 12  1  0  0  0  0
 12 13  2  0  0  0  0
 13 14  1  0  0  0  0
 13 17  1  0  0  0  0
 14 16  1  0  0  0  0
 14 15  1  0  0  0  0
 14 30  1  0  0  0  0
 15 16  1  0  0  0  0
 15 31  1  0  0  0  0
 15 32  1  0  0  0  0
 16 33  1  0  0  0  0
 16 34  1  0  0  0  0
M  CHG  1   9  -1
M  END
> <s_m_source_file>
AV-unprocessed.smi

> <i_m_source_file_index>
1027

> <i_lp_mmshare_version>
43012

> <i_f3d_flags>
0

> <s_epik_input>
W0NIM11bQ0hdKFtDSDNdKVtDQEhdKFtDSDNdKVtOSF1DKD1PKVtOSF1jMW5uYyhzMSlbQ0hdMltDSDJdW0NIMl0y

> <s_epik_cmdline>
J2VwaWtfcHl0aG9uJywgJy1waCcsICc3LjAnLCAnLXRuJywgJzgnLCAnLW1hJywgJzIwMCcsICctbWV0YWxfYmluZGluZycsICctaW1hZScsICc8aW5maWxlLm1hZT4nLCAnLW9tYWUnLCAnPG91dGZpbGUubWFlPic=

> <r_lp_tautomer_probability>
1

> <r_epik_Ionization_Penalty>
3.99975

> <r_epik_Ionization_Penalty_Charging>
3.83446

> <r_epik_Ionization_Penalty_Neutral>
0.165297

> <r_epik_State_Penalty>
3.83354

> <r_epik_Charging_Adjusted_Penalty>
7.668

> <i_epik_Tot_Q>
-1

> <i_epik_Tot_abs_Q>
1

> <r_epik_Metal_State_Penalty>
0.575872

> <b_epik_Metal_Only>
1

> <s_lp_Force_Field>
OPLS_2005

> <r_lp_Energy>
2.2869

> <b_lp_Chiralities_Consistent>
1

> <s_lp_Variant>
AV-unprocessed.smi:1027-4

> <Gold.Version>
5.8.1

> <Gold.Id.Protein>
6NUR|6NUR_protein|mol2

> <Gold.PLP.Fitness>
43.2387

> <Gold.PLP.PLP>
-35.7511

> <Gold.PLP.part.hbond>
-3.0570

> <Gold.PLP.part.metal>
0.0000

> <Gold.PLP.part.buried>
1.3511

> <Gold.PLP.part.nonpolar>
-32.3505

> <Gold.PLP.part.repulsive>
0.1907

> <Gold.PLP.ligand.clash>
0.0000

> <Gold.PLP.ligand.torsion>
0.6266

> <Gold.PLP.Chemscore.Hbond>
2.8532

> <Gold.PLP.Chemscore.CHOScore>
0.0000

> <Gold.PLP.Chemscore.Metal>
0.0000

> <Gold.Chemscore.Hbonds>
donor molecule, donor type, donor heavy atom, donor atom, acceptor molecule, acceptor atom, score
      P1  H  7989  7998       L1    12  0.86
      P1  H  7997  8008       L1     9  1.92

> <Gold.PLP.Chemscore.Internal.Correction>
0.1811

> <Gold.Rescore>
     Score         DG    S(hbond)    S(metal)    S(lipo)     H(rot)  DE(clash)    DE(int)     intcor
     10.71     -13.66       0.20        0.00      94.08       1.36       0.24       2.71       ----

> <Gold.Chemscore.Fitness>
10.7102

> <Gold.Chemscore.DG>
-13.6628

> <Gold.Chemscore.ZeroCoef>
-5.4800

> <Gold.Chemscore.Hbond>
0.1982

> <Gold.Chemscore.Metal>
0.0000

> <Gold.Chemscore.Lipo>
94.0786

> <Gold.Chemscore.Internal_Hbond>
0.0000

> <Gold.Chemscore.DEClash>
0.2441

> <Gold.Chemscore.DEInternal>
2.7084

> <Gold.Chemscore.Rot>
1.3618

> <Gold.Chemscore.Internal.Correction>
   9.000000E+99

> <Gold.Chemscore.Hbonds>
donor molecule, donor type, donor heavy atom, donor atom, acceptor molecule, acceptor atom, score
      P1  H  7989  7998       L1    12  0.04
      P1  H  7997  8008       L1     9  0.50

> <Gold.Chemscore.Hbond.Weighted>
-0.6618

> <Gold.Chemscore.Metal.Weighted>
-0.0000

> <Gold.Chemscore.Lipo.Weighted>
-11.0072

> <Gold.Chemscore.Internal_Hbond.Weighted>
0.0000

> <Gold.Chemscore.DEClash.Weighted>
0.2441

> <Gold.Chemscore.DEInternal.Weighted>
2.7084

> <Gold.Chemscore.Rot.Weighted>
3.4863

> <Gold.Chemscore.Internal.Correction.Weighted>
   9.000000E+99

> <Gold.Protein.RotatedTorsions>
[ 6907 6896 6895 6894 ] final -175.98 input  -60.11 | X-H torsion
[ 7974 7965 7964 7962 ] final   51.74 input  175.53 | X-H torsion
[ 8008 7997 7996 7995 ] final  -64.55 input   59.86 | X-H torsion
[ 10167 10162 10161 10158 ] final  144.72 input  -65.29 | X-H torsion
[ 10718 10713 10712 10709 ] final  -94.61 input   66.30 | X-H torsion
[ 10763 10752 10751 10750 ] final   19.69 input  -60.55 | X-H torsion
[ 11005 11000 10999 10996 ] final  -71.78 input  -57.11 | X-H torsion

> <Gold.Protein.ActiveResidues>
 VAL166  LYS551  ARG553  GLY616  TRP617  ASP618  TYR619  PRO620  LYS621  CYS622 
 ASP623  PHE694  ASN695  SER759  ASP760  ASP761  ALA762  ILE779  LEU786  VAL792 
 PHE793  MET794  SER795  GLU796  ALA797  LYS798  CYS799  TRP800  GLU811  SER814 

> <Gold.Protein.RotatedAtoms>
  151.5973  133.3360  159.3039 H   0  0  0  0  0  0  0  0  0  0  0  0  # atno 6907 bound_to 6896
  150.8227  134.7446  159.6797 H   0  0  0  0  0  0  0  0  0  0  0  0  # atno 6908 bound_to 6896
  152.4319  134.5767  159.9988 H   0  0  0  0  0  0  0  0  0  0  0  0  # atno 6909 bound_to 6896
  145.9883  139.4313  143.0089 H   0  0  0  0  0  0  0  0  0  0  0  0  # atno 7974 bound_to 7965
  154.4618  140.0951  156.6915 H   0  0  0  0  0  0  0  0  0  0  0  0  # atno 8008 bound_to 7997
  155.4971  140.3472  155.4346 H   0  0  0  0  0  0  0  0  0  0  0  0  # atno 8009 bound_to 7997
  156.0885  140.1391  156.9611 H   0  0  0  0  0  0  0  0  0  0  0  0  # atno 8010 bound_to 7997
  139.4941  144.5952  151.6598 H   0  0  0  0  0  0  0  0  0  0  0  0  # atno 10167 bound_to 10162
  156.0030  130.5075  150.5952 H   0  0  0  0  0  0  0  0  0  0  0  0  # atno 10718 bound_to 10713
  153.1141  135.6703  153.9449 H   0  0  0  0  0  0  0  0  0  0  0  0  # atno 10763 bound_to 10752
  153.8984  135.3039  155.3449 H   0  0  0  0  0  0  0  0  0  0  0  0  # atno 10764 bound_to 10752
  154.7558  135.5012  153.9451 H   0  0  0  0  0  0  0  0  0  0  0  0  # atno 10765 bound_to 10752
  141.1598  133.6827  156.6959 H   0  0  0  0  0  0  0  0  0  0  0  0  # atno 11005 bound_to 11000
  145.7667  140.9913  143.1171 LP  0  0  0  0  0  0  0  0  0  0  0  0  # atno 17320 bound_to 7965
  144.6881  139.9397  143.7474 LP  0  0  0  0  0  0  0  0  0  0  0  0  # atno 17321 bound_to 7965
  140.5588  144.0303  150.6160 LP  0  0  0  0  0  0  0  0  0  0  0  0  # atno 17342 bound_to 10162
  140.3382  143.3036  152.0616 LP  0  0  0  0  0  0  0  0  0  0  0  0  # atno 17343 bound_to 10162
  157.3810  131.0781  151.1476 LP  0  0  0  0  0  0  0  0  0  0  0  0  # atno 17370 bound_to 10713
  157.2199  130.6476  149.5807 LP  0  0  0  0  0  0  0  0  0  0  0  0  # atno 17371 bound_to 10713
  140.2995  134.8175  157.4086 LP  0  0  0  0  0  0  0  0  0  0  0  0  # atno 17394 bound_to 11000
  140.1274  134.5140  155.8133 LP  0  0  0  0  0  0  0  0  0  0  0  0  # atno 17395 bound_to 11000

$$$$
