AV-unprocessed.smi:131|AV-procd|sdf|1161|dock1
  -GOLD-   2262018303D 1   1.00000     0.00000
 Structure written by MMmdl.
 55 58  0  0  0  0  0  0  0  0  1 V2000
  151.9813  136.4742  156.4156 O   0  0  0  0  0  0  0  0  0  0  0  0
  151.3434  137.5152  156.5760 C   0  0  0  0  0  0  0  0  0  0  0  0
  151.9376  138.8605  156.1290 C   0  0  0  0  0  0  0  0  0  0  0  0
  152.1809  139.7901  157.2537 N   0  0  0  0  0  0  0  0  0  0  0  0
  153.0360  139.3705  158.3028 C   0  0  0  0  0  0  0  0  0  0  0  0
  153.5596  138.2553  158.2921 O   0  0  0  0  0  0  0  0  0  0  0  0
  153.2477  140.3418  159.3700 C   0  0  0  0  0  0  0  0  0  0  0  0
  154.0302  140.0222  160.4147 F   0  0  0  0  0  0  0  0  0  0  0  0
  152.6690  141.5595  159.3268 C   0  0  0  0  0  0  0  0  0  0  0  0
  151.8528  141.9641  158.2852 N   0  0  0  0  0  0  0  0  0  0  0  0
  151.2210  143.3399  158.2443 C   0  0  2  0  0  0  0  0  0  0  0  0
  152.2968  144.4256  158.0449 C   0  0  0  0  0  0  0  0  0  0  0  0
  152.0117  145.3938  159.1759 C   0  0  0  0  0  0  0  0  0  0  0  0
  151.4152  144.4767  160.2326 C   0  0  0  0  0  0  0  0  0  0  0  0
  150.5905  143.6108  159.4639 O   0  0  0  0  0  0  0  0  0  0  0  0
  151.5828  141.0724  157.2243 C   0  0  0  0  0  0  0  0  0  0  0  0
  150.8506  141.4110  156.2917 O   0  0  0  0  0  0  0  0  0  0  0  0
  150.1025  137.5811  157.0929 N   0  0  0  0  0  0  0  0  0  0  0  0
  149.2848  136.5391  157.6116 C   0  0  0  0  0  0  0  0  0  0  0  0
  148.1926  136.9275  158.4173 C   0  0  0  0  0  0  0  0  0  0  0  0
  147.3414  135.9616  158.9879 C   0  0  0  0  0  0  0  0  0  0  0  0
  147.5863  134.5952  158.7536 C   0  0  0  0  0  0  0  0  0  0  0  0
  146.5297  133.3563  159.4927 S   0  0  0  0  0  0  0  0  0  0  0  0
  145.1255  133.6437  159.1596 O   0  0  0  0  0  0  0  0  0  0  0  0
  147.1101  132.0390  159.1889 O   0  0  0  0  0  0  0  0  0  0  0  0
  146.7429  133.6407  161.1872 N   0  0  0  0  0  0  0  0  0  0  0  0
  145.5604  133.7389  162.0518 C   0  0  0  0  0  0  0  0  0  0  0  0
  145.7935  134.9707  162.9277 C   0  0  0  0  0  0  0  0  0  0  0  0
  147.3106  135.0602  163.0147 C   0  0  0  0  0  0  0  0  0  0  0  0
  147.7655  134.5957  161.6319 C   0  0  0  0  0  0  0  0  0  0  0  0
  148.6791  134.1904  157.9639 C   0  0  0  0  0  0  0  0  0  0  0  0
  149.5301  135.1592  157.3977 C   0  0  0  0  0  0  0  0  0  0  0  0
  152.8545  138.6582  155.5737 H   0  0  0  0  0  0  0  0  0  0  0  0
  151.2783  139.3196  155.3901 H   0  0  0  0  0  0  0  0  0  0  0  0
  152.8647  142.2293  160.1499 H   0  0  0  0  0  0  0  0  0  0  0  0
  150.4742  143.2975  157.4494 H   0  0  0  0  0  0  0  0  0  0  0  0
  153.2938  143.9957  158.1549 H   0  0  0  0  0  0  0  0  0  0  0  0
  152.2143  144.8812  157.0579 H   0  0  0  0  0  0  0  0  0  0  0  0
  152.9005  145.9228  159.5210 H   0  0  0  0  0  0  0  0  0  0  0  0
  151.2722  146.1315  158.8618 H   0  0  0  0  0  0  0  0  0  0  0  0
  152.1958  143.9059  160.7376 H   0  0  0  0  0  0  0  0  0  0  0  0
  150.8402  145.0164  160.9850 H   0  0  0  0  0  0  0  0  0  0  0  0
  149.6745  138.4957  157.0815 H   0  0  0  0  0  0  0  0  0  0  0  0
  148.0011  137.9747  158.6014 H   0  0  0  0  0  0  0  0  0  0  0  0
  146.5096  136.2738  159.6016 H   0  0  0  0  0  0  0  0  0  0  0  0
  144.6449  133.8305  161.4662 H   0  0  0  0  0  0  0  0  0  0  0  0
  145.4904  132.8342  162.6563 H   0  0  0  0  0  0  0  0  0  0  0  0
  145.3993  135.8583  162.4308 H   0  0  0  0  0  0  0  0  0  0  0  0
  145.3165  134.8911  163.9048 H   0  0  0  0  0  0  0  0  0  0  0  0
  147.6634  136.0618  163.2621 H   0  0  0  0  0  0  0  0  0  0  0  0
  147.6792  134.3735  163.7780 H   0  0  0  0  0  0  0  0  0  0  0  0
  148.7519  134.1312  161.6487 H   0  0  0  0  0  0  0  0  0  0  0  0
  147.7969  135.4419  160.9449 H   0  0  0  0  0  0  0  0  0  0  0  0
  148.8706  133.1404  157.7971 H   0  0  0  0  0  0  0  0  0  0  0  0
  150.3703  134.8137  156.8169 H   0  0  0  0  0  0  0  0  0  0  0  0
  1  2  2  0  0  0  0
  2  3  1  0  0  0  0
  2 18  1  0  0  0  0
  3  4  1  0  0  0  0
  3 33  1  0  0  0  0
  3 34  1  0  0  0  0
  4 16  1  0  0  0  0
  4  5  1  0  0  0  0
  5  6  2  0  0  0  0
  5  7  1  0  0  0  0
  7  8  1  0  0  0  0
  7  9  2  0  0  0  0
  9 10  1  0  0  0  0
  9 35  1  0  0  0  0
 10 11  1  0  0  0  0
 10 16  1  0  0  0  0
 11 15  1  0  0  0  0
 11 12  1  0  0  0  0
 11 36  1  0  0  0  0
 12 13  1  0  0  0  0
 12 37  1  0  0  0  0
 12 38  1  0  0  0  0
 13 14  1  0  0  0  0
 13 39  1  0  0  0  0
 13 40  1  0  0  0  0
 14 15  1  0  0  0  0
 14 41  1  0  0  0  0
 14 42  1  0  0  0  0
 16 17  2  0  0  0  0
 18 19  1  0  0  0  0
 18 43  1  0  0  0  0
 19 32  1  0  0  0  0
 19 20  2  0  0  0  0
 20 21  1  0  0  0  0
 20 44  1  0  0  0  0
 21 22  2  0  0  0  0
 21 45  1  0  0  0  0
 22 23  1  0  0  0  0
 22 31  1  0  0  0  0
 23 24  2  0  0  0  0
 23 25  2  0  0  0  0
 23 26  1  0  0  0  0
 26 30  1  0  0  0  0
 26 27  1  0  0  0  0
 27 28  1  0  0  0  0
 27 46  1  0  0  0  0
 27 47  1  0  0  0  0
 28 29  1  0  0  0  0
 28 48  1  0  0  0  0
 28 49  1  0  0  0  0
 29 30  1  0  0  0  0
 29 50  1  0  0  0  0
 29 51  1  0  0  0  0
 30 52  1  0  0  0  0
 30 53  1  0  0  0  0
 31 32  2  0  0  0  0
 31 54  1  0  0  0  0
 32 55  1  0  0  0  0
M  END
> <s_m_source_file>
AV-unprocessed.smi

> <i_m_source_file_index>
131

> <i_lp_mmshare_version>
43012

> <i_f3d_flags>
0

> <s_epik_input>
W0NIMl0xW0NIMl1bQ0gyXVtDSDJdTjFTKD1PKSg9TyljKFtjSF1bY0hdMilbY0hdW2NIXWMyW05IXUMoPU8pW0NIMl1uM2MoPU8pYyhGKVtjSF1uKGMzPU8pW0NAQEhdNFtDSDJdW0NIMl1bQ0gyXU80

> <s_epik_cmdline>
J2VwaWtfcHl0aG9uJywgJy1waCcsICc3LjAnLCAnLXRuJywgJzgnLCAnLW1hJywgJzIwMCcsICctbWV0YWxfYmluZGluZycsICctaW1hZScsICc8aW5maWxlLm1hZT4nLCAnLW9tYWUnLCAnPG91dGZpbGUubWFlPic=

> <r_lp_tautomer_probability>
1

> <r_epik_Ionization_Penalty>
1.92533e-06

> <r_epik_Ionization_Penalty_Charging>
3.88729e-08

> <r_epik_Ionization_Penalty_Neutral>
1.88646e-06

> <r_epik_State_Penalty>
-0

> <r_epik_Charging_Adjusted_Penalty>
3.88729e-08

> <i_epik_Tot_Q>
0

> <i_epik_Tot_abs_Q>
0

> <r_epik_Metal_State_Penalty>
-0

> <b_epik_Metal_Only>
0

> <s_epik_Chemistry_Notes>
This compound contains an acetal/aminal-like group ( X-CH(R)-Y where X, Y are N, S, or O) that may be acid/base labile, releasing an aldehyde.

> <s_lp_Force_Field>
OPLS_2005

> <r_lp_Energy>
42.8804

> <b_lp_Chiralities_Consistent>
1

> <s_lp_Variant>
AV-unprocessed.smi:131-1

> <Gold.Version>
5.8.1

> <Gold.Id.Protein>
6NUR|6NUR_protein|mol2

> <Gold.PLP.Fitness>
50.3144

> <Gold.PLP.PLP>
-47.8329

> <Gold.PLP.part.hbond>
-1.2579

> <Gold.PLP.part.metal>
0.0000

> <Gold.PLP.part.buried>
-6.9143

> <Gold.PLP.part.nonpolar>
-40.4668

> <Gold.PLP.part.repulsive>
0.1580

> <Gold.PLP.ligand.clash>
0.0000

> <Gold.PLP.ligand.torsion>
1.6071

> <Gold.PLP.Chemscore.Hbond>
1.0000

> <Gold.PLP.Chemscore.CHOScore>
0.0000

> <Gold.PLP.Chemscore.Metal>
0.0000

> <Gold.Chemscore.Hbonds>
donor molecule, donor type, donor heavy atom, donor atom, acceptor molecule, acceptor atom, score
      P1  H 10752 10765       L1     1  0.96

> <Gold.PLP.Chemscore.Internal.Correction>
2.6958

> <Gold.Rescore>
     Score         DG    S(hbond)    S(metal)    S(lipo)     H(rot)  DE(clash)    DE(int)     intcor
     12.44     -16.28       0.97        0.00     106.50       1.92       0.00       3.85       ----

> <Gold.Chemscore.Fitness>
12.4370

> <Gold.Chemscore.DG>
-16.2848

> <Gold.Chemscore.ZeroCoef>
-5.4800

> <Gold.Chemscore.Hbond>
0.9734

> <Gold.Chemscore.Metal>
0.0000

> <Gold.Chemscore.Lipo>
106.4965

> <Gold.Chemscore.Internal_Hbond>
0.0000

> <Gold.Chemscore.DEClash>
0.0025

> <Gold.Chemscore.DEInternal>
3.8453

> <Gold.Chemscore.Rot>
1.9166

> <Gold.Chemscore.Internal.Correction>
   9.000000E+99

> <Gold.Chemscore.Hbonds>
donor molecule, donor type, donor heavy atom, donor atom, acceptor molecule, acceptor atom, score
      P1  H 10752 10765       L1     1  0.91

> <Gold.Chemscore.Hbond.Weighted>
-3.2511

> <Gold.Chemscore.Metal.Weighted>
-0.0000

> <Gold.Chemscore.Lipo.Weighted>
-12.4601

> <Gold.Chemscore.Internal_Hbond.Weighted>
0.0000

> <Gold.Chemscore.DEClash.Weighted>
0.0025

> <Gold.Chemscore.DEInternal.Weighted>
3.8453

> <Gold.Chemscore.Rot.Weighted>
4.9064

> <Gold.Chemscore.Internal.Correction.Weighted>
   9.000000E+99

> <Gold.Protein.RotatedTorsions>
[ 6907 6896 6895 6894 ] final  -68.76 input  -60.11 | X-H torsion
[ 7974 7965 7964 7962 ] final   90.32 input  175.53 | X-H torsion
[ 8008 7997 7996 7995 ] final   54.87 input   59.86 | X-H torsion
[ 10167 10162 10161 10158 ] final -120.52 input  -65.29 | X-H torsion
[ 10718 10713 10712 10709 ] final  -73.16 input   66.30 | X-H torsion
[ 10763 10752 10751 10750 ] final -145.92 input  -60.55 | X-H torsion
[ 11005 11000 10999 10996 ] final   -7.16 input  -57.11 | X-H torsion

> <Gold.Protein.ActiveResidues>
 VAL166  LYS551  ARG553  GLY616  TRP617  ASP618  TYR619  PRO620  LYS621  CYS622 
 ASP623  PHE694  ASN695  SER759  ASP760  ASP761  ALA762  ILE779  LEU786  VAL792 
 PHE793  MET794  SER795  GLU796  ALA797  LYS798  CYS799  TRP800  GLU811  SER814 

> <Gold.Protein.RotatedAtoms>
  150.7339  134.5693  159.5881 H   0  0  0  0  0  0  0  0  0  0  0  0  # atno 6907 bound_to 6896
  152.3136  134.7464  160.0339 H   0  0  0  0  0  0  0  0  0  0  0  0  # atno 6908 bound_to 6896
  151.8004  133.3333  159.3562 H   0  0  0  0  0  0  0  0  0  0  0  0  # atno 6909 bound_to 6896
  145.5205  139.2279  143.2674 H   0  0  0  0  0  0  0  0  0  0  0  0  # atno 7974 bound_to 7965
  155.4918  140.3471  155.4356 H   0  0  0  0  0  0  0  0  0  0  0  0  # atno 8008 bound_to 7997
  156.0972  140.1426  156.9544 H   0  0  0  0  0  0  0  0  0  0  0  0  # atno 8009 bound_to 7997
  154.4671  140.0914  156.7025 H   0  0  0  0  0  0  0  0  0  0  0  0  # atno 8010 bound_to 7997
  140.0350  143.5210  152.2158 H   0  0  0  0  0  0  0  0  0  0  0  0  # atno 10167 bound_to 10162
  156.0291  130.4388  150.2701 H   0  0  0  0  0  0  0  0  0  0  0  0  # atno 10718 bound_to 10713
  154.8361  135.3400  154.6580 H   0  0  0  0  0  0  0  0  0  0  0  0  # atno 10763 bound_to 10752
  153.7195  135.6959  153.5021 H   0  0  0  0  0  0  0  0  0  0  0  0  # atno 10764 bound_to 10752
  153.2392  135.4390  155.0632 H   0  0  0  0  0  0  0  0  0  0  0  0  # atno 10765 bound_to 10752
  140.7098  133.8919  155.8742 H   0  0  0  0  0  0  0  0  0  0  0  0  # atno 11005 bound_to 11000
  146.2109  140.6017  142.9060 LP  0  0  0  0  0  0  0  0  0  0  0  0  # atno 17320 bound_to 7965
  144.7678  140.5570  143.6691 LP  0  0  0  0  0  0  0  0  0  0  0  0  # atno 17321 bound_to 7965
  139.6051  144.7594  151.3080 LP  0  0  0  0  0  0  0  0  0  0  0  0  # atno 17342 bound_to 10162
  140.7285  143.6932  150.7905 LP  0  0  0  0  0  0  0  0  0  0  0  0  # atno 17343 bound_to 10162
  157.0804  131.0142  151.3158 LP  0  0  0  0  0  0  0  0  0  0  0  0  # atno 17370 bound_to 10713
  157.4931  130.7834  149.7528 LP  0  0  0  0  0  0  0  0  0  0  0  0  # atno 17371 bound_to 10713
  141.0094  134.1041  157.4237 LP  0  0  0  0  0  0  0  0  0  0  0  0  # atno 17394 bound_to 11000
  139.8875  135.0090  156.6562 LP  0  0  0  0  0  0  0  0  0  0  0  0  # atno 17395 bound_to 11000

$$$$
