AV-unprocessed.smi:286|AV-procd|sdf|2176|dock1
  -GOLD-   2262021533D 1   1.00000     0.00000
 Structure written by MMmdl.
 46 48  0  0  0  0  0  0  0  0  1 V2000
  149.4699  139.6926  154.0374 O   0  0  0  0  0  0  0  0  0  0  0  0
  149.9603  140.2507  155.0202 C   0  0  0  0  0  0  0  0  0  0  0  0
  149.5281  141.5614  155.4940 C   0  0  0  0  0  0  0  0  0  0  0  0
  148.5684  142.2254  154.8277 F   0  0  0  0  0  0  0  0  0  0  0  0
  150.0796  142.1241  156.5909 C   0  0  0  0  0  0  0  0  0  0  0  0
  151.0705  141.5096  157.3379 N   0  0  0  0  0  0  0  0  0  0  0  0
  151.6574  142.1781  158.5604 C   0  0  1  0  0  0  0  0  0  0  0  0
  152.3994  143.4588  158.1598 C   0  0  0  0  0  0  0  0  0  0  0  0
  151.3529  144.5220  158.4151 C   0  0  0  0  0  0  0  0  0  0  0  0
  150.6268  143.9512  159.6271 C   0  0  0  0  0  0  0  0  0  0  0  0
  150.6183  142.5412  159.4240 O   0  0  0  0  0  0  0  0  0  0  0  0
  151.5648  140.2477  156.9424 C   0  0  0  0  0  0  0  0  0  0  0  0
  152.4551  139.6858  157.5854 O   0  0  0  0  0  0  0  0  0  0  0  0
  150.9954  139.6609  155.7872 N   0  0  0  0  0  0  0  0  0  0  0  0
  151.4793  138.3492  155.3882 C   0  0  0  0  0  0  0  0  0  0  0  0
  150.3590  137.2881  155.2836 C   0  0  1  0  0  0  0  0  0  0  0  0
  150.8683  136.1455  154.6227 O   0  0  0  0  0  0  0  0  0  0  0  0
  149.8005  136.8732  156.6670 C   0  0  0  0  0  0  0  0  0  0  0  0
  148.5901  135.9126  156.5901 C   0  0  0  0  0  0  0  0  0  0  0  0
  148.1126  135.4924  157.9898 C   0  0  0  0  0  0  0  0  0  0  0  0
  147.7849  136.7155  158.8600 C   0  0  0  0  0  0  0  0  0  0  0  0
  148.9850  137.6709  158.9470 C   0  0  0  0  0  0  0  0  0  0  0  0
  149.4620  138.0957  157.5483 C   0  0  0  0  0  0  0  0  0  0  0  0
  149.7227  143.0992  156.8872 H   0  0  0  0  0  0  0  0  0  0  0  0
  152.2905  141.4343  159.0466 H   0  0  0  0  0  0  0  0  0  0  0  0
  153.2499  143.5915  158.8295 H   0  0  0  0  0  0  0  0  0  0  0  0
  152.7610  143.4275  157.1311 H   0  0  0  0  0  0  0  0  0  0  0  0
  151.7799  145.5083  158.5984 H   0  0  0  0  0  0  0  0  0  0  0  0
  150.6727  144.5960  157.5656 H   0  0  0  0  0  0  0  0  0  0  0  0
  151.1818  144.1707  160.5403 H   0  0  0  0  0  0  0  0  0  0  0  0
  149.6168  144.3464  159.7384 H   0  0  0  0  0  0  0  0  0  0  0  0
  152.0521  138.4474  154.4646 H   0  0  0  0  0  0  0  0  0  0  0  0
  152.2248  138.0635  156.1325 H   0  0  0  0  0  0  0  0  0  0  0  0
  149.5344  137.6831  154.6886 H   0  0  0  0  0  0  0  0  0  0  0  0
  150.4898  136.1055  153.7578 H   0  0  0  0  0  0  0  0  0  0  0  0
  150.6033  136.3379  157.1771 H   0  0  0  0  0  0  0  0  0  0  0  0
  147.7652  136.3895  156.0594 H   0  0  0  0  0  0  0  0  0  0  0  0
  148.8472  135.0200  156.0195 H   0  0  0  0  0  0  0  0  0  0  0  0
  147.2349  134.8513  157.9049 H   0  0  0  0  0  0  0  0  0  0  0  0
  148.8854  134.8950  158.4752 H   0  0  0  0  0  0  0  0  0  0  0  0
  146.9270  137.2431  158.4412 H   0  0  0  0  0  0  0  0  0  0  0  0
  147.4925  136.3929  159.8598 H   0  0  0  0  0  0  0  0  0  0  0  0
  148.7168  138.5515  159.5313 H   0  0  0  0  0  0  0  0  0  0  0  0
  149.8026  137.1837  159.4801 H   0  0  0  0  0  0  0  0  0  0  0  0
  150.3359  138.7410  157.6446 H   0  0  0  0  0  0  0  0  0  0  0  0
  148.6863  138.6970  157.0728 H   0  0  0  0  0  0  0  0  0  0  0  0
  1  2  2  0  0  0  0
  2 14  1  0  0  0  0
  2  3  1  0  0  0  0
  3  4  1  0  0  0  0
  3  5  2  0  0  0  0
  5  6  1  0  0  0  0
  5 24  1  0  0  0  0
  6  7  1  0  0  0  0
  6 12  1  0  0  0  0
  7 11  1  0  0  0  0
  7  8  1  0  0  0  0
  7 25  1  0  0  0  0
  8  9  1  0  0  0  0
  8 26  1  0  0  0  0
  8 27  1  0  0  0  0
  9 10  1  0  0  0  0
  9 28  1  0  0  0  0
  9 29  1  0  0  0  0
 10 11  1  0  0  0  0
 10 30  1  0  0  0  0
 10 31  1  0  0  0  0
 12 13  2  0  0  0  0
 12 14  1  0  0  0  0
 14 15  1  0  0  0  0
 15 16  1  0  0  0  0
 15 32  1  0  0  0  0
 15 33  1  0  0  0  0
 16 17  1  0  0  0  0
 16 18  1  0  0  0  0
 16 34  1  0  0  0  0
 17 35  1  0  0  0  0
 18 23  1  0  0  0  0
 18 19  1  0  0  0  0
 18 36  1  0  0  0  0
 19 20  1  0  0  0  0
 19 37  1  0  0  0  0
 19 38  1  0  0  0  0
 20 21  1  0  0  0  0
 20 39  1  0  0  0  0
 20 40  1  0  0  0  0
 21 22  1  0  0  0  0
 21 41  1  0  0  0  0
 21 42  1  0  0  0  0
 22 23  1  0  0  0  0
 22 43  1  0  0  0  0
 22 44  1  0  0  0  0
 23 45  1  0  0  0  0
 23 46  1  0  0  0  0
M  END
> <s_m_source_file>
AV-unprocessed.smi

> <i_m_source_file_index>
286

> <i_lp_mmshare_version>
43012

> <i_f3d_flags>
0

> <s_epik_input>
TzFbQ0gyXVtDSDJdW0NIMl1bQ0BIXTFuKFtjSF1jKEYpYzI9TyljKD1PKW4yW0NIMl1bQ0BIXShbT0hdKVtDSF0zW0NIMl1bQ0gyXVtDSDJdW0NIMl1bQ0gyXTM=

> <s_epik_cmdline>
J2VwaWtfcHl0aG9uJywgJy1waCcsICc3LjAnLCAnLXRuJywgJzgnLCAnLW1hJywgJzIwMCcsICctbWV0YWxfYmluZGluZycsICctaW1hZScsICc8aW5maWxlLm1hZT4nLCAnLW9tYWUnLCAnPG91dGZpbGUubWFlPic=

> <r_lp_tautomer_probability>
1

> <r_epik_Ionization_Penalty>
3.15564e-07

> <r_epik_Ionization_Penalty_Charging>
2.06416e-08

> <r_epik_Ionization_Penalty_Neutral>
2.94923e-07

> <r_epik_State_Penalty>
-0

> <r_epik_Charging_Adjusted_Penalty>
2.06416e-08

> <i_epik_Tot_Q>
0

> <i_epik_Tot_abs_Q>
0

> <r_epik_Metal_State_Penalty>
-0

> <b_epik_Metal_Only>
0

> <s_epik_Chemistry_Notes>
This compound contains an acetal/aminal-like group ( X-CH(R)-Y where X, Y are N, S, or O) that may be acid/base labile, releasing an aldehyde.

> <s_lp_Force_Field>
OPLS_2005

> <r_lp_Energy>
42.0749

> <b_lp_Chiralities_Consistent>
1

> <s_lp_Variant>
AV-unprocessed.smi:286-4

> <Gold.Version>
5.8.1

> <Gold.Id.Protein>
6NUR|6NUR_protein|mol2

> <Gold.PLP.Fitness>
47.6909

> <Gold.PLP.PLP>
-36.1092

> <Gold.PLP.part.hbond>
-4.6058

> <Gold.PLP.part.metal>
0.0000

> <Gold.PLP.part.buried>
-0.5850

> <Gold.PLP.part.nonpolar>
-33.8468

> <Gold.PLP.part.repulsive>
2.3724

> <Gold.PLP.ligand.clash>
0.0000

> <Gold.PLP.ligand.torsion>
0.2405

> <Gold.PLP.Chemscore.Hbond>
3.0000

> <Gold.PLP.Chemscore.CHOScore>
1.0000

> <Gold.PLP.Chemscore.Metal>
0.0000

> <Gold.Chemscore.Hbonds>
donor molecule, donor type, donor heavy atom, donor atom, acceptor molecule, acceptor atom, score
      L1  H    17    35       P1  7949  0.05
      P1  H  7997  8010       L1    13  0.54
      P1  H 10752 10763       L1    17  0.73
      L1  C     5    24       P1  8028  1.00

> <Gold.PLP.Chemscore.Internal.Correction>
0.0628

> <Gold.Rescore>
     Score         DG    S(hbond)    S(metal)    S(lipo)     H(rot)  DE(clash)    DE(int)     intcor
     11.49     -14.98       1.98        0.00      74.46       2.28       0.62       2.87       ----

> <Gold.Chemscore.Fitness>
11.4935

> <Gold.Chemscore.DG>
-14.9798

> <Gold.Chemscore.ZeroCoef>
-5.4800

> <Gold.Chemscore.Hbond>
1.9799

> <Gold.Chemscore.Metal>
0.0000

> <Gold.Chemscore.Lipo>
74.4638

> <Gold.Chemscore.Internal_Hbond>
0.0000

> <Gold.Chemscore.DEClash>
0.6203

> <Gold.Chemscore.DEInternal>
2.8660

> <Gold.Chemscore.Rot>
2.2756

> <Gold.Chemscore.Internal.Correction>
   9.000000E+99

> <Gold.Chemscore.Hbonds>
donor molecule, donor type, donor heavy atom, donor atom, acceptor molecule, acceptor atom, score
      P1  H  7997  8010       L1    13  0.29
      P1  H 10752 10763       L1    17  0.33

> <Gold.Chemscore.Hbond.Weighted>
-6.6129

> <Gold.Chemscore.Metal.Weighted>
-0.0000

> <Gold.Chemscore.Lipo.Weighted>
-8.7123

> <Gold.Chemscore.Internal_Hbond.Weighted>
0.0000

> <Gold.Chemscore.DEClash.Weighted>
0.6203

> <Gold.Chemscore.DEInternal.Weighted>
2.8660

> <Gold.Chemscore.Rot.Weighted>
5.8254

> <Gold.Chemscore.Internal.Correction.Weighted>
   9.000000E+99

> <Gold.Protein.RotatedTorsions>
[ 6907 6896 6895 6894 ] final  -27.91 input  -60.11 | X-H torsion
[ 7974 7965 7964 7962 ] final  -87.06 input  175.53 | X-H torsion
[ 8008 7997 7996 7995 ] final   68.70 input   59.86 | X-H torsion
[ 10167 10162 10161 10158 ] final -141.28 input  -65.29 | X-H torsion
[ 10718 10713 10712 10709 ] final  -36.30 input   66.30 | X-H torsion
[ 10763 10752 10751 10750 ] final   42.72 input  -60.55 | X-H torsion
[ 11005 11000 10999 10996 ] final   37.86 input  -57.11 | X-H torsion

> <Gold.Protein.ActiveResidues>
 VAL166  LYS551  ARG553  GLY616  TRP617  ASP618  TYR619  PRO620  LYS621  CYS622 
 ASP623  PHE694  ASN695  SER759  ASP760  ASP761  ALA762  ILE779  LEU786  VAL792 
 PHE793  MET794  SER795  GLU796  ALA797  LYS798  CYS799  TRP800  GLU811  SER814 

> <Gold.Protein.RotatedAtoms>
  151.1403  135.0176  159.8622 H   0  0  0  0  0  0  0  0  0  0  0  0  # atno 6907 bound_to 6896
  152.5452  134.1507  159.8527 H   0  0  0  0  0  0  0  0  0  0  0  0  # atno 6908 bound_to 6896
  151.1582  133.4817  159.2627 H   0  0  0  0  0  0  0  0  0  0  0  0  # atno 6909 bound_to 6896
  145.4715  140.9559  143.1914 H   0  0  0  0  0  0  0  0  0  0  0  0  # atno 7974 bound_to 7965
  155.7123  140.3494  155.4979 H   0  0  0  0  0  0  0  0  0  0  0  0  # atno 8008 bound_to 7997
  155.9344  140.1090  157.1128 H   0  0  0  0  0  0  0  0  0  0  0  0  # atno 8009 bound_to 7997
  154.4091  140.1225  156.4831 H   0  0  0  0  0  0  0  0  0  0  0  0  # atno 8010 bound_to 7997
  139.8199  143.7587  152.2666 H   0  0  0  0  0  0  0  0  0  0  0  0  # atno 10167 bound_to 10162
  156.3285  130.4276  149.7895 H   0  0  0  0  0  0  0  0  0  0  0  0  # atno 10718 bound_to 10713
  152.9876  135.6123  154.2995 H   0  0  0  0  0  0  0  0  0  0  0  0  # atno 10763 bound_to 10752
  154.2716  135.2779  155.2737 H   0  0  0  0  0  0  0  0  0  0  0  0  # atno 10764 bound_to 10752
  154.5117  135.5839  153.6667 H   0  0  0  0  0  0  0  0  0  0  0  0  # atno 10765 bound_to 10752
  140.2183  134.3671  155.8016 H   0  0  0  0  0  0  0  0  0  0  0  0  # atno 11005 bound_to 11000
  144.7942  139.6267  143.7100 LP  0  0  0  0  0  0  0  0  0  0  0  0  # atno 17320 bound_to 7965
  146.2394  139.5970  142.9502 LP  0  0  0  0  0  0  0  0  0  0  0  0  # atno 17321 bound_to 7965
  139.7762  144.7460  151.0153 LP  0  0  0  0  0  0  0  0  0  0  0  0  # atno 17342 bound_to 10162
  140.7814  143.4591  151.0304 LP  0  0  0  0  0  0  0  0  0  0  0  0  # atno 17343 bound_to 10162
  156.5176  130.8200  151.3192 LP  0  0  0  0  0  0  0  0  0  0  0  0  # atno 17370 bound_to 10713
  157.7426  130.9893  150.2527 LP  0  0  0  0  0  0  0  0  0  0  0  0  # atno 17371 bound_to 10713
  141.2224  133.7180  156.8534 LP  0  0  0  0  0  0  0  0  0  0  0  0  # atno 17394 bound_to 11000
  140.1876  134.8988  157.3023 LP  0  0  0  0  0  0  0  0  0  0  0  0  # atno 17395 bound_to 11000

$$$$
