AV-unprocessed.smi:2216|AV-procd|sdf|8964|dock3
  -GOLD-   2272012183D 1   1.00000     0.00000
 Structure written by MMmdl.
 41 42  0  0  0  0  0  0  0  0  1 V2000
  145.5893  131.0204  151.0873 C   0  0  0  0  0  0  0  0  0  0  0  0
  145.2647  132.4909  150.8929 C   0  0  0  0  0  0  0  0  0  0  0  0
  146.0268  133.4661  151.4403 C   0  0  0  0  0  0  0  0  0  0  0  0
  145.7144  134.8799  151.2554 C   0  0  0  0  0  0  0  0  0  0  0  0
  146.4476  135.9536  151.7804 N   0  0  0  0  0  0  0  0  0  0  0  0
  146.0058  137.1157  152.2953 C   0  0  0  0  0  0  0  0  0  0  0  0
  144.8292  137.4557  152.4112 O   0  0  0  0  0  0  0  0  0  0  0  0
  147.0320  137.8865  152.6831 N   0  0  0  0  0  0  0  0  0  0  0  0
  146.9068  139.2112  153.2804 C   0  0  0  0  0  0  0  0  0  0  0  0
  148.2553  139.9515  153.3047 C   0  0  0  0  0  0  0  0  0  0  0  0
  148.7973  140.1554  154.7279 C   0  0  2  0  0  0  0  0  0  0  0  0
  148.1693  141.3839  155.4147 C   0  0  0  0  0  0  0  0  0  0  0  0
  148.7839  141.5966  156.8028 C   0  0  0  0  0  0  0  0  0  0  0  0
  150.3109  141.6546  156.6879 C   0  0  0  0  0  0  0  0  0  0  0  0
  150.8372  140.4254  155.9300 C   0  0  0  0  0  0  0  0  0  0  0  0
  150.2105  140.3369  154.6539 O   0  0  0  0  0  0  0  0  0  0  0  0
  144.6259  135.1660  150.5199 C   0  0  0  0  0  0  0  0  0  0  0  0
  143.8376  134.1609  149.9546 N   0  0  0  0  0  0  0  0  0  0  0  0
  144.0834  132.8376  150.0861 C   0  0  0  0  0  0  0  0  0  0  0  0
  143.3454  132.0108  149.5533 O   0  0  0  0  0  0  0  0  0  0  0  0
  143.0380  134.4545  149.4123 H   0  0  0  0  0  0  0  0  0  0  0  0
  146.4777  130.8861  151.7052 H   0  0  0  0  0  0  0  0  0  0  0  0
  145.7730  130.5404  150.1256 H   0  0  0  0  0  0  0  0  0  0  0  0
  144.7597  130.5076  151.5751 H   0  0  0  0  0  0  0  0  0  0  0  0
  146.8768  133.1581  152.0262 H   0  0  0  0  0  0  0  0  0  0  0  0
  147.4487  135.8260  151.7676 H   0  0  0  0  0  0  0  0  0  0  0  0
  147.9688  137.5327  152.5554 H   0  0  0  0  0  0  0  0  0  0  0  0
  146.1582  139.7959  152.7429 H   0  0  0  0  0  0  0  0  0  0  0  0
  146.5306  139.0865  154.2961 H   0  0  0  0  0  0  0  0  0  0  0  0
  148.9878  139.4059  152.7082 H   0  0  0  0  0  0  0  0  0  0  0  0
  148.1367  140.9259  152.8286 H   0  0  0  0  0  0  0  0  0  0  0  0
  148.5793  139.2627  155.3171 H   0  0  0  0  0  0  0  0  0  0  0  0
  148.3330  142.2725  154.8035 H   0  0  0  0  0  0  0  0  0  0  0  0
  147.0895  141.2590  155.5018 H   0  0  0  0  0  0  0  0  0  0  0  0
  148.4002  142.5122  157.2533 H   0  0  0  0  0  0  0  0  0  0  0  0
  148.4956  140.7767  157.4619 H   0  0  0  0  0  0  0  0  0  0  0  0
  150.6039  142.5617  156.1578 H   0  0  0  0  0  0  0  0  0  0  0  0
  150.7627  141.7108  157.6786 H   0  0  0  0  0  0  0  0  0  0  0  0
  151.9148  140.5065  155.7879 H   0  0  0  0  0  0  0  0  0  0  0  0
  150.6592  139.5108  156.4977 H   0  0  0  0  0  0  0  0  0  0  0  0
  144.2798  136.1669  150.3058 H   0  0  0  0  0  0  0  0  0  0  0  0
  1  2  1  0  0  0  0
  1 22  1  0  0  0  0
  1 23  1  0  0  0  0
  1 24  1  0  0  0  0
  2 19  1  0  0  0  0
  2  3  2  0  0  0  0
  3  4  1  0  0  0  0
  3 25  1  0  0  0  0
  4  5  1  0  0  0  0
  4 17  2  0  0  0  0
  5  6  1  0  0  0  0
  5 26  1  0  0  0  0
  6  7  2  0  0  0  0
  6  8  1  0  0  0  0
  8  9  1  0  0  0  0
  8 27  1  0  0  0  0
  9 10  1  0  0  0  0
  9 28  1  0  0  0  0
  9 29  1  0  0  0  0
 10 11  1  0  0  0  0
 10 30  1  0  0  0  0
 10 31  1  0  0  0  0
 11 16  1  0  0  0  0
 11 12  1  0  0  0  0
 11 32  1  0  0  0  0
 12 13  1  0  0  0  0
 12 33  1  0  0  0  0
 12 34  1  0  0  0  0
 13 14  1  0  0  0  0
 13 35  1  0  0  0  0
 13 36  1  0  0  0  0
 14 15  1  0  0  0  0
 14 37  1  0  0  0  0
 14 38  1  0  0  0  0
 15 16  1  0  0  0  0
 15 39  1  0  0  0  0
 15 40  1  0  0  0  0
 17 18  1  0  0  0  0
 17 41  1  0  0  0  0
 18 21  1  0  0  0  0
 18 19  1  0  0  0  0
 19 20  2  0  0  0  0
M  END
> <s_m_source_file>
AV-unprocessed.smi

> <i_m_source_file_index>
2216

> <i_lp_mmshare_version>
43012

> <i_f3d_flags>
0

> <s_epik_input>
Tz1jMVtuSF1bY0hdYyhbY0hdYzFbQ0gzXSlbTkhdQyg9TylbTkhdW0NIMl1bQ0gyXVtDQEBIXTJbQ0gyXVtDSDJdW0NIMl1bQ0gyXU8y

> <s_epik_cmdline>
J2VwaWtfcHl0aG9uJywgJy1waCcsICc3LjAnLCAnLXRuJywgJzgnLCAnLW1hJywgJzIwMCcsICctbWV0YWxfYmluZGluZycsICctaW1hZScsICc8aW5maWxlLm1hZT4nLCAnLW9tYWUnLCAnPG91dGZpbGUubWFlPic=

> <r_lp_tautomer_probability>
1

> <r_epik_Ionization_Penalty>
4.73984e-05

> <r_epik_Ionization_Penalty_Charging>
2.74455e-05

> <r_epik_Ionization_Penalty_Neutral>
1.99529e-05

> <r_epik_State_Penalty>
-0

> <r_epik_Charging_Adjusted_Penalty>
2.74455e-05

> <i_epik_Tot_Q>
0

> <i_epik_Tot_abs_Q>
0

> <r_epik_Metal_State_Penalty>
0.0206128

> <b_epik_Metal_Only>
0

> <s_lp_Force_Field>
OPLS_2005

> <r_lp_Energy>
17.2202

> <b_lp_Chiralities_Consistent>
1

> <s_lp_Variant>
AV-unprocessed.smi:2216-1

> <Gold.Version>
5.8.1

> <Gold.Id.Protein>
6NUR|6NUR_protein|mol2

> <Gold.PLP.Fitness>
49.4498

> <Gold.PLP.PLP>
-34.4193

> <Gold.PLP.part.hbond>
-4.8389

> <Gold.PLP.part.metal>
0.0000

> <Gold.PLP.part.buried>
-3.4294

> <Gold.PLP.part.nonpolar>
-30.0874

> <Gold.PLP.part.repulsive>
2.0477

> <Gold.PLP.ligand.clash>
0.0000

> <Gold.PLP.ligand.torsion>
0.9676

> <Gold.PLP.Chemscore.Hbond>
4.6522

> <Gold.PLP.Chemscore.CHOScore>
1.0000

> <Gold.PLP.Chemscore.Metal>
0.0000

> <Gold.Chemscore.Hbonds>
donor molecule, donor type, donor heavy atom, donor atom, acceptor molecule, acceptor atom, score
      L1  H     5    26       P1  7948  0.99
      L1  H     8    27       P1  7948  0.91
      L1  H    18    21       P1 10186  0.78
      P1  H  7989  7998       L1    16  1.00
      P1  H 10785 10796       L1    20  0.98
      L1  C    17    41       P1 10171  1.00

> <Gold.PLP.Chemscore.Internal.Correction>
0.0092

> <Gold.Rescore>
     Score         DG    S(hbond)    S(metal)    S(lipo)     H(rot)  DE(clash)    DE(int)     intcor
     20.53     -24.60       4.23        0.00      75.42       1.50       2.05       2.02       ----

> <Gold.Chemscore.Fitness>
20.5324

> <Gold.Chemscore.DG>
-24.6028

> <Gold.Chemscore.ZeroCoef>
-5.4800

> <Gold.Chemscore.Hbond>
4.2305

> <Gold.Chemscore.Metal>
0.0000

> <Gold.Chemscore.Lipo>
75.4157

> <Gold.Chemscore.Internal_Hbond>
0.0000

> <Gold.Chemscore.DEClash>
2.0490

> <Gold.Chemscore.DEInternal>
2.0214

> <Gold.Chemscore.Rot>
1.4964

> <Gold.Chemscore.Internal.Correction>
   9.000000E+99

> <Gold.Chemscore.Hbonds>
donor molecule, donor type, donor heavy atom, donor atom, acceptor molecule, acceptor atom, score
      L1  H     5    26       P1  7948  0.92
      L1  H     8    27       P1  7948  0.90
      L1  H    18    21       P1 10186  0.72
      P1  H  7989  7998       L1    16  0.33
      P1  H 10785 10796       L1    20  0.89

> <Gold.Chemscore.Hbond.Weighted>
-14.1300

> <Gold.Chemscore.Metal.Weighted>
-0.0000

> <Gold.Chemscore.Lipo.Weighted>
-8.8236

> <Gold.Chemscore.Internal_Hbond.Weighted>
0.0000

> <Gold.Chemscore.DEClash.Weighted>
2.0490

> <Gold.Chemscore.DEInternal.Weighted>
2.0214

> <Gold.Chemscore.Rot.Weighted>
3.8308

> <Gold.Chemscore.Internal.Correction.Weighted>
   9.000000E+99

> <Gold.Protein.RotatedTorsions>
[ 6907 6896 6895 6894 ] final   35.95 input  -60.11 | X-H torsion
[ 7974 7965 7964 7962 ] final   -8.24 input  175.53 | X-H torsion
[ 8008 7997 7996 7995 ] final -112.17 input   59.86 | X-H torsion
[ 10167 10162 10161 10158 ] final    8.77 input  -65.29 | X-H torsion
[ 10718 10713 10712 10709 ] final  -35.74 input   66.30 | X-H torsion
[ 10763 10752 10751 10750 ] final -160.69 input  -60.55 | X-H torsion
[ 11005 11000 10999 10996 ] final  172.98 input  -57.11 | X-H torsion

> <Gold.Protein.ActiveResidues>
 VAL166  LYS551  ARG553  GLY616  TRP617  ASP618  TYR619  PRO620  LYS621  CYS622 
 ASP623  PHE694  ASN695  SER759  ASP760  ASP761  ALA762  ILE779  LEU786  VAL792 
 PHE793  MET794  SER795  GLU796  ALA797  LYS798  CYS799  TRP800  GLU811  SER814 

> <Gold.Protein.RotatedAtoms>
  152.1231  134.9191  160.0561 H   0  0  0  0  0  0  0  0  0  0  0  0  # atno 6907 bound_to 6896
  152.0324  133.3938  159.4311 H   0  0  0  0  0  0  0  0  0  0  0  0  # atno 6908 bound_to 6896
  150.6850  134.3427  159.4918 H   0  0  0  0  0  0  0  0  0  0  0  0  # atno 6909 bound_to 6896
  146.2286  140.2439  142.8344 H   0  0  0  0  0  0  0  0  0  0  0  0  # atno 7974 bound_to 7965
  155.0011  140.0394  157.2360 H   0  0  0  0  0  0  0  0  0  0  0  0  # atno 8008 bound_to 7997
  154.7543  140.2773  155.6243 H   0  0  0  0  0  0  0  0  0  0  0  0  # atno 8009 bound_to 7997
  156.2891  140.2641  156.2305 H   0  0  0  0  0  0  0  0  0  0  0  0  # atno 8010 bound_to 7997
  140.6294  143.8027  150.7276 H   0  0  0  0  0  0  0  0  0  0  0  0  # atno 10167 bound_to 10162
  156.3350  130.4285  149.7838 H   0  0  0  0  0  0  0  0  0  0  0  0  # atno 10718 bound_to 10713
  154.7368  135.3059  154.8797 H   0  0  0  0  0  0  0  0  0  0  0  0  # atno 10763 bound_to 10752
  153.9623  135.6751  153.4749 H   0  0  0  0  0  0  0  0  0  0  0  0  # atno 10764 bound_to 10752
  153.0970  135.4930  154.8721 H   0  0  0  0  0  0  0  0  0  0  0  0  # atno 10765 bound_to 10752
  140.3356  134.7320  157.4166 H   0  0  0  0  0  0  0  0  0  0  0  0  # atno 11005 bound_to 11000
  144.9464  140.8132  143.5599 LP  0  0  0  0  0  0  0  0  0  0  0  0  # atno 17320 bound_to 7965
  145.2395  139.2079  143.5000 LP  0  0  0  0  0  0  0  0  0  0  0  0  # atno 17321 bound_to 7965
  140.1635  143.4255  152.2051 LP  0  0  0  0  0  0  0  0  0  0  0  0  # atno 17342 bound_to 10162
  139.5510  144.7337  151.4434 LP  0  0  0  0  0  0  0  0  0  0  0  0  # atno 17343 bound_to 10162
  156.5096  130.8166  151.3163 LP  0  0  0  0  0  0  0  0  0  0  0  0  # atno 17370 bound_to 10713
  157.7437  130.9918  150.2614 LP  0  0  0  0  0  0  0  0  0  0  0  0  # atno 17371 bound_to 10713
  140.0824  134.5713  155.8527 LP  0  0  0  0  0  0  0  0  0  0  0  0  # atno 17394 bound_to 11000
  141.2052  133.6645  156.6167 LP  0  0  0  0  0  0  0  0  0  0  0  0  # atno 17395 bound_to 11000

$$$$
