AV-unprocessed.smi:1592|AV-procd|sdf|6402|dock1
  -GOLD-   22720 7 33D 1   1.00000     0.00000
 Structure written by MMmdl.
 27 28  0  0  0  0  0  0  0  0  1 V2000
  150.9145  140.3619  156.2935 O   0  0  0  0  0  0  0  0  0  0  0  0
  150.3674  141.4489  156.1034 C   0  0  0  0  0  0  0  0  0  0  0  0
  150.5450  142.5399  156.8713 N   0  0  0  0  0  0  0  0  0  0  0  0
  151.3787  142.6955  158.0134 C   0  0  0  0  0  0  0  0  0  0  0  0
  152.1927  141.7132  158.4752 N   0  0  0  0  0  0  0  0  0  0  0  0
  152.9529  141.9405  159.5664 C   0  0  0  0  0  0  0  0  0  0  0  0
  152.9503  143.1609  160.2648 C   0  0  0  0  0  0  0  0  0  0  0  0
  152.1128  144.1888  159.7982 C   0  0  0  0  0  0  0  0  0  0  0  0
  151.3159  143.9571  158.6589 C   0  0  0  0  0  0  0  0  0  0  0  0
  150.4986  144.9533  158.2004 O   0  0  0  0  0  0  0  0  0  0  0  0
  149.3910  141.6167  154.9334 C   0  0  1  0  0  0  0  0  0  0  0  0
  149.2347  140.3588  154.0578 C   0  0  0  0  0  0  0  0  0  0  0  0
  147.8213  139.8919  154.3462 C   0  0  0  0  0  0  0  0  0  0  0  0
  147.1241  141.1989  154.6942 C   0  0  0  0  0  0  0  0  0  0  0  0
  148.0962  141.8805  155.4704 O   0  0  0  0  0  0  0  0  0  0  0  0
  150.0205  143.3618  156.6082 H   0  0  0  0  0  0  0  0  0  0  0  0
  153.5814  141.1248  159.8915 H   0  0  0  0  0  0  0  0  0  0  0  0
  153.5739  143.3035  161.1349 H   0  0  0  0  0  0  0  0  0  0  0  0
  152.0826  145.1406  160.3081 H   0  0  0  0  0  0  0  0  0  0  0  0
  149.9692  144.6887  157.4635 H   0  0  0  0  0  0  0  0  0  0  0  0
  149.6924  142.4592  154.3085 H   0  0  0  0  0  0  0  0  0  0  0  0
  149.3299  140.6317  153.0060 H   0  0  0  0  0  0  0  0  0  0  0  0
  149.9709  139.5789  154.2579 H   0  0  0  0  0  0  0  0  0  0  0  0
  147.3613  139.3712  153.5062 H   0  0  0  0  0  0  0  0  0  0  0  0
  147.8158  139.2249  155.2092 H   0  0  0  0  0  0  0  0  0  0  0  0
  146.9022  141.7759  153.7952 H   0  0  0  0  0  0  0  0  0  0  0  0
  146.1979  141.0500  155.2494 H   0  0  0  0  0  0  0  0  0  0  0  0
  1  2  2  0  0  0  0
  2  3  1  0  0  0  0
  2 11  1  0  0  0  0
  3  4  1  0  0  0  0
  3 16  1  0  0  0  0
  4  9  1  0  0  0  0
  4  5  2  0  0  0  0
  5  6  1  0  0  0  0
  6  7  2  0  0  0  0
  6 17  1  0  0  0  0
  7  8  1  0  0  0  0
  7 18  1  0  0  0  0
  8  9  2  0  0  0  0
  8 19  1  0  0  0  0
  9 10  1  0  0  0  0
 10 20  1  0  0  0  0
 11 15  1  0  0  0  0
 11 12  1  0  0  0  0
 11 21  1  0  0  0  0
 12 13  1  0  0  0  0
 12 22  1  0  0  0  0
 12 23  1  0  0  0  0
 13 14  1  0  0  0  0
 13 24  1  0  0  0  0
 13 25  1  0  0  0  0
 14 15  1  0  0  0  0
 14 26  1  0  0  0  0
 14 27  1  0  0  0  0
M  END
> <s_m_source_file>
AV-unprocessed.smi

> <i_m_source_file_index>
1592

> <i_lp_mmshare_version>
43012

> <i_f3d_flags>
0

> <s_epik_input>
TzFbQ0gyXVtDSDJdW0NIMl1bQ0BIXTFDKD1PKVtOSF1jMm5bY0hdW2NIXVtjSF1jMltPSF0=

> <s_epik_cmdline>
J2VwaWtfcHl0aG9uJywgJy1waCcsICc3LjAnLCAnLXRuJywgJzgnLCAnLW1hJywgJzIwMCcsICctbWV0YWxfYmluZGluZycsICctaW1hZScsICc8aW5maWxlLm1hZT4nLCAnLW9tYWUnLCAnPG91dGZpbGUubWFlPic=

> <r_lp_tautomer_probability>
0.43658

> <r_epik_Ionization_Penalty>
0.0209102

> <r_epik_Ionization_Penalty_Charging>
0

> <r_epik_Ionization_Penalty_Neutral>
0.0209102

> <r_epik_State_Penalty>
0.412899

> <r_epik_Charging_Adjusted_Penalty>
0.412899

> <i_epik_Tot_Q>
0

> <i_epik_Tot_abs_Q>
0

> <r_epik_Metal_State_Penalty>
0.372161

> <b_epik_Metal_Only>
0

> <s_lp_Force_Field>
OPLS_2005

> <r_lp_Energy>
20.3979

> <b_lp_Chiralities_Consistent>
1

> <s_lp_Variant>
AV-unprocessed.smi:1592-2

> <Gold.Version>
5.8.1

> <Gold.Id.Protein>
6NUR|6NUR_protein|mol2

> <Gold.PLP.Fitness>
36.3290

> <Gold.PLP.PLP>
-30.3926

> <Gold.PLP.part.hbond>
-3.0000

> <Gold.PLP.part.metal>
0.0000

> <Gold.PLP.part.buried>
-2.2667

> <Gold.PLP.part.nonpolar>
-26.9922

> <Gold.PLP.part.repulsive>
1.7674

> <Gold.PLP.ligand.clash>
0.0000

> <Gold.PLP.ligand.torsion>
0.0226

> <Gold.PLP.Chemscore.Hbond>
1.9913

> <Gold.PLP.Chemscore.CHOScore>
0.0000

> <Gold.PLP.Chemscore.Metal>
0.0000

> <Gold.Chemscore.Hbonds>
donor molecule, donor type, donor heavy atom, donor atom, acceptor molecule, acceptor atom, score
      L1  H     3    16       P1  8028  1.00
      L1  H    10    20       P1  8028  0.74

> <Gold.PLP.Chemscore.Internal.Correction>
0.0078

> <Gold.Rescore>
     Score         DG    S(hbond)    S(metal)    S(lipo)     H(rot)  DE(clash)    DE(int)     intcor
     13.68     -15.41       1.69        0.00      68.78       1.47       0.42       1.31       ----

> <Gold.Chemscore.Fitness>
13.6833

> <Gold.Chemscore.DG>
-15.4082

> <Gold.Chemscore.ZeroCoef>
-5.4800

> <Gold.Chemscore.Hbond>
1.6932

> <Gold.Chemscore.Metal>
0.0000

> <Gold.Chemscore.Lipo>
68.7764

> <Gold.Chemscore.Internal_Hbond>
0.0000

> <Gold.Chemscore.DEClash>
0.4183

> <Gold.Chemscore.DEInternal>
1.3066

> <Gold.Chemscore.Rot>
1.4742

> <Gold.Chemscore.Internal.Correction>
   9.000000E+99

> <Gold.Chemscore.Hbonds>
donor molecule, donor type, donor heavy atom, donor atom, acceptor molecule, acceptor atom, score
      L1  H     3    16       P1  8028  0.96
      L1  H    10    20       P1  8028  0.10

> <Gold.Chemscore.Hbond.Weighted>
-5.6552

> <Gold.Chemscore.Metal.Weighted>
-0.0000

> <Gold.Chemscore.Lipo.Weighted>
-8.0468

> <Gold.Chemscore.Internal_Hbond.Weighted>
0.0000

> <Gold.Chemscore.DEClash.Weighted>
0.4183

> <Gold.Chemscore.DEInternal.Weighted>
1.3066

> <Gold.Chemscore.Rot.Weighted>
3.7739

> <Gold.Chemscore.Internal.Correction.Weighted>
   9.000000E+99

> <Gold.Protein.RotatedTorsions>
[ 6907 6896 6895 6894 ] final  -99.13 input  -60.11 | X-H torsion
[ 7974 7965 7964 7962 ] final  174.08 input  175.53 | X-H torsion
[ 8008 7997 7996 7995 ] final   82.40 input   59.86 | X-H torsion
[ 10167 10162 10161 10158 ] final   20.36 input  -65.29 | X-H torsion
[ 10718 10713 10712 10709 ] final  -38.25 input   66.30 | X-H torsion
[ 10763 10752 10751 10750 ] final -175.89 input  -60.55 | X-H torsion
[ 11005 11000 10999 10996 ] final  -88.00 input  -57.11 | X-H torsion

> <Gold.Protein.ActiveResidues>
 VAL166  LYS551  ARG553  GLY616  TRP617  ASP618  TYR619  PRO620  LYS621  CYS622 
 ASP623  PHE694  ASN695  SER759  ASP760  ASP761  ALA762  ILE779  LEU786  VAL792 
 PHE793  MET794  SER795  GLU796  ALA797  LYS798  CYS799  TRP800  GLU811  SER814 

> <Gold.Protein.RotatedAtoms>
  150.7069  134.1088  159.3992 H   0  0  0  0  0  0  0  0  0  0  0  0  # atno 6907 bound_to 6896
  151.9074  135.0351  160.0521 H   0  0  0  0  0  0  0  0  0  0  0  0  # atno 6908 bound_to 6896
  152.2364  133.5064  159.5281 H   0  0  0  0  0  0  0  0  0  0  0  0  # atno 6909 bound_to 6896
  144.7229  139.9743  143.6437 H   0  0  0  0  0  0  0  0  0  0  0  0  # atno 7974 bound_to 7965
  155.9101  140.3428  155.6092 H   0  0  0  0  0  0  0  0  0  0  0  0  # atno 8008 bound_to 7997
  155.7398  140.0806  157.2270 H   0  0  0  0  0  0  0  0  0  0  0  0  # atno 8009 bound_to 7997
  154.4054  140.1573  156.2590 H   0  0  0  0  0  0  0  0  0  0  0  0  # atno 8010 bound_to 7997
  140.5509  143.9510  150.6578 H   0  0  0  0  0  0  0  0  0  0  0  0  # atno 10167 bound_to 10162
  156.3060  130.4246  149.8097 H   0  0  0  0  0  0  0  0  0  0  0  0  # atno 10718 bound_to 10713
  154.5789  135.2834  155.0753 H   0  0  0  0  0  0  0  0  0  0  0  0  # atno 10763 bound_to 10752
  154.2096  135.6410  153.5115 H   0  0  0  0  0  0  0  0  0  0  0  0  # atno 10764 bound_to 10752
  153.0081  135.5488  154.6436 H   0  0  0  0  0  0  0  0  0  0  0  0  # atno 10765 bound_to 10752
  141.1608  133.7544  156.9388 H   0  0  0  0  0  0  0  0  0  0  0  0  # atno 11005 bound_to 11000
  146.0538  139.3536  143.0623 LP  0  0  0  0  0  0  0  0  0  0  0  0  # atno 17320 bound_to 7965
  145.8181  140.9693  143.0913 LP  0  0  0  0  0  0  0  0  0  0  0  0  # atno 17321 bound_to 7965
  140.2936  143.3308  152.1039 LP  0  0  0  0  0  0  0  0  0  0  0  0  # atno 17342 bound_to 10162
  139.5027  144.6740  151.6173 LP  0  0  0  0  0  0  0  0  0  0  0  0  # atno 17343 bound_to 10162
  156.5458  130.8320  151.3284 LP  0  0  0  0  0  0  0  0  0  0  0  0  # atno 17370 bound_to 10713
  157.7379  130.9805  150.2223 LP  0  0  0  0  0  0  0  0  0  0  0  0  # atno 17371 bound_to 10713
  140.1336  134.9340  157.2371 LP  0  0  0  0  0  0  0  0  0  0  0  0  # atno 17394 bound_to 11000
  140.2923  134.3226  155.7312 LP  0  0  0  0  0  0  0  0  0  0  0  0  # atno 17395 bound_to 11000

$$$$
