#       Name:                AV-unprocessed.smi:1802
#       Creating user name   scv26
#       Creation time:       Fri Mar 27 08:53:13 2020


#       File generated by GOLD software.
#

@<TRIPOS>MOLECULE
AV-unprocessed.smi:1802
    45    46     1
SMALL
NO_CHARGES


@<TRIPOS>ATOM
      1 ****        -0.9939   3.6284  -0.3016 C.3            1 S1                 0.0000
      2 ****        -2.0351   3.0061  -1.2483 C.3            1 S1                 0.0000
      3 ****        -3.4767   3.1413  -0.7237 C.3            1 S1                 0.0000
      4 ****        -3.7416   2.1714   0.4366 C.3            1 S1                 0.0000
      5 ****        -3.3783   0.7300   0.0459 C.3            1 S1                 0.0000
      6 ****        -1.9680   0.6410  -0.4128 N.4            1 S1                 1.0000
      7 ****        -1.5341  -0.7596  -0.6449 C.3            1 S1                 0.0000
      8 ****        -0.0109  -0.9248  -0.5098 C.3            1 S1                 0.0000
      9 ****         0.4344  -2.3897  -0.6547 C.3            1 S1                 0.0000
     10 ****         1.8780  -2.5313  -0.5009 N.am           1 S1                 0.0000
     11 ****         2.5252  -2.5424   0.6738 C.2            1 S1                 0.0000
     12 ****         1.9557  -2.4267   1.7595 O.2            1 S1                 0.0000
     13 ****         3.8507  -2.6898   0.5014 N.am           1 S1                 0.0000
     14 ****         4.8661  -2.7392   1.4934 C.2            1 S1                 0.0000
     15 ****         4.6240  -2.6552   2.8110 N.2            1 S1                 0.0000
     16 ****         5.7914  -2.7298   3.5598 N.2            1 S1                 0.0000
     17 ****         6.8665  -2.8663   2.7786 C.2            1 S1                 0.0000
     18 ****         6.5580  -2.9179   1.0514 S.3            1 S1                 0.0000
     19 ****        -1.7149   1.5334  -1.5767 C.3            1 S1                 0.0000
     20 ****        -0.9522   3.1102   0.6565 H              1 S1                 0.0000
     21 ****        -1.2218   4.6759  -0.1024 H              1 S1                 0.0000
     22 ****         0.0040   3.5895  -0.7396 H              1 S1                 0.0000
     23 ****        -1.9761   3.5691  -2.1809 H              1 S1                 0.0000
     24 ****        -3.6784   4.1675  -0.4145 H              1 S1                 0.0000
     25 ****        -4.1745   2.9246  -1.5338 H              1 S1                 0.0000
     26 ****        -3.1655   2.4718   1.3125 H              1 S1                 0.0000
     27 ****        -4.7905   2.2232   0.7294 H              1 S1                 0.0000
     28 ****        -3.5302   0.0805   0.9089 H              1 S1                 0.0000
     29 ****        -4.0427   0.3717  -0.7422 H              1 S1                 0.0000
     30 ****        -2.0064  -1.4082   0.0944 H              1 S1                 0.0000
     31 ****        -1.8808  -1.1026  -1.6209 H              1 S1                 0.0000
     32 ****         0.5068  -0.3246  -1.2576 H              1 S1                 0.0000
     33 ****         0.3014  -0.5413   0.4625 H              1 S1                 0.0000
     34 ****        -0.0792  -3.0211   0.0724 H              1 S1                 0.0000
     35 ****         0.1597  -2.7657  -1.6406 H              1 S1                 0.0000
     36 ****         2.4204  -2.6345  -1.3463 H              1 S1                 0.0000
     37 ****         4.1734  -2.7726  -0.4513 H              1 S1                 0.0000
     38 ****         7.8481  -2.9373   3.2231 H              1 S1                 0.0000
     39 ****        -2.3275   1.2023  -2.4169 H              1 S1                 0.0000
     40 ****        -0.6785   1.4560  -1.9034 H              1 S1                 0.0000
     41 ****        -1.4054   0.9871   0.3515 H              1 S1                 0.0000
     42 ****         0.9622  -2.3178   1.7939 LP             1 S1                 0.0000
     43 ****         2.4867  -2.4416   2.6068 LP             1 S1                 0.0000
     44 ****         3.7114  -2.5513   3.2066 LP             1 S1                 0.0000
     45 ****         5.8232  -2.6867   4.5584 LP             1 S1                 0.0000
@<TRIPOS>BOND
    1    1    2 1     
    2    1   20 1     
    3    1   21 1     
    4    1   22 1     
    5    2   19 1     
    6    2    3 1     
    7    2   23 1     
    8    3    4 1     
    9    3   24 1     
   10    3   25 1     
   11    4    5 1     
   12    4   26 1     
   13    4   27 1     
   14    5    6 1     
   15    5   28 1     
   16    5   29 1     
   17    6    7 1     
   18    6   19 1     
   19    6   41 1     
   20    7    8 1     
   21    7   30 1     
   22    7   31 1     
   23    8    9 1     
   24    8   32 1     
   25    8   33 1     
   26    9   10 1     
   27    9   34 1     
   28    9   35 1     
   29   10   11 am    
   30   10   36 1     
   31   11   12 2     
   32   11   13 am    
   33   13   14 1     
   34   13   37 1     
   35   14   18 1     
   36   14   15 2     
   37   15   16 1     
   38   16   17 2     
   39   17   18 1     
   40   17   38 1     
   41   19   39 1     
   42   19   40 1     
   43   12   42 1     
   44   12   43 1     
   45   15   44 1     
   46   16   45 1     
@<TRIPOS>SUBSTRUCTURE
      1 S1             1
@<TRIPOS>SET
LONE_PAIRS      STATIC     ATOMS    <user>   **** ""
4 42 43 44 45
DONOR_HYDROGENS      STATIC     ATOMS    <user>   **** ""
3 41 36 37
ATOM$BLUE        STATIC     ATOMS    COLORGROUP SYSTEM
4 42 43 44 45
ATOM$RED        STATIC     ATOMS    COLORGROUP SYSTEM
3 41 36 37
