AV-unprocessed.smi:2721|AV-procd|sdf|10501|dock6
  -GOLD-   2272014543D 1   1.00000     0.00000
 Structure written by MMmdl.
 29 30  0  0  0  0  0  0  0  0  2 V2000
  142.0985  137.4404  153.7989 C   0  0  0  0  0  0  0  0  0  0  0  0
  142.6963  136.3151  153.1128 N   0  0  0  0  0  0  0  0  0  0  0  0
  143.6420  136.3210  152.1113 C   0  0  0  0  0  0  0  0  0  0  0  0
  143.9006  135.0194  151.7733 C   0  0  0  0  0  0  0  0  0  0  0  0
  144.8296  134.4246  150.7315 C   0  0  2  0  0  0  0  0  0  0  0  0
  144.1642  133.5543  149.8126 O   0  0  0  0  0  0  0  0  0  0  0  0
  143.7923  132.2724  150.3161 C   0  0  0  0  0  0  0  0  0  0  0  0
  145.0262  131.5127  150.8262 C   0  0  0  0  0  0  0  0  0  0  0  0
  145.7785  132.3375  151.8751 C   0  0  0  0  0  0  0  0  0  0  0  0
  146.0898  133.7294  151.3065 C   0  0  2  0  0  0  0  0  0  0  0  0
  146.7868  134.5759  152.2930 N   0  3  0  0  0  0  0  0  0  0  0  0
  143.0423  134.2887  152.6456 C   0  0  0  0  0  0  0  0  0  0  0  0
  142.3237  135.0629  153.4406 N   0  0  0  0  0  0  0  0  0  0  0  0
  145.1920  135.2442  150.1095 H   0  0  0  0  0  0  0  0  0  0  0  0
  146.7869  133.5858  150.4797 H   0  0  0  0  0  0  0  0  0  0  0  0
  142.5534  138.3711  153.4587 H   0  0  0  0  0  0  0  0  0  0  0  0
  142.2529  137.3432  154.8741 H   0  0  0  0  0  0  0  0  0  0  0  0
  141.0285  137.4718  153.5917 H   0  0  0  0  0  0  0  0  0  0  0  0
  144.0428  137.2485  151.7310 H   0  0  0  0  0  0  0  0  0  0  0  0
  143.0398  132.3653  151.0972 H   0  0  0  0  0  0  0  0  0  0  0  0
  143.3228  131.7105  149.5086 H   0  0  0  0  0  0  0  0  0  0  0  0
  144.7302  130.5503  151.2448 H   0  0  0  0  0  0  0  0  0  0  0  0
  145.6899  131.2970  149.9879 H   0  0  0  0  0  0  0  0  0  0  0  0
  145.1858  132.4133  152.7859 H   0  0  0  0  0  0  0  0  0  0  0  0
  146.7011  131.8266  152.1532 H   0  0  0  0  0  0  0  0  0  0  0  0
  146.1876  135.3436  152.5613 H   0  0  0  0  0  0  0  0  0  0  0  0
  147.6350  134.9412  151.8840 H   0  0  0  0  0  0  0  0  0  0  0  0
  142.9175  133.2184  152.7193 H   0  0  0  0  0  0  0  0  0  0  0  0
  147.0166  134.0261  153.1085 H   0  0  0  0  0  0  0  0  0  0  0  0
  1  2  1  0  0  0  0
  1 16  1  0  0  0  0
  1 17  1  0  0  0  0
  1 18  1  0  0  0  0
  2 13  1  0  0  0  0
  2  3  1  0  0  0  0
  3  4  2  0  0  0  0
  3 19  1  0  0  0  0
  4  5  1  0  0  0  0
  4 12  1  0  0  0  0
  5 14  1  0  0  0  0
  5 10  1  0  0  0  0
  5  6  1  0  0  0  0
  6  7  1  0  0  0  0
  7  8  1  0  0  0  0
  7 20  1  0  0  0  0
  7 21  1  0  0  0  0
  8  9  1  0  0  0  0
  8 22  1  0  0  0  0
  8 23  1  0  0  0  0
  9 10  1  0  0  0  0
  9 24  1  0  0  0  0
  9 25  1  0  0  0  0
 10 15  1  0  0  0  0
 10 11  1  0  0  0  0
 11 26  1  0  0  0  0
 11 27  1  0  0  0  0
 11 29  1  0  0  0  0
 12 13  2  0  0  0  0
 12 28  1  0  0  0  0
M  CHG  1  11   1
M  END
> <s_m_source_file>
AV-unprocessed.smi

> <i_m_source_file_index>
2721

> <i_lp_mmshare_version>
43012

> <i_f3d_flags>
0

> <s_epik_input>
W0NIM11uMVtjSF1jKFtjSF1uMSlbQ0BIXTJPW0NIMl1bQ0gyXVtDSDJdW0NAQEhdMltOSDJd

> <s_epik_cmdline>
J2VwaWtfcHl0aG9uJywgJy1waCcsICc3LjAnLCAnLXRuJywgJzgnLCAnLW1hJywgJzIwMCcsICctbWV0YWxfYmluZGluZycsICctaW1hZScsICc8aW5maWxlLm1hZT4nLCAnLW9tYWUnLCAnPG91dGZpbGUubWFlPic=

> <r_lp_tautomer_probability>
1

> <r_epik_Ionization_Penalty>
0.0061467

> <r_epik_Ionization_Penalty_Charging>
0.00611941

> <r_epik_Ionization_Penalty_Neutral>
2.72888e-05

> <r_epik_State_Penalty>
0.00451057

> <r_epik_Charging_Adjusted_Penalty>
0.01063

> <i_epik_Tot_Q>
1

> <i_epik_Tot_abs_Q>
1

> <r_epik_Metal_State_Penalty>
-0

> <b_epik_Metal_Only>
0

> <s_lp_Force_Field>
OPLS_2005

> <r_lp_Energy>
14.6487

> <b_lp_Chiralities_Consistent>
1

> <s_lp_Variant>
AV-unprocessed.smi:2721-2

> <Gold.Version>
5.8.1

> <Gold.Id.Protein>
6NUR|6NUR_protein|mol2

> <Gold.PLP.Fitness>
35.6746

> <Gold.PLP.PLP>
-23.9359

> <Gold.PLP.part.hbond>
-1.0000

> <Gold.PLP.part.metal>
0.0000

> <Gold.PLP.part.buried>
-5.6065

> <Gold.PLP.part.nonpolar>
-18.9544

> <Gold.PLP.part.repulsive>
0.3877

> <Gold.PLP.ligand.clash>
0.0000

> <Gold.PLP.ligand.torsion>
0.1610

> <Gold.PLP.Chemscore.Hbond>
2.0000

> <Gold.PLP.Chemscore.CHOScore>
2.0000

> <Gold.PLP.Chemscore.Metal>
0.0000

> <Gold.Chemscore.Hbonds>
donor molecule, donor type, donor heavy atom, donor atom, acceptor molecule, acceptor atom, score
      L1  H    11    27       P1  7948  2.00
      L1  C     3    19       P1 10171  1.00
      L1  C    12    28       P1 10957  1.00

> <Gold.PLP.Chemscore.Internal.Correction>
0.0607

> <Gold.Rescore>
     Score         DG    S(hbond)    S(metal)    S(lipo)     H(rot)  DE(clash)    DE(int)     intcor
     12.36     -12.54       1.00        0.00      53.69       1.00       0.00       0.18       ----

> <Gold.Chemscore.Fitness>
12.3615

> <Gold.Chemscore.DG>
-12.5370

> <Gold.Chemscore.ZeroCoef>
-5.4800

> <Gold.Chemscore.Hbond>
0.9985

> <Gold.Chemscore.Metal>
0.0000

> <Gold.Chemscore.Lipo>
53.6919

> <Gold.Chemscore.Internal_Hbond>
0.0000

> <Gold.Chemscore.DEClash>
0.0000

> <Gold.Chemscore.DEInternal>
0.1755

> <Gold.Chemscore.Rot>
1.0000

> <Gold.Chemscore.Internal.Correction>
   9.000000E+99

> <Gold.Chemscore.Hbonds>
donor molecule, donor type, donor heavy atom, donor atom, acceptor molecule, acceptor atom, score
      L1  H    11    27       P1  7948  0.71

> <Gold.Chemscore.Hbond.Weighted>
-3.3350

> <Gold.Chemscore.Metal.Weighted>
-0.0000

> <Gold.Chemscore.Lipo.Weighted>
-6.2820

> <Gold.Chemscore.Internal_Hbond.Weighted>
0.0000

> <Gold.Chemscore.DEClash.Weighted>
0.0000

> <Gold.Chemscore.DEInternal.Weighted>
0.1755

> <Gold.Chemscore.Rot.Weighted>
2.5600

> <Gold.Chemscore.Internal.Correction.Weighted>
   9.000000E+99

> <Gold.Protein.RotatedTorsions>
[ 6907 6896 6895 6894 ] final  137.65 input  -60.11 | X-H torsion
[ 7974 7965 7964 7962 ] final  -23.03 input  175.53 | X-H torsion
[ 8008 7997 7996 7995 ] final -119.92 input   59.86 | X-H torsion
[ 10167 10162 10161 10158 ] final  -56.19 input  -65.29 | X-H torsion
[ 10718 10713 10712 10709 ] final  -60.12 input   66.30 | X-H torsion
[ 10763 10752 10751 10750 ] final  129.38 input  -60.55 | X-H torsion
[ 11005 11000 10999 10996 ] final  121.28 input  -57.11 | X-H torsion

> <Gold.Protein.ActiveResidues>
 VAL166  LYS551  ARG553  GLY616  TRP617  ASP618  TYR619  PRO620  LYS621  CYS622 
 ASP623  PHE694  ASN695  SER759  ASP760  ASP761  ALA762  ILE779  LEU786  VAL792 
 PHE793  MET794  SER795  GLU796  ALA797  LYS798  CYS799  TRP800  GLU811  SER814 

> <Gold.Protein.RotatedAtoms>
  152.2756  133.5423  159.5465 H   0  0  0  0  0  0  0  0  0  0  0  0  # atno 6907 bound_to 6896
  150.7176  134.0636  159.3849 H   0  0  0  0  0  0  0  0  0  0  0  0  # atno 6908 bound_to 6896
  151.8549  135.0545  160.0514 H   0  0  0  0  0  0  0  0  0  0  0  0  # atno 6909 bound_to 6896
  146.1640  140.4560  142.8559 H   0  0  0  0  0  0  0  0  0  0  0  0  # atno 7974 bound_to 7965
  155.1234  140.0399  157.2756 H   0  0  0  0  0  0  0  0  0  0  0  0  # atno 8008 bound_to 7997
  154.6596  140.2588  155.7097 H   0  0  0  0  0  0  0  0  0  0  0  0  # atno 8009 bound_to 7997
  156.2613  140.2819  156.1063 H   0  0  0  0  0  0  0  0  0  0  0  0  # atno 8010 bound_to 7997
  140.6331  143.2469  151.5189 H   0  0  0  0  0  0  0  0  0  0  0  0  # atno 10167 bound_to 10162
  156.1013  130.4186  150.0809 H   0  0  0  0  0  0  0  0  0  0  0  0  # atno 10718 bound_to 10713
  153.7408  135.3224  155.3303 H   0  0  0  0  0  0  0  0  0  0  0  0  # atno 10763 bound_to 10752
  154.8296  135.4544  154.1029 H   0  0  0  0  0  0  0  0  0  0  0  0  # atno 10764 bound_to 10752
  153.2203  135.6947  153.8090 H   0  0  0  0  0  0  0  0  0  0  0  0  # atno 10765 bound_to 10752
  139.9219  134.9638  156.7934 H   0  0  0  0  0  0  0  0  0  0  0  0  # atno 11005 bound_to 11000
  144.8067  140.6312  143.6442 LP  0  0  0  0  0  0  0  0  0  0  0  0  # atno 17320 bound_to 7965
  145.4514  139.1523  143.3916 LP  0  0  0  0  0  0  0  0  0  0  0  0  # atno 17321 bound_to 7965
  139.5543  144.2314  152.1586 LP  0  0  0  0  0  0  0  0  0  0  0  0  # atno 17342 bound_to 10162
  140.1563  144.5067  150.6658 LP  0  0  0  0  0  0  0  0  0  0  0  0  # atno 17343 bound_to 10162
  156.8796  130.9552  151.3601 LP  0  0  0  0  0  0  0  0  0  0  0  0  # atno 17370 bound_to 10713
  157.6184  130.8636  149.9067 LP  0  0  0  0  0  0  0  0  0  0  0  0  # atno 17371 bound_to 10713
  140.6448  133.9785  155.7725 LP  0  0  0  0  0  0  0  0  0  0  0  0  # atno 17394 bound_to 11000
  141.0747  134.0152  157.3475 LP  0  0  0  0  0  0  0  0  0  0  0  0  # atno 17395 bound_to 11000

$$$$
