AV-unprocessed.smi:1840|AV-procd|sdf|7493|dock7
  -GOLD-   22720 9193D 1   1.00000     0.00000
 Structure written by MMmdl.
 43 44  0  0  0  0  0  0  0  0  1 V2000
  148.6128  138.9797  157.1410 C   0  0  0  0  0  0  0  0  0  0  0  0
  150.0298  139.3507  156.6828 C   0  0  1  0  0  0  0  0  0  0  0  0
  150.1343  139.3842  155.1437 C   0  0  0  0  0  0  0  0  0  0  0  0
  149.0475  140.1237  154.5243 N   0  0  0  0  0  0  0  0  0  0  0  0
  148.8187  141.4836  154.5401 C   0  0  0  0  0  0  0  0  0  0  0  0
  147.6712  141.7109  153.8359 C   0  0  0  0  0  0  0  0  0  0  0  0
  147.2692  140.4121  153.4172 C   0  0  0  0  0  0  0  0  0  0  0  0
  148.0960  139.4644  153.8284 N   0  0  0  0  0  0  0  0  0  0  0  0
  150.3921  140.6469  157.2555 N   0  0  0  0  0  0  0  0  0  0  0  0
  151.6013  140.9787  157.7308 C   0  0  0  0  0  0  0  0  0  0  0  0
  152.5627  140.2106  157.7711 O   0  0  0  0  0  0  0  0  0  0  0  0
  151.6388  142.2556  158.1377 N   0  0  0  0  0  0  0  0  0  0  0  0
  152.8061  142.9481  158.6883 C   0  0  2  0  0  0  0  0  0  0  0  0
  153.4913  142.0598  159.7469 C   0  0  0  0  0  0  0  0  0  0  0  0
  152.6563  141.9331  161.0330 C   0  0  0  0  0  0  0  0  0  0  0  0
  152.3088  143.3139  161.6085 C   0  0  0  0  0  0  0  0  0  0  0  0
  151.5970  144.1902  160.5659 C   0  0  0  0  0  0  0  0  0  0  0  0
  152.4345  144.3337  159.2784 C   0  0  2  0  0  0  0  0  0  0  0  0
  151.7474  145.2625  158.2628 C   0  0  0  0  0  0  0  0  0  0  0  0
  148.3168  138.0056  156.7507 H   0  0  0  0  0  0  0  0  0  0  0  0
  147.8801  139.7116  156.7993 H   0  0  0  0  0  0  0  0  0  0  0  0
  148.5520  138.9294  158.2288 H   0  0  0  0  0  0  0  0  0  0  0  0
  150.7010  138.5762  157.0588 H   0  0  0  0  0  0  0  0  0  0  0  0
  151.0700  139.8578  154.8438 H   0  0  0  0  0  0  0  0  0  0  0  0
  150.1566  138.3706  154.7392 H   0  0  0  0  0  0  0  0  0  0  0  0
  149.4802  142.1668  155.0519 H   0  0  0  0  0  0  0  0  0  0  0  0
  147.1912  142.6601  153.6504 H   0  0  0  0  0  0  0  0  0  0  0  0
  146.4053  140.1311  152.8334 H   0  0  0  0  0  0  0  0  0  0  0  0
  149.6722  141.3545  157.2620 H   0  0  0  0  0  0  0  0  0  0  0  0
  150.7946  142.8017  158.0497 H   0  0  0  0  0  0  0  0  0  0  0  0
  153.5326  143.1070  157.8895 H   0  0  0  0  0  0  0  0  0  0  0  0
  153.6963  141.0706  159.3358 H   0  0  0  0  0  0  0  0  0  0  0  0
  154.4627  142.4886  159.9970 H   0  0  0  0  0  0  0  0  0  0  0  0
  151.7387  141.3816  160.8255 H   0  0  0  0  0  0  0  0  0  0  0  0
  153.2041  141.3503  161.7738 H   0  0  0  0  0  0  0  0  0  0  0  0
  151.6785  143.2007  162.4910 H   0  0  0  0  0  0  0  0  0  0  0  0
  153.2206  143.8112  161.9419 H   0  0  0  0  0  0  0  0  0  0  0  0
  150.6227  143.7597  160.3311 H   0  0  0  0  0  0  0  0  0  0  0  0
  151.4010  145.1743  160.9928 H   0  0  0  0  0  0  0  0  0  0  0  0
  153.3709  144.8194  159.5576 H   0  0  0  0  0  0  0  0  0  0  0  0
  150.7589  144.8940  157.9893 H   0  0  0  0  0  0  0  0  0  0  0  0
  152.3359  145.3514  157.3494 H   0  0  0  0  0  0  0  0  0  0  0  0
  151.6205  146.2645  158.6728 H   0  0  0  0  0  0  0  0  0  0  0  0
  1  2  1  0  0  0  0
  1 20  1  0  0  0  0
  1 21  1  0  0  0  0
  1 22  1  0  0  0  0
  2  3  1  0  0  0  0
  2  9  1  0  0  0  0
  2 23  1  0  0  0  0
  3  4  1  0  0  0  0
  3 24  1  0  0  0  0
  3 25  1  0  0  0  0
  4  8  1  0  0  0  0
  4  5  1  0  0  0  0
  5  6  2  0  0  0  0
  5 26  1  0  0  0  0
  6  7  1  0  0  0  0
  6 27  1  0  0  0  0
  7  8  2  0  0  0  0
  7 28  1  0  0  0  0
  9 10  1  0  0  0  0
  9 29  1  0  0  0  0
 10 11  2  0  0  0  0
 10 12  1  0  0  0  0
 12 13  1  0  0  0  0
 12 30  1  0  0  0  0
 13 18  1  0  0  0  0
 13 14  1  0  0  0  0
 13 31  1  0  0  0  0
 14 15  1  0  0  0  0
 14 32  1  0  0  0  0
 14 33  1  0  0  0  0
 15 16  1  0  0  0  0
 15 34  1  0  0  0  0
 15 35  1  0  0  0  0
 16 17  1  0  0  0  0
 16 36  1  0  0  0  0
 16 37  1  0  0  0  0
 17 18  1  0  0  0  0
 17 38  1  0  0  0  0
 17 39  1  0  0  0  0
 18 19  1  0  0  0  0
 18 40  1  0  0  0  0
 19 41  1  0  0  0  0
 19 42  1  0  0  0  0
 19 43  1  0  0  0  0
M  END
> <s_m_source_file>
AV-unprocessed.smi

> <i_m_source_file_index>
1840

> <i_lp_mmshare_version>
43012

> <i_f3d_flags>
0

> <s_epik_input>
bjFbY0hdW2NIXVtjSF1uMVtDSDJdW0NAQEhdKFtDSDNdKVtOSF1DKD1PKVtOSF1bQ0BASF0yW0NIMl1bQ0gyXVtDSDJdW0NIMl1bQ0BIXTJbQ0gzXQ==

> <s_epik_cmdline>
J2VwaWtfcHl0aG9uJywgJy1waCcsICc3LjAnLCAnLXRuJywgJzgnLCAnLW1hJywgJzIwMCcsICctbWV0YWxfYmluZGluZycsICctaW1hZScsICc8aW5maWxlLm1hZT4nLCAnLW9tYWUnLCAnPG91dGZpbGUubWFlPic=

> <r_lp_tautomer_probability>
1

> <r_epik_Ionization_Penalty>
7.38659e-05

> <r_epik_Ionization_Penalty_Charging>
0

> <r_epik_Ionization_Penalty_Neutral>
7.38659e-05

> <r_epik_State_Penalty>
-0

> <r_epik_Charging_Adjusted_Penalty>
0

> <i_epik_Tot_Q>
0

> <i_epik_Tot_abs_Q>
0

> <r_epik_Metal_State_Penalty>
-0

> <b_epik_Metal_Only>
0

> <s_lp_Force_Field>
OPLS_2005

> <r_lp_Energy>
6.71394

> <b_lp_Chiralities_Consistent>
1

> <s_lp_Variant>
AV-unprocessed.smi:1840-6

> <Gold.Version>
5.8.1

> <Gold.Id.Protein>
6NUR|6NUR_protein|mol2

> <Gold.PLP.Fitness>
48.8186

> <Gold.PLP.PLP>
-41.4930

> <Gold.PLP.part.hbond>
-1.0000

> <Gold.PLP.part.metal>
0.0000

> <Gold.PLP.part.buried>
-4.0766

> <Gold.PLP.part.nonpolar>
-36.6833

> <Gold.PLP.part.repulsive>
0.4245

> <Gold.PLP.ligand.clash>
0.0000

> <Gold.PLP.ligand.torsion>
0.6369

> <Gold.PLP.Chemscore.Hbond>
0.9600

> <Gold.PLP.Chemscore.CHOScore>
1.8970

> <Gold.PLP.Chemscore.Metal>
0.0000

> <Gold.Chemscore.Hbonds>
donor molecule, donor type, donor heavy atom, donor atom, acceptor molecule, acceptor atom, score
      P1  H  7997  8009       L1    11  0.76
      L1  C     5    26       P1  8028  0.55
      L1  C     7    28       P1 10175  0.42

> <Gold.PLP.Chemscore.Internal.Correction>
0.0284

> <Gold.Rescore>
     Score         DG    S(hbond)    S(metal)    S(lipo)     H(rot)  DE(clash)    DE(int)     intcor
     16.13     -18.25       0.92        0.00     116.93       1.56       0.22       1.91       ----

> <Gold.Chemscore.Fitness>
16.1255

> <Gold.Chemscore.DG>
-18.2480

> <Gold.Chemscore.ZeroCoef>
-5.4800

> <Gold.Chemscore.Hbond>
0.9205

> <Gold.Chemscore.Metal>
0.0000

> <Gold.Chemscore.Lipo>
116.9328

> <Gold.Chemscore.Internal_Hbond>
0.0000

> <Gold.Chemscore.DEClash>
0.2165

> <Gold.Chemscore.DEInternal>
1.9060

> <Gold.Chemscore.Rot>
1.5576

> <Gold.Chemscore.Internal.Correction>
   9.000000E+99

> <Gold.Chemscore.Hbonds>
donor molecule, donor type, donor heavy atom, donor atom, acceptor molecule, acceptor atom, score
      P1  H  7997  8009       L1    11  0.72

> <Gold.Chemscore.Hbond.Weighted>
-3.0744

> <Gold.Chemscore.Metal.Weighted>
-0.0000

> <Gold.Chemscore.Lipo.Weighted>
-13.6811

> <Gold.Chemscore.Internal_Hbond.Weighted>
0.0000

> <Gold.Chemscore.DEClash.Weighted>
0.2165

> <Gold.Chemscore.DEInternal.Weighted>
1.9060

> <Gold.Chemscore.Rot.Weighted>
3.9875

> <Gold.Chemscore.Internal.Correction.Weighted>
   9.000000E+99

> <Gold.Protein.RotatedTorsions>
[ 6907 6896 6895 6894 ] final  -50.76 input  -60.11 | X-H torsion
[ 7974 7965 7964 7962 ] final   93.84 input  175.53 | X-H torsion
[ 8008 7997 7996 7995 ] final  177.61 input   59.86 | X-H torsion
[ 10167 10162 10161 10158 ] final  -17.19 input  -65.29 | X-H torsion
[ 10718 10713 10712 10709 ] final   34.98 input   66.30 | X-H torsion
[ 10763 10752 10751 10750 ] final  133.11 input  -60.55 | X-H torsion
[ 11005 11000 10999 10996 ] final -143.38 input  -57.11 | X-H torsion

> <Gold.Protein.ActiveResidues>
 VAL166  LYS551  ARG553  GLY616  TRP617  ASP618  TYR619  PRO620  LYS621  CYS622 
 ASP623  PHE694  ASN695  SER759  ASP760  ASP761  ALA762  ILE779  LEU786  VAL792 
 PHE793  MET794  SER795  GLU796  ALA797  LYS798  CYS799  TRP800  GLU811  SER814 

> <Gold.Protein.RotatedAtoms>
  150.8676  134.8042  159.7129 H   0  0  0  0  0  0  0  0  0  0  0  0  # atno 6907 bound_to 6896
  152.4692  134.4999  159.9731 H   0  0  0  0  0  0  0  0  0  0  0  0  # atno 6908 bound_to 6896
  151.5093  133.3450  159.2917 H   0  0  0  0  0  0  0  0  0  0  0  0  # atno 6909 bound_to 6896
  145.4736  139.2281  143.2921 H   0  0  0  0  0  0  0  0  0  0  0  0  # atno 7974 bound_to 7965
  156.0638  140.1354  156.9910 H   0  0  0  0  0  0  0  0  0  0  0  0  # atno 8008 bound_to 7997
  154.4495  140.0986  156.6627 H   0  0  0  0  0  0  0  0  0  0  0  0  # atno 8009 bound_to 7997
  155.5336  140.3459  155.4433 H   0  0  0  0  0  0  0  0  0  0  0  0  # atno 8010 bound_to 7997
  140.7244  143.5040  150.9833 H   0  0  0  0  0  0  0  0  0  0  0  0  # atno 10167 bound_to 10162
  157.3171  130.7429  149.6761 H   0  0  0  0  0  0  0  0  0  0  0  0  # atno 10718 bound_to 10713
  153.8017  135.3141  155.3391 H   0  0  0  0  0  0  0  0  0  0  0  0  # atno 10763 bound_to 10752
  154.8086  135.4682  154.0460 H   0  0  0  0  0  0  0  0  0  0  0  0  # atno 10764 bound_to 10752
  153.1810  135.6893  153.8565 H   0  0  0  0  0  0  0  0  0  0  0  0  # atno 10765 bound_to 10752
  140.8131  134.2720  157.4932 H   0  0  0  0  0  0  0  0  0  0  0  0  # atno 11005 bound_to 11000
  146.2382  140.5516  142.8945 LP  0  0  0  0  0  0  0  0  0  0  0  0  # atno 17320 bound_to 7965
  144.7931  140.6070  143.6528 LP  0  0  0  0  0  0  0  0  0  0  0  0  # atno 17321 bound_to 7965
  139.8751  143.7143  152.3162 LP  0  0  0  0  0  0  0  0  0  0  0  0  # atno 17342 bound_to 10162
  139.7405  144.7560  151.0659 LP  0  0  0  0  0  0  0  0  0  0  0  0  # atno 17343 bound_to 10162
  155.9682  130.4234  150.4561 LP  0  0  0  0  0  0  0  0  0  0  0  0  # atno 17370 bound_to 10713
  157.2570  131.0558  151.2344 LP  0  0  0  0  0  0  0  0  0  0  0  0  # atno 17371 bound_to 10713
  139.8713  134.9494  156.4025 LP  0  0  0  0  0  0  0  0  0  0  0  0  # atno 17394 bound_to 11000
  140.9177  133.7667  155.9868 LP  0  0  0  0  0  0  0  0  0  0  0  0  # atno 17395 bound_to 11000

$$$$
