AV-unprocessed.smi:1149|AV-procd|sdf|4891|dock6
  -GOLD-   22720 3463D 1   1.00000     0.00000
 Structure written by MMmdl.
 51 52  0  0  0  0  0  0  0  0  2 V2000
  152.7263  142.4242  162.1015 C   0  0  0  0  0  0  0  0  0  0  0  0
  152.7898  143.3733  161.0426 O   0  0  0  0  0  0  0  0  0  0  0  0
  152.1090  143.0973  159.8745 C   0  0  0  0  0  0  0  0  0  0  0  0
  152.2175  144.0024  158.8002 C   0  0  0  0  0  0  0  0  0  0  0  0
  151.5258  143.7283  157.6049 C   0  0  0  0  0  0  0  0  0  0  0  0
  150.7507  142.5469  157.5185 C   0  0  0  0  0  0  0  0  0  0  0  0
  149.9928  142.1626  156.3790 N   0  0  0  0  0  0  0  0  0  0  0  0
  149.6465  140.9279  155.9765 C   0  0  0  0  0  0  0  0  0  0  0  0
  149.9202  139.8820  156.5642 O   0  0  0  0  0  0  0  0  0  0  0  0
  148.9269  140.9724  154.8458 N   0  0  0  0  0  0  0  0  0  0  0  0
  148.3804  139.8144  154.1385 C   0  0  0  0  0  0  0  0  0  0  0  0
  147.0532  140.1199  153.3799 C   0  0  0  0  0  0  0  0  0  0  0  0
  147.1767  141.4425  152.5815 C   0  0  0  0  0  0  0  0  0  0  0  0
  146.7871  139.0113  152.3308 C   0  0  0  0  0  0  0  0  0  0  0  0
  145.8862  140.2102  154.3309 N   0  3  0  0  0  0  0  0  0  0  0  0
  145.8133  141.4500  155.1566 C   0  0  0  0  0  0  0  0  0  0  0  0
  144.4709  141.5254  155.9139 C   0  0  0  0  0  0  0  0  0  0  0  0
  144.2501  140.3603  156.7692 N   0  0  0  0  0  0  0  0  0  0  0  0
  145.1163  140.3375  157.9432 C   0  0  0  0  0  0  0  0  0  0  0  0
  144.3305  139.1403  155.9666 C   0  0  0  0  0  0  0  0  0  0  0  0
  145.6703  139.0249  155.2096 C   0  0  0  0  0  0  0  0  0  0  0  0
  150.6979  141.7137  158.6551 C   0  0  0  0  0  0  0  0  0  0  0  0
  151.3580  141.9707  159.8036 N   0  0  0  0  0  0  0  0  0  0  0  0
  153.3153  142.7846  162.9447 H   0  0  0  0  0  0  0  0  0  0  0  0
  153.1377  141.4600  161.7991 H   0  0  0  0  0  0  0  0  0  0  0  0
  151.7021  142.2834  162.4498 H   0  0  0  0  0  0  0  0  0  0  0  0
  152.8177  144.8956  158.8928 H   0  0  0  0  0  0  0  0  0  0  0  0
  151.5949  144.4337  156.7918 H   0  0  0  0  0  0  0  0  0  0  0  0
  149.6274  142.9267  155.8296 H   0  0  0  0  0  0  0  0  0  0  0  0
  148.7458  141.8781  154.4381 H   0  0  0  0  0  0  0  0  0  0  0  0
  149.1536  139.4972  153.4396 H   0  0  0  0  0  0  0  0  0  0  0  0
  148.2525  138.9847  154.8343 H   0  0  0  0  0  0  0  0  0  0  0  0
  147.8611  141.3454  151.7382 H   0  0  0  0  0  0  0  0  0  0  0  0
  147.5644  142.2593  153.1901 H   0  0  0  0  0  0  0  0  0  0  0  0
  146.2142  141.7530  152.1733 H   0  0  0  0  0  0  0  0  0  0  0  0
  147.5084  139.0486  151.5135 H   0  0  0  0  0  0  0  0  0  0  0  0
  145.7963  139.1134  151.8862 H   0  0  0  0  0  0  0  0  0  0  0  0
  146.8644  138.0103  152.7541 H   0  0  0  0  0  0  0  0  0  0  0  0
  146.6488  141.5001  155.8541 H   0  0  0  0  0  0  0  0  0  0  0  0
  145.8749  142.3410  154.5355 H   0  0  0  0  0  0  0  0  0  0  0  0
  144.4246  142.4337  156.5159 H   0  0  0  0  0  0  0  0  0  0  0  0
  143.6514  141.5902  155.1966 H   0  0  0  0  0  0  0  0  0  0  0  0
  144.8732  139.4822  158.5742 H   0  0  0  0  0  0  0  0  0  0  0  0
  144.9673  141.2392  158.5383 H   0  0  0  0  0  0  0  0  0  0  0  0
  146.1730  140.2758  157.6857 H   0  0  0  0  0  0  0  0  0  0  0  0
  144.1803  138.2714  156.6085 H   0  0  0  0  0  0  0  0  0  0  0  0
  143.5065  139.1400  155.2517 H   0  0  0  0  0  0  0  0  0  0  0  0
  145.6305  138.1071  154.6268 H   0  0  0  0  0  0  0  0  0  0  0  0
  146.4938  138.9099  155.9138 H   0  0  0  0  0  0  0  0  0  0  0  0
  150.1103  140.8073  158.6432 H   0  0  0  0  0  0  0  0  0  0  0  0
  145.0726  140.2465  153.7334 H   0  0  0  0  0  0  0  0  0  0  0  0
  1  2  1  0  0  0  0
  1 24  1  0  0  0  0
  1 25  1  0  0  0  0
  1 26  1  0  0  0  0
  2  3  1  0  0  0  0
  3 23  1  0  0  0  0
  3  4  2  0  0  0  0
  4  5  1  0  0  0  0
  4 27  1  0  0  0  0
  5  6  2  0  0  0  0
  5 28  1  0  0  0  0
  6  7  1  0  0  0  0
  6 22  1  0  0  0  0
  7  8  1  0  0  0  0
  7 29  1  0  0  0  0
  8  9  2  0  0  0  0
  8 10  1  0  0  0  0
 10 11  1  0  0  0  0
 10 30  1  0  0  0  0
 11 12  1  0  0  0  0
 11 31  1  0  0  0  0
 11 32  1  0  0  0  0
 12 13  1  0  0  0  0
 12 14  1  0  0  0  0
 12 15  1  0  0  0  0
 13 33  1  0  0  0  0
 13 34  1  0  0  0  0
 13 35  1  0  0  0  0
 14 36  1  0  0  0  0
 14 37  1  0  0  0  0
 14 38  1  0  0  0  0
 15 21  1  0  0  0  0
 15 16  1  0  0  0  0
 15 51  1  0  0  0  0
 16 17  1  0  0  0  0
 16 39  1  0  0  0  0
 16 40  1  0  0  0  0
 17 18  1  0  0  0  0
 17 41  1  0  0  0  0
 17 42  1  0  0  0  0
 18 19  1  0  0  0  0
 18 20  1  0  0  0  0
 19 43  1  0  0  0  0
 19 44  1  0  0  0  0
 19 45  1  0  0  0  0
 20 21  1  0  0  0  0
 20 46  1  0  0  0  0
 20 47  1  0  0  0  0
 21 48  1  0  0  0  0
 21 49  1  0  0  0  0
 22 23  2  0  0  0  0
 22 50  1  0  0  0  0
M  CHG  1  15   1
M  END
> <s_m_source_file>
AV-unprocessed.smi

> <i_m_source_file_index>
1149

> <i_lp_mmshare_version>
43012

> <i_f3d_flags>
0

> <s_epik_input>
W0NIM11PYzFbY0hdW2NIXWMoW2NIXW4xKVtOSF1DKD1PKVtOSF1bQ0gyXUMoW0NIM10pKFtDSDNdKU4yW0NIMl1bQ0gyXU4oW0NIM10pW0NIMl1bQ0gyXTI=

> <s_epik_cmdline>
J2VwaWtfcHl0aG9uJywgJy1waCcsICc3LjAnLCAnLXRuJywgJzgnLCAnLW1hJywgJzIwMCcsICctbWV0YWxfYmluZGluZycsICctaW1hZScsICc8aW5maWxlLm1hZT4nLCAnLW9tYWUnLCAnPG91dGZpbGUubWFlPic=

> <r_epik_Ionization_Penalty>
0.0907124

> <r_epik_Ionization_Penalty_Charging>
0.0886444

> <r_epik_Ionization_Penalty_Neutral>
0.00206799

> <r_epik_State_Penalty>
1.00524

> <r_epik_Charging_Adjusted_Penalty>
1.09388

> <i_epik_Tot_Q>
1

> <i_epik_Tot_abs_Q>
1

> <r_epik_Metal_State_Penalty>
1.00525

> <b_epik_Metal_Only>
0

> <s_lp_Force_Field>
OPLS_2005

> <r_lp_Energy>
30.5246

> <b_lp_Chiralities_Consistent>
1

> <s_lp_Variant>
AV-unprocessed.smi:1149-2

> <Gold.Version>
5.8.1

> <Gold.Id.Protein>
6NUR|6NUR_protein|mol2

> <Gold.PLP.Fitness>
42.8041

> <Gold.PLP.PLP>
-35.1026

> <Gold.PLP.part.hbond>
-2.7651

> <Gold.PLP.part.metal>
0.0000

> <Gold.PLP.part.buried>
-3.1182

> <Gold.PLP.part.nonpolar>
-28.9229

> <Gold.PLP.part.repulsive>
0.3062

> <Gold.PLP.ligand.clash>
0.0000

> <Gold.PLP.ligand.torsion>
0.7085

> <Gold.PLP.Chemscore.Hbond>
3.0000

> <Gold.PLP.Chemscore.CHOScore>
0.0000

> <Gold.PLP.Chemscore.Metal>
0.0000

> <Gold.Chemscore.Hbonds>
donor molecule, donor type, donor heavy atom, donor atom, acceptor molecule, acceptor atom, score
      L1  H     7    29       P1  8028  1.00
      L1  H    15    51       P1 10175  2.00

> <Gold.PLP.Chemscore.Internal.Correction>
0.1185

> <Gold.Rescore>
     Score         DG    S(hbond)    S(metal)    S(lipo)     H(rot)  DE(clash)    DE(int)     intcor
     14.43     -18.01       1.96        0.00      88.80       1.72       1.65       1.93       ----

> <Gold.Chemscore.Fitness>
14.4287

> <Gold.Chemscore.DG>
-18.0106

> <Gold.Chemscore.ZeroCoef>
-5.4800

> <Gold.Chemscore.Hbond>
1.9602

> <Gold.Chemscore.Metal>
0.0000

> <Gold.Chemscore.Lipo>
88.8049

> <Gold.Chemscore.Internal_Hbond>
0.0000

> <Gold.Chemscore.DEClash>
1.6511

> <Gold.Chemscore.DEInternal>
1.9308

> <Gold.Chemscore.Rot>
1.7213

> <Gold.Chemscore.Internal.Correction>
   9.000000E+99

> <Gold.Chemscore.Hbonds>
donor molecule, donor type, donor heavy atom, donor atom, acceptor molecule, acceptor atom, score
      L1  H     7    29       P1  8028  0.95
      L1  H    15    51       P1 10175  1.00

> <Gold.Chemscore.Hbond.Weighted>
-6.5470

> <Gold.Chemscore.Metal.Weighted>
-0.0000

> <Gold.Chemscore.Lipo.Weighted>
-10.3902

> <Gold.Chemscore.Internal_Hbond.Weighted>
0.0000

> <Gold.Chemscore.DEClash.Weighted>
1.6511

> <Gold.Chemscore.DEInternal.Weighted>
1.9308

> <Gold.Chemscore.Rot.Weighted>
4.4066

> <Gold.Chemscore.Internal.Correction.Weighted>
   9.000000E+99

> <Gold.Protein.RotatedTorsions>
[ 6907 6896 6895 6894 ] final  -55.27 input  -60.11 | X-H torsion
[ 7974 7965 7964 7962 ] final   -6.39 input  175.53 | X-H torsion
[ 8008 7997 7996 7995 ] final -163.58 input   59.86 | X-H torsion
[ 10167 10162 10161 10158 ] final -118.92 input  -65.29 | X-H torsion
[ 10718 10713 10712 10709 ] final  102.87 input   66.30 | X-H torsion
[ 10763 10752 10751 10750 ] final  102.14 input  -60.55 | X-H torsion
[ 11005 11000 10999 10996 ] final  129.22 input  -57.11 | X-H torsion

> <Gold.Protein.ActiveResidues>
 VAL166  LYS551  ARG553  GLY616  TRP617  ASP618  TYR619  PRO620  LYS621  CYS622 
 ASP623  PHE694  ASN695  SER759  ASP760  ASP761  ALA762  ILE779  LEU786  VAL792 
 PHE793  MET794  SER795  GLU796  ALA797  LYS798  CYS799  TRP800  GLU811  SER814 

> <Gold.Protein.RotatedAtoms>
  150.8266  134.7500  159.6817 H   0  0  0  0  0  0  0  0  0  0  0  0  # atno 6907 bound_to 6896
  152.4376  134.5652  159.9915 H   0  0  0  0  0  0  0  0  0  0  0  0  # atno 6908 bound_to 6896
  151.5823  133.3339  159.3047 H   0  0  0  0  0  0  0  0  0  0  0  0  # atno 6909 bound_to 6896
  146.2332  140.2164  142.8336 H   0  0  0  0  0  0  0  0  0  0  0  0  # atno 7974 bound_to 7965
  155.8233  140.0923  157.1836 H   0  0  0  0  0  0  0  0  0  0  0  0  # atno 8008 bound_to 7997
  154.3979  140.1433  156.3586 H   0  0  0  0  0  0  0  0  0  0  0  0  # atno 8009 bound_to 7997
  155.8243  140.3445  155.5536 H   0  0  0  0  0  0  0  0  0  0  0  0  # atno 8010 bound_to 7997
  140.0523  143.5048  152.2075 H   0  0  0  0  0  0  0  0  0  0  0  0  # atno 10167 bound_to 10162
  157.6789  131.0764  150.5470 H   0  0  0  0  0  0  0  0  0  0  0  0  # atno 10718 bound_to 10713
  153.3357  135.4020  155.1531 H   0  0  0  0  0  0  0  0  0  0  0  0  # atno 10763 bound_to 10752
  154.8633  135.3621  154.5412 H   0  0  0  0  0  0  0  0  0  0  0  0  # atno 10764 bound_to 10752
  153.5853  135.7075  153.5505 H   0  0  0  0  0  0  0  0  0  0  0  0  # atno 10765 bound_to 10752
  139.9604  134.9603  156.9117 H   0  0  0  0  0  0  0  0  0  0  0  0  # atno 11005 bound_to 11000
  144.9666  140.8328  143.5481 LP  0  0  0  0  0  0  0  0  0  0  0  0  # atno 17320 bound_to 7965
  145.2141  139.2190  143.5128 LP  0  0  0  0  0  0  0  0  0  0  0  0  # atno 17321 bound_to 7965
  139.5945  144.7562  151.3319 LP  0  0  0  0  0  0  0  0  0  0  0  0  # atno 17342 bound_to 10162
  140.7211  143.7133  150.7752 LP  0  0  0  0  0  0  0  0  0  0  0  0  # atno 17343 bound_to 10162
  156.5775  130.4296  149.5992 LP  0  0  0  0  0  0  0  0  0  0  0  0  # atno 17370 bound_to 10713
  156.2689  130.7005  151.1797 LP  0  0  0  0  0  0  0  0  0  0  0  0  # atno 17371 bound_to 10713
  140.5514  134.0623  155.7370 LP  0  0  0  0  0  0  0  0  0  0  0  0  # atno 17394 bound_to 11000
  141.1280  133.9350  157.2595 LP  0  0  0  0  0  0  0  0  0  0  0  0  # atno 17395 bound_to 11000

$$$$
