AV-unprocessed.smi:806|AV-procd|sdf|3800|dock4
  -GOLD-   22720 1233D 1   1.00000     0.00000
 Structure written by MMmdl.
 45 46  0  0  0  0  0  0  0  0  2 V2000
  148.4117  141.3929  155.5951 C   0  0  0  0  0  0  0  0  0  0  0  0
  149.3223  140.2337  155.5299 N   0  0  0  0  0  0  0  0  0  0  0  0
  149.0607  139.1630  154.7251 C   0  0  0  0  0  0  0  0  0  0  0  0
  149.8220  138.1974  154.6461 O   0  0  0  0  0  0  0  0  0  0  0  0
  147.7737  139.1294  153.8766 C   0  0  0  0  0  0  0  0  0  0  0  0
  148.0201  138.8153  152.4519 N   0  3  0  0  0  0  0  0  0  0  0  0
  146.8078  138.5163  151.6588 C   0  0  0  0  0  0  0  0  0  0  0  0
  145.8019  137.6879  152.4743 C   0  0  0  0  0  0  0  0  0  0  0  0
  145.3625  136.5030  151.7587 N   0  0  0  0  0  0  0  0  0  0  0  0
  146.1293  135.4904  151.2211 C   0  0  0  0  0  0  0  0  0  0  0  0
  145.2746  134.6005  150.6366 C   0  0  0  0  0  0  0  0  0  0  0  0
  143.9879  135.1565  150.8806 C   0  0  0  0  0  0  0  0  0  0  0  0
  144.0442  136.2935  151.5552 N   0  0  0  0  0  0  0  0  0  0  0  0
  150.5648  140.2929  156.3666 C   0  0  0  0  0  0  0  0  0  0  0  0
  151.7682  140.1174  155.5221 C   0  0  0  0  0  0  0  0  0  0  0  0
  152.7083  139.9790  154.8609 N   0  0  0  0  0  0  0  0  0  0  0  0
  150.6179  141.6633  157.1005 C   0  0  0  0  0  0  0  0  0  0  0  0
  151.8531  141.8137  158.0068 C   0  0  0  0  0  0  0  0  0  0  0  0
  151.9284  140.6821  159.0399 C   0  0  0  0  0  0  0  0  0  0  0  0
  151.8812  139.3080  158.3594 C   0  0  0  0  0  0  0  0  0  0  0  0
  150.6365  139.1830  157.4618 C   0  0  0  0  0  0  0  0  0  0  0  0
  147.5286  141.3457  154.9624 H   0  0  0  0  0  0  0  0  0  0  0  0
  148.9372  142.2986  155.2925 H   0  0  0  0  0  0  0  0  0  0  0  0
  148.0347  141.5309  156.6082 H   0  0  0  0  0  0  0  0  0  0  0  0
  147.1258  138.3441  154.2670 H   0  0  0  0  0  0  0  0  0  0  0  0
  147.2352  140.0752  153.9498 H   0  0  0  0  0  0  0  0  0  0  0  0
  148.4908  139.6077  152.0375 H   0  0  0  0  0  0  0  0  0  0  0  0
  146.3496  139.4550  151.3459 H   0  0  0  0  0  0  0  0  0  0  0  0
  147.0754  137.9808  150.7471 H   0  0  0  0  0  0  0  0  0  0  0  0
  146.2409  137.3838  153.4253 H   0  0  0  0  0  0  0  0  0  0  0  0
  144.9236  138.2900  152.7111 H   0  0  0  0  0  0  0  0  0  0  0  0
  147.2072  135.4888  151.2925 H   0  0  0  0  0  0  0  0  0  0  0  0
  145.5289  133.6892  150.1158 H   0  0  0  0  0  0  0  0  0  0  0  0
  143.0217  134.7708  150.5904 H   0  0  0  0  0  0  0  0  0  0  0  0
  150.6179  142.4902  156.3912 H   0  0  0  0  0  0  0  0  0  0  0  0
  149.7169  141.7871  157.7031 H   0  0  0  0  0  0  0  0  0  0  0  0
  152.7600  141.8204  157.4014 H   0  0  0  0  0  0  0  0  0  0  0  0
  151.8207  142.7764  158.5176 H   0  0  0  0  0  0  0  0  0  0  0  0
  152.8407  140.7756  159.6301 H   0  0  0  0  0  0  0  0  0  0  0  0
  151.0968  140.7715  159.7400 H   0  0  0  0  0  0  0  0  0  0  0  0
  152.7889  139.1531  157.7753 H   0  0  0  0  0  0  0  0  0  0  0  0
  151.8702  138.5233  159.1165 H   0  0  0  0  0  0  0  0  0  0  0  0
  149.7675  139.2188  158.1183 H   0  0  0  0  0  0  0  0  0  0  0  0
  150.6420  138.1956  156.9984 H   0  0  0  0  0  0  0  0  0  0  0  0
  148.6305  138.0126  152.3993 H   0  0  0  0  0  0  0  0  0  0  0  0
  1  2  1  0  0  0  0
  1 22  1  0  0  0  0
  1 23  1  0  0  0  0
  1 24  1  0  0  0  0
  2  3  1  0  0  0  0
  2 14  1  0  0  0  0
  3  4  2  0  0  0  0
  3  5  1  0  0  0  0
  5  6  1  0  0  0  0
  5 25  1  0  0  0  0
  5 26  1  0  0  0  0
  6  7  1  0  0  0  0
  6 27  1  0  0  0  0
  6 45  1  0  0  0  0
  7  8  1  0  0  0  0
  7 28  1  0  0  0  0
  7 29  1  0  0  0  0
  8  9  1  0  0  0  0
  8 30  1  0  0  0  0
  8 31  1  0  0  0  0
  9 13  1  0  0  0  0
  9 10  1  0  0  0  0
 10 11  2  0  0  0  0
 10 32  1  0  0  0  0
 11 12  1  0  0  0  0
 11 33  1  0  0  0  0
 12 13  2  0  0  0  0
 12 34  1  0  0  0  0
 14 21  1  0  0  0  0
 14 15  1  0  0  0  0
 14 17  1  0  0  0  0
 15 16  3  0  0  0  0
 17 18  1  0  0  0  0
 17 35  1  0  0  0  0
 17 36  1  0  0  0  0
 18 19  1  0  0  0  0
 18 37  1  0  0  0  0
 18 38  1  0  0  0  0
 19 20  1  0  0  0  0
 19 39  1  0  0  0  0
 19 40  1  0  0  0  0
 20 21  1  0  0  0  0
 20 41  1  0  0  0  0
 20 42  1  0  0  0  0
 21 43  1  0  0  0  0
 21 44  1  0  0  0  0
M  CHG  1   6   1
M  END
> <s_m_source_file>
AV-unprocessed.smi

> <i_m_source_file_index>
806

> <i_lp_mmshare_version>
43012

> <i_f3d_flags>
0

> <s_epik_input>
W0NIMl0xW0NIMl1bQ0gyXVtDSDJdW0NIMl1DMShDI04pTihbQ0gzXSlDKD1PKVtDSDJdW05IXVtDSDJdW0NIMl1uMltjSF1bY0hdW2NIXW4y

> <s_epik_cmdline>
J2VwaWtfcHl0aG9uJywgJy1waCcsICc3LjAnLCAnLXRuJywgJzgnLCAnLW1hJywgJzIwMCcsICctbWV0YWxfYmluZGluZycsICctaW1hZScsICc8aW5maWxlLm1hZT4nLCAnLW9tYWUnLCAnPG91dGZpbGUubWFlPic=

> <r_lp_tautomer_probability>
1

> <r_epik_Ionization_Penalty>
0.349033

> <r_epik_Ionization_Penalty_Charging>
0.349031

> <r_epik_Ionization_Penalty_Neutral>
2.24604e-06

> <r_epik_State_Penalty>
0.345151

> <r_epik_Charging_Adjusted_Penalty>
0.694182

> <i_epik_Tot_Q>
1

> <i_epik_Tot_abs_Q>
1

> <r_epik_Metal_State_Penalty>
0.345887

> <b_epik_Metal_Only>
0

> <s_lp_Force_Field>
OPLS_2005

> <r_lp_Energy>
26.3561

> <b_lp_Chiralities_Consistent>
1

> <s_lp_Variant>
AV-unprocessed.smi:806-1

> <Gold.Version>
5.8.1

> <Gold.Id.Protein>
6NUR|6NUR_protein|mol2

> <Gold.PLP.Fitness>
48.4793

> <Gold.PLP.PLP>
-33.8098

> <Gold.PLP.part.hbond>
-3.8425

> <Gold.PLP.part.metal>
0.0000

> <Gold.PLP.part.buried>
-2.3283

> <Gold.PLP.part.nonpolar>
-29.5079

> <Gold.PLP.part.repulsive>
1.0487

> <Gold.PLP.ligand.clash>
2.3526

> <Gold.PLP.ligand.torsion>
0.6302

> <Gold.PLP.Chemscore.Hbond>
4.1448

> <Gold.PLP.Chemscore.CHOScore>
1.9034

> <Gold.PLP.Chemscore.Metal>
0.0000

> <Gold.Chemscore.Hbonds>
donor molecule, donor type, donor heavy atom, donor atom, acceptor molecule, acceptor atom, score
      L1  H     6    27       P1  7957  0.76
      L1  H     6    45       P1  7948  2.00
      P1  H  7989  7998       L1    16  0.14
      P1  H  7997  8009       L1    16  0.99
      L1  C    10    32       P1  7948  0.75
      L1  C    12    34       P1 10186  0.99

> <Gold.PLP.Chemscore.Internal.Correction>
0.1377

> <Gold.Rescore>
     Score         DG    S(hbond)    S(metal)    S(lipo)     H(rot)  DE(clash)    DE(int)     intcor
     14.82     -17.31       2.73        0.00      68.98       2.09       0.30       2.20       ----

> <Gold.Chemscore.Fitness>
14.8168

> <Gold.Chemscore.DG>
-17.3147

> <Gold.Chemscore.ZeroCoef>
-5.4800

> <Gold.Chemscore.Hbond>
2.7283

> <Gold.Chemscore.Metal>
0.0000

> <Gold.Chemscore.Lipo>
68.9802

> <Gold.Chemscore.Internal_Hbond>
0.0000

> <Gold.Chemscore.DEClash>
0.2961

> <Gold.Chemscore.DEInternal>
2.2018

> <Gold.Chemscore.Rot>
2.0893

> <Gold.Chemscore.Internal.Correction>
   9.000000E+99

> <Gold.Chemscore.Hbonds>
donor molecule, donor type, donor heavy atom, donor atom, acceptor molecule, acceptor atom, score
      L1  H     6    27       P1  7957  0.72
      L1  H     6    45       P1  7948  0.95
      P1  H  7997  8009       L1    16  0.80

> <Gold.Chemscore.Hbond.Weighted>
-9.1127

> <Gold.Chemscore.Metal.Weighted>
-0.0000

> <Gold.Chemscore.Lipo.Weighted>
-8.0707

> <Gold.Chemscore.Internal_Hbond.Weighted>
0.0000

> <Gold.Chemscore.DEClash.Weighted>
0.2961

> <Gold.Chemscore.DEInternal.Weighted>
2.2018

> <Gold.Chemscore.Rot.Weighted>
5.3486

> <Gold.Chemscore.Internal.Correction.Weighted>
   9.000000E+99

> <Gold.Protein.RotatedTorsions>
[ 6907 6896 6895 6894 ] final  -79.56 input  -60.11 | X-H torsion
[ 7974 7965 7964 7962 ] final  106.39 input  175.53 | X-H torsion
[ 8008 7997 7996 7995 ] final -135.86 input   59.86 | X-H torsion
[ 10167 10162 10161 10158 ] final -161.26 input  -65.29 | X-H torsion
[ 10718 10713 10712 10709 ] final  -40.13 input   66.30 | X-H torsion
[ 10763 10752 10751 10750 ] final  140.40 input  -60.55 | X-H torsion
[ 11005 11000 10999 10996 ] final   81.65 input  -57.11 | X-H torsion

> <Gold.Protein.ActiveResidues>
 VAL166  LYS551  ARG553  GLY616  TRP617  ASP618  TYR619  PRO620  LYS621  CYS622 
 ASP623  PHE694  ASN695  SER759  ASP760  ASP761  ALA762  ILE779  LEU786  VAL792 
 PHE793  MET794  SER795  GLU796  ALA797  LYS798  CYS799  TRP800  GLU811  SER814 

> <Gold.Protein.RotatedAtoms>
  150.6947  134.4102  159.5157 H   0  0  0  0  0  0  0  0  0  0  0  0  # atno 6907 bound_to 6896
  152.1862  134.8709  160.0531 H   0  0  0  0  0  0  0  0  0  0  0  0  # atno 6908 bound_to 6896
  151.9682  133.3682  159.4098 H   0  0  0  0  0  0  0  0  0  0  0  0  # atno 6909 bound_to 6896
  145.3072  139.2551  143.3782 H   0  0  0  0  0  0  0  0  0  0  0  0  # atno 7974 bound_to 7965
  155.3857  140.0497  157.3042 H   0  0  0  0  0  0  0  0  0  0  0  0  # atno 8008 bound_to 7997
  154.5060  140.2174  155.9211 H   0  0  0  0  0  0  0  0  0  0  0  0  # atno 8009 bound_to 7997
  156.1526  140.3133  155.8679 H   0  0  0  0  0  0  0  0  0  0  0  0  # atno 8010 bound_to 7997
  139.6478  144.0140  152.2140 H   0  0  0  0  0  0  0  0  0  0  0  0  # atno 10167 bound_to 10162
  156.2848  130.4221  149.8299 H   0  0  0  0  0  0  0  0  0  0  0  0  # atno 10718 bound_to 10713
  153.9221  135.2999  155.3447 H   0  0  0  0  0  0  0  0  0  0  0  0  # atno 10763 bound_to 10752
  154.7570  135.4953  153.9396 H   0  0  0  0  0  0  0  0  0  0  0  0  # atno 10764 bound_to 10752
  153.1136  135.6765  153.9560 H   0  0  0  0  0  0  0  0  0  0  0  0  # atno 10765 bound_to 10752
  139.9090  134.8013  156.2070 H   0  0  0  0  0  0  0  0  0  0  0  0  # atno 11005 bound_to 11000
  146.3131  140.3600  142.8664 LP  0  0  0  0  0  0  0  0  0  0  0  0  # atno 17320 bound_to 7965
  144.9045  140.7683  143.5846 LP  0  0  0  0  0  0  0  0  0  0  0  0  # atno 17321 bound_to 7965
  139.9846  144.6404  150.7869 LP  0  0  0  0  0  0  0  0  0  0  0  0  # atno 17342 bound_to 10162
  140.7523  143.2988  151.3135 LP  0  0  0  0  0  0  0  0  0  0  0  0  # atno 17343 bound_to 10162
  156.5734  130.8434  151.3363 LP  0  0  0  0  0  0  0  0  0  0  0  0  # atno 17370 bound_to 10713
  157.7325  130.9716  150.1932 LP  0  0  0  0  0  0  0  0  0  0  0  0  # atno 17371 bound_to 10713
  141.0489  133.6899  156.1735 LP  0  0  0  0  0  0  0  0  0  0  0  0  # atno 17394 bound_to 11000
  140.6840  134.4736  157.5589 LP  0  0  0  0  0  0  0  0  0  0  0  0  # atno 17395 bound_to 11000

$$$$
