AV-unprocessed.smi:335|AV-procd|sdf|2370|dock3
  -GOLD-   2262022283D 1   1.00000     0.00000
 Structure written by MMmdl.
 42 44  0  0  0  0  0  0  0  0  1 V2000
  152.9114  142.1842  160.9173 C   0  0  0  0  0  0  0  0  0  0  0  0
  151.7501  141.7448  160.2354 O   0  0  0  0  0  0  0  0  0  0  0  0
  151.9864  141.5111  158.8564 C   0  0  0  0  0  0  0  0  0  0  0  0
  150.7184  140.9305  158.2087 C   0  0  0  0  0  0  0  0  0  0  0  0
  150.8713  139.5068  157.8880 N   0  0  0  0  0  0  0  0  0  0  0  0
  149.9901  138.6789  158.5631 N   0  0  0  0  0  0  0  0  0  0  0  0
  150.0029  137.4026  158.3499 C   0  0  0  0  0  0  0  0  0  0  0  0
  149.0699  136.4792  159.0529 C   0  0  0  0  0  0  0  0  0  0  0  0
  149.2178  135.2563  159.0187 O   0  0  0  0  0  0  0  0  0  0  0  0
  148.0651  137.0771  159.7189 N   0  0  0  0  0  0  0  0  0  0  0  0
  147.0177  136.4003  160.4756 C   0  0  0  0  0  0  0  0  0  0  0  0
  145.9081  137.3490  160.8960 C   0  0  0  0  0  0  0  0  0  0  0  0
  144.5647  136.8357  161.3579 C   0  0  0  0  0  0  0  0  0  0  0  0
  144.6852  137.5573  160.0349 C   0  0  0  0  0  0  0  0  0  0  0  0
  147.5816  135.6774  161.6849 C   0  0  0  0  0  0  0  0  0  0  0  0
  146.6718  135.0033  162.6840 C   0  0  0  0  0  0  0  0  0  0  0  0
  147.4407  136.2448  163.0776 C   0  0  0  0  0  0  0  0  0  0  0  0
  150.9398  136.8155  157.4069 C   0  0  0  0  0  0  0  0  0  0  0  0
  151.7994  137.6346  156.7623 C   0  0  0  0  0  0  0  0  0  0  0  0
  151.8053  139.0813  156.9847 C   0  0  0  0  0  0  0  0  0  0  0  0
  152.5768  139.8477  156.4084 O   0  0  0  0  0  0  0  0  0  0  0  0
  152.6797  142.3459  161.9700 H   0  0  0  0  0  0  0  0  0  0  0  0
  153.2770  143.1259  160.5057 H   0  0  0  0  0  0  0  0  0  0  0  0
  153.7087  141.4422  160.8576 H   0  0  0  0  0  0  0  0  0  0  0  0
  152.2854  142.4346  158.3582 H   0  0  0  0  0  0  0  0  0  0  0  0
  152.8092  140.8037  158.7438 H   0  0  0  0  0  0  0  0  0  0  0  0
  149.8674  141.0697  158.8773 H   0  0  0  0  0  0  0  0  0  0  0  0
  150.4750  141.5000  157.3097 H   0  0  0  0  0  0  0  0  0  0  0  0
  148.0217  138.0858  159.6907 H   0  0  0  0  0  0  0  0  0  0  0  0
  146.5707  135.6367  159.8358 H   0  0  0  0  0  0  0  0  0  0  0  0
  146.2726  138.2338  161.4151 H   0  0  0  0  0  0  0  0  0  0  0  0
  144.3869  135.7627  161.3247 H   0  0  0  0  0  0  0  0  0  0  0  0
  144.0809  137.3634  162.1770 H   0  0  0  0  0  0  0  0  0  0  0  0
  144.2850  138.5669  159.9715 H   0  0  0  0  0  0  0  0  0  0  0  0
  144.5927  136.9611  159.1293 H   0  0  0  0  0  0  0  0  0  0  0  0
  148.5192  135.1626  161.4820 H   0  0  0  0  0  0  0  0  0  0  0  0
  145.5977  135.1029  162.5394 H   0  0  0  0  0  0  0  0  0  0  0  0
  147.0002  134.0534  163.1008 H   0  0  0  0  0  0  0  0  0  0  0  0
  148.2823  136.1230  163.7563 H   0  0  0  0  0  0  0  0  0  0  0  0
  146.8719  137.1642  163.2008 H   0  0  0  0  0  0  0  0  0  0  0  0
  150.9574  135.7512  157.2225 H   0  0  0  0  0  0  0  0  0  0  0  0
  152.5030  137.2115  156.0604 H   0  0  0  0  0  0  0  0  0  0  0  0
  1  2  1  0  0  0  0
  1 22  1  0  0  0  0
  1 23  1  0  0  0  0
  1 24  1  0  0  0  0
  2  3  1  0  0  0  0
  3  4  1  0  0  0  0
  3 25  1  0  0  0  0
  3 26  1  0  0  0  0
  4  5  1  0  0  0  0
  4 27  1  0  0  0  0
  4 28  1  0  0  0  0
  5 20  1  0  0  0  0
  5  6  1  0  0  0  0
  6  7  2  0  0  0  0
  7  8  1  0  0  0  0
  7 18  1  0  0  0  0
  8  9  2  0  0  0  0
  8 10  1  0  0  0  0
 10 11  1  0  0  0  0
 10 29  1  0  0  0  0
 11 12  1  0  0  0  0
 11 15  1  0  0  0  0
 11 30  1  0  0  0  0
 12 14  1  0  0  0  0
 12 13  1  0  0  0  0
 12 31  1  0  0  0  0
 13 14  1  0  0  0  0
 13 32  1  0  0  0  0
 13 33  1  0  0  0  0
 14 34  1  0  0  0  0
 14 35  1  0  0  0  0
 15 17  1  0  0  0  0
 15 16  1  0  0  0  0
 15 36  1  0  0  0  0
 16 17  1  0  0  0  0
 16 37  1  0  0  0  0
 16 38  1  0  0  0  0
 17 39  1  0  0  0  0
 17 40  1  0  0  0  0
 18 19  2  0  0  0  0
 18 41  1  0  0  0  0
 19 20  1  0  0  0  0
 19 42  1  0  0  0  0
 20 21  2  0  0  0  0
M  END
> <s_m_source_file>
AV-unprocessed.smi

> <i_m_source_file_index>
335

> <i_lp_mmshare_version>
43012

> <i_f3d_flags>
0

> <s_epik_input>
W0NIM11PW0NIMl1bQ0gyXW4xbmMoW2NIXVtjSF1jMT1PKUMoPU8pW05IXVtDSF0oW0NIXTJbQ0gyXVtDSDJdMilbQ0hdM1tDSDJdW0NIMl0z

> <s_epik_cmdline>
J2VwaWtfcHl0aG9uJywgJy1waCcsICc3LjAnLCAnLXRuJywgJzgnLCAnLW1hJywgJzIwMCcsICctbWV0YWxfYmluZGluZycsICctaW1hZScsICc8aW5maWxlLm1hZT4nLCAnLW9tYWUnLCAnPG91dGZpbGUubWFlPic=

> <r_lp_tautomer_probability>
1

> <r_epik_Ionization_Penalty>
5.73468e-07

> <r_epik_Ionization_Penalty_Charging>
6.67133e-09

> <r_epik_Ionization_Penalty_Neutral>
5.66797e-07

> <r_epik_State_Penalty>
-0

> <r_epik_Charging_Adjusted_Penalty>
6.67133e-09

> <i_epik_Tot_Q>
0

> <i_epik_Tot_abs_Q>
0

> <r_epik_Metal_State_Penalty>
-0

> <b_epik_Metal_Only>
0

> <s_lp_Force_Field>
OPLS_2005

> <r_lp_Energy>
44.174

> <b_lp_Chiralities_Consistent>
1

> <s_lp_Variant>
AV-unprocessed.smi:335-1

> <Gold.Version>
5.8.1

> <Gold.Id.Protein>
6NUR|6NUR_protein|mol2

> <Gold.PLP.Fitness>
38.4723

> <Gold.PLP.PLP>
-33.4600

> <Gold.PLP.part.hbond>
-2.4283

> <Gold.PLP.part.metal>
0.0000

> <Gold.PLP.part.buried>
-3.6095

> <Gold.PLP.part.nonpolar>
-26.4688

> <Gold.PLP.part.repulsive>
0.2194

> <Gold.PLP.ligand.clash>
0.0000

> <Gold.PLP.ligand.torsion>
1.6321

> <Gold.PLP.Chemscore.Hbond>
2.0000

> <Gold.PLP.Chemscore.CHOScore>
0.0000

> <Gold.PLP.Chemscore.Metal>
0.0000

> <Gold.Chemscore.Hbonds>
donor molecule, donor type, donor heavy atom, donor atom, acceptor molecule, acceptor atom, score
      P1  H  6896  6908       L1     9  1.00
      P1  H  7997  8009       L1    21  1.00

> <Gold.PLP.Chemscore.Internal.Correction>
2.2765

> <Gold.Rescore>
     Score         DG    S(hbond)    S(metal)    S(lipo)     H(rot)  DE(clash)    DE(int)     intcor
     14.53     -16.35       1.94        0.00      77.93       1.85       0.07       1.75       ----

> <Gold.Chemscore.Fitness>
14.5275

> <Gold.Chemscore.DG>
-16.3483

> <Gold.Chemscore.ZeroCoef>
-5.4800

> <Gold.Chemscore.Hbond>
1.9387

> <Gold.Chemscore.Metal>
0.0000

> <Gold.Chemscore.Lipo>
77.9338

> <Gold.Chemscore.Internal_Hbond>
0.0000

> <Gold.Chemscore.DEClash>
0.0736

> <Gold.Chemscore.DEInternal>
1.7472

> <Gold.Chemscore.Rot>
1.8458

> <Gold.Chemscore.Internal.Correction>
   9.000000E+99

> <Gold.Chemscore.Hbonds>
donor molecule, donor type, donor heavy atom, donor atom, acceptor molecule, acceptor atom, score
      P1  H  6896  6908       L1     9  1.00
      P1  H  7997  8009       L1    21  1.00

> <Gold.Chemscore.Hbond.Weighted>
-6.4753

> <Gold.Chemscore.Metal.Weighted>
-0.0000

> <Gold.Chemscore.Lipo.Weighted>
-9.1183

> <Gold.Chemscore.Internal_Hbond.Weighted>
0.0000

> <Gold.Chemscore.DEClash.Weighted>
0.0736

> <Gold.Chemscore.DEInternal.Weighted>
1.7472

> <Gold.Chemscore.Rot.Weighted>
4.7252

> <Gold.Chemscore.Internal.Correction.Weighted>
   9.000000E+99

> <Gold.Protein.RotatedTorsions>
[ 6907 6896 6895 6894 ] final  157.02 input  -60.11 | X-H torsion
[ 7974 7965 7964 7962 ] final   17.56 input  175.53 | X-H torsion
[ 8008 7997 7996 7995 ] final -155.51 input   59.86 | X-H torsion
[ 10167 10162 10161 10158 ] final -111.95 input  -65.29 | X-H torsion
[ 10718 10713 10712 10709 ] final -117.62 input   66.30 | X-H torsion
[ 10763 10752 10751 10750 ] final  -24.35 input  -60.55 | X-H torsion
[ 11005 11000 10999 10996 ] final  -35.87 input  -57.11 | X-H torsion

> <Gold.Protein.ActiveResidues>
 VAL166  LYS551  ARG553  GLY616  TRP617  ASP618  TYR619  PRO620  LYS621  CYS622 
 ASP623  PHE694  ASN695  SER759  ASP760  ASP761  ALA762  ILE779  LEU786  VAL792 
 PHE793  MET794  SER795  GLU796  ALA797  LYS798  CYS799  TRP800  GLU811  SER814 

> <Gold.Protein.RotatedAtoms>
  152.0212  133.3899  159.4258 H   0  0  0  0  0  0  0  0  0  0  0  0  # atno 6907 bound_to 6896
  150.6890  134.3623  159.4965 H   0  0  0  0  0  0  0  0  0  0  0  0  # atno 6908 bound_to 6896
  152.1397  134.9071  160.0605 H   0  0  0  0  0  0  0  0  0  0  0  0  # atno 6909 bound_to 6896
  146.2214  139.8584  142.8609 H   0  0  0  0  0  0  0  0  0  0  0  0  # atno 7974 bound_to 7965
  155.7030  140.0769  157.2402 H   0  0  0  0  0  0  0  0  0  0  0  0  # atno 8008 bound_to 7997
  154.4070  140.1644  156.2265 H   0  0  0  0  0  0  0  0  0  0  0  0  # atno 8009 bound_to 7997
  155.9351  140.3388  155.6284 H   0  0  0  0  0  0  0  0  0  0  0  0  # atno 8010 bound_to 7997
  140.1281  143.4385  152.1646 H   0  0  0  0  0  0  0  0  0  0  0  0  # atno 10167 bound_to 10162
  156.1047  130.6200  150.9187 H   0  0  0  0  0  0  0  0  0  0  0  0  # atno 10718 bound_to 10713
  153.6824  135.6966  153.5114 H   0  0  0  0  0  0  0  0  0  0  0  0  # atno 10763 bound_to 10752
  153.2474  135.4286  155.0761 H   0  0  0  0  0  0  0  0  0  0  0  0  # atno 10764 bound_to 10752
  154.8396  135.3523  154.6367 H   0  0  0  0  0  0  0  0  0  0  0  0  # atno 10765 bound_to 10752
  140.9830  133.7046  156.1717 H   0  0  0  0  0  0  0  0  0  0  0  0  # atno 11005 bound_to 11000
  145.2729  141.0114  143.3761 LP  0  0  0  0  0  0  0  0  0  0  0  0  # atno 17320 bound_to 7965
  144.9209  139.4413  143.6541 LP  0  0  0  0  0  0  0  0  0  0  0  0  # atno 17321 bound_to 7965
  139.5534  144.7355  151.4367 LP  0  0  0  0  0  0  0  0  0  0  0  0  # atno 17342 bound_to 10162
  140.6833  143.8031  150.7151 LP  0  0  0  0  0  0  0  0  0  0  0  0  # atno 17343 bound_to 10162
  157.6222  131.0929  150.8601 LP  0  0  0  0  0  0  0  0  0  0  0  0  # atno 17370 bound_to 10713
  156.8722  130.5150  149.5296 LP  0  0  0  0  0  0  0  0  0  0  0  0  # atno 17371 bound_to 10713
  140.7157  134.4413  157.5578 LP  0  0  0  0  0  0  0  0  0  0  0  0  # atno 17394 bound_to 11000
  139.8958  134.8673  156.2114 LP  0  0  0  0  0  0  0  0  0  0  0  0  # atno 17395 bound_to 11000

$$$$
