AV-unprocessed.smi:2313|AV-procd|sdf|9265|dock2
  -GOLD-   2272012493D 1   1.00000     0.00000
 Structure written by MMmdl.
 37 38  0  0  0  0  0  0  0  0  1 V2000
  152.8128  143.4242  162.4994 C   0  0  0  0  0  0  0  0  0  0  0  0
  152.5313  143.2625  161.0172 C   0  0  0  0  0  0  0  0  0  0  0  0
  151.7902  144.2820  160.3039 C   0  0  0  0  0  0  0  0  0  0  0  0
  151.5474  144.1226  158.9944 C   0  0  0  0  0  0  0  0  0  0  0  0
  151.9935  142.9920  158.2879 N   0  0  0  0  0  0  0  0  0  0  0  0
  151.6618  142.9175  156.8551 C   0  0  0  0  0  0  0  0  0  0  0  0
  150.6787  141.7832  156.5385 C   0  0  0  0  0  0  0  0  0  0  0  0
  150.9014  140.6414  156.9405 O   0  0  0  0  0  0  0  0  0  0  0  0
  149.6004  142.1261  155.8135 N   0  0  0  0  0  0  0  0  0  0  0  0
  148.5264  141.2606  155.3100 C   0  0  2  0  0  0  0  0  0  0  0  0
  147.5003  142.1964  154.6503 C   0  0  0  0  0  0  0  0  0  0  0  0
  147.8408  140.5434  156.4032 C   0  0  0  0  0  0  0  0  0  0  0  0
  147.3060  139.9809  157.2617 N   0  0  0  0  0  0  0  0  0  0  0  0
  148.9670  140.2191  154.2779 C   0  0  0  0  0  0  0  0  0  0  0  0
  148.2492  138.9096  154.0303 C   0  0  0  0  0  0  0  0  0  0  0  0
  149.6169  138.9123  154.6751 C   0  0  0  0  0  0  0  0  0  0  0  0
  152.6997  141.9908  158.8954 C   0  0  0  0  0  0  0  0  0  0  0  0
  153.0890  141.0024  158.2700 O   0  0  0  0  0  0  0  0  0  0  0  0
  152.9572  142.1742  160.3325 C   0  0  0  0  0  0  0  0  0  0  0  0
  153.6881  141.1251  160.9670 C   0  0  0  0  0  0  0  0  0  0  0  0
  154.2860  140.2870  161.4963 N   0  0  0  0  0  0  0  0  0  0  0  0
  152.3997  144.3589  162.8798 H   0  0  0  0  0  0  0  0  0  0  0  0
  153.8871  143.4295  162.6855 H   0  0  0  0  0  0  0  0  0  0  0  0
  152.3684  142.6038  163.0635 H   0  0  0  0  0  0  0  0  0  0  0  0
  151.4297  145.1610  160.8178 H   0  0  0  0  0  0  0  0  0  0  0  0
  150.9937  144.8436  158.4107 H   0  0  0  0  0  0  0  0  0  0  0  0
  151.2224  143.8527  156.5059 H   0  0  0  0  0  0  0  0  0  0  0  0
  152.5764  142.7940  156.2715 H   0  0  0  0  0  0  0  0  0  0  0  0
  149.5279  143.0984  155.5511 H   0  0  0  0  0  0  0  0  0  0  0  0
  146.6430  141.6397  154.2698 H   0  0  0  0  0  0  0  0  0  0  0  0
  147.9378  142.7394  153.8115 H   0  0  0  0  0  0  0  0  0  0  0  0
  147.1201  142.9329  155.3596 H   0  0  0  0  0  0  0  0  0  0  0  0
  149.3709  140.6790  153.3774 H   0  0  0  0  0  0  0  0  0  0  0  0
  147.4078  138.6343  154.6595 H   0  0  0  0  0  0  0  0  0  0  0  0
  148.1830  138.5649  153.0006 H   0  0  0  0  0  0  0  0  0  0  0  0
  150.4566  138.5682  154.0747 H   0  0  0  0  0  0  0  0  0  0  0  0
  149.6697  138.6601  155.7323 H   0  0  0  0  0  0  0  0  0  0  0  0
  1  2  1  0  0  0  0
  1 22  1  0  0  0  0
  1 23  1  0  0  0  0
  1 24  1  0  0  0  0
  2 19  2  0  0  0  0
  2  3  1  0  0  0  0
  3  4  2  0  0  0  0
  3 25  1  0  0  0  0
  4  5  1  0  0  0  0
  4 26  1  0  0  0  0
  5  6  1  0  0  0  0
  5 17  1  0  0  0  0
  6  7  1  0  0  0  0
  6 27  1  0  0  0  0
  6 28  1  0  0  0  0
  7  8  2  0  0  0  0
  7  9  1  0  0  0  0
  9 10  1  0  0  0  0
  9 29  1  0  0  0  0
 10 11  1  0  0  0  0
 10 12  1  0  0  0  0
 10 14  1  0  0  0  0
 11 30  1  0  0  0  0
 11 31  1  0  0  0  0
 11 32  1  0  0  0  0
 12 13  3  0  0  0  0
 14 16  1  0  0  0  0
 14 15  1  0  0  0  0
 14 33  1  0  0  0  0
 15 16  1  0  0  0  0
 15 34  1  0  0  0  0
 15 35  1  0  0  0  0
 16 36  1  0  0  0  0
 16 37  1  0  0  0  0
 17 18  2  0  0  0  0
 17 19  1  0  0  0  0
 19 20  1  0  0  0  0
 20 21  3  0  0  0  0
M  END
> <s_m_source_file>
AV-unprocessed.smi

> <i_m_source_file_index>
2313

> <i_lp_mmshare_version>
43012

> <i_f3d_flags>
0

> <s_epik_input>
W0NIM11jMVtjSF1bY0hdbihjKD1PKWMxQyNOKVtDSDJdQyg9TylbTkhdW0NAQF0oW0NIM10pKEMjTilbQ0hdMltDSDJdW0NIMl0y

> <s_epik_cmdline>
J2VwaWtfcHl0aG9uJywgJy1waCcsICc3LjAnLCAnLXRuJywgJzgnLCAnLW1hJywgJzIwMCcsICctbWV0YWxfYmluZGluZycsICctaW1hZScsICc8aW5maWxlLm1hZT4nLCAnLW9tYWUnLCAnPG91dGZpbGUubWFlPic=

> <r_lp_tautomer_probability>
1

> <r_epik_Ionization_Penalty>
4.65501e-07

> <r_epik_Ionization_Penalty_Charging>
2.39086e-10

> <r_epik_Ionization_Penalty_Neutral>
4.65262e-07

> <r_epik_State_Penalty>
-0

> <r_epik_Charging_Adjusted_Penalty>
2.39086e-10

> <i_epik_Tot_Q>
0

> <i_epik_Tot_abs_Q>
0

> <r_epik_Metal_State_Penalty>
-0

> <b_epik_Metal_Only>
0

> <s_lp_Force_Field>
OPLS_2005

> <r_lp_Energy>
23.1169

> <b_lp_Chiralities_Consistent>
1

> <s_lp_Variant>
AV-unprocessed.smi:2313-2

> <Gold.Version>
5.8.1

> <Gold.Id.Protein>
6NUR|6NUR_protein|mol2

> <Gold.PLP.Fitness>
45.0326

> <Gold.PLP.PLP>
-41.2585

> <Gold.PLP.part.hbond>
-2.0000

> <Gold.PLP.part.metal>
0.0000

> <Gold.PLP.part.buried>
-1.1301

> <Gold.PLP.part.nonpolar>
-37.7945

> <Gold.PLP.part.repulsive>
0.1447

> <Gold.PLP.ligand.clash>
0.0000

> <Gold.PLP.ligand.torsion>
0.9065

> <Gold.PLP.Chemscore.Hbond>
1.3640

> <Gold.PLP.Chemscore.CHOScore>
0.0000

> <Gold.PLP.Chemscore.Metal>
0.0000

> <Gold.Chemscore.Hbonds>
donor molecule, donor type, donor heavy atom, donor atom, acceptor molecule, acceptor atom, score
      L1  H     9    29       P1  8028  1.00
      P1  H  7997  8009       L1    18  0.38

> <Gold.PLP.Chemscore.Internal.Correction>
1.4951

> <Gold.Rescore>
     Score         DG    S(hbond)    S(metal)    S(lipo)     H(rot)  DE(clash)    DE(int)     intcor
     11.00     -16.81       1.32        0.00      98.55       1.80       2.51       3.31       ----

> <Gold.Chemscore.Fitness>
10.9986

> <Gold.Chemscore.DG>
-16.8135

> <Gold.Chemscore.ZeroCoef>
-5.4800

> <Gold.Chemscore.Hbond>
1.3172

> <Gold.Chemscore.Metal>
0.0000

> <Gold.Chemscore.Lipo>
98.5525

> <Gold.Chemscore.Internal_Hbond>
0.0000

> <Gold.Chemscore.DEClash>
2.5076

> <Gold.Chemscore.DEInternal>
3.3073

> <Gold.Chemscore.Rot>
1.7955

> <Gold.Chemscore.Internal.Correction>
   9.000000E+99

> <Gold.Chemscore.Hbonds>
donor molecule, donor type, donor heavy atom, donor atom, acceptor molecule, acceptor atom, score
      L1  H     9    29       P1  8028  0.98
      P1  H  7997  8009       L1    18  0.39

> <Gold.Chemscore.Hbond.Weighted>
-4.3994

> <Gold.Chemscore.Metal.Weighted>
-0.0000

> <Gold.Chemscore.Lipo.Weighted>
-11.5306

> <Gold.Chemscore.Internal_Hbond.Weighted>
0.0000

> <Gold.Chemscore.DEClash.Weighted>
2.5076

> <Gold.Chemscore.DEInternal.Weighted>
3.3073

> <Gold.Chemscore.Rot.Weighted>
4.5965

> <Gold.Chemscore.Internal.Correction.Weighted>
   9.000000E+99

> <Gold.Protein.RotatedTorsions>
[ 6907 6896 6895 6894 ] final   -3.24 input  -60.11 | X-H torsion
[ 7974 7965 7964 7962 ] final   99.95 input  175.53 | X-H torsion
[ 8008 7997 7996 7995 ] final  158.24 input   59.86 | X-H torsion
[ 10167 10162 10161 10158 ] final   83.06 input  -65.29 | X-H torsion
[ 10718 10713 10712 10709 ] final   80.39 input   66.30 | X-H torsion
[ 10763 10752 10751 10750 ] final   69.33 input  -60.55 | X-H torsion
[ 11005 11000 10999 10996 ] final   74.00 input  -57.11 | X-H torsion

> <Gold.Protein.ActiveResidues>
 VAL166  LYS551  ARG553  GLY616  TRP617  ASP618  TYR619  PRO620  LYS621  CYS622 
 ASP623  PHE694  ASN695  SER759  ASP760  ASP761  ALA762  ILE779  LEU786  VAL792 
 PHE793  MET794  SER795  GLU796  ALA797  LYS798  CYS799  TRP800  GLU811  SER814 

> <Gold.Protein.RotatedAtoms>
  151.5169  135.1066  159.9868 H   0  0  0  0  0  0  0  0  0  0  0  0  # atno 6907 bound_to 6896
  152.4637  133.7873  159.6893 H   0  0  0  0  0  0  0  0  0  0  0  0  # atno 6908 bound_to 6896
  150.8611  133.7578  159.3017 H   0  0  0  0  0  0  0  0  0  0  0  0  # atno 6909 bound_to 6896
  145.3920  139.2361  143.3346 H   0  0  0  0  0  0  0  0  0  0  0  0  # atno 7974 bound_to 7965
  156.2315  140.1863  156.7230 H   0  0  0  0  0  0  0  0  0  0  0  0  # atno 8008 bound_to 7997
  154.6031  140.0633  156.9422 H   0  0  0  0  0  0  0  0  0  0  0  0  # atno 8009 bound_to 7997
  155.2141  140.3302  155.4327 H   0  0  0  0  0  0  0  0  0  0  0  0  # atno 8010 bound_to 7997
  139.9223  144.6204  150.8427 H   0  0  0  0  0  0  0  0  0  0  0  0  # atno 10167 bound_to 10162
  157.6804  130.9957  150.2072 H   0  0  0  0  0  0  0  0  0  0  0  0  # atno 10718 bound_to 10713
  153.0282  135.5214  154.7272 H   0  0  0  0  0  0  0  0  0  0  0  0  # atno 10763 bound_to 10752
  154.6310  135.2900  155.0218 H   0  0  0  0  0  0  0  0  0  0  0  0  # atno 10764 bound_to 10752
  154.1170  135.6613  153.4948 H   0  0  0  0  0  0  0  0  0  0  0  0  # atno 10765 bound_to 10752
  139.9412  134.7395  156.1094 H   0  0  0  0  0  0  0  0  0  0  0  0  # atno 11005 bound_to 11000
  146.2793  140.4604  142.8783 LP  0  0  0  0  0  0  0  0  0  0  0  0  # atno 17320 bound_to 7965
  144.8433  140.6891  143.6215 LP  0  0  0  0  0  0  0  0  0  0  0  0  # atno 17321 bound_to 7965
  140.7659  143.3288  151.2457 LP  0  0  0  0  0  0  0  0  0  0  0  0  # atno 17342 bound_to 10162
  139.6851  143.9788  152.2829 LP  0  0  0  0  0  0  0  0  0  0  0  0  # atno 17343 bound_to 10162
  156.2750  130.3726  149.7993 LP  0  0  0  0  0  0  0  0  0  0  0  0  # atno 17370 bound_to 10713
  156.5698  130.8420  151.3353 LP  0  0  0  0  0  0  0  0  0  0  0  0  # atno 17371 bound_to 10713
  141.1047  133.6664  156.2836 LP  0  0  0  0  0  0  0  0  0  0  0  0  # atno 17394 bound_to 11000
  140.5947  134.5615  157.5506 LP  0  0  0  0  0  0  0  0  0  0  0  0  # atno 17395 bound_to 11000

$$$$
