AV-unprocessed.smi:3157|AV-procd|sdf|12037|dock9
  -GOLD-   2272017453D 1   1.00000     0.00000
 Structure written by MMmdl.
 40 41  0  0  0  0  0  0  0  0  2 V2000
  147.1909  141.9688  155.6385 C   0  0  0  0  0  0  0  0  0  0  0  0
  148.5198  141.1922  155.7107 C   0  0  2  0  0  0  0  0  0  0  0  0
  149.6191  142.1137  156.0833 N   0  3  0  0  0  0  0  0  0  0  0  0
  149.8648  142.2546  157.5335 C   0  0  0  0  0  0  0  0  0  0  0  0
  151.2963  142.7432  157.8057 C   0  0  0  0  0  0  0  0  0  0  0  0
  151.7094  142.6308  159.2749 C   0  0  0  0  0  0  0  0  0  0  0  0
  152.9017  143.5814  159.4262 C   0  0  0  0  0  0  0  0  0  0  0  0
  152.7737  144.6142  158.2960 C   0  0  0  0  0  0  0  0  0  0  0  0
  151.5224  144.2273  157.4996 C   0  0  0  0  0  0  0  0  0  0  0  0
  148.8652  140.4756  154.3790 C   0  0  2  0  0  0  0  0  0  0  0  0
  147.6904  139.6755  153.7855 C   0  0  0  0  0  0  0  0  0  0  0  0
  150.0210  139.6013  154.5493 N   0  0  0  0  0  0  0  0  0  0  0  0
  150.1107  138.2358  154.3617 C   0  0  0  0  0  0  0  0  0  0  0  0
  151.3845  137.8619  154.6802 C   0  0  0  0  0  0  0  0  0  0  0  0
  152.0078  139.0807  155.0667 C   0  0  0  0  0  0  0  0  0  0  0  0
  151.1872  140.1163  154.9976 N   0  0  0  0  0  0  0  0  0  0  0  0
  146.3460  141.3049  155.4573 H   0  0  0  0  0  0  0  0  0  0  0  0
  147.2091  142.7116  154.8402 H   0  0  0  0  0  0  0  0  0  0  0  0
  146.9778  142.4917  156.5705 H   0  0  0  0  0  0  0  0  0  0  0  0
  148.4342  140.4309  156.4880 H   0  0  0  0  0  0  0  0  0  0  0  0
  150.4685  141.7529  155.6715 H   0  0  0  0  0  0  0  0  0  0  0  0
  149.1422  142.9404  157.9758 H   0  0  0  0  0  0  0  0  0  0  0  0
  149.7161  141.2839  158.0085 H   0  0  0  0  0  0  0  0  0  0  0  0
  151.9978  142.1534  157.2127 H   0  0  0  0  0  0  0  0  0  0  0  0
  150.8947  142.9684  159.9176 H   0  0  0  0  0  0  0  0  0  0  0  0
  151.9540  141.6082  159.5638 H   0  0  0  0  0  0  0  0  0  0  0  0
  152.9148  144.0509  160.4104 H   0  0  0  0  0  0  0  0  0  0  0  0
  153.8368  143.0309  159.3159 H   0  0  0  0  0  0  0  0  0  0  0  0
  152.6995  145.6319  158.6808 H   0  0  0  0  0  0  0  0  0  0  0  0
  153.6560  144.5715  157.6562 H   0  0  0  0  0  0  0  0  0  0  0  0
  151.6344  144.4232  156.4327 H   0  0  0  0  0  0  0  0  0  0  0  0
  150.6740  144.8146  157.8542 H   0  0  0  0  0  0  0  0  0  0  0  0
  149.1355  141.2365  153.6437 H   0  0  0  0  0  0  0  0  0  0  0  0
  146.8762  140.3283  153.4722 H   0  0  0  0  0  0  0  0  0  0  0  0
  147.2877  138.9600  154.5029 H   0  0  0  0  0  0  0  0  0  0  0  0
  148.0049  139.1185  152.9020 H   0  0  0  0  0  0  0  0  0  0  0  0
  149.2706  137.6484  154.0210 H   0  0  0  0  0  0  0  0  0  0  0  0
  151.8067  136.8685  154.6444 H   0  0  0  0  0  0  0  0  0  0  0  0
  153.0231  139.2419  155.3980 H   0  0  0  0  0  0  0  0  0  0  0  0
  149.4350  143.0224  155.6828 H   0  0  0  0  0  0  0  0  0  0  0  0
  1  2  1  0  0  0  0
  1 17  1  0  0  0  0
  1 18  1  0  0  0  0
  1 19  1  0  0  0  0
  2  3  1  0  0  0  0
  2 10  1  0  0  0  0
  2 20  1  0  0  0  0
  3  4  1  0  0  0  0
  3 21  1  0  0  0  0
  3 40  1  0  0  0  0
  4  5  1  0  0  0  0
  4 22  1  0  0  0  0
  4 23  1  0  0  0  0
  5  9  1  0  0  0  0
  5  6  1  0  0  0  0
  5 24  1  0  0  0  0
  6  7  1  0  0  0  0
  6 25  1  0  0  0  0
  6 26  1  0  0  0  0
  7  8  1  0  0  0  0
  7 27  1  0  0  0  0
  7 28  1  0  0  0  0
  8  9  1  0  0  0  0
  8 29  1  0  0  0  0
  8 30  1  0  0  0  0
  9 31  1  0  0  0  0
  9 32  1  0  0  0  0
 10 11  1  0  0  0  0
 10 12  1  0  0  0  0
 10 33  1  0  0  0  0
 11 34  1  0  0  0  0
 11 35  1  0  0  0  0
 11 36  1  0  0  0  0
 12 16  1  0  0  0  0
 12 13  1  0  0  0  0
 13 14  2  0  0  0  0
 13 37  1  0  0  0  0
 14 15  1  0  0  0  0
 14 38  1  0  0  0  0
 15 16  2  0  0  0  0
 15 39  1  0  0  0  0
M  CHG  1   3   1
M  END
> <s_m_source_file>
AV-unprocessed.smi

> <i_m_source_file_index>
3157

> <i_lp_mmshare_version>
43012

> <i_f3d_flags>
0

> <s_epik_input>
bjFbY0hdW2NIXVtjSF1uMVtDQEBIXShbQ0gzXSlbQ0BIXShbQ0gzXSlbTkhdW0NIMl1bQ0hdMltDSDJdW0NIMl1bQ0gyXVtDSDJdMg==

> <s_epik_cmdline>
J2VwaWtfcHl0aG9uJywgJy1waCcsICc3LjAnLCAnLXRuJywgJzgnLCAnLW1hJywgJzIwMCcsICctbWV0YWxfYmluZGluZycsICctaW1hZScsICc8aW5maWxlLm1hZT4nLCAnLW9tYWUnLCAnPG91dGZpbGUubWFlPic=

> <r_lp_tautomer_probability>
1

> <r_epik_Ionization_Penalty>
0.00132192

> <r_epik_Ionization_Penalty_Charging>
0.0013111

> <r_epik_Ionization_Penalty_Neutral>
1.08112e-05

> <r_epik_State_Penalty>
-0

> <r_epik_Charging_Adjusted_Penalty>
0.0013111

> <i_epik_Tot_Q>
1

> <i_epik_Tot_abs_Q>
1

> <r_epik_Metal_State_Penalty>
-0

> <b_epik_Metal_Only>
0

> <s_lp_Force_Field>
OPLS_2005

> <r_lp_Energy>
31.0944

> <b_lp_Chiralities_Consistent>
1

> <s_lp_Variant>
AV-unprocessed.smi:3157-1

> <Gold.Version>
5.8.1

> <Gold.Id.Protein>
6NUR|6NUR_protein|mol2

> <Gold.PLP.Fitness>
49.9796

> <Gold.PLP.PLP>
-39.6137

> <Gold.PLP.part.hbond>
-2.0000

> <Gold.PLP.part.metal>
0.0000

> <Gold.PLP.part.buried>
-2.8467

> <Gold.PLP.part.nonpolar>
-36.0782

> <Gold.PLP.part.repulsive>
0.1539

> <Gold.PLP.ligand.clash>
0.0000

> <Gold.PLP.ligand.torsion>
0.7261

> <Gold.PLP.Chemscore.Hbond>
2.9000

> <Gold.PLP.Chemscore.CHOScore>
1.0000

> <Gold.PLP.Chemscore.Metal>
0.0000

> <Gold.Chemscore.Hbonds>
donor molecule, donor type, donor heavy atom, donor atom, acceptor molecule, acceptor atom, score
      L1  H     3    40       P1  8028  2.00
      P1  H  7989  7998       L1    16  0.80
      L1  C    13    37       P1  7948  0.87

> <Gold.PLP.Chemscore.Internal.Correction>
0.1181

> <Gold.Rescore>
     Score         DG    S(hbond)    S(metal)    S(lipo)     H(rot)  DE(clash)    DE(int)     intcor
     18.41     -20.68       1.82        0.00     110.79       1.50       0.02       2.26       ----

> <Gold.Chemscore.Fitness>
18.4063

> <Gold.Chemscore.DG>
-20.6782

> <Gold.Chemscore.ZeroCoef>
-5.4800

> <Gold.Chemscore.Hbond>
1.8227

> <Gold.Chemscore.Metal>
0.0000

> <Gold.Chemscore.Lipo>
110.7904

> <Gold.Chemscore.Internal_Hbond>
0.0000

> <Gold.Chemscore.DEClash>
0.0153

> <Gold.Chemscore.DEInternal>
2.2566

> <Gold.Chemscore.Rot>
1.5047

> <Gold.Chemscore.Internal.Correction>
   9.000000E+99

> <Gold.Chemscore.Hbonds>
donor molecule, donor type, donor heavy atom, donor atom, acceptor molecule, acceptor atom, score
      L1  H     3    40       P1  8028  0.99
      P1  H  7989  7998       L1    16  0.05

> <Gold.Chemscore.Hbond.Weighted>
-6.0877

> <Gold.Chemscore.Metal.Weighted>
-0.0000

> <Gold.Chemscore.Lipo.Weighted>
-12.9625

> <Gold.Chemscore.Internal_Hbond.Weighted>
0.0000

> <Gold.Chemscore.DEClash.Weighted>
0.0153

> <Gold.Chemscore.DEInternal.Weighted>
2.2566

> <Gold.Chemscore.Rot.Weighted>
3.8520

> <Gold.Chemscore.Internal.Correction.Weighted>
   9.000000E+99

> <Gold.Protein.RotatedTorsions>
[ 6907 6896 6895 6894 ] final  105.75 input  -60.11 | X-H torsion
[ 7974 7965 7964 7962 ] final -142.36 input  175.53 | X-H torsion
[ 8008 7997 7996 7995 ] final  -58.40 input   59.86 | X-H torsion
[ 10167 10162 10161 10158 ] final -164.45 input  -65.29 | X-H torsion
[ 10718 10713 10712 10709 ] final -122.47 input   66.30 | X-H torsion
[ 10763 10752 10751 10750 ] final -159.28 input  -60.55 | X-H torsion
[ 11005 11000 10999 10996 ] final -138.17 input  -57.11 | X-H torsion

> <Gold.Protein.ActiveResidues>
 VAL166  LYS551  ARG553  GLY616  TRP617  ASP618  TYR619  PRO620  LYS621  CYS622 
 ASP623  PHE694  ASN695  SER759  ASP760  ASP761  ALA762  ILE779  LEU786  VAL792 
 PHE793  MET794  SER795  GLU796  ALA797  LYS798  CYS799  TRP800  GLU811  SER814 

> <Gold.Protein.RotatedAtoms>
  152.5219  133.9482  159.7658 H   0  0  0  0  0  0  0  0  0  0  0  0  # atno 6907 bound_to 6896
  150.9797  133.6249  159.2731 H   0  0  0  0  0  0  0  0  0  0  0  0  # atno 6908 bound_to 6896
  151.3431  135.0874  159.9431 H   0  0  0  0  0  0  0  0  0  0  0  0  # atno 6909 bound_to 6896
  144.8449  140.5967  143.5428 H   0  0  0  0  0  0  0  0  0  0  0  0  # atno 7974 bound_to 7965
  154.4307  140.1085  156.5951 H   0  0  0  0  0  0  0  0  0  0  0  0  # atno 8008 bound_to 7997
  155.5971  140.3493  155.4564 H   0  0  0  0  0  0  0  0  0  0  0  0  # atno 8009 bound_to 7997
  156.0202  140.1238  157.0355 H   0  0  0  0  0  0  0  0  0  0  0  0  # atno 8010 bound_to 7997
  139.6250  144.0551  152.1966 H   0  0  0  0  0  0  0  0  0  0  0  0  # atno 10167 bound_to 10162
  156.1422  130.6474  150.9787 H   0  0  0  0  0  0  0  0  0  0  0  0  # atno 10718 bound_to 10713
  154.7488  135.3087  154.8596 H   0  0  0  0  0  0  0  0  0  0  0  0  # atno 10763 bound_to 10752
  153.9389  135.6777  153.4748 H   0  0  0  0  0  0  0  0  0  0  0  0  # atno 10764 bound_to 10752
  153.1084  135.4878  154.8919 H   0  0  0  0  0  0  0  0  0  0  0  0  # atno 10765 bound_to 10752
  140.8641  134.2132  157.4690 H   0  0  0  0  0  0  0  0  0  0  0  0  # atno 11005 bound_to 11000
  145.4617  139.1512  143.3862 LP  0  0  0  0  0  0  0  0  0  0  0  0  # atno 17320 bound_to 7965
  146.2735  140.4747  142.8805 LP  0  0  0  0  0  0  0  0  0  0  0  0  # atno 17321 bound_to 7965
  140.0202  144.6159  150.7573 LP  0  0  0  0  0  0  0  0  0  0  0  0  # atno 17342 bound_to 10162
  140.7405  143.2805  151.3612 LP  0  0  0  0  0  0  0  0  0  0  0  0  # atno 17343 bound_to 10162
  157.6585  131.0885  150.7892 LP  0  0  0  0  0  0  0  0  0  0  0  0  # atno 17370 bound_to 10713
  156.7967  130.4907  149.5376 LP  0  0  0  0  0  0  0  0  0  0  0  0  # atno 17371 bound_to 10713
  139.8708  134.9743  156.4842 LP  0  0  0  0  0  0  0  0  0  0  0  0  # atno 17394 bound_to 11000
  140.8649  133.8032  155.9303 LP  0  0  0  0  0  0  0  0  0  0  0  0  # atno 17395 bound_to 11000

$$$$
