#       Name:                AV-unprocessed.smi:157
#       Creating user name   scv26
#       Creation time:       Thu Mar 26 19:00:58 2020


#       File generated by GOLD software.
#

@<TRIPOS>MOLECULE
AV-unprocessed.smi:157
    45    47     1
SMALL
NO_CHARGES


@<TRIPOS>ATOM
      1 ****        -4.6590   3.2094  -1.0441 O.3            1 S1                 0.0000
      2 ****        -4.0896   1.9319  -0.8540 C.3            1 S1                 0.0000
      3 ****        -2.5554   2.0222  -0.8550 C.3            1 S1                 0.0000
      4 ****        -2.0021   0.7044  -0.8866 O.3            1 S1                 0.0000
      5 ****        -1.0886   0.5491   0.1549 C.3            1 S1                 0.0000
      6 ****         0.0758  -0.2497  -0.3302 N.pl3          1 S1                 0.0000
      7 ****         0.4773  -0.3962  -1.6108 C.2            1 S1                 0.0000
      8 ****         1.5502  -1.1549  -1.7608 N.pl3          1 S1                 1.0000
      9 ****         1.9246  -1.5577  -0.4962 C.2            1 S1                 0.0000
     10 ****         0.9930  -0.9908   0.3772 C.2            1 S1                 0.0000
     11 ****         0.9027  -1.0733   1.7752 N.2            1 S1                 0.0000
     12 ****         1.5385  -1.9600   2.4697 C.2            1 S1                 0.0000
     13 ****         2.4591  -2.9043   2.0473 N.pl3          1 S1                 0.0000
     14 ****         3.5603  -2.5943   1.1527 C.3            1 S1                 0.0000
     15 ****         3.1353  -2.4180  -0.3111 C.3            1 S1                 0.0000
     16 ****         2.9872  -3.6957  -0.8949 O.3            1 S1                 0.0000
     17 ****        -0.6474   1.9493   0.5513 C.3            1 S1                 0.0000
     18 ****        -1.9542   2.6938   0.3913 C.3            1 S1                 0.0000
     19 ****        -1.7234   4.0756   0.2098 O.3            1 S1                 0.0000
     20 ****        -2.2074   2.5230  -1.7603 H              1 S1                 0.0000
     21 ****        -1.5304  -0.0232   0.9718 H              1 S1                 0.0000
     22 ****         3.9624  -1.9416  -0.8389 H              1 S1                 0.0000
     23 ****        -2.5839   2.5301   1.2673 H              1 S1                 0.0000
     24 ****        -5.6002   3.1238  -1.0399 H              1 S1                 0.0000
     25 ****        -4.4569   1.4978   0.0764 H              1 S1                 0.0000
     26 ****        -4.4268   1.2863  -1.6655 H              1 S1                 0.0000
     27 ****        -0.0333   0.0676  -2.4359 H              1 S1                 0.0000
     28 ****         1.3666  -2.0095   3.5459 H              1 S1                 0.0000
     29 ****         2.6930  -3.6633   2.6715 H              1 S1                 0.0000
     30 ****         4.0134  -1.6658   1.5035 H              1 S1                 0.0000
     31 ****         4.3320  -3.3597   1.2417 H              1 S1                 0.0000
     32 ****         2.9127  -3.5966  -1.8314 H              1 S1                 0.0000
     33 ****        -0.2411   1.9694   1.5631 H              1 S1                 0.0000
     34 ****         0.1048   2.3096  -0.1533 H              1 S1                 0.0000
     35 ****        -1.1982   4.1959  -0.5663 H              1 S1                 0.0000
     36 ****         2.0076  -1.3838  -2.6342 H              1 S1                 0.0000
     37 ****        -4.3588   3.5849  -1.9210 LP             1 S1                 0.0000
     38 ****        -4.3729   3.8191  -0.3049 LP             1 S1                 0.0000
     39 ****        -1.5368   0.5608  -1.7601 LP             1 S1                 0.0000
     40 ****        -2.7369   0.0336  -0.7862 LP             1 S1                 0.0000
     41 ****         0.3209  -0.4173   2.2558 LP             1 S1                 0.0000
     42 ****         2.1633  -4.1351  -0.5371 LP             1 S1                 0.0000
     43 ****         3.7854  -4.2582  -0.6791 LP             1 S1                 0.0000
     44 ****        -1.2392   4.4430   1.0039 LP             1 S1                 0.0000
     45 ****        -2.5964   4.5512   0.1022 LP             1 S1                 0.0000
@<TRIPOS>BOND
    1    1    2 1     
    2    1   24 1     
    3    2    3 1     
    4    2   25 1     
    5    2   26 1     
    6    3   20 1     
    7    3   18 1     
    8    3    4 1     
    9    4    5 1     
   10    5   21 1     
   11    5    6 1     
   12    5   17 1     
   13    6   10 1     
   14    6    7 1     
   15    7    8 2     
   16    7   27 1     
   17    8    9 1     
   18    8   36 1     
   19    9   15 1     
   20    9   10 2     
   21   10   11 1     
   22   11   12 2     
   23   12   13 1     
   24   12   28 1     
   25   13   14 1     
   26   13   29 1     
   27   14   15 1     
   28   14   30 1     
   29   14   31 1     
   30   15   22 1     
   31   15   16 1     
   32   16   32 1     
   33   17   18 1     
   34   17   33 1     
   35   17   34 1     
   36   18   23 1     
   37   18   19 1     
   38   19   35 1     
   39    1   37 1     
   40    1   38 1     
   41    4   39 1     
   42    4   40 1     
   43   11   41 1     
   44   16   42 1     
   45   16   43 1     
   46   19   44 1     
   47   19   45 1     
@<TRIPOS>SUBSTRUCTURE
      1 S1             1
@<TRIPOS>SET
LONE_PAIRS      STATIC     ATOMS    <user>   **** ""
9 37 38 39 40 41 42 43 44 45
DONOR_HYDROGENS      STATIC     ATOMS    <user>   **** ""
5 24 36 29 32 35
ATOM$BLUE        STATIC     ATOMS    COLORGROUP SYSTEM
9 37 38 39 40 41 42 43 44 45
ATOM$RED        STATIC     ATOMS    COLORGROUP SYSTEM
5 24 36 29 32 35
