#       Name:                AV-unprocessed.smi:3286
#       Creating user name   scv26
#       Creation time:       Fri Mar 27 18:51:08 2020


#       File generated by GOLD software.
#

@<TRIPOS>MOLECULE
AV-unprocessed.smi:3286
    46    47     1
SMALL
NO_CHARGES


@<TRIPOS>ATOM
      1 ****        -0.3436   3.8357  -3.2937 C.3            1 S1                 0.0000
      2 ****        -0.7851   3.2577  -1.9654 C.ar           1 S1                 0.0000
      3 ****        -0.1643   3.6546  -0.7623 C.ar           1 S1                 0.0000
      4 ****        -0.6142   3.0860   0.4444 C.ar           1 S1                 0.0000
      5 ****        -1.6633   2.1443   0.4034 C.ar           1 S1                 0.0000
      6 ****        -2.1693   1.4788   1.6711 C.3            1 S1                 0.0000
      7 ****        -1.7490   0.0046   1.7664 C.3            1 S1                 0.0000
      8 ****        -0.2777  -0.1328   1.7773 N.4            1 S1                 1.0000
      9 ****         0.2224  -1.5222   1.6804 C.3            1 S1                 0.0000
     10 ****         1.0349  -1.8333   2.9487 C.3            1 S1                 0.0000
     11 ****         1.0358  -1.7056   0.3717 C.3            1 S1                 0.0000
     12 ****         0.1888  -1.4089  -0.8850 C.3            1 S1                 0.0000
     13 ****         0.9857  -1.6660  -2.1736 C.3            1 S1                 0.0000
     14 ****         1.4531  -3.0084  -2.1932 O.3            1 S1                 0.0000
     15 ****         2.3448  -3.2938  -1.1231 C.3            1 S1                 0.0000
     16 ****         1.6223  -3.1247   0.2233 C.3            1 S1                 0.0000
     17 ****        -2.2231   1.8241  -0.8521 C.ar           1 S1                 0.0000
     18 ****        -1.7945   2.3607  -2.0140 N.ar           1 S1                 0.0000
     19 ****         0.6312   4.3169  -3.2086 H              1 S1                 0.0000
     20 ****        -1.0629   4.5789  -3.6384 H              1 S1                 0.0000
     21 ****        -0.2683   3.0527  -4.0491 H              1 S1                 0.0000
     22 ****         0.6383   4.3777  -0.7626 H              1 S1                 0.0000
     23 ****        -0.1551   3.3650   1.3817 H              1 S1                 0.0000
     24 ****        -1.8096   2.0274   2.5430 H              1 S1                 0.0000
     25 ****        -3.2573   1.5527   1.6916 H              1 S1                 0.0000
     26 ****        -2.1548  -0.4437   2.6740 H              1 S1                 0.0000
     27 ****        -2.1620  -0.5502   0.9227 H              1 S1                 0.0000
     28 ****         0.0894   0.3846   0.9911 H              1 S1                 0.0000
     29 ****        -0.6257  -2.2092   1.6587 H              1 S1                 0.0000
     30 ****         1.3190  -2.8838   3.0011 H              1 S1                 0.0000
     31 ****         0.4525  -1.6211   3.8461 H              1 S1                 0.0000
     32 ****         1.9458  -1.2354   2.9957 H              1 S1                 0.0000
     33 ****         1.8699  -1.0017   0.3876 H              1 S1                 0.0000
     34 ****        -0.7056  -2.0334  -0.8848 H              1 S1                 0.0000
     35 ****        -0.1550  -0.3747  -0.8866 H              1 S1                 0.0000
     36 ****         0.3507  -1.5030  -3.0446 H              1 S1                 0.0000
     37 ****         1.8249  -0.9737  -2.2579 H              1 S1                 0.0000
     38 ****         2.7033  -4.3179  -1.2283 H              1 S1                 0.0000
     39 ****         3.2198  -2.6442  -1.1800 H              1 S1                 0.0000
     40 ****         2.3293  -3.3385   1.0243 H              1 S1                 0.0000
     41 ****         0.8255  -3.8655   0.3018 H              1 S1                 0.0000
     42 ****        -3.0266   1.1061  -0.9275 H              1 S1                 0.0000
     43 ****         0.0782   0.2826   2.6262 H              1 S1                 0.0000
     44 ****         1.9291  -3.1690  -3.0579 LP             1 S1                 0.0000
     45 ****         0.6665  -3.6222  -2.1267 LP             1 S1                 0.0000
     46 ****        -2.2117   2.1021  -2.8853 LP             1 S1                 0.0000
@<TRIPOS>BOND
    1    1    2 1     
    2    1   19 1     
    3    1   20 1     
    4    1   21 1     
    5    2   18 ar    
    6    2    3 ar    
    7    3    4 ar    
    8    3   22 1     
    9    4    5 ar    
   10    4   23 1     
   11    5    6 1     
   12    5   17 ar    
   13    6    7 1     
   14    6   24 1     
   15    6   25 1     
   16    7    8 1     
   17    7   26 1     
   18    7   27 1     
   19    8    9 1     
   20    8   28 1     
   21    8   43 1     
   22    9   10 1     
   23    9   11 1     
   24    9   29 1     
   25   10   30 1     
   26   10   31 1     
   27   10   32 1     
   28   11   16 1     
   29   11   12 1     
   30   11   33 1     
   31   12   13 1     
   32   12   34 1     
   33   12   35 1     
   34   13   14 1     
   35   13   36 1     
   36   13   37 1     
   37   14   15 1     
   38   15   16 1     
   39   15   38 1     
   40   15   39 1     
   41   16   40 1     
   42   16   41 1     
   43   17   18 ar    
   44   17   42 1     
   45   14   44 1     
   46   14   45 1     
   47   18   46 1     
@<TRIPOS>SUBSTRUCTURE
      1 S1             1
@<TRIPOS>SET
LONE_PAIRS      STATIC     ATOMS    <user>   **** ""
3 44 45 46
DONOR_HYDROGENS      STATIC     ATOMS    <user>   **** ""
2 28 43
ATOM$BLUE        STATIC     ATOMS    COLORGROUP SYSTEM
3 44 45 46
ATOM$RED        STATIC     ATOMS    COLORGROUP SYSTEM
2 28 43
