AV-unprocessed.smi:1100|AV-procd|sdf|4764|dock9
  -GOLD-   22720 3303D 1   1.00000     0.00000
 Structure written by MMmdl.
 43 44  0  0  0  0  0  0  0  0  3 V2000
  148.0273  140.9802  154.3012 C   0  0  0  0  0  0  0  0  0  0  0  0
  148.6275  139.6640  153.7448 C   0  0  1  0  0  0  0  0  0  0  0  0
  149.8162  139.1049  154.5710 C   0  0  0  0  0  0  0  0  0  0  0  0
  150.6374  140.1966  155.0935 N   0  5  0  0  0  0  0  0  0  0  0  0
  151.6167  140.0493  156.0268 C   0  0  0  0  0  0  0  0  0  0  0  0
  152.5741  139.2683  155.9891 O   0  0  0  0  0  0  0  0  0  0  0  0
  151.4317  140.8711  157.0790 N   0  0  0  0  0  0  0  0  0  0  0  0
  152.2317  141.0831  158.2131 C   0  0  0  0  0  0  0  0  0  0  0  0
  153.0771  139.9932  158.6516 C   0  0  0  0  0  0  0  0  0  0  0  0
  153.8493  140.1054  159.7497 C   0  0  0  0  0  0  0  0  0  0  0  0
  153.8695  141.3323  160.5495 C   0  0  0  0  0  0  0  0  0  0  0  0
  154.5672  141.4480  161.5578 O   0  0  0  0  0  0  0  0  0  0  0  0
  153.0625  142.3387  160.1047 N   0  0  0  0  0  0  0  0  0  0  0  0
  153.0059  143.6050  160.8398 C   0  0  0  0  0  0  0  0  0  0  0  0
  152.2505  142.2083  158.9615 C   0  0  0  0  0  0  0  0  0  0  0  0
  147.5963  138.6018  153.5258 N   0  3  0  0  0  0  0  0  0  0  0  0
  147.0172  137.9707  154.7448 C   0  0  0  0  0  0  0  0  0  0  0  0
  146.1083  136.7967  154.3482 C   0  0  0  0  0  0  0  0  0  0  0  0
  145.0802  137.2657  153.4842 O   0  0  0  0  0  0  0  0  0  0  0  0
  145.6038  137.8101  152.2789 C   0  0  0  0  0  0  0  0  0  0  0  0
  146.5125  139.0096  152.5973 C   0  0  0  0  0  0  0  0  0  0  0  0
  148.7588  141.7901  154.3052 H   0  0  0  0  0  0  0  0  0  0  0  0
  147.6554  140.8762  155.3220 H   0  0  0  0  0  0  0  0  0  0  0  0
  147.1961  141.3194  153.6830 H   0  0  0  0  0  0  0  0  0  0  0  0
  149.0405  139.9004  152.7624 H   0  0  0  0  0  0  0  0  0  0  0  0
  149.4312  138.4683  155.3684 H   0  0  0  0  0  0  0  0  0  0  0  0
  150.4009  138.4464  153.9265 H   0  0  0  0  0  0  0  0  0  0  0  0
  150.5847  141.4194  157.0535 H   0  0  0  0  0  0  0  0  0  0  0  0
  153.0929  139.0705  158.0899 H   0  0  0  0  0  0  0  0  0  0  0  0
  154.4683  139.2725  160.0487 H   0  0  0  0  0  0  0  0  0  0  0  0
  152.4300  144.3698  160.3177 H   0  0  0  0  0  0  0  0  0  0  0  0
  154.0071  144.0102  160.9946 H   0  0  0  0  0  0  0  0  0  0  0  0
  152.5444  143.4549  161.8166 H   0  0  0  0  0  0  0  0  0  0  0  0
  151.6425  143.0768  158.7642 H   0  0  0  0  0  0  0  0  0  0  0  0
  147.8065  137.6114  155.4057 H   0  0  0  0  0  0  0  0  0  0  0  0
  146.4333  138.7001  155.3075 H   0  0  0  0  0  0  0  0  0  0  0  0
  146.6811  136.0056  153.8613 H   0  0  0  0  0  0  0  0  0  0  0  0
  145.6508  136.3593  155.2357 H   0  0  0  0  0  0  0  0  0  0  0  0
  146.1515  137.0430  151.7291 H   0  0  0  0  0  0  0  0  0  0  0  0
  144.7751  138.1251  151.6444 H   0  0  0  0  0  0  0  0  0  0  0  0
  145.9295  139.8166  153.0432 H   0  0  0  0  0  0  0  0  0  0  0  0
  146.9367  139.3935  151.6688 H   0  0  0  0  0  0  0  0  0  0  0  0
  148.0937  137.8674  153.0421 H   0  0  0  0  0  0  0  0  0  0  0  0
  1  2  1  0  0  0  0
  1 22  1  0  0  0  0
  1 23  1  0  0  0  0
  1 24  1  0  0  0  0
  2  3  1  0  0  0  0
  2 16  1  0  0  0  0
  2 25  1  0  0  0  0
  3  4  1  0  0  0  0
  3 26  1  0  0  0  0
  3 27  1  0  0  0  0
  4  5  1  0  0  0  0
  5  6  2  0  0  0  0
  5  7  1  0  0  0  0
  7  8  1  0  0  0  0
  7 28  1  0  0  0  0
  8 15  2  0  0  0  0
  8  9  1  0  0  0  0
  9 10  2  0  0  0  0
  9 29  1  0  0  0  0
 10 11  1  0  0  0  0
 10 30  1  0  0  0  0
 11 12  2  0  0  0  0
 11 13  1  0  0  0  0
 13 14  1  0  0  0  0
 13 15  1  0  0  0  0
 14 31  1  0  0  0  0
 14 32  1  0  0  0  0
 14 33  1  0  0  0  0
 15 34  1  0  0  0  0
 16 21  1  0  0  0  0
 16 17  1  0  0  0  0
 16 43  1  0  0  0  0
 17 18  1  0  0  0  0
 17 35  1  0  0  0  0
 17 36  1  0  0  0  0
 18 19  1  0  0  0  0
 18 37  1  0  0  0  0
 18 38  1  0  0  0  0
 19 20  1  0  0  0  0
 20 21  1  0  0  0  0
 20 39  1  0  0  0  0
 20 40  1  0  0  0  0
 21 41  1  0  0  0  0
 21 42  1  0  0  0  0
M  CHG  1   4  -1
M  CHG  1  16   1
M  END
> <s_m_source_file>
AV-unprocessed.smi

> <i_m_source_file_index>
1100

> <i_lp_mmshare_version>
43012

> <i_f3d_flags>
0

> <s_epik_input>
W0NIMl0xW0NIMl1PW0NIMl1bQ0gyXU4xW0NASF0oW0NIM10pW0NIMl1bTkhdQyg9TylbTkhdYzJbY0hdW2NIXWMoPU8pbihbQ0gzXSlbY0hdMg==

> <s_epik_cmdline>
J2VwaWtfcHl0aG9uJywgJy1waCcsICc3LjAnLCAnLXRuJywgJzgnLCAnLW1hJywgJzIwMCcsICctbWV0YWxfYmluZGluZycsICctaW1hZScsICc8aW5maWxlLm1hZT4nLCAnLW9tYWUnLCAnPG91dGZpbGUubWFlPic=

> <r_lp_tautomer_probability>
1

> <r_epik_Ionization_Penalty>
6.79272

> <r_epik_Ionization_Penalty_Charging>
6.79272

> <r_epik_Ionization_Penalty_Neutral>
3.37009e-06

> <r_epik_State_Penalty>
7.34577

> <r_epik_Charging_Adjusted_Penalty>
14.1385

> <i_epik_Tot_Q>
0

> <i_epik_Tot_abs_Q>
2

> <r_epik_Metal_State_Penalty>
3.26257

> <b_epik_Metal_Only>
1

> <s_lp_Force_Field>
OPLS_2005

> <r_lp_Energy>
32.2868

> <b_lp_Chiralities_Consistent>
1

> <s_lp_Variant>
AV-unprocessed.smi:1100-6

> <Gold.Version>
5.8.1

> <Gold.Id.Protein>
6NUR|6NUR_protein|mol2

> <Gold.PLP.Fitness>
50.2117

> <Gold.PLP.PLP>
-39.9130

> <Gold.PLP.part.hbond>
-4.8542

> <Gold.PLP.part.metal>
0.0000

> <Gold.PLP.part.buried>
0.2520

> <Gold.PLP.part.nonpolar>
-36.7830

> <Gold.PLP.part.repulsive>
0.3741

> <Gold.PLP.ligand.clash>
0.0000

> <Gold.PLP.ligand.torsion>
0.9293

> <Gold.PLP.Chemscore.Hbond>
4.0000

> <Gold.PLP.Chemscore.CHOScore>
0.0000

> <Gold.PLP.Chemscore.Metal>
0.0000

> <Gold.Chemscore.Hbonds>
donor molecule, donor type, donor heavy atom, donor atom, acceptor molecule, acceptor atom, score
      L1  H    16    43       P1  7948  1.24
      P1  H  7989  7998       L1     4  1.00
      P1  H  7997  8010       L1     6  1.00

> <Gold.PLP.Chemscore.Internal.Correction>
0.1573

> <Gold.Rescore>
     Score         DG    S(hbond)    S(metal)    S(lipo)     H(rot)  DE(clash)    DE(int)     intcor
     14.99     -19.00       2.22        0.00      85.27       1.51       1.55       2.46       ----

> <Gold.Chemscore.Fitness>
14.9902

> <Gold.Chemscore.DG>
-19.0036

> <Gold.Chemscore.ZeroCoef>
-5.4800

> <Gold.Chemscore.Hbond>
2.2216

> <Gold.Chemscore.Metal>
0.0000

> <Gold.Chemscore.Lipo>
85.2665

> <Gold.Chemscore.Internal_Hbond>
0.0000

> <Gold.Chemscore.DEClash>
1.5507

> <Gold.Chemscore.DEInternal>
2.4628

> <Gold.Chemscore.Rot>
1.5128

> <Gold.Chemscore.Internal.Correction>
   9.000000E+99

> <Gold.Chemscore.Hbonds>
donor molecule, donor type, donor heavy atom, donor atom, acceptor molecule, acceptor atom, score
      L1  H    16    43       P1  7948  0.63
      P1  H  7989  7998       L1     4  0.17
      P1  H  7997  8010       L1     6  0.86

> <Gold.Chemscore.Hbond.Weighted>
-7.4201

> <Gold.Chemscore.Metal.Weighted>
-0.0000

> <Gold.Chemscore.Lipo.Weighted>
-9.9762

> <Gold.Chemscore.Internal_Hbond.Weighted>
0.0000

> <Gold.Chemscore.DEClash.Weighted>
1.5507

> <Gold.Chemscore.DEInternal.Weighted>
2.4628

> <Gold.Chemscore.Rot.Weighted>
3.8726

> <Gold.Chemscore.Internal.Correction.Weighted>
   9.000000E+99

> <Gold.Protein.RotatedTorsions>
[ 6907 6896 6895 6894 ] final -119.97 input  -60.11 | X-H torsion
[ 7974 7965 7964 7962 ] final  104.17 input  175.53 | X-H torsion
[ 8008 7997 7996 7995 ] final   82.69 input   59.86 | X-H torsion
[ 10167 10162 10161 10158 ] final  149.73 input  -65.29 | X-H torsion
[ 10718 10713 10712 10709 ] final -117.25 input   66.30 | X-H torsion
[ 10763 10752 10751 10750 ] final -146.43 input  -60.55 | X-H torsion
[ 11005 11000 10999 10996 ] final  132.57 input  -57.11 | X-H torsion

> <Gold.Protein.ActiveResidues>
 VAL166  LYS551  ARG553  GLY616  TRP617  ASP618  TYR619  PRO620  LYS621  CYS622 
 ASP623  PHE694  ASN695  SER759  ASP760  ASP761  ALA762  ILE779  LEU786  VAL792 
 PHE793  MET794  SER795  GLU796  ALA797  LYS798  CYS799  TRP800  GLU811  SER814 

> <Gold.Protein.RotatedAtoms>
  150.8351  133.8026  159.3082 H   0  0  0  0  0  0  0  0  0  0  0  0  # atno 6907 bound_to 6896
  151.5744  135.1059  160.0012 H   0  0  0  0  0  0  0  0  0  0  0  0  # atno 6908 bound_to 6896
  152.4425  133.7432  159.6709 H   0  0  0  0  0  0  0  0  0  0  0  0  # atno 6909 bound_to 6896
  145.3363  139.2473  143.3633 H   0  0  0  0  0  0  0  0  0  0  0  0  # atno 7974 bound_to 7965
  155.9140  140.3425  155.6120 H   0  0  0  0  0  0  0  0  0  0  0  0  # atno 8008 bound_to 7997
  155.7354  140.0801  157.2289 H   0  0  0  0  0  0  0  0  0  0  0  0  # atno 8009 bound_to 7997
  154.4060  140.1580  156.2543 H   0  0  0  0  0  0  0  0  0  0  0  0  # atno 8010 bound_to 7997
  139.4858  144.5579  151.7284 H   0  0  0  0  0  0  0  0  0  0  0  0  # atno 10167 bound_to 10162
  156.1020  130.6180  150.9140 H   0  0  0  0  0  0  0  0  0  0  0  0  # atno 10718 bound_to 10713
  154.8336  135.3386  154.6660 H   0  0  0  0  0  0  0  0  0  0  0  0  # atno 10763 bound_to 10752
  153.7277  135.6954  153.5001 H   0  0  0  0  0  0  0  0  0  0  0  0  # atno 10764 bound_to 10752
  153.2335  135.4408  155.0573 H   0  0  0  0  0  0  0  0  0  0  0  0  # atno 10765 bound_to 10752
  139.9798  134.9552  156.9600 H   0  0  0  0  0  0  0  0  0  0  0  0  # atno 11005 bound_to 11000
  146.3025  140.3951  142.8699 LP  0  0  0  0  0  0  0  0  0  0  0  0  # atno 17320 bound_to 7965
  144.8825  140.7419  143.5978 LP  0  0  0  0  0  0  0  0  0  0  0  0  # atno 17321 bound_to 7965
  140.5143  144.0976  150.6004 LP  0  0  0  0  0  0  0  0  0  0  0  0  # atno 17342 bound_to 10162
  140.3913  143.2751  152.0057 LP  0  0  0  0  0  0  0  0  0  0  0  0  # atno 17343 bound_to 10162
  157.6192  131.0931  150.8654 LP  0  0  0  0  0  0  0  0  0  0  0  0  # atno 17370 bound_to 10713
  156.8780  130.5169  149.5292 LP  0  0  0  0  0  0  0  0  0  0  0  0  # atno 17371 bound_to 10713
  140.5120  134.0993  155.7272 LP  0  0  0  0  0  0  0  0  0  0  0  0  # atno 17394 bound_to 11000
  141.1471  133.9035  157.2188 LP  0  0  0  0  0  0  0  0  0  0  0  0  # atno 17395 bound_to 11000

$$$$
