#       Name:                AV-unprocessed.smi:1667
#       Creating user name   scv26
#       Creation time:       Fri Mar 27 07:38:48 2020


#       File generated by GOLD software.
#

@<TRIPOS>MOLECULE
AV-unprocessed.smi:1667
    50    52     1
SMALL
NO_CHARGES


@<TRIPOS>ATOM
      1 ****        -3.5881   1.2508   3.9290 C.3            1 S1                 0.0000
      2 ****        -3.0286   0.0511   3.1726 C.2            1 S1                 0.0000
      3 ****        -3.0626  -1.0658   3.6867 O.2            1 S1                 0.0000
      4 ****        -2.5185   0.3119   1.9562 N.am           1 S1                 0.0000
      5 ****        -1.9140  -0.6137   0.9896 C.3            1 S1                 0.0000
      6 ****        -2.7176  -1.9074   0.7632 C.3            1 S1                 0.0000
      7 ****        -0.4655  -0.8736   1.3373 C.2            1 S1                 0.0000
      8 ****        -0.0709  -1.2112   2.5685 N.2            1 S1                 0.0000
      9 ****         1.2937  -1.3585   2.4324 C.ar           1 S1                 0.0000
     10 ****         2.2811  -1.6975   3.3847 C.ar           1 S1                 0.0000
     11 ****         3.6363  -1.7898   3.0053 C.ar           1 S1                 0.0000
     12 ****         4.0217  -1.5460   1.6710 C.ar           1 S1                 0.0000
     13 ****         3.0526  -1.2079   0.7070 C.ar           1 S1                 0.0000
     14 ****         1.7012  -1.1165   1.0919 C.ar           1 S1                 0.0000
     15 ****         0.5273  -0.8159   0.4084 N.pl3          1 S1                 0.0000
     16 ****         0.4396  -0.5091  -1.0142 C.3            1 S1                 0.0000
     17 ****         0.7596   0.9674  -1.3244 C.3            1 S1                 0.0000
     18 ****        -0.0928   1.8247  -0.5885 O.3            1 S1                 0.0000
     19 ****         0.7001   1.2403  -2.8192 C.ar           1 S1                 0.0000
     20 ****         1.8886   1.2578  -3.5805 C.ar           1 S1                 0.0000
     21 ****         1.8402   1.5016  -4.9671 C.ar           1 S1                 0.0000
     22 ****         0.6030   1.7276  -5.6005 C.ar           1 S1                 0.0000
     23 ****        -0.5863   1.7073  -4.8474 C.ar           1 S1                 0.0000
     24 ****        -1.7766   1.9213  -5.4560 F              1 S1                 0.0000
     25 ****        -0.5385   1.4622  -3.4613 C.ar           1 S1                 0.0000
     26 ****        -1.9579  -0.0522   0.0591 H              1 S1                 0.0000
     27 ****        -4.4521   1.6606   3.4050 H              1 S1                 0.0000
     28 ****        -2.8330   2.0324   4.0172 H              1 S1                 0.0000
     29 ****        -3.9012   0.9650   4.9336 H              1 S1                 0.0000
     30 ****        -2.5470   1.2767   1.6602 H              1 S1                 0.0000
     31 ****        -2.3109  -2.4681  -0.0788 H              1 S1                 0.0000
     32 ****        -3.7620  -1.6892   0.5390 H              1 S1                 0.0000
     33 ****        -2.6881  -2.5670   1.6304 H              1 S1                 0.0000
     34 ****         1.9947  -1.8865   4.4087 H              1 S1                 0.0000
     35 ****         4.3832  -2.0489   3.7414 H              1 S1                 0.0000
     36 ****         5.0616  -1.6192   1.3881 H              1 S1                 0.0000
     37 ****         3.3447  -1.0208  -0.3156 H              1 S1                 0.0000
     38 ****         1.1474  -1.1520  -1.5391 H              1 S1                 0.0000
     39 ****        -0.5412  -0.7916  -1.3949 H              1 S1                 0.0000
     40 ****         1.7733   1.1804  -0.9821 H              1 S1                 0.0000
     41 ****         0.2002   2.7148  -0.7118 H              1 S1                 0.0000
     42 ****         2.8421   1.0826  -3.1041 H              1 S1                 0.0000
     43 ****         2.7521   1.5148  -5.5456 H              1 S1                 0.0000
     44 ****         0.5662   1.9145  -6.6636 H              1 S1                 0.0000
     45 ****        -1.4569   1.4432  -2.8930 H              1 S1                 0.0000
     46 ****        -3.4564  -1.1849   4.5982 LP             1 S1                 0.0000
     47 ****        -2.6965  -1.8547   3.1932 LP             1 S1                 0.0000
     48 ****        -0.6296  -1.3286   3.3896 LP             1 S1                 0.0000
     49 ****        -0.0537   1.5877   0.3823 LP             1 S1                 0.0000
     50 ****        -1.0325   1.7299  -0.9171 LP             1 S1                 0.0000
@<TRIPOS>BOND
    1    1    2 1     
    2    1   27 1     
    3    1   28 1     
    4    1   29 1     
    5    2    3 2     
    6    2    4 am    
    7    4    5 1     
    8    4   30 1     
    9    5   26 1     
   10    5    6 1     
   11    5    7 1     
   12    6   31 1     
   13    6   32 1     
   14    6   33 1     
   15    7   15 1     
   16    7    8 2     
   17    8    9 1     
   18    9   14 ar    
   19    9   10 ar    
   20   10   11 ar    
   21   10   34 1     
   22   11   12 ar    
   23   11   35 1     
   24   12   13 ar    
   25   12   36 1     
   26   13   14 ar    
   27   13   37 1     
   28   14   15 1     
   29   15   16 1     
   30   16   17 1     
   31   16   38 1     
   32   16   39 1     
   33   17   18 1     
   34   17   19 1     
   35   17   40 1     
   36   18   41 1     
   37   19   25 ar    
   38   19   20 ar    
   39   20   21 ar    
   40   20   42 1     
   41   21   22 ar    
   42   21   43 1     
   43   22   23 ar    
   44   22   44 1     
   45   23   24 1     
   46   23   25 ar    
   47   25   45 1     
   48    3   46 1     
   49    3   47 1     
   50    8   48 1     
   51   18   49 1     
   52   18   50 1     
@<TRIPOS>SUBSTRUCTURE
      1 S1             1
@<TRIPOS>SET
LONE_PAIRS      STATIC     ATOMS    <user>   **** ""
5 46 47 48 49 50
DONOR_HYDROGENS      STATIC     ATOMS    <user>   **** ""
2 30 41
ATOM$BLUE        STATIC     ATOMS    COLORGROUP SYSTEM
5 46 47 48 49 50
ATOM$RED        STATIC     ATOMS    COLORGROUP SYSTEM
2 30 41
