#       Name:                AV-unprocessed.smi:2093
#       Creating user name   scv26
#       Creation time:       Fri Mar 27 11:27:11 2020


#       File generated by GOLD software.
#

@<TRIPOS>MOLECULE
AV-unprocessed.smi:2093
    36    37     1
SMALL
NO_CHARGES


@<TRIPOS>ATOM
      1 ****        -1.8207  -0.5207  -1.4739 C.3            1 S1                 0.0000
      2 ****        -1.0645  -0.1816  -0.1764 C.3            1 S1                 0.0000
      3 ****         0.3755  -0.2894  -0.4022 N.am           1 S1                 0.0000
      4 ****         1.1635   0.6433  -0.9564 C.2            1 S1                 0.0000
      5 ****         0.6788   1.7096  -1.3425 O.2            1 S1                 0.0000
      6 ****         2.4649   0.2819  -1.0297 N.pl3          1 S1                -1.0000
      7 ****         3.3658   1.1183  -1.5703 C.2            1 S1                 0.0000
      8 ****         3.8361   0.9764  -2.8147 N.2            1 S1                 0.0000
      9 ****         4.7685   1.9525  -3.1705 C.2            1 S1                 0.0000
     10 ****         5.0213   2.8535  -2.1706 C.2            1 S1                 0.0000
     11 ****         4.0903   2.5003  -0.7430 S.3            1 S1                 0.0000
     12 ****        -1.4629  -1.1075   0.9897 C.3            1 S1                 0.0000
     13 ****        -2.9388  -1.0387   1.3843 C.3            1 S1                 0.0000
     14 ****        -2.8997  -1.5405   2.8093 C.3            1 S1                 0.0000
     15 ****        -1.5978  -0.9331   3.3240 C.3            1 S1                 0.0000
     16 ****        -0.7686  -0.7414   2.1806 O.3            1 S1                 0.0000
     17 ****        -2.8972  -0.4034  -1.3497 H              1 S1                 0.0000
     18 ****        -1.6305  -1.5481  -1.7859 H              1 S1                 0.0000
     19 ****        -1.5189   0.1353  -2.2911 H              1 S1                 0.0000
     20 ****        -1.3020   0.8448   0.1091 H              1 S1                 0.0000
     21 ****         0.8187  -1.1438  -0.0979 H              1 S1                 0.0000
     22 ****         5.2038   1.9283  -4.1583 H              1 S1                 0.0000
     23 ****         5.6945   3.6970  -2.1847 H              1 S1                 0.0000
     24 ****        -1.2030  -2.1421   0.7579 H              1 S1                 0.0000
     25 ****        -3.2963  -0.0083   1.3612 H              1 S1                 0.0000
     26 ****        -3.5815  -1.6399   0.7407 H              1 S1                 0.0000
     27 ****        -3.7701  -1.2422   3.3943 H              1 S1                 0.0000
     28 ****        -2.8365  -2.6296   2.8197 H              1 S1                 0.0000
     29 ****        -1.7823   0.0388   3.7830 H              1 S1                 0.0000
     30 ****        -1.1116  -1.5700   4.0633 H              1 S1                 0.0000
     31 ****        -0.3017   1.8785  -1.2422 LP             1 S1                 0.0000
     32 ****         1.2663   2.4053  -1.7558 LP             1 S1                 0.0000
     33 ****         2.7565  -0.6088  -0.6810 LP             1 S1                 0.0000
     34 ****         3.5479   0.2427  -3.4299 LP             1 S1                 0.0000
     35 ****        -0.5042   0.2214   2.1241 LP             1 S1                 0.0000
     36 ****         0.0510  -1.3074   2.2704 LP             1 S1                 0.0000
@<TRIPOS>BOND
    1    1    2 1     
    2    1   17 1     
    3    1   18 1     
    4    1   19 1     
    5    2    3 1     
    6    2   12 1     
    7    2   20 1     
    8    3    4 am    
    9    3   21 1     
   10    4    5 2     
   11    4    6 1     
   12    6    7 1     
   13    7   11 1     
   14    7    8 2     
   15    8    9 1     
   16    9   10 2     
   17    9   22 1     
   18   10   11 1     
   19   10   23 1     
   20   12   16 1     
   21   12   13 1     
   22   12   24 1     
   23   13   14 1     
   24   13   25 1     
   25   13   26 1     
   26   14   15 1     
   27   14   27 1     
   28   14   28 1     
   29   15   16 1     
   30   15   29 1     
   31   15   30 1     
   32    5   31 1     
   33    5   32 1     
   34    6   33 1     
   35    8   34 1     
   36   16   35 1     
   37   16   36 1     
@<TRIPOS>SUBSTRUCTURE
      1 S1             1
@<TRIPOS>SET
LONE_PAIRS      STATIC     ATOMS    <user>   **** ""
6 31 32 33 34 35 36
DONOR_HYDROGENS      STATIC     ATOMS    <user>   **** ""
1 21
ATOM$BLUE        STATIC     ATOMS    COLORGROUP SYSTEM
6 31 32 33 34 35 36
ATOM$RED        STATIC     ATOMS    COLORGROUP SYSTEM
1 21
