AV-unprocessed.smi:278|AV-procd|sdf|2090|dock9
  -GOLD-   2262021373D 1   1.00000     0.00000
 Structure written by MMmdl.
 50 54  0  0  0  0  0  0  0  0  1 V2000
  150.0303  143.9807  159.9224 O   0  0  0  0  0  0  0  0  0  0  0  0
  151.4126  144.4676  159.7954 S   0  0  0  0  0  0  0  0  0  0  0  0
  151.7152  145.9067  159.8023 O   0  0  0  0  0  0  0  0  0  0  0  0
  152.4618  143.6035  161.0104 C   0  0  0  0  0  0  0  0  0  0  0  0
  152.6957  142.2095  160.4102 C   0  0  0  0  0  0  0  0  0  0  0  0
  152.6866  142.2864  158.8605 C   0  0  1  0  0  0  0  0  0  0  0  0
  151.7092  141.3151  158.1902 C   0  0  0  0  0  0  0  0  0  0  0  0
  151.3284  141.9580  156.9428 N   0  0  0  0  0  0  0  0  0  0  0  0
  150.2486  141.4306  156.3280 C   0  0  0  0  0  0  0  0  0  0  0  0
  150.4588  140.8272  155.1329 N   0  0  0  0  0  0  0  0  0  0  0  0
  149.4326  140.2899  154.4660 C   0  0  0  0  0  0  0  0  0  0  0  0
  148.1431  140.2487  154.8090 N   0  0  0  0  0  0  0  0  0  0  0  0
  147.9300  140.8545  156.0122 C   0  0  0  0  0  0  0  0  0  0  0  0
  148.9176  141.4669  156.8336 C   0  0  0  0  0  0  0  0  0  0  0  0
  148.3255  141.9805  157.9815 N   0  0  0  0  0  0  0  0  0  0  0  0
  147.0604  141.6906  157.8459 C   0  0  0  0  0  0  0  0  0  0  0  0
  146.7352  141.0168  156.6908 N   0  0  0  0  0  0  0  0  0  0  0  0
  145.4110  140.5797  156.2853 C   0  0  0  0  0  0  0  0  0  0  0  0
  144.4785  141.7620  155.9580 C   0  0  1  0  0  0  0  0  0  0  0  0
  144.7192  142.2405  154.6480 O   0  0  0  0  0  0  0  0  0  0  0  0
  142.9870  141.4160  156.1473 C   0  0  1  0  0  0  0  0  0  0  0  0
  141.9823  142.5328  155.8451 C   0  0  0  0  0  0  0  0  0  0  0  0
  140.7403  141.7353  155.5141 C   0  0  0  0  0  0  0  0  0  0  0  0
  141.3294  140.5516  154.7520 C   0  0  0  0  0  0  0  0  0  0  0  0
  142.5935  140.2958  155.3567 O   0  0  0  0  0  0  0  0  0  0  0  0
  151.2620  143.3918  157.1899 C   0  0  0  0  0  0  0  0  0  0  0  0
  152.2159  143.6609  158.3620 C   0  0  1  0  0  0  0  0  0  0  0  0
  153.6900  142.1060  158.4715 H   0  0  0  0  0  0  0  0  0  0  0  0
  153.0680  144.2715  158.0615 H   0  0  0  0  0  0  0  0  0  0  0  0
  153.4008  144.1512  161.0931 H   0  0  0  0  0  0  0  0  0  0  0  0
  151.9767  143.5818  161.9864 H   0  0  0  0  0  0  0  0  0  0  0  0
  153.6260  141.7770  160.7789 H   0  0  0  0  0  0  0  0  0  0  0  0
  151.8974  141.5506  160.7527 H   0  0  0  0  0  0  0  0  0  0  0  0
  152.1714  140.3448  158.0069 H   0  0  0  0  0  0  0  0  0  0  0  0
  150.8310  141.1552  158.8160 H   0  0  0  0  0  0  0  0  0  0  0  0
  149.6793  139.8280  153.5214 H   0  0  0  0  0  0  0  0  0  0  0  0
  146.3246  141.9655  158.5876 H   0  0  0  0  0  0  0  0  0  0  0  0
  145.5102  139.9176  155.4243 H   0  0  0  0  0  0  0  0  0  0  0  0
  144.9887  139.9792  157.0919 H   0  0  0  0  0  0  0  0  0  0  0  0
  144.7172  142.5844  156.6336 H   0  0  0  0  0  0  0  0  0  0  0  0
  144.5640  141.5355  154.0383 H   0  0  0  0  0  0  0  0  0  0  0  0
  142.8376  141.1101  157.1840 H   0  0  0  0  0  0  0  0  0  0  0  0
  141.8421  143.2163  156.6827 H   0  0  0  0  0  0  0  0  0  0  0  0
  142.2787  143.1190  154.9746 H   0  0  0  0  0  0  0  0  0  0  0  0
  140.2577  141.3922  156.4301 H   0  0  0  0  0  0  0  0  0  0  0  0
  140.0109  142.2982  154.9311 H   0  0  0  0  0  0  0  0  0  0  0  0
  140.6864  139.6716  154.7796 H   0  0  0  0  0  0  0  0  0  0  0  0
  141.4937  140.8181  153.7072 H   0  0  0  0  0  0  0  0  0  0  0  0
  151.5894  143.9286  156.2990 H   0  0  0  0  0  0  0  0  0  0  0  0
  150.2471  143.7219  157.4112 H   0  0  0  0  0  0  0  0  0  0  0  0
  1  2  2  0  0  0  0
  2 27  1  0  0  0  0
  2  3  2  0  0  0  0
  2  4  1  0  0  0  0
  4  5  1  0  0  0  0
  4 30  1  0  0  0  0
  4 31  1  0  0  0  0
  5  6  1  0  0  0  0
  5 32  1  0  0  0  0
  5 33  1  0  0  0  0
  6 28  1  0  0  0  0
  6 27  1  0  0  0  0
  6  7  1  0  0  0  0
  7  8  1  0  0  0  0
  7 34  1  0  0  0  0
  7 35  1  0  0  0  0
  8  9  1  0  0  0  0
  8 26  1  0  0  0  0
  9 14  1  0  0  0  0
  9 10  2  0  0  0  0
 10 11  1  0  0  0  0
 11 12  2  0  0  0  0
 11 36  1  0  0  0  0
 12 13  1  0  0  0  0
 13 17  1  0  0  0  0
 13 14  2  0  0  0  0
 14 15  1  0  0  0  0
 15 16  2  0  0  0  0
 16 17  1  0  0  0  0
 16 37  1  0  0  0  0
 17 18  1  0  0  0  0
 18 19  1  0  0  0  0
 18 38  1  0  0  0  0
 18 39  1  0  0  0  0
 19 20  1  0  0  0  0
 19 21  1  0  0  0  0
 19 40  1  0  0  0  0
 20 41  1  0  0  0  0
 21 25  1  0  0  0  0
 21 22  1  0  0  0  0
 21 42  1  0  0  0  0
 22 23  1  0  0  0  0
 22 43  1  0  0  0  0
 22 44  1  0  0  0  0
 23 24  1  0  0  0  0
 23 45  1  0  0  0  0
 23 46  1  0  0  0  0
 24 25  1  0  0  0  0
 24 47  1  0  0  0  0
 24 48  1  0  0  0  0
 26 27  1  0  0  0  0
 26 49  1  0  0  0  0
 26 50  1  0  0  0  0
 27 29  1  0  0  0  0
M  END
> <s_m_source_file>
AV-unprocessed.smi

> <i_m_source_file_index>
278

> <i_lp_mmshare_version>
43012

> <i_f3d_flags>
0

> <s_epik_input>
W0NIMl0xW0NIMl1TKD1PKSg9TylbQ0BASF0oW0NAQEhdMTIpW0NIMl1OKFtDSDJdMiljKG5bY0hdbjMpYyhjMzQpbltjSF1uNFtDSDJdW0NASF0oW09IXSlbQ0BASF01W0NIMl1bQ0gyXVtDSDJdTzU=

> <s_epik_cmdline>
J2VwaWtfcHl0aG9uJywgJy1waCcsICc3LjAnLCAnLXRuJywgJzgnLCAnLW1hJywgJzIwMCcsICctbWV0YWxfYmluZGluZycsICctaW1hZScsICc8aW5maWxlLm1hZT4nLCAnLW9tYWUnLCAnPG91dGZpbGUubWFlPic=

> <r_lp_tautomer_probability>
1

> <r_epik_Ionization_Penalty>
0.000636766

> <r_epik_Ionization_Penalty_Charging>
0

> <r_epik_Ionization_Penalty_Neutral>
0.000636766

> <r_epik_State_Penalty>
0.000329976

> <r_epik_Charging_Adjusted_Penalty>
0.000329976

> <i_epik_Tot_Q>
0

> <i_epik_Tot_abs_Q>
0

> <r_epik_Metal_State_Penalty>
-0

> <b_epik_Metal_Only>
0

> <s_lp_Force_Field>
OPLS_2005

> <r_lp_Energy>
54.1016

> <b_lp_Chiralities_Consistent>
1

> <s_lp_Variant>
AV-unprocessed.smi:278-4

> <Gold.Version>
5.8.1

> <Gold.Id.Protein>
6NUR|6NUR_protein|mol2

> <Gold.PLP.Fitness>
45.3990

> <Gold.PLP.PLP>
-38.5171

> <Gold.PLP.part.hbond>
-3.9869

> <Gold.PLP.part.metal>
0.0000

> <Gold.PLP.part.buried>
-4.0199

> <Gold.PLP.part.nonpolar>
-30.8196

> <Gold.PLP.part.repulsive>
1.5648

> <Gold.PLP.ligand.clash>
0.0000

> <Gold.PLP.ligand.torsion>
0.3692

> <Gold.PLP.Chemscore.Hbond>
1.5162

> <Gold.PLP.Chemscore.CHOScore>
1.0000

> <Gold.PLP.Chemscore.Metal>
0.0000

> <Gold.Chemscore.Hbonds>
donor molecule, donor type, donor heavy atom, donor atom, acceptor molecule, acceptor atom, score
      L1  H    20    41       P1 10175  0.90
      P1  H  7989  7998       L1    10  0.53
      L1  C    11    36       P1  7957  1.00

> <Gold.PLP.Chemscore.Internal.Correction>
0.0717

> <Gold.Rescore>
     Score         DG    S(hbond)    S(metal)    S(lipo)     H(rot)  DE(clash)    DE(int)     intcor
     10.53     -11.41       1.28        0.00      68.21       2.46       0.35       0.54       ----

> <Gold.Chemscore.Fitness>
10.5317

> <Gold.Chemscore.DG>
-11.4147

> <Gold.Chemscore.ZeroCoef>
-5.4800

> <Gold.Chemscore.Hbond>
1.2758

> <Gold.Chemscore.Metal>
0.0000

> <Gold.Chemscore.Lipo>
68.2082

> <Gold.Chemscore.Internal_Hbond>
0.0000

> <Gold.Chemscore.DEClash>
0.3472

> <Gold.Chemscore.DEInternal>
0.5358

> <Gold.Chemscore.Rot>
2.4636

> <Gold.Chemscore.Internal.Correction>
   9.000000E+99

> <Gold.Chemscore.Hbonds>
donor molecule, donor type, donor heavy atom, donor atom, acceptor molecule, acceptor atom, score
      L1  H    20    41       P1 10175  0.19
      P1  H  7989  7998       L1    10  0.04

> <Gold.Chemscore.Hbond.Weighted>
-4.2612

> <Gold.Chemscore.Metal.Weighted>
-0.0000

> <Gold.Chemscore.Lipo.Weighted>
-7.9804

> <Gold.Chemscore.Internal_Hbond.Weighted>
0.0000

> <Gold.Chemscore.DEClash.Weighted>
0.3472

> <Gold.Chemscore.DEInternal.Weighted>
0.5358

> <Gold.Chemscore.Rot.Weighted>
6.3068

> <Gold.Chemscore.Internal.Correction.Weighted>
   9.000000E+99

> <Gold.Protein.RotatedTorsions>
[ 6907 6896 6895 6894 ] final -141.47 input  -60.11 | X-H torsion
[ 7974 7965 7964 7962 ] final  -14.98 input  175.53 | X-H torsion
[ 8008 7997 7996 7995 ] final   90.89 input   59.86 | X-H torsion
[ 10167 10162 10161 10158 ] final -117.44 input  -65.29 | X-H torsion
[ 10718 10713 10712 10709 ] final  -91.54 input   66.30 | X-H torsion
[ 10763 10752 10751 10750 ] final  114.41 input  -60.55 | X-H torsion
[ 11005 11000 10999 10996 ] final   27.94 input  -57.11 | X-H torsion

> <Gold.Protein.ActiveResidues>
 VAL166  LYS551  ARG553  GLY616  TRP617  ASP618  TYR619  PRO620  LYS621  CYS622 
 ASP623  PHE694  ASN695  SER759  ASP760  ASP761  ALA762  ILE779  LEU786  VAL792 
 PHE793  MET794  SER795  GLU796  ALA797  LYS798  CYS799  TRP800  GLU811  SER814 

> <Gold.Protein.RotatedAtoms>
  151.0742  133.5441  159.2624 H   0  0  0  0  0  0  0  0  0  0  0  0  # atno 6907 bound_to 6896
  151.2369  135.0574  159.9019 H   0  0  0  0  0  0  0  0  0  0  0  0  # atno 6908 bound_to 6896
  152.5415  134.0523  159.8169 H   0  0  0  0  0  0  0  0  0  0  0  0  # atno 6909 bound_to 6896
  146.2051  140.3427  142.8409 H   0  0  0  0  0  0  0  0  0  0  0  0  # atno 7974 bound_to 7965
  156.0173  140.3344  155.7002 H   0  0  0  0  0  0  0  0  0  0  0  0  # atno 8008 bound_to 7997
  155.6072  140.0661  157.2734 H   0  0  0  0  0  0  0  0  0  0  0  0  # atno 8009 bound_to 7997
  154.4303  140.1800  156.1223 H   0  0  0  0  0  0  0  0  0  0  0  0  # atno 8010 bound_to 7997
  140.0684  143.4901  152.1993 H   0  0  0  0  0  0  0  0  0  0  0  0  # atno 10167 bound_to 10162
  155.9994  130.4952  150.5489 H   0  0  0  0  0  0  0  0  0  0  0  0  # atno 10718 bound_to 10713
  153.5068  135.3626  155.2567 H   0  0  0  0  0  0  0  0  0  0  0  0  # atno 10763 bound_to 10752
  154.8744  135.4013  154.3414 H   0  0  0  0  0  0  0  0  0  0  0  0  # atno 10764 bound_to 10752
  153.4060  135.7076  153.6459 H   0  0  0  0  0  0  0  0  0  0  0  0  # atno 10765 bound_to 10752
  140.3209  134.2544  155.7717 H   0  0  0  0  0  0  0  0  0  0  0  0  # atno 11005 bound_to 11000
  144.8774  140.7355  143.6008 LP  0  0  0  0  0  0  0  0  0  0  0  0  # atno 17320 bound_to 7965
  145.3346  139.1749  143.4518 LP  0  0  0  0  0  0  0  0  0  0  0  0  # atno 17321 bound_to 7965
  139.5851  144.7527  151.3541 LP  0  0  0  0  0  0  0  0  0  0  0  0  # atno 17342 bound_to 10162
  140.7138  143.7321  150.7616 LP  0  0  0  0  0  0  0  0  0  0  0  0  # atno 17343 bound_to 10162
  157.3415  131.0717  151.1784 LP  0  0  0  0  0  0  0  0  0  0  0  0  # atno 17370 bound_to 10713
  157.2631  130.6668  149.5984 LP  0  0  0  0  0  0  0  0  0  0  0  0  # atno 17371 bound_to 10713
  141.2087  133.7771  157.0044 LP  0  0  0  0  0  0  0  0  0  0  0  0  # atno 17394 bound_to 11000
  140.0943  134.9574  157.1825 LP  0  0  0  0  0  0  0  0  0  0  0  0  # atno 17395 bound_to 11000

$$$$
