AV-unprocessed.smi:165|AV-procd|sdf|1387|dock2
  -GOLD-   2262019123D 1   1.00000     0.00000
 Structure written by MMmdl.
 55 59  0  0  0  0  0  0  0  0  1 V2000
  146.1103  131.2053  151.8434 O   0  0  0  0  0  0  0  0  0  0  0  0
  145.2469  131.2655  150.7268 C   0  0  0  0  0  0  0  0  0  0  0  0
  144.8958  132.7141  150.3439 C   0  0  0  0  0  0  0  0  0  0  0  0
  144.1193  132.7176  149.0102 C   0  0  0  0  0  0  0  0  0  0  0  0
  142.9620  131.9088  149.0598 O   0  0  0  0  0  0  0  0  0  0  0  0
  144.2022  133.5168  151.4687 C   0  0  0  0  0  0  0  0  0  0  0  0
  145.0519  134.7374  151.1117 C   0  0  0  0  0  0  0  0  0  0  0  0
  145.4685  135.6772  152.1152 N   0  0  0  0  0  0  0  0  0  0  0  0
  145.3771  137.0492  152.0354 C   0  0  0  0  0  0  0  0  0  0  0  0
  145.8185  137.7000  153.0763 N   0  0  0  0  0  0  0  0  0  0  0  0
  146.2432  136.7022  153.9452 C   0  0  0  0  0  0  0  0  0  0  0  0
  146.8258  136.7053  155.2439 C   0  0  0  0  0  0  0  0  0  0  0  0
  147.0661  137.8495  155.9317 N   0  0  0  0  0  0  0  0  0  0  0  0
  145.9293  138.6725  156.3268 C   0  0  0  0  0  0  0  0  0  0  0  0
  146.3763  139.7129  157.3632 C   0  0  0  0  0  0  0  0  0  0  0  0
  147.4859  140.4588  156.8649 O   0  0  0  0  0  0  0  0  0  0  0  0
  148.6333  139.6892  156.4787 C   0  0  1  0  0  0  0  0  0  0  0  0
  149.6247  140.6716  155.8275 C   0  0  0  0  0  0  0  0  0  0  0  0
  150.2076  141.6363  156.8669 C   0  0  0  0  0  0  0  0  0  0  0  0
  150.8018  140.8546  158.0461 C   0  0  0  0  0  0  0  0  0  0  0  0
  149.8086  140.0076  158.6105 O   0  0  0  0  0  0  0  0  0  0  0  0
  149.3225  139.0255  157.7005 C   0  0  0  0  0  0  0  0  0  0  0  0
  148.1905  138.6367  155.4376 C   0  0  0  0  0  0  0  0  0  0  0  0
  147.1399  135.5015  155.7928 N   0  0  0  0  0  0  0  0  0  0  0  0
  146.8901  134.3713  155.1254 C   0  0  0  0  0  0  0  0  0  0  0  0
  146.3444  134.2193  153.9176 N   0  0  0  0  0  0  0  0  0  0  0  0
  146.0366  135.4232  153.3544 C   0  0  0  0  0  0  0  0  0  0  0  0
  146.0351  133.7517  150.4792 C   0  0  0  0  0  0  0  0  0  0  0  0
  146.9676  131.5001  151.5768 H   0  0  0  0  0  0  0  0  0  0  0  0
  145.7077  130.7349  149.8930 H   0  0  0  0  0  0  0  0  0  0  0  0
  144.3471  130.7061  150.9850 H   0  0  0  0  0  0  0  0  0  0  0  0
  143.8266  133.7298  148.7293 H   0  0  0  0  0  0  0  0  0  0  0  0
  144.7402  132.3465  148.1943 H   0  0  0  0  0  0  0  0  0  0  0  0
  142.2678  132.4016  149.4694 H   0  0  0  0  0  0  0  0  0  0  0  0
  143.1297  133.6615  151.3345 H   0  0  0  0  0  0  0  0  0  0  0  0
  144.4160  133.1316  152.4666 H   0  0  0  0  0  0  0  0  0  0  0  0
  144.5584  135.3176  150.3297 H   0  0  0  0  0  0  0  0  0  0  0  0
  144.9699  137.5596  151.1746 H   0  0  0  0  0  0  0  0  0  0  0  0
  145.5220  139.1736  155.4476 H   0  0  0  0  0  0  0  0  0  0  0  0
  145.1368  138.0518  156.7470 H   0  0  0  0  0  0  0  0  0  0  0  0
  145.5590  140.4033  157.5710 H   0  0  0  0  0  0  0  0  0  0  0  0
  146.6229  139.2382  158.3124 H   0  0  0  0  0  0  0  0  0  0  0  0
  150.4406  140.1155  155.3637 H   0  0  0  0  0  0  0  0  0  0  0  0
  149.1387  141.2310  155.0272 H   0  0  0  0  0  0  0  0  0  0  0  0
  150.9724  142.2635  156.4087 H   0  0  0  0  0  0  0  0  0  0  0  0
  149.4277  142.3076  157.2285 H   0  0  0  0  0  0  0  0  0  0  0  0
  151.6621  140.2634  157.7289 H   0  0  0  0  0  0  0  0  0  0  0  0
  151.1543  141.5442  158.8133 H   0  0  0  0  0  0  0  0  0  0  0  0
  148.6502  138.3537  158.2322 H   0  0  0  0  0  0  0  0  0  0  0  0
  150.1565  138.4044  157.3694 H   0  0  0  0  0  0  0  0  0  0  0  0
  149.0371  138.0050  155.1704 H   0  0  0  0  0  0  0  0  0  0  0  0
  147.8761  139.1335  154.5185 H   0  0  0  0  0  0  0  0  0  0  0  0
  147.1660  133.4584  155.6323 H   0  0  0  0  0  0  0  0  0  0  0  0
  146.8192  133.4282  151.1652 H   0  0  0  0  0  0  0  0  0  0  0  0
  146.4647  134.0906  149.5362 H   0  0  0  0  0  0  0  0  0  0  0  0
  1  2  1  0  0  0  0
  1 29  1  0  0  0  0
  2  3  1  0  0  0  0
  2 30  1  0  0  0  0
  2 31  1  0  0  0  0
  3 28  1  0  0  0  0
  3  4  1  0  0  0  0
  3  6  1  0  0  0  0
  4  5  1  0  0  0  0
  4 32  1  0  0  0  0
  4 33  1  0  0  0  0
  5 34  1  0  0  0  0
  6  7  1  0  0  0  0
  6 35  1  0  0  0  0
  6 36  1  0  0  0  0
  7  8  1  0  0  0  0
  7 28  1  0  0  0  0
  7 37  1  0  0  0  0
  8 27  1  0  0  0  0
  8  9  1  0  0  0  0
  9 10  2  0  0  0  0
  9 38  1  0  0  0  0
 10 11  1  0  0  0  0
 11 27  2  0  0  0  0
 11 12  1  0  0  0  0
 12 13  1  0  0  0  0
 12 24  2  0  0  0  0
 13 23  1  0  0  0  0
 13 14  1  0  0  0  0
 14 15  1  0  0  0  0
 14 39  1  0  0  0  0
 14 40  1  0  0  0  0
 15 16  1  0  0  0  0
 15 41  1  0  0  0  0
 15 42  1  0  0  0  0
 16 17  1  0  0  0  0
 17 22  1  0  0  0  0
 17 18  1  0  0  0  0
 17 23  1  0  0  0  0
 18 19  1  0  0  0  0
 18 43  1  0  0  0  0
 18 44  1  0  0  0  0
 19 20  1  0  0  0  0
 19 45  1  0  0  0  0
 19 46  1  0  0  0  0
 20 21  1  0  0  0  0
 20 47  1  0  0  0  0
 20 48  1  0  0  0  0
 21 22  1  0  0  0  0
 22 49  1  0  0  0  0
 22 50  1  0  0  0  0
 23 51  1  0  0  0  0
 23 52  1  0  0  0  0
 24 25  1  0  0  0  0
 25 26  2  0  0  0  0
 25 53  1  0  0  0  0
 26 27  1  0  0  0  0
 28 54  1  0  0  0  0
 28 55  1  0  0  0  0
M  END
> <s_m_source_file>
AV-unprocessed.smi

> <i_m_source_file_index>
165

> <i_lp_mmshare_version>
43012

> <i_f3d_flags>
0

> <s_epik_input>
W09IXVtDSDJdQzEoW0NIMl1bT0hdKVtDSDJdW0NIXShbQ0gyXTEpbihbY0hdbjIpYyhjMjMpbltjSF1uYzNOKFtDSDJdNClbQ0gyXVtDSDJdT1tDQEBdNDVbQ0gyXVtDSDJdW0NIMl1PW0NIMl01

> <s_epik_cmdline>
J2VwaWtfcHl0aG9uJywgJy1waCcsICc3LjAnLCAnLXRuJywgJzgnLCAnLW1hJywgJzIwMCcsICctbWV0YWxfYmluZGluZycsICctaW1hZScsICc8aW5maWxlLm1hZT4nLCAnLW9tYWUnLCAnPG91dGZpbGUubWFlPic=

> <r_lp_tautomer_probability>
1

> <r_epik_Ionization_Penalty>
0.00466923

> <r_epik_Ionization_Penalty_Charging>
0

> <r_epik_Ionization_Penalty_Neutral>
0.00466923

> <r_epik_State_Penalty>
0.0032353

> <r_epik_Charging_Adjusted_Penalty>
0.0032353

> <i_epik_Tot_Q>
0

> <i_epik_Tot_abs_Q>
0

> <r_epik_Metal_State_Penalty>
-0

> <b_epik_Metal_Only>
0

> <s_lp_Force_Field>
OPLS_2005

> <r_lp_Energy>
53.1571

> <b_lp_Chiralities_Consistent>
1

> <s_lp_Variant>
AV-unprocessed.smi:165-2

> <Gold.Version>
5.8.1

> <Gold.Id.Protein>
6NUR|6NUR_protein|mol2

> <Gold.PLP.Fitness>
44.3778

> <Gold.PLP.PLP>
-35.6606

> <Gold.PLP.part.hbond>
-3.0000

> <Gold.PLP.part.metal>
0.0000

> <Gold.PLP.part.buried>
-2.9896

> <Gold.PLP.part.nonpolar>
-29.6456

> <Gold.PLP.part.repulsive>
0.4820

> <Gold.PLP.ligand.clash>
0.0000

> <Gold.PLP.ligand.torsion>
0.5099

> <Gold.PLP.Chemscore.Hbond>
2.0000

> <Gold.PLP.Chemscore.CHOScore>
0.9978

> <Gold.PLP.Chemscore.Metal>
0.0000

> <Gold.Chemscore.Hbonds>
donor molecule, donor type, donor heavy atom, donor atom, acceptor molecule, acceptor atom, score
      L1  H     5    34       P1 10186  0.14
      P1  H 10785 10796       L1     5  1.00
      L1  C     9    38       P1 10171  1.00

> <Gold.PLP.Chemscore.Internal.Correction>
0.7435

> <Gold.Rescore>
     Score         DG    S(hbond)    S(metal)    S(lipo)     H(rot)  DE(clash)    DE(int)     intcor
      9.64     -11.33       1.33        0.00      80.75       3.14       0.93       0.77       ----

> <Gold.Chemscore.Fitness>
9.6422

> <Gold.Chemscore.DG>
-11.3340

> <Gold.Chemscore.ZeroCoef>
-5.4800

> <Gold.Chemscore.Hbond>
1.3269

> <Gold.Chemscore.Metal>
0.0000

> <Gold.Chemscore.Lipo>
80.7526

> <Gold.Chemscore.Internal_Hbond>
0.0000

> <Gold.Chemscore.DEClash>
0.9266

> <Gold.Chemscore.DEInternal>
0.7651

> <Gold.Chemscore.Rot>
3.1351

> <Gold.Chemscore.Internal.Correction>
   9.000000E+99

> <Gold.Chemscore.Hbonds>
donor molecule, donor type, donor heavy atom, donor atom, acceptor molecule, acceptor atom, score
      L1  H     1    29       P1 10747  0.02
      L1  H     5    34       P1 10186  0.16
      P1  H 10785 10796       L1     5  0.94

> <Gold.Chemscore.Hbond.Weighted>
-4.4319

> <Gold.Chemscore.Metal.Weighted>
-0.0000

> <Gold.Chemscore.Lipo.Weighted>
-9.4481

> <Gold.Chemscore.Internal_Hbond.Weighted>
0.0000

> <Gold.Chemscore.DEClash.Weighted>
0.9266

> <Gold.Chemscore.DEInternal.Weighted>
0.7651

> <Gold.Chemscore.Rot.Weighted>
8.0260

> <Gold.Chemscore.Internal.Correction.Weighted>
   9.000000E+99

> <Gold.Protein.RotatedTorsions>
[ 6907 6896 6895 6894 ] final  -51.99 input  -60.11 | X-H torsion
[ 7974 7965 7964 7962 ] final -104.67 input  175.53 | X-H torsion
[ 8008 7997 7996 7995 ] final  154.94 input   59.86 | X-H torsion
[ 10167 10162 10161 10158 ] final  -94.91 input  -65.29 | X-H torsion
[ 10718 10713 10712 10709 ] final  117.18 input   66.30 | X-H torsion
[ 10763 10752 10751 10750 ] final -109.85 input  -60.55 | X-H torsion
[ 11005 11000 10999 10996 ] final  142.75 input  -57.11 | X-H torsion

> <Gold.Protein.ActiveResidues>
 VAL166  LYS551  ARG553  GLY616  TRP617  ASP618  TYR619  PRO620  LYS621  CYS622 
 ASP623  PHE694  ASN695  SER759  ASP760  ASP761  ALA762  ILE779  LEU786  VAL792 
 PHE793  MET794  SER795  GLU796  ALA797  LYS798  CYS799  TRP800  GLU811  SER814 

> <Gold.Protein.RotatedAtoms>
  150.8560  134.7898  159.7045 H   0  0  0  0  0  0  0  0  0  0  0  0  # atno 6907 bound_to 6896
  152.4611  134.5178  159.9783 H   0  0  0  0  0  0  0  0  0  0  0  0  # atno 6908 bound_to 6896
  151.5291  133.3414  159.2950 H   0  0  0  0  0  0  0  0  0  0  0  0  # atno 6909 bound_to 6896
  145.2401  140.9202  143.3154 H   0  0  0  0  0  0  0  0  0  0  0  0  # atno 7974 bound_to 7965
  156.2505  140.1953  156.6724 H   0  0  0  0  0  0  0  0  0  0  0  0  # atno 8008 bound_to 7997
  154.6383  140.0587  156.9840 H   0  0  0  0  0  0  0  0  0  0  0  0  # atno 8009 bound_to 7997
  155.1603  140.3259  155.4415 H   0  0  0  0  0  0  0  0  0  0  0  0  # atno 8010 bound_to 7997
  140.3095  143.3113  152.0163 H   0  0  0  0  0  0  0  0  0  0  0  0  # atno 10167 bound_to 10162
  157.6113  131.1034  150.7579 H   0  0  0  0  0  0  0  0  0  0  0  0  # atno 10718 bound_to 10713
  154.8216  135.4586  154.0795 H   0  0  0  0  0  0  0  0  0  0  0  0  # atno 10763 bound_to 10752
  153.2144  135.6886  153.8082 H   0  0  0  0  0  0  0  0  0  0  0  0  # atno 10764 bound_to 10752
  153.7521  135.3296  155.3299 H   0  0  0  0  0  0  0  0  0  0  0  0  # atno 10765 bound_to 10752
  140.0501  134.9260  157.1001 H   0  0  0  0  0  0  0  0  0  0  0  0  # atno 11005 bound_to 11000
  144.9596  139.3994  143.6362 LP  0  0  0  0  0  0  0  0  0  0  0  0  # atno 17320 bound_to 7965
  146.3330  139.8643  142.8851 LP  0  0  0  0  0  0  0  0  0  0  0  0  # atno 17321 bound_to 7965
  139.4897  144.6395  151.6906 LP  0  0  0  0  0  0  0  0  0  0  0  0  # atno 17342 bound_to 10162
  140.5580  144.0315  150.6156 LP  0  0  0  0  0  0  0  0  0  0  0  0  # atno 17343 bound_to 10162
  156.7956  130.4904  149.5378 LP  0  0  0  0  0  0  0  0  0  0  0  0  # atno 17370 bound_to 10713
  156.1217  130.6114  151.0203 LP  0  0  0  0  0  0  0  0  0  0  0  0  # atno 17371 bound_to 10713
  140.3931  134.2163  155.7165 LP  0  0  0  0  0  0  0  0  0  0  0  0  # atno 17394 bound_to 11000
  141.1926  133.8170  157.0833 LP  0  0  0  0  0  0  0  0  0  0  0  0  # atno 17395 bound_to 11000

$$$$
