AV-unprocessed.smi:2575|AV-procd|sdf|10116|dock2
  -GOLD-   2272014133D 1   1.00000     0.00000
 Structure written by MMmdl.
 31 32  0  0  0  0  0  0  0  0  1 V2000
  152.2140  138.3361  154.5409 C   0  0  0  0  0  0  0  0  0  0  0  0
  150.8198  138.4916  153.9295 C   0  0  0  0  0  0  0  0  0  0  0  0
  150.3591  139.8114  154.1646 O   0  0  0  0  0  0  0  0  0  0  0  0
  149.6659  139.9389  155.3952 C   0  0  0  0  0  0  0  0  0  0  0  0
  149.4677  141.4281  155.7146 C   0  0  2  0  0  0  0  0  0  0  0  0
  148.8006  142.0329  154.6235 O   0  0  0  0  0  0  0  0  0  0  0  0
  150.7992  142.1565  155.9857 C   0  0  0  0  0  0  0  0  0  0  0  0
  151.6288  141.4585  156.9524 N   0  0  0  0  0  0  0  0  0  0  0  0
  152.1504  140.2412  156.6299 N   0  0  0  0  0  0  0  0  0  0  0  0
  152.8448  139.8055  157.6385 N   0  0  0  0  0  0  0  0  0  0  0  0
  152.7768  140.7527  158.6465 C   0  0  0  0  0  0  0  0  0  0  0  0
  153.3351  140.7894  159.9438 C   0  0  0  0  0  0  0  0  0  0  0  0
  153.1052  141.8972  160.7890 C   0  0  0  0  0  0  0  0  0  0  0  0
  153.8055  141.9057  162.3684 Cl  0  0  0  0  0  0  0  0  0  0  0  0
  152.3117  142.9825  160.3445 C   0  0  0  0  0  0  0  0  0  0  0  0
  152.0180  144.3442  161.3666 Cl  0  0  0  0  0  0  0  0  0  0  0  0
  151.7488  142.9591  159.0530 C   0  0  0  0  0  0  0  0  0  0  0  0
  151.9903  141.8477  158.2277 C   0  0  0  0  0  0  0  0  0  0  0  0
  152.6015  137.3306  154.3763 H   0  0  0  0  0  0  0  0  0  0  0  0
  152.1922  138.5144  155.6162 H   0  0  0  0  0  0  0  0  0  0  0  0
  152.9164  139.0423  154.0976 H   0  0  0  0  0  0  0  0  0  0  0  0
  150.8596  138.2928  152.8576 H   0  0  0  0  0  0  0  0  0  0  0  0
  150.1355  137.7676  154.3747 H   0  0  0  0  0  0  0  0  0  0  0  0
  148.7035  139.4265  155.3477 H   0  0  0  0  0  0  0  0  0  0  0  0
  150.2508  139.4637  156.1848 H   0  0  0  0  0  0  0  0  0  0  0  0
  148.8179  141.5193  156.5860 H   0  0  0  0  0  0  0  0  0  0  0  0
  148.5885  142.9238  154.8569 H   0  0  0  0  0  0  0  0  0  0  0  0
  151.3670  142.2652  155.0602 H   0  0  0  0  0  0  0  0  0  0  0  0
  150.6134  143.1664  156.3538 H   0  0  0  0  0  0  0  0  0  0  0  0
  153.9401  139.9641  160.2889 H   0  0  0  0  0  0  0  0  0  0  0  0
  151.1400  143.7797  158.7027 H   0  0  0  0  0  0  0  0  0  0  0  0
  1  2  1  0  0  0  0
  1 19  1  0  0  0  0
  1 20  1  0  0  0  0
  1 21  1  0  0  0  0
  2  3  1  0  0  0  0
  2 22  1  0  0  0  0
  2 23  1  0  0  0  0
  3  4  1  0  0  0  0
  4  5  1  0  0  0  0
  4 24  1  0  0  0  0
  4 25  1  0  0  0  0
  5  6  1  0  0  0  0
  5  7  1  0  0  0  0
  5 26  1  0  0  0  0
  6 27  1  0  0  0  0
  7  8  1  0  0  0  0
  7 28  1  0  0  0  0
  7 29  1  0  0  0  0
  8 18  1  0  0  0  0
  8  9  1  0  0  0  0
  9 10  2  0  0  0  0
 10 11  1  0  0  0  0
 11 18  2  0  0  0  0
 11 12  1  0  0  0  0
 12 13  2  0  0  0  0
 12 30  1  0  0  0  0
 13 14  1  0  0  0  0
 13 15  1  0  0  0  0
 15 16  1  0  0  0  0
 15 17  2  0  0  0  0
 17 18  1  0  0  0  0
 17 31  1  0  0  0  0
M  END
> <s_m_source_file>
AV-unprocessed.smi

> <i_m_source_file_index>
2575

> <i_lp_mmshare_version>
43012

> <i_f3d_flags>
0

> <s_epik_input>
W0NIM11bQ0gyXU9bQ0gyXVtDQEhdKFtPSF0pW0NIMl1uKG5uMSljKGMxMilbY0hdYyhDbCljKENsKVtjSF0y

> <s_epik_cmdline>
J2VwaWtfcHl0aG9uJywgJy1waCcsICc3LjAnLCAnLXRuJywgJzgnLCAnLW1hJywgJzIwMCcsICctbWV0YWxfYmluZGluZycsICctaW1hZScsICc8aW5maWxlLm1hZT4nLCAnLW9tYWUnLCAnPG91dGZpbGUubWFlPic=

> <r_lp_tautomer_probability>
1

> <r_epik_Ionization_Penalty>
2.39516e-06

> <r_epik_Ionization_Penalty_Charging>
0

> <r_epik_Ionization_Penalty_Neutral>
2.39516e-06

> <r_epik_State_Penalty>
-0

> <r_epik_Charging_Adjusted_Penalty>
0

> <i_epik_Tot_Q>
0

> <i_epik_Tot_abs_Q>
0

> <r_epik_Metal_State_Penalty>
-0

> <b_epik_Metal_Only>
0

> <s_lp_Force_Field>
OPLS_2005

> <r_lp_Energy>
6.35742

> <b_lp_Chiralities_Consistent>
1

> <s_lp_Variant>
AV-unprocessed.smi:2575-1

> <Gold.Version>
5.8.1

> <Gold.Id.Protein>
6NUR|6NUR_protein|mol2

> <Gold.PLP.Fitness>
48.3451

> <Gold.PLP.PLP>
-40.1426

> <Gold.PLP.part.hbond>
-4.5248

> <Gold.PLP.part.metal>
0.0000

> <Gold.PLP.part.buried>
-4.5257

> <Gold.PLP.part.nonpolar>
-30.7860

> <Gold.PLP.part.repulsive>
0.1461

> <Gold.PLP.ligand.clash>
0.0000

> <Gold.PLP.ligand.torsion>
0.3141

> <Gold.PLP.Chemscore.Hbond>
2.9280

> <Gold.PLP.Chemscore.CHOScore>
0.0000

> <Gold.PLP.Chemscore.Metal>
0.0000

> <Gold.Chemscore.Hbonds>
donor molecule, donor type, donor heavy atom, donor atom, acceptor molecule, acceptor atom, score
      L1  H     6    27       P1  8028  1.00
      P1  H  7989  7998       L1     3  1.00
      P1  H  7997  8008       L1    10  0.90

> <Gold.PLP.Chemscore.Internal.Correction>
0.0467

> <Gold.Rescore>
     Score         DG    S(hbond)    S(metal)    S(lipo)     H(rot)  DE(clash)    DE(int)     intcor
     17.75     -19.91       1.90        0.00     117.00       2.19       0.47       1.69       ----

> <Gold.Chemscore.Fitness>
17.7534

> <Gold.Chemscore.DG>
-19.9147

> <Gold.Chemscore.ZeroCoef>
-5.4800

> <Gold.Chemscore.Hbond>
1.9020

> <Gold.Chemscore.Metal>
0.0000

> <Gold.Chemscore.Lipo>
116.9959

> <Gold.Chemscore.Internal_Hbond>
0.0000

> <Gold.Chemscore.DEClash>
0.4686

> <Gold.Chemscore.DEInternal>
1.6927

> <Gold.Chemscore.Rot>
2.1901

> <Gold.Chemscore.Internal.Correction>
   9.000000E+99

> <Gold.Chemscore.Hbonds>
donor molecule, donor type, donor heavy atom, donor atom, acceptor molecule, acceptor atom, score
      L1  H     6    27       P1  8028  0.97
      P1  H  7989  7998       L1     3  0.49
      P1  H  7997  8008       L1    10  0.10

> <Gold.Chemscore.Hbond.Weighted>
-6.3527

> <Gold.Chemscore.Metal.Weighted>
-0.0000

> <Gold.Chemscore.Lipo.Weighted>
-13.6885

> <Gold.Chemscore.Internal_Hbond.Weighted>
0.0000

> <Gold.Chemscore.DEClash.Weighted>
0.4686

> <Gold.Chemscore.DEInternal.Weighted>
1.6927

> <Gold.Chemscore.Rot.Weighted>
5.6066

> <Gold.Chemscore.Internal.Correction.Weighted>
   9.000000E+99

> <Gold.Protein.RotatedTorsions>
[ 6907 6896 6895 6894 ] final -171.91 input  -60.11 | X-H torsion
[ 7974 7965 7964 7962 ] final  -96.33 input  175.53 | X-H torsion
[ 8008 7997 7996 7995 ] final  -92.53 input   59.86 | X-H torsion
[ 10167 10162 10161 10158 ] final   29.90 input  -65.29 | X-H torsion
[ 10718 10713 10712 10709 ] final  101.14 input   66.30 | X-H torsion
[ 10763 10752 10751 10750 ] final   -3.60 input  -60.55 | X-H torsion
[ 11005 11000 10999 10996 ] final -109.88 input  -57.11 | X-H torsion

> <Gold.Protein.ActiveResidues>
 VAL166  LYS551  ARG553  GLY616  TRP617  ASP618  TYR619  PRO620  LYS621  CYS622 
 ASP623  PHE694  ASN695  SER759  ASP760  ASP761  ALA762  ILE779  LEU786  VAL792 
 PHE793  MET794  SER795  GLU796  ALA797  LYS798  CYS799  TRP800  GLU811  SER814 

> <Gold.Protein.RotatedAtoms>
  151.5315  133.3448  159.2918 H   0  0  0  0  0  0  0  0  0  0  0  0  # atno 6907 bound_to 6896
  150.8591  134.7940  159.7079 H   0  0  0  0  0  0  0  0  0  0  0  0  # atno 6908 bound_to 6896
  152.4616  134.5180  159.9826 H   0  0  0  0  0  0  0  0  0  0  0  0  # atno 6909 bound_to 6896
  145.3483  140.9472  143.2568 H   0  0  0  0  0  0  0  0  0  0  0  0  # atno 7974 bound_to 7965
  154.7243  140.0508  157.0668 H   0  0  0  0  0  0  0  0  0  0  0  0  # atno 8008 bound_to 7997
  155.0386  140.3166  155.4713 H   0  0  0  0  0  0  0  0  0  0  0  0  # atno 8009 bound_to 7997
  156.2825  140.2137  156.5509 H   0  0  0  0  0  0  0  0  0  0  0  0  # atno 8010 bound_to 7997
  140.4725  144.0741  150.6241 H   0  0  0  0  0  0  0  0  0  0  0  0  # atno 10167 bound_to 10162
  157.6837  131.0718  150.5206 H   0  0  0  0  0  0  0  0  0  0  0  0  # atno 10718 bound_to 10713
  153.3735  135.6995  153.6619 H   0  0  0  0  0  0  0  0  0  0  0  0  # atno 10763 bound_to 10752
  153.5260  135.3602  155.2654 H   0  0  0  0  0  0  0  0  0  0  0  0  # atno 10764 bound_to 10752
  154.8684  135.4169  154.3018 H   0  0  0  0  0  0  0  0  0  0  0  0  # atno 10765 bound_to 10752
  141.0823  133.9199  157.2262 H   0  0  0  0  0  0  0  0  0  0  0  0  # atno 11005 bound_to 11000
  144.8737  139.5002  143.6756 LP  0  0  0  0  0  0  0  0  0  0  0  0  # atno 17320 bound_to 7965
  146.2978  139.7333  142.9113 LP  0  0  0  0  0  0  0  0  0  0  0  0  # atno 17321 bound_to 7965
  140.3959  143.2728  152.0005 LP  0  0  0  0  0  0  0  0  0  0  0  0  # atno 17342 bound_to 10162
  139.4820  144.6038  151.7558 LP  0  0  0  0  0  0  0  0  0  0  0  0  # atno 17343 bound_to 10162
  156.5520  130.4234  149.6103 LP  0  0  0  0  0  0  0  0  0  0  0  0  # atno 17370 bound_to 10713
  156.2894  130.7116  151.1961 LP  0  0  0  0  0  0  0  0  0  0  0  0  # atno 17371 bound_to 10713
  139.9638  135.0147  156.9332 LP  0  0  0  0  0  0  0  0  0  0  0  0  # atno 17394 bound_to 11000
  140.5441  134.0691  155.7350 LP  0  0  0  0  0  0  0  0  0  0  0  0  # atno 17395 bound_to 11000

$$$$
