AV-unprocessed.smi:2424|AV-procd|sdf|9566|dock3
  -GOLD-   2272013193D 1   1.00000     0.00000
 Structure written by MMmdl.
 50 51  0  0  0  0  0  0  0  0  1 V2000
  147.1822  140.3418  157.0328 C   0  0  0  0  0  0  0  0  0  0  0  0
  147.7170  138.9010  156.9603 C   0  0  0  0  0  0  0  0  0  0  0  0
  148.0304  138.3756  155.5369 C   0  0  0  0  0  0  0  0  0  0  0  0
  148.8485  137.0645  155.6695 C   0  0  0  0  0  0  0  0  0  0  0  0
  148.1424  135.9314  156.4332 C   0  0  0  0  0  0  0  0  0  0  0  0
  146.7889  138.3425  154.5973 C   0  0  2  0  0  0  0  0  0  0  0  0
  146.8886  137.3386  153.5350 N   0  0  0  0  0  0  0  0  0  0  0  0
  145.9293  136.4709  153.1893 C   0  0  0  0  0  0  0  0  0  0  0  0
  144.8266  136.4298  153.7329 O   0  0  0  0  0  0  0  0  0  0  0  0
  146.3540  135.6701  152.1954 N   0  0  0  0  0  0  0  0  0  0  0  0
  145.6779  134.6307  151.5425 C   0  0  0  0  0  0  0  0  0  0  0  0
  144.5198  134.9283  150.9283 C   0  0  0  0  0  0  0  0  0  0  0  0
  143.7800  133.9584  150.2483 N   0  0  0  0  0  0  0  0  0  0  0  0
  144.1435  132.6602  150.1440 C   0  0  0  0  0  0  0  0  0  0  0  0
  143.4411  131.8646  149.5227 O   0  0  0  0  0  0  0  0  0  0  0  0
  145.4028  132.2997  150.8153 C   0  0  0  0  0  0  0  0  0  0  0  0
  145.8593  130.8532  150.7451 C   0  0  0  0  0  0  0  0  0  0  0  0
  146.1186  133.2411  151.4737 C   0  0  0  0  0  0  0  0  0  0  0  0
  147.1599  139.7458  154.0894 C   0  0  2  0  0  0  0  0  0  0  0  0
  146.9006  140.1732  152.6459 C   0  0  0  0  0  0  0  0  0  0  0  0
  148.5910  139.4674  154.5778 C   0  0  2  0  0  0  0  0  0  0  0  0
  149.3925  138.9560  153.5186 O   0  0  0  0  0  0  0  0  0  0  0  0
  150.7388  138.7314  153.9010 C   0  0  0  0  0  0  0  0  0  0  0  0
  142.9234  134.2600  149.8072 H   0  0  0  0  0  0  0  0  0  0  0  0
  146.8556  140.5753  158.0463 H   0  0  0  0  0  0  0  0  0  0  0  0
  146.3285  140.4911  156.3725 H   0  0  0  0  0  0  0  0  0  0  0  0
  147.9452  141.0735  156.7701 H   0  0  0  0  0  0  0  0  0  0  0  0
  148.5899  138.8103  157.6058 H   0  0  0  0  0  0  0  0  0  0  0  0
  146.9713  138.2617  157.4326 H   0  0  0  0  0  0  0  0  0  0  0  0
  149.0995  136.6769  154.6825 H   0  0  0  0  0  0  0  0  0  0  0  0
  149.8165  137.2524  156.1309 H   0  0  0  0  0  0  0  0  0  0  0  0
  148.7229  135.0108  156.3715 H   0  0  0  0  0  0  0  0  0  0  0  0
  147.1544  135.7236  156.0228 H   0  0  0  0  0  0  0  0  0  0  0  0
  148.0261  136.1649  157.4910 H   0  0  0  0  0  0  0  0  0  0  0  0
  145.8435  138.3254  155.1427 H   0  0  0  0  0  0  0  0  0  0  0  0
  147.7631  137.3051  153.0316 H   0  0  0  0  0  0  0  0  0  0  0  0
  147.2985  135.8248  151.8744 H   0  0  0  0  0  0  0  0  0  0  0  0
  144.0786  135.9143  150.9025 H   0  0  0  0  0  0  0  0  0  0  0  0
  146.7946  130.7026  151.2851 H   0  0  0  0  0  0  0  0  0  0  0  0
  146.0170  130.5541  149.7083 H   0  0  0  0  0  0  0  0  0  0  0  0
  145.1084  130.1945  151.1826 H   0  0  0  0  0  0  0  0  0  0  0  0
  147.0285  132.9246  151.9559 H   0  0  0  0  0  0  0  0  0  0  0  0
  146.7064  140.4770  154.7603 H   0  0  0  0  0  0  0  0  0  0  0  0
  147.3709  139.5028  151.9268 H   0  0  0  0  0  0  0  0  0  0  0  0
  147.2889  141.1742  152.4588 H   0  0  0  0  0  0  0  0  0  0  0  0
  145.8324  140.1888  152.4289 H   0  0  0  0  0  0  0  0  0  0  0  0
  149.0287  140.3394  155.0664 H   0  0  0  0  0  0  0  0  0  0  0  0
  151.2884  138.3014  153.0639 H   0  0  0  0  0  0  0  0  0  0  0  0
  150.8097  138.0414  154.7418 H   0  0  0  0  0  0  0  0  0  0  0  0
  151.2266  139.6667  154.1776 H   0  0  0  0  0  0  0  0  0  0  0  0
  1  2  1  0  0  0  0
  1 25  1  0  0  0  0
  1 26  1  0  0  0  0
  1 27  1  0  0  0  0
  2  3  1  0  0  0  0
  2 28  1  0  0  0  0
  2 29  1  0  0  0  0
  3 21  1  0  0  0  0
  3  4  1  0  0  0  0
  3  6  1  0  0  0  0
  4  5  1  0  0  0  0
  4 30  1  0  0  0  0
  4 31  1  0  0  0  0
  5 32  1  0  0  0  0
  5 33  1  0  0  0  0
  5 34  1  0  0  0  0
  6  7  1  0  0  0  0
  6 19  1  0  0  0  0
  6 35  1  0  0  0  0
  7  8  1  0  0  0  0
  7 36  1  0  0  0  0
  8  9  2  0  0  0  0
  8 10  1  0  0  0  0
 10 11  1  0  0  0  0
 10 37  1  0  0  0  0
 11 18  1  0  0  0  0
 11 12  2  0  0  0  0
 12 13  1  0  0  0  0
 12 38  1  0  0  0  0
 13 24  1  0  0  0  0
 13 14  1  0  0  0  0
 14 15  2  0  0  0  0
 14 16  1  0  0  0  0
 16 17  1  0  0  0  0
 16 18  2  0  0  0  0
 17 39  1  0  0  0  0
 17 40  1  0  0  0  0
 17 41  1  0  0  0  0
 18 42  1  0  0  0  0
 19 20  1  0  0  0  0
 19 21  1  0  0  0  0
 19 43  1  0  0  0  0
 20 44  1  0  0  0  0
 20 45  1  0  0  0  0
 20 46  1  0  0  0  0
 21 22  1  0  0  0  0
 21 47  1  0  0  0  0
 22 23  1  0  0  0  0
 23 48  1  0  0  0  0
 23 49  1  0  0  0  0
 23 50  1  0  0  0  0
M  END
> <s_m_source_file>
AV-unprocessed.smi

> <i_m_source_file_index>
2424

> <i_lp_mmshare_version>
43012

> <i_f3d_flags>
0

> <s_epik_input>
W0NIM11PW0NAQEhdMVtDQEhdKFtDSDNdKVtDQEBIXShDMShbQ0gyXVtDSDNdKVtDSDJdW0NIM10pW05IXUMoPU8pW05IXWMyW2NIXVtuSF1jKD1PKWMoW0NIM10pW2NIXTI=

> <s_epik_cmdline>
J2VwaWtfcHl0aG9uJywgJy1waCcsICc3LjAnLCAnLXRuJywgJzgnLCAnLW1hJywgJzIwMCcsICctbWV0YWxfYmluZGluZycsICctaW1hZScsICc8aW5maWxlLm1hZT4nLCAnLW9tYWUnLCAnPG91dGZpbGUubWFlPic=

> <r_lp_tautomer_probability>
1

> <r_epik_Ionization_Penalty>
4.7326e-05

> <r_epik_Ionization_Penalty_Charging>
2.70169e-05

> <r_epik_Ionization_Penalty_Neutral>
2.0309e-05

> <r_epik_State_Penalty>
-0

> <r_epik_Charging_Adjusted_Penalty>
2.70169e-05

> <i_epik_Tot_Q>
0

> <i_epik_Tot_abs_Q>
0

> <r_epik_Metal_State_Penalty>
0.0198736

> <b_epik_Metal_Only>
0

> <s_lp_Force_Field>
OPLS_2005

> <r_lp_Energy>
37.0094

> <b_lp_Chiralities_Consistent>
1

> <s_lp_Variant>
AV-unprocessed.smi:2424-8

> <Gold.Version>
5.8.1

> <Gold.Id.Protein>
6NUR|6NUR_protein|mol2

> <Gold.PLP.Fitness>
40.3933

> <Gold.PLP.PLP>
-28.1678

> <Gold.PLP.part.hbond>
-4.1317

> <Gold.PLP.part.metal>
0.0000

> <Gold.PLP.part.buried>
-6.4104

> <Gold.PLP.part.nonpolar>
-20.7671

> <Gold.PLP.part.repulsive>
2.2343

> <Gold.PLP.ligand.clash>
0.0000

> <Gold.PLP.ligand.torsion>
1.0023

> <Gold.PLP.Chemscore.Hbond>
3.6253

> <Gold.PLP.Chemscore.CHOScore>
0.8708

> <Gold.PLP.Chemscore.Metal>
0.0000

> <Gold.Chemscore.Hbonds>
donor molecule, donor type, donor heavy atom, donor atom, acceptor molecule, acceptor atom, score
      L1  H     7    36       P1  7948  0.93
      L1  H    10    37       P1  7948  1.00
      L1  H    13    24       P1 10186  1.00
      P1  H 10785 10796       L1    15  1.00
      L1  C    12    38       P1 10171  0.13

> <Gold.PLP.Chemscore.Internal.Correction>
0.7419

> <Gold.Rescore>
     Score         DG    S(hbond)    S(metal)    S(lipo)     H(rot)  DE(clash)    DE(int)     intcor
     16.75     -22.20       3.80        0.00      68.38       1.55       2.55       2.90       ----

> <Gold.Chemscore.Fitness>
16.7520

> <Gold.Chemscore.DG>
-22.1997

> <Gold.Chemscore.ZeroCoef>
-5.4800

> <Gold.Chemscore.Hbond>
3.7989

> <Gold.Chemscore.Metal>
0.0000

> <Gold.Chemscore.Lipo>
68.3754

> <Gold.Chemscore.Internal_Hbond>
0.0000

> <Gold.Chemscore.DEClash>
2.5462

> <Gold.Chemscore.DEInternal>
2.9016

> <Gold.Chemscore.Rot>
1.5502

> <Gold.Chemscore.Internal.Correction>
   9.000000E+99

> <Gold.Chemscore.Hbonds>
donor molecule, donor type, donor heavy atom, donor atom, acceptor molecule, acceptor atom, score
      L1  H     7    36       P1  7948  0.89
      L1  H    10    37       P1  7948  1.00
      L1  H    13    24       P1 10186  0.97
      P1  H 10785 10796       L1    15  0.96

> <Gold.Chemscore.Hbond.Weighted>
-12.6883

> <Gold.Chemscore.Metal.Weighted>
-0.0000

> <Gold.Chemscore.Lipo.Weighted>
-7.9999

> <Gold.Chemscore.Internal_Hbond.Weighted>
0.0000

> <Gold.Chemscore.DEClash.Weighted>
2.5462

> <Gold.Chemscore.DEInternal.Weighted>
2.9016

> <Gold.Chemscore.Rot.Weighted>
3.9685

> <Gold.Chemscore.Internal.Correction.Weighted>
   9.000000E+99

> <Gold.Protein.RotatedTorsions>
[ 6907 6896 6895 6894 ] final   -5.06 input  -60.11 | X-H torsion
[ 7974 7965 7964 7962 ] final -110.56 input  175.53 | X-H torsion
[ 8008 7997 7996 7995 ] final   90.16 input   59.86 | X-H torsion
[ 10167 10162 10161 10158 ] final  -11.42 input  -65.29 | X-H torsion
[ 10718 10713 10712 10709 ] final -135.14 input   66.30 | X-H torsion
[ 10763 10752 10751 10750 ] final -102.03 input  -60.55 | X-H torsion
[ 11005 11000 10999 10996 ] final  -80.26 input  -57.11 | X-H torsion

> <Gold.Protein.ActiveResidues>
 VAL166  LYS551  ARG553  GLY616  TRP617  ASP618  TYR619  PRO620  LYS621  CYS622 
 ASP623  PHE694  ASN695  SER759  ASP760  ASP761  ALA762  ILE779  LEU786  VAL792 
 PHE793  MET794  SER795  GLU796  ALA797  LYS798  CYS799  TRP800  GLU811  SER814 

> <Gold.Protein.RotatedAtoms>
  151.4877  135.1056  159.9794 H   0  0  0  0  0  0  0  0  0  0  0  0  # atno 6907 bound_to 6896
  152.4754  133.8121  159.7019 H   0  0  0  0  0  0  0  0  0  0  0  0  # atno 6908 bound_to 6896
  150.8788  133.7339  159.2964 H   0  0  0  0  0  0  0  0  0  0  0  0  # atno 6909 bound_to 6896
  145.1667  140.8905  143.3559 H   0  0  0  0  0  0  0  0  0  0  0  0  # atno 7974 bound_to 7965
  156.0087  140.3352  155.6918 H   0  0  0  0  0  0  0  0  0  0  0  0  # atno 8008 bound_to 7997
  155.6188  140.0673  157.2702 H   0  0  0  0  0  0  0  0  0  0  0  0  # atno 8009 bound_to 7997
  154.4274  140.1780  156.1338 H   0  0  0  0  0  0  0  0  0  0  0  0  # atno 8010 bound_to 7997
  140.7138  143.5641  150.9163 H   0  0  0  0  0  0  0  0  0  0  0  0  # atno 10167 bound_to 10162
  156.2630  130.7221  151.1161 H   0  0  0  0  0  0  0  0  0  0  0  0  # atno 10718 bound_to 10713
  154.7703  135.4876  153.9635 H   0  0  0  0  0  0  0  0  0  0  0  0  # atno 10763 bound_to 10752
  153.1359  135.6762  153.9111 H   0  0  0  0  0  0  0  0  0  0  0  0  # atno 10764 bound_to 10752
  153.8800  135.3133  155.3423 H   0  0  0  0  0  0  0  0  0  0  0  0  # atno 10765 bound_to 10752
  141.1668  133.7142  156.8247 H   0  0  0  0  0  0  0  0  0  0  0  0  # atno 11005 bound_to 11000
  145.0275  139.3370  143.6041 LP  0  0  0  0  0  0  0  0  0  0  0  0  # atno 17320 bound_to 7965
  146.3474  139.9599  142.8718 LP  0  0  0  0  0  0  0  0  0  0  0  0  # atno 17321 bound_to 7965
  139.9367  143.6430  152.3063 LP  0  0  0  0  0  0  0  0  0  0  0  0  # atno 17342 bound_to 10162
  139.6900  144.7648  151.1456 LP  0  0  0  0  0  0  0  0  0  0  0  0  # atno 17343 bound_to 10162
  157.7257  131.0651  150.5941 LP  0  0  0  0  0  0  0  0  0  0  0  0  # atno 17370 bound_to 10713
  156.6030  130.4359  149.5889 LP  0  0  0  0  0  0  0  0  0  0  0  0  # atno 17371 bound_to 10713
  140.2094  134.8838  157.3258 LP  0  0  0  0  0  0  0  0  0  0  0  0  # atno 17394 bound_to 11000
  140.2103  134.4147  155.7616 LP  0  0  0  0  0  0  0  0  0  0  0  0  # atno 17395 bound_to 11000

$$$$
