AV-unprocessed.smi:157|AV-procd|sdf|1294|dock4
  -GOLD-   2262018573D 1   1.00000     0.00000
 Structure written by MMmdl.
 35 37  0  0  0  0  0  0  0  0  1 V2000
  149.4835  142.1702  155.5640 O   0  0  0  0  0  0  0  0  0  0  0  0
  148.6536  141.2247  156.2066 C   0  0  0  0  0  0  0  0  0  0  0  0
  149.2277  139.8002  156.0579 C   0  0  2  0  0  0  0  0  0  0  0  0
  149.9212  139.4962  157.2700 O   0  0  0  0  0  0  0  0  0  0  0  0
  151.2966  139.3998  157.0419 C   0  0  2  0  0  0  0  0  0  0  0  0
  152.0199  140.1887  158.0878 N   0  0  0  0  0  0  0  0  0  0  0  0
  152.8784  139.7093  158.9981 C   0  0  0  0  0  0  0  0  0  0  0  0
  153.3805  140.6221  159.8128 N   0  0  0  0  0  0  0  0  0  0  0  0
  152.7805  141.8099  159.3980 C   0  0  0  0  0  0  0  0  0  0  0  0
  151.9244  141.5610  158.3348 C   0  0  0  0  0  0  0  0  0  0  0  0
  151.0830  142.3120  157.5362 N   0  0  0  0  0  0  0  0  0  0  0  0
  150.7189  143.4790  157.9657 C   0  0  0  0  0  0  0  0  0  0  0  0
  151.1141  144.1806  159.0958 N   0  0  0  0  0  0  0  0  0  0  0  0
  152.5047  144.3571  159.4781 C   0  0  0  0  0  0  0  0  0  0  0  0
  153.1386  143.0979  160.0821 C   0  0  1  0  0  0  0  0  0  0  0  0
  152.7368  142.9762  161.4313 O   0  0  0  0  0  0  0  0  0  0  0  0
  151.5633  139.9855  155.6600 C   0  0  0  0  0  0  0  0  0  0  0  0
  150.2819  139.6093  154.9517 C   0  0  2  0  0  0  0  0  0  0  0  0
  150.0788  140.3934  153.7937 O   0  0  0  0  0  0  0  0  0  0  0  0
  148.4097  139.0885  155.9378 H   0  0  0  0  0  0  0  0  0  0  0  0
  151.6233  138.3657  157.1567 H   0  0  0  0  0  0  0  0  0  0  0  0
  154.2216  143.2252  160.0859 H   0  0  0  0  0  0  0  0  0  0  0  0
  150.3223  138.5573  154.6662 H   0  0  0  0  0  0  0  0  0  0  0  0
  149.0665  143.0169  155.6113 H   0  0  0  0  0  0  0  0  0  0  0  0
  148.5142  141.4956  157.2533 H   0  0  0  0  0  0  0  0  0  0  0  0
  147.6732  141.2782  155.7322 H   0  0  0  0  0  0  0  0  0  0  0  0
  153.1459  138.6651  159.0649 H   0  0  0  0  0  0  0  0  0  0  0  0
  149.9940  144.0440  157.3782 H   0  0  0  0  0  0  0  0  0  0  0  0
  150.5499  144.9613  159.3985 H   0  0  0  0  0  0  0  0  0  0  0  0
  153.0556  144.6294  158.5766 H   0  0  0  0  0  0  0  0  0  0  0  0
  152.5988  145.2036  160.1587 H   0  0  0  0  0  0  0  0  0  0  0  0
  152.1273  142.2564  161.4932 H   0  0  0  0  0  0  0  0  0  0  0  0
  151.6732  141.0692  155.7306 H   0  0  0  0  0  0  0  0  0  0  0  0
  152.4624  139.5593  155.2140 H   0  0  0  0  0  0  0  0  0  0  0  0
  149.9076  139.8142  153.0666 H   0  0  0  0  0  0  0  0  0  0  0  0
  1  2  1  0  0  0  0
  1 24  1  0  0  0  0
  2  3  1  0  0  0  0
  2 25  1  0  0  0  0
  2 26  1  0  0  0  0
  3 20  1  0  0  0  0
  3 18  1  0  0  0  0
  3  4  1  0  0  0  0
  4  5  1  0  0  0  0
  5 21  1  0  0  0  0
  5  6  1  0  0  0  0
  5 17  1  0  0  0  0
  6 10  1  0  0  0  0
  6  7  1  0  0  0  0
  7  8  2  0  0  0  0
  7 27  1  0  0  0  0
  8  9  1  0  0  0  0
  9 15  1  0  0  0  0
  9 10  2  0  0  0  0
 10 11  1  0  0  0  0
 11 12  2  0  0  0  0
 12 13  1  0  0  0  0
 12 28  1  0  0  0  0
 13 14  1  0  0  0  0
 13 29  1  0  0  0  0
 14 15  1  0  0  0  0
 14 30  1  0  0  0  0
 14 31  1  0  0  0  0
 15 22  1  0  0  0  0
 15 16  1  0  0  0  0
 16 32  1  0  0  0  0
 17 18  1  0  0  0  0
 17 33  1  0  0  0  0
 17 34  1  0  0  0  0
 18 23  1  0  0  0  0
 18 19  1  0  0  0  0
 19 35  1  0  0  0  0
M  END
> <s_m_source_file>
AV-unprocessed.smi

> <i_m_source_file_index>
157

> <i_lp_mmshare_version>
43012

> <i_f3d_flags>
0

> <s_epik_input>
W09IXVtDSDJdW0NASF0xT1tDQEhdKFtDSDJdW0NAQEhdMVtPSF0pbihbY0hdbjIpYyhjMjMpTj1bQ0hdW05IXVtDSDJdW0NASF0zW09IXQ==

> <s_epik_cmdline>
J2VwaWtfcHl0aG9uJywgJy1waCcsICc3LjAnLCAnLXRuJywgJzgnLCAnLW1hJywgJzIwMCcsICctbWV0YWxfYmluZGluZycsICctaW1hZScsICc8aW5maWxlLm1hZT4nLCAnLW9tYWUnLCAnPG91dGZpbGUubWFlPic=

> <r_lp_tautomer_probability>
1

> <r_epik_Ionization_Penalty>
0.0357149

> <r_epik_Ionization_Penalty_Charging>
0.0355056

> <r_epik_Ionization_Penalty_Neutral>
0.000209255

> <r_epik_State_Penalty>
0.0296046

> <r_epik_Charging_Adjusted_Penalty>
0.0651102

> <i_epik_Tot_Q>
0

> <i_epik_Tot_abs_Q>
0

> <r_epik_Metal_State_Penalty>
3.03559e-05

> <b_epik_Metal_Only>
0

> <s_epik_Chemistry_Notes>
This compound has an imine and may undergo hydrolysis. This compound contains an acetal/aminal-like group ( X-CH(R)-Y where X, Y are N, S, or O) that may be acid/base labile, releasing an aldehyde.

> <s_lp_Force_Field>
OPLS_2005

> <r_lp_Energy>
46.7001

> <b_lp_Chiralities_Consistent>
1

> <s_lp_Variant>
AV-unprocessed.smi:157-4

> <Gold.Version>
5.8.1

> <Gold.Id.Protein>
6NUR|6NUR_protein|mol2

> <Gold.PLP.Fitness>
41.6160

> <Gold.PLP.PLP>
-32.4377

> <Gold.PLP.part.hbond>
-2.6773

> <Gold.PLP.part.metal>
0.0000

> <Gold.PLP.part.buried>
-5.3687

> <Gold.PLP.part.nonpolar>
-23.7071

> <Gold.PLP.part.repulsive>
0.1622

> <Gold.PLP.ligand.clash>
0.0000

> <Gold.PLP.ligand.torsion>
0.6014

> <Gold.PLP.Chemscore.Hbond>
2.4560

> <Gold.PLP.Chemscore.CHOScore>
1.0000

> <Gold.PLP.Chemscore.Metal>
0.0000

> <Gold.Chemscore.Hbonds>
donor molecule, donor type, donor heavy atom, donor atom, acceptor molecule, acceptor atom, score
      L1  H     1    24       P1  8028  1.00
      L1  H    19    35       P1  7957  0.70
      P1  H  7989  7998       L1    19  0.70
      L1  C    12    28       P1  8028  1.00

> <Gold.PLP.Chemscore.Internal.Correction>
0.0131

> <Gold.Rescore>
     Score         DG    S(hbond)    S(metal)    S(lipo)     H(rot)  DE(clash)    DE(int)     intcor
      8.23     -10.33       2.35        0.00      53.78       3.64       0.07       2.02       ----

> <Gold.Chemscore.Fitness>
8.2328

> <Gold.Chemscore.DG>
-10.3284

> <Gold.Chemscore.ZeroCoef>
-5.4800

> <Gold.Chemscore.Hbond>
2.3548

> <Gold.Chemscore.Metal>
0.0000

> <Gold.Chemscore.Lipo>
53.7787

> <Gold.Chemscore.Internal_Hbond>
0.0000

> <Gold.Chemscore.DEClash>
0.0716

> <Gold.Chemscore.DEInternal>
2.0240

> <Gold.Chemscore.Rot>
3.6362

> <Gold.Chemscore.Internal.Correction>
   9.000000E+99

> <Gold.Chemscore.Hbonds>
donor molecule, donor type, donor heavy atom, donor atom, acceptor molecule, acceptor atom, score
      L1  H     1    24       P1  8028  1.00
      L1  H    19    35       P1  7957  0.69
      P1  H  7989  7998       L1    19  0.07

> <Gold.Chemscore.Hbond.Weighted>
-7.8650

> <Gold.Chemscore.Metal.Weighted>
-0.0000

> <Gold.Chemscore.Lipo.Weighted>
-6.2921

> <Gold.Chemscore.Internal_Hbond.Weighted>
0.0000

> <Gold.Chemscore.DEClash.Weighted>
0.0716

> <Gold.Chemscore.DEInternal.Weighted>
2.0240

> <Gold.Chemscore.Rot.Weighted>
9.3087

> <Gold.Chemscore.Internal.Correction.Weighted>
   9.000000E+99

> <Gold.Protein.RotatedTorsions>
[ 6907 6896 6895 6894 ] final   97.80 input  -60.11 | X-H torsion
[ 7974 7965 7964 7962 ] final -124.92 input  175.53 | X-H torsion
[ 8008 7997 7996 7995 ] final  170.09 input   59.86 | X-H torsion
[ 10167 10162 10161 10158 ] final   98.47 input  -65.29 | X-H torsion
[ 10718 10713 10712 10709 ] final -164.76 input   66.30 | X-H torsion
[ 10763 10752 10751 10750 ] final -107.15 input  -60.55 | X-H torsion
[ 11005 11000 10999 10996 ] final  142.95 input  -57.11 | X-H torsion

> <Gold.Protein.ActiveResidues>
 VAL166  LYS551  ARG553  GLY616  TRP617  ASP618  TYR619  PRO620  LYS621  CYS622 
 ASP623  PHE694  ASN695  SER759  ASP760  ASP761  ALA762  ILE779  LEU786  VAL792 
 PHE793  MET794  SER795  GLU796  ALA797  LYS798  CYS799  TRP800  GLU811  SER814 

> <Gold.Protein.RotatedAtoms>
  152.5418  134.0678  159.8180 H   0  0  0  0  0  0  0  0  0  0  0  0  # atno 6907 bound_to 6896
  151.0796  133.5393  159.2629 H   0  0  0  0  0  0  0  0  0  0  0  0  # atno 6908 bound_to 6896
  151.2225  135.0532  159.9009 H   0  0  0  0  0  0  0  0  0  0  0  0  # atno 6909 bound_to 6896
  145.0030  140.7837  143.4485 H   0  0  0  0  0  0  0  0  0  0  0  0  # atno 7974 bound_to 7965
  156.1398  140.1547  156.8939 H   0  0  0  0  0  0  0  0  0  0  0  0  # atno 8008 bound_to 7997
  154.4977  140.0833  156.7771 H   0  0  0  0  0  0  0  0  0  0  0  0  # atno 8009 bound_to 7997
  155.4100  140.3418  155.4265 H   0  0  0  0  0  0  0  0  0  0  0  0  # atno 8010 bound_to 7997
  139.7706  144.6924  151.0162 H   0  0  0  0  0  0  0  0  0  0  0  0  # atno 10167 bound_to 10162
  156.6437  130.8979  151.3001 H   0  0  0  0  0  0  0  0  0  0  0  0  # atno 10718 bound_to 10713
  154.8057  135.4685  154.0387 H   0  0  0  0  0  0  0  0  0  0  0  0  # atno 10763 bound_to 10752
  153.1858  135.6847  153.8424 H   0  0  0  0  0  0  0  0  0  0  0  0  # atno 10764 bound_to 10752
  153.7959  135.3236  155.3362 H   0  0  0  0  0  0  0  0  0  0  0  0  # atno 10765 bound_to 10752
  140.0516  134.9252  157.1027 H   0  0  0  0  0  0  0  0  0  0  0  0  # atno 11005 bound_to 11000
  145.2127  139.2196  143.5134 LP  0  0  0  0  0  0  0  0  0  0  0  0  # atno 17320 bound_to 7965
  146.3455  140.1969  142.8589 LP  0  0  0  0  0  0  0  0  0  0  0  0  # atno 17321 bound_to 7965
  140.7813  143.4593  151.0300 LP  0  0  0  0  0  0  0  0  0  0  0  0  # atno 17342 bound_to 10162
  139.8277  143.7733  152.3179 LP  0  0  0  0  0  0  0  0  0  0  0  0  # atno 17343 bound_to 10162
  157.7163  130.9501  150.1268 LP  0  0  0  0  0  0  0  0  0  0  0  0  # atno 17370 bound_to 10713
  156.2139  130.3668  149.8637 LP  0  0  0  0  0  0  0  0  0  0  0  0  # atno 17371 bound_to 10713
  140.3908  134.2186  155.7166 LP  0  0  0  0  0  0  0  0  0  0  0  0  # atno 17394 bound_to 11000
  141.1933  133.8154  157.0805 LP  0  0  0  0  0  0  0  0  0  0  0  0  # atno 17395 bound_to 11000

$$$$
