#       Name:                AV-unprocessed.smi:830
#       Creating user name   scv26
#       Creation time:       Fri Mar 27 01:32:16 2020


#       File generated by GOLD software.
#

@<TRIPOS>MOLECULE
AV-unprocessed.smi:830
    58    60     1
SMALL
NO_CHARGES


@<TRIPOS>ATOM
      1 ****        -1.8867  -1.3587   1.4780 C.3            1 S1                 0.0000
      2 ****        -1.6797  -0.4369   0.2644 C.3            1 S1                 0.0000
      3 ****        -0.2538  -0.2748  -0.0136 N.am           1 S1                 0.0000
      4 ****         0.5044  -1.1117  -0.7352 C.2            1 S1                 0.0000
      5 ****         0.0752  -2.1333  -1.2720 O.2            1 S1                 0.0000
      6 ****         1.7816  -0.6984  -0.7701 N.am           1 S1                 0.0000
      7 ****         2.8945  -1.3701  -1.3469 C.ar           1 S1                 0.0000
      8 ****         2.7736  -2.0641  -2.5751 C.ar           1 S1                 0.0000
      9 ****         3.9133  -2.6529  -3.1491 C.ar           1 S1                 0.0000
     10 ****         5.1409  -2.5128  -2.4808 C.ar           1 S1                 0.0000
     11 ****         5.2744  -1.8444  -1.3178 N.ar           1 S1                 0.0000
     12 ****         4.1818  -1.2836  -0.7426 C.ar           1 S1                 0.0000
     13 ****         4.3815  -0.6125   0.4864 N.3            1 S1                 0.0000
     14 ****         5.7297  -0.3048   0.9527 C.3            1 S1                 0.0000
     15 ****         5.5695   0.0381   2.4312 C.3            1 S1                 0.0000
     16 ****         4.4517  -0.9048   2.8648 C.3            1 S1                 0.0000
     17 ****         3.5525  -0.9913   1.6275 C.3            1 S1                 0.0000
     18 ****        -2.3789   0.9210   0.4021 C.2            1 S1                 0.0000
     19 ****        -1.7427   1.9271   0.7200 O.2            1 S1                 0.0000
     20 ****        -3.7004   0.9324   0.1687 N.am           1 S1                 0.0000
     21 ****        -4.5550   2.1142   0.2358 C.3            1 S1                 0.0000
     22 ****        -6.0268   1.7061   0.4250 C.3            1 S1                 0.0000
     23 ****        -6.7067   1.9573  -0.9208 C.3            1 S1                 0.0000
     24 ****        -5.9531   3.1510  -1.4991 C.3            1 S1                 0.0000
     25 ****        -4.5001   2.9269  -1.0747 C.3            1 S1                 0.0000
     26 ****        -2.9463  -1.5001   1.6927 H              1 S1                 0.0000
     27 ****        -1.4187  -0.9464   2.3727 H              1 S1                 0.0000
     28 ****        -1.4562  -2.3451   1.3025 H              1 S1                 0.0000
     29 ****        -2.1360  -0.9222  -0.6009 H              1 S1                 0.0000
     30 ****         0.1875   0.5423   0.3828 H              1 S1                 0.0000
     31 ****         2.0057   0.1082  -0.2057 H              1 S1                 0.0000
     32 ****         1.8295  -2.1329  -3.0940 H              1 S1                 0.0000
     33 ****         3.8496  -3.1876  -4.0852 H              1 S1                 0.0000
     34 ****         6.0413  -2.9439  -2.8930 H              1 S1                 0.0000
     35 ****         6.3813  -1.1735   0.8517 H              1 S1                 0.0000
     36 ****         6.1670   0.5205   0.3902 H              1 S1                 0.0000
     37 ****         6.4892  -0.0966   3.0009 H              1 S1                 0.0000
     38 ****         5.2472   1.0744   2.5427 H              1 S1                 0.0000
     39 ****         4.8679  -1.8887   3.0850 H              1 S1                 0.0000
     40 ****         3.9206  -0.5584   3.7518 H              1 S1                 0.0000
     41 ****         2.7322  -0.2787   1.7161 H              1 S1                 0.0000
     42 ****         3.1246  -1.9885   1.5153 H              1 S1                 0.0000
     43 ****        -4.1456   0.0611  -0.0813 H              1 S1                 0.0000
     44 ****        -4.2530   2.7365   1.0805 H              1 S1                 0.0000
     45 ****        -6.1526   0.6771   0.7649 H              1 S1                 0.0000
     46 ****        -6.4823   2.3490   1.1793 H              1 S1                 0.0000
     47 ****        -6.5748   1.0892  -1.5680 H              1 S1                 0.0000
     48 ****        -7.7766   2.1420  -0.8226 H              1 S1                 0.0000
     49 ****        -6.0661   3.2367  -2.5802 H              1 S1                 0.0000
     50 ****        -6.3282   4.0721  -1.0511 H              1 S1                 0.0000
     51 ****        -3.9642   3.8683  -0.9504 H              1 S1                 0.0000
     52 ****        -3.9841   2.3659  -1.8559 H              1 S1                 0.0000
     53 ****        -0.8902  -2.3779  -1.1815 LP             1 S1                 0.0000
     54 ****         0.6920  -2.7184  -1.7985 LP             1 S1                 0.0000
     55 ****         6.1712  -1.7628  -0.8830 LP             1 S1                 0.0000
     56 ****         4.0297   0.2432   0.1068 LP             1 S1                 0.0000
     57 ****        -0.7595   1.8636   0.8913 LP             1 S1                 0.0000
     58 ****        -2.2095   2.8072   0.8067 LP             1 S1                 0.0000
@<TRIPOS>BOND
    1    1    2 1     
    2    1   26 1     
    3    1   27 1     
    4    1   28 1     
    5    2    3 1     
    6    2   18 1     
    7    2   29 1     
    8    3    4 am    
    9    3   30 1     
   10    4    5 2     
   11    4    6 am    
   12    6    7 1     
   13    6   31 1     
   14    7   12 ar    
   15    7    8 ar    
   16    8    9 ar    
   17    8   32 1     
   18    9   10 ar    
   19    9   33 1     
   20   10   11 ar    
   21   10   34 1     
   22   11   12 ar    
   23   12   13 1     
   24   13   17 1     
   25   13   14 1     
   26   14   15 1     
   27   14   35 1     
   28   14   36 1     
   29   15   16 1     
   30   15   37 1     
   31   15   38 1     
   32   16   17 1     
   33   16   39 1     
   34   16   40 1     
   35   17   41 1     
   36   17   42 1     
   37   18   19 2     
   38   18   20 am    
   39   20   21 1     
   40   20   43 1     
   41   21   25 1     
   42   21   22 1     
   43   21   44 1     
   44   22   23 1     
   45   22   45 1     
   46   22   46 1     
   47   23   24 1     
   48   23   47 1     
   49   23   48 1     
   50   24   25 1     
   51   24   49 1     
   52   24   50 1     
   53   25   51 1     
   54   25   52 1     
   55    5   53 1     
   56    5   54 1     
   57   11   55 1     
   58   13   56 1     
   59   19   57 1     
   60   19   58 1     
@<TRIPOS>SUBSTRUCTURE
      1 S1             1
@<TRIPOS>SET
LONE_PAIRS      STATIC     ATOMS    <user>   **** ""
6 53 54 55 56 57 58
DONOR_HYDROGENS      STATIC     ATOMS    <user>   **** ""
3 30 31 43
ATOM$BLUE        STATIC     ATOMS    COLORGROUP SYSTEM
6 53 54 55 56 57 58
ATOM$RED        STATIC     ATOMS    COLORGROUP SYSTEM
3 30 31 43
