AV-unprocessed.smi:1965|AV-procd|sdf|7939|dock5
  -GOLD-   2272010103D 1   1.00000     0.00000
 Structure written by MMmdl.
 37 39  0  0  0  0  0  0  0  0  2 V2000
  146.2198  137.1161  154.2057 O   0  0  0  0  0  0  0  0  0  0  0  0
  145.6011  137.7778  153.3739 C   0  0  0  0  0  0  0  0  0  0  0  0
  145.9226  139.0661  153.1300 N   0  0  0  0  0  0  0  0  0  0  0  0
  146.9300  139.9101  153.6821 C   0  0  0  0  0  0  0  0  0  0  0  0
  148.1334  139.5027  154.1065 N   0  0  0  0  0  0  0  0  0  0  0  0
  148.9007  140.5561  154.6104 C   0  0  0  0  0  0  0  0  0  0  0  0
  148.2602  141.7688  154.5690 C   0  0  0  0  0  0  0  0  0  0  0  0
  146.6599  141.6348  153.8915 S   0  0  0  0  0  0  0  0  0  0  0  0
  144.5765  137.2757  152.6654 N   0  0  0  0  0  0  0  0  0  0  0  0
  144.0583  135.9152  152.7642 C   0  0  1  0  0  0  0  0  0  0  0  0
  142.5594  135.8664  153.0358 C   0  0  0  0  0  0  0  0  0  0  0  0
  142.1983  134.4458  152.5986 C   0  0  0  0  0  0  0  0  0  0  0  0
  143.0962  134.1279  151.4643 N   0  3  2  0  0  0  0  0  0  0  0  0
  143.5265  132.7098  151.3970 C   0  0  0  0  0  0  0  0  0  0  0  0
  144.4397  132.4745  150.1794 C   0  0  0  0  0  0  0  0  0  0  0  0
  145.5883  133.4999  150.0766 C   0  0  0  0  0  0  0  0  0  0  0  0
  145.5906  134.4972  151.2454 C   0  0  0  0  0  0  0  0  0  0  0  0
  144.1965  135.1336  151.4470 C   0  0  2  0  0  0  0  0  0  0  0  0
  145.3306  139.5204  152.4496 H   0  0  0  0  0  0  0  0  0  0  0  0
  149.8944  140.3525  154.9810 H   0  0  0  0  0  0  0  0  0  0  0  0
  148.6310  142.7290  154.8961 H   0  0  0  0  0  0  0  0  0  0  0  0
  144.1236  137.8903  152.0033 H   0  0  0  0  0  0  0  0  0  0  0  0
  144.5600  135.3751  153.5701 H   0  0  0  0  0  0  0  0  0  0  0  0
  142.3082  136.0654  154.0781 H   0  0  0  0  0  0  0  0  0  0  0  0
  142.0339  136.5938  152.4143 H   0  0  0  0  0  0  0  0  0  0  0  0
  142.3856  133.7584  153.4253 H   0  0  0  0  0  0  0  0  0  0  0  0
  141.1497  134.3489  152.3163 H   0  0  0  0  0  0  0  0  0  0  0  0
  144.0496  132.4397  152.3159 H   0  0  0  0  0  0  0  0  0  0  0  0
  142.6486  132.0659  151.3350 H   0  0  0  0  0  0  0  0  0  0  0  0
  144.8469  131.4637  150.2215 H   0  0  0  0  0  0  0  0  0  0  0  0
  143.8420  132.5177  149.2680 H   0  0  0  0  0  0  0  0  0  0  0  0
  146.5484  132.9851  150.0275 H   0  0  0  0  0  0  0  0  0  0  0  0
  145.4928  134.0499  149.1396 H   0  0  0  0  0  0  0  0  0  0  0  0
  145.9029  133.9831  152.1555 H   0  0  0  0  0  0  0  0  0  0  0  0
  146.3356  135.2732  151.0678 H   0  0  0  0  0  0  0  0  0  0  0  0
  143.9838  135.7976  150.6073 H   0  0  0  0  0  0  0  0  0  0  0  0
  142.5652  134.3001  150.6224 H   0  0  0  0  0  0  0  0  0  0  0  0
  1  2  2  0  0  0  0
  2  3  1  0  0  0  0
  2  9  1  0  0  0  0
  3  4  1  0  0  0  0
  3 19  1  0  0  0  0
  4  8  1  0  0  0  0
  4  5  2  0  0  0  0
  5  6  1  0  0  0  0
  6  7  2  0  0  0  0
  6 20  1  0  0  0  0
  7  8  1  0  0  0  0
  7 21  1  0  0  0  0
  9 10  1  0  0  0  0
  9 22  1  0  0  0  0
 10 18  1  0  0  0  0
 10 11  1  0  0  0  0
 10 23  1  0  0  0  0
 11 12  1  0  0  0  0
 11 24  1  0  0  0  0
 11 25  1  0  0  0  0
 12 13  1  0  0  0  0
 12 26  1  0  0  0  0
 12 27  1  0  0  0  0
 13 18  1  0  0  0  0
 13 14  1  0  0  0  0
 13 37  1  0  0  0  0
 14 15  1  0  0  0  0
 14 28  1  0  0  0  0
 14 29  1  0  0  0  0
 15 16  1  0  0  0  0
 15 30  1  0  0  0  0
 15 31  1  0  0  0  0
 16 17  1  0  0  0  0
 16 32  1  0  0  0  0
 16 33  1  0  0  0  0
 17 18  1  0  0  0  0
 17 34  1  0  0  0  0
 17 35  1  0  0  0  0
 18 36  1  0  0  0  0
M  CHG  1  13   1
M  END
> <s_m_source_file>
AV-unprocessed.smi

> <i_m_source_file_index>
1965

> <i_lp_mmshare_version>
43012

> <i_f3d_flags>
0

> <s_epik_input>
czFbY0hdW2NIXW5jMVtOSF1DKD1PKVtOSF1bQ0BIXShbQ0gyXVtDSDJdMilbQ0BASF0oTjIzKVtDSDJdW0NIMl1bQ0gyXVtDSDJdMw==

> <s_epik_cmdline>
J2VwaWtfcHl0aG9uJywgJy1waCcsICc3LjAnLCAnLXRuJywgJzgnLCAnLW1hJywgJzIwMCcsICctbWV0YWxfYmluZGluZycsICctaW1hZScsICc8aW5maWxlLm1hZT4nLCAnLW9tYWUnLCAnPG91dGZpbGUubWFlPic=

> <r_lp_tautomer_probability>
1

> <r_epik_Ionization_Penalty>
0.00125962

> <r_epik_Ionization_Penalty_Charging>
0.00107044

> <r_epik_Ionization_Penalty_Neutral>
0.000189176

> <r_epik_State_Penalty>
-0

> <r_epik_Charging_Adjusted_Penalty>
0.00107044

> <i_epik_Tot_Q>
1

> <i_epik_Tot_abs_Q>
1

> <r_epik_Metal_State_Penalty>
0.0179285

> <b_epik_Metal_Only>
0

> <s_lp_Force_Field>
OPLS_2005

> <r_lp_Energy>
40.5286

> <b_lp_Chiralities_Consistent>
1

> <s_lp_Variant>
AV-unprocessed.smi:1965-8

> <Gold.Version>
5.8.1

> <Gold.Id.Protein>
6NUR|6NUR_protein|mol2

> <Gold.PLP.Fitness>
43.6488

> <Gold.PLP.PLP>
-31.5476

> <Gold.PLP.part.hbond>
-2.6542

> <Gold.PLP.part.metal>
0.0000

> <Gold.PLP.part.buried>
-2.9497

> <Gold.PLP.part.nonpolar>
-25.2095

> <Gold.PLP.part.repulsive>
0.5469

> <Gold.PLP.ligand.clash>
0.0000

> <Gold.PLP.ligand.torsion>
0.2416

> <Gold.PLP.Chemscore.Hbond>
3.1923

> <Gold.PLP.Chemscore.CHOScore>
1.0000

> <Gold.PLP.Chemscore.Metal>
0.0000

> <Gold.Chemscore.Hbonds>
donor molecule, donor type, donor heavy atom, donor atom, acceptor molecule, acceptor atom, score
      L1  H     3    19       P1 10175  0.75
      L1  H     9    22       P1 10171  0.31
      L1  H    13    37       P1 10186  2.00
      L1  C     7    21       P1  8028  1.00

> <Gold.PLP.Chemscore.Internal.Correction>
0.0078

> <Gold.Rescore>
     Score         DG    S(hbond)    S(metal)    S(lipo)     H(rot)  DE(clash)    DE(int)     intcor
     16.26     -18.59       2.08        0.00      74.62       1.00       1.47       0.86       ----

> <Gold.Chemscore.Fitness>
16.2574

> <Gold.Chemscore.DG>
-18.5915

> <Gold.Chemscore.ZeroCoef>
-5.4800

> <Gold.Chemscore.Hbond>
2.0782

> <Gold.Chemscore.Metal>
0.0000

> <Gold.Chemscore.Lipo>
74.6179

> <Gold.Chemscore.Internal_Hbond>
0.0000

> <Gold.Chemscore.DEClash>
1.4736

> <Gold.Chemscore.DEInternal>
0.8605

> <Gold.Chemscore.Rot>
1.0000

> <Gold.Chemscore.Internal.Correction>
   9.000000E+99

> <Gold.Chemscore.Hbonds>
donor molecule, donor type, donor heavy atom, donor atom, acceptor molecule, acceptor atom, score
      L1  H     3    19       P1 10175  0.74
      L1  H     9    22       P1 10171  0.29
      L1  H    13    37       P1 10186  0.49

> <Gold.Chemscore.Hbond.Weighted>
-6.9413

> <Gold.Chemscore.Metal.Weighted>
-0.0000

> <Gold.Chemscore.Lipo.Weighted>
-8.7303

> <Gold.Chemscore.Internal_Hbond.Weighted>
0.0000

> <Gold.Chemscore.DEClash.Weighted>
1.4736

> <Gold.Chemscore.DEInternal.Weighted>
0.8605

> <Gold.Chemscore.Rot.Weighted>
2.5600

> <Gold.Chemscore.Internal.Correction.Weighted>
   9.000000E+99

> <Gold.Protein.RotatedTorsions>
[ 6907 6896 6895 6894 ] final  -25.61 input  -60.11 | X-H torsion
[ 7974 7965 7964 7962 ] final  -89.40 input  175.53 | X-H torsion
[ 8008 7997 7996 7995 ] final  136.06 input   59.86 | X-H torsion
[ 10167 10162 10161 10158 ] final  168.13 input  -65.29 | X-H torsion
[ 10718 10713 10712 10709 ] final  126.58 input   66.30 | X-H torsion
[ 10763 10752 10751 10750 ] final  -93.16 input  -60.55 | X-H torsion
[ 11005 11000 10999 10996 ] final -128.03 input  -57.11 | X-H torsion

> <Gold.Protein.ActiveResidues>
 VAL166  LYS551  ARG553  GLY616  TRP617  ASP618  TYR619  PRO620  LYS621  CYS622 
 ASP623  PHE694  ASN695  SER759  ASP760  ASP761  ALA762  ILE779  LEU786  VAL792 
 PHE793  MET794  SER795  GLU796  ALA797  LYS798  CYS799  TRP800  GLU811  SER814 

> <Gold.Protein.RotatedAtoms>
  151.1727  135.0325  159.8758 H   0  0  0  0  0  0  0  0  0  0  0  0  # atno 6907 bound_to 6896
  152.5448  134.1152  159.8385 H   0  0  0  0  0  0  0  0  0  0  0  0  # atno 6908 bound_to 6896
  151.1260  133.5024  159.2633 H   0  0  0  0  0  0  0  0  0  0  0  0  # atno 6909 bound_to 6896
  145.4403  140.9559  143.2078 H   0  0  0  0  0  0  0  0  0  0  0  0  # atno 7974 bound_to 7965
  156.3004  140.2455  156.3683 H   0  0  0  0  0  0  0  0  0  0  0  0  # atno 8008 bound_to 7997
  154.8813  140.0412  157.1803 H   0  0  0  0  0  0  0  0  0  0  0  0  # atno 8009 bound_to 7997
  154.8693  140.2932  155.5495 H   0  0  0  0  0  0  0  0  0  0  0  0  # atno 8010 bound_to 7997
  139.4961  144.3848  151.9583 H   0  0  0  0  0  0  0  0  0  0  0  0  # atno 10167 bound_to 10162
  157.5407  131.1097  150.8863 H   0  0  0  0  0  0  0  0  0  0  0  0  # atno 10718 bound_to 10713
  154.6932  135.5204  153.8422 H   0  0  0  0  0  0  0  0  0  0  0  0  # atno 10763 bound_to 10752
  153.0648  135.6581  154.0390 H   0  0  0  0  0  0  0  0  0  0  0  0  # atno 10764 bound_to 10752
  154.0260  135.2989  155.3354 H   0  0  0  0  0  0  0  0  0  0  0  0  # atno 10765 bound_to 10752
  140.9550  134.1014  157.4025 H   0  0  0  0  0  0  0  0  0  0  0  0  # atno 11005 bound_to 11000
  144.8125  139.5935  143.7023 LP  0  0  0  0  0  0  0  0  0  0  0  0  # atno 17320 bound_to 7965
  146.2560  139.6302  142.9395 LP  0  0  0  0  0  0  0  0  0  0  0  0  # atno 17321 bound_to 7965
  140.3285  144.3345  150.5993 LP  0  0  0  0  0  0  0  0  0  0  0  0  # atno 17342 bound_to 10162
  140.5665  143.2185  151.7675 LP  0  0  0  0  0  0  0  0  0  0  0  0  # atno 17343 bound_to 10162
  156.9417  130.5387  149.5280 LP  0  0  0  0  0  0  0  0  0  0  0  0  # atno 17370 bound_to 10713
  156.0494  130.5566  150.8956 LP  0  0  0  0  0  0  0  0  0  0  0  0  # atno 17371 bound_to 10713
  139.8859  135.0077  156.6466 LP  0  0  0  0  0  0  0  0  0  0  0  0  # atno 17394 bound_to 11000
  140.7549  133.8866  155.8374 LP  0  0  0  0  0  0  0  0  0  0  0  0  # atno 17395 bound_to 11000

$$$$
