#       Name:                AV-unprocessed.smi:3314
#       Creating user name   scv26
#       Creation time:       Fri Mar 27 19:08:32 2020


#       File generated by GOLD software.
#

@<TRIPOS>MOLECULE
AV-unprocessed.smi:3314
    43    44     1
SMALL
NO_CHARGES


@<TRIPOS>ATOM
      1 ****        -3.7536  -3.0488  -2.3450 C.3            1 S1                 0.0000
      2 ****        -3.2076  -2.1183  -1.2829 C.ar           1 S1                 0.0000
      3 ****        -4.0490  -1.2064  -0.6179 C.ar           1 S1                 0.0000
      4 ****        -3.4785  -0.3723   0.3631 C.ar           1 S1                 0.0000
      5 ****        -4.3293   0.6310   1.1127 C.3            1 S1                 0.0000
      6 ****        -2.1678  -0.4042   0.6883 N.ar           1 S1                 0.0000
      7 ****        -1.3467  -1.2722   0.0506 C.ar           1 S1                 0.0000
      8 ****        -0.0501  -1.2992   0.3901 N.pl3          1 S1                -1.0000
      9 ****         0.8346  -0.4981  -0.2518 C.2            1 S1                 0.0000
     10 ****         0.6306   0.2683  -1.1957 O.2            1 S1                 0.0000
     11 ****         2.2532  -0.6246   0.3485 C.3            1 S1                 0.0000
     12 ****         3.3018   0.3175  -0.2896 C.3            1 S1                 0.0000
     13 ****         3.0405   1.7300   0.0763 N.4            1 S1                 1.0000
     14 ****         3.9767   2.6717  -0.5722 C.3            1 S1                 0.0000
     15 ****         2.9907   1.8931   1.5467 C.3            1 S1                 0.0000
     16 ****         1.9502   0.9391   2.1553 C.3            1 S1                 0.0000
     17 ****         2.2432  -0.4018   1.7644 O.3            1 S1                 0.0000
     18 ****        -1.8411  -2.1518  -0.9403 C.ar           1 S1                 0.0000
     19 ****        -4.7867  -2.8040  -2.5934 H              1 S1                 0.0000
     20 ****        -3.7205  -4.0803  -1.9943 H              1 S1                 0.0000
     21 ****        -3.1580  -2.9750  -3.2552 H              1 S1                 0.0000
     22 ****        -5.1020  -1.1478  -0.8511 H              1 S1                 0.0000
     23 ****        -5.3506   0.2653   1.2229 H              1 S1                 0.0000
     24 ****        -4.3594   1.5763   0.5709 H              1 S1                 0.0000
     25 ****        -3.9283   0.8185   2.1096 H              1 S1                 0.0000
     26 ****         2.5773  -1.6532   0.1837 H              1 S1                 0.0000
     27 ****         4.3004   0.0361   0.0483 H              1 S1                 0.0000
     28 ****         3.3009   0.2087  -1.3754 H              1 S1                 0.0000
     29 ****         5.0024   2.4891  -0.2488 H              1 S1                 0.0000
     30 ****         3.7172   3.7013  -0.3247 H              1 S1                 0.0000
     31 ****         3.9342   2.5690  -1.6570 H              1 S1                 0.0000
     32 ****         3.9757   1.6920   1.9709 H              1 S1                 0.0000
     33 ****         2.7378   2.9242   1.7963 H              1 S1                 0.0000
     34 ****         1.9818   0.9989   3.2432 H              1 S1                 0.0000
     35 ****         0.9398   1.2256   1.8607 H              1 S1                 0.0000
     36 ****        -1.1760  -2.8445  -1.4359 H              1 S1                 0.0000
     37 ****         2.1173   1.9481  -0.2727 H              1 S1                 0.0000
     38 ****        -1.8074   0.2070   1.3929 LP             1 S1                 0.0000
     39 ****         0.2641  -1.9102   1.1167 LP             1 S1                 0.0000
     40 ****        -0.2881   0.3530  -1.5814 LP             1 S1                 0.0000
     41 ****         1.3838   0.8052  -1.5756 LP             1 S1                 0.0000
     42 ****         3.1453  -0.6409   2.1237 LP             1 S1                 0.0000
     43 ****         1.5534  -1.0021   2.1693 LP             1 S1                 0.0000
@<TRIPOS>BOND
    1    1    2 1     
    2    1   19 1     
    3    1   20 1     
    4    1   21 1     
    5    2   18 ar    
    6    2    3 ar    
    7    3    4 ar    
    8    3   22 1     
    9    4    5 1     
   10    4    6 ar    
   11    5   23 1     
   12    5   24 1     
   13    5   25 1     
   14    6    7 ar    
   15    7    8 1     
   16    7   18 ar    
   17    8    9 1     
   18    9   10 2     
   19    9   11 1     
   20   11   17 1     
   21   11   12 1     
   22   11   26 1     
   23   12   13 1     
   24   12   27 1     
   25   12   28 1     
   26   13   14 1     
   27   13   15 1     
   28   13   37 1     
   29   14   29 1     
   30   14   30 1     
   31   14   31 1     
   32   15   16 1     
   33   15   32 1     
   34   15   33 1     
   35   16   17 1     
   36   16   34 1     
   37   16   35 1     
   38   18   36 1     
   39    6   38 1     
   40    8   39 1     
   41   10   40 1     
   42   10   41 1     
   43   17   42 1     
   44   17   43 1     
@<TRIPOS>SUBSTRUCTURE
      1 S1             1
@<TRIPOS>SET
LONE_PAIRS      STATIC     ATOMS    <user>   **** ""
6 38 39 40 41 42 43
DONOR_HYDROGENS      STATIC     ATOMS    <user>   **** ""
1 37
ATOM$BLUE        STATIC     ATOMS    COLORGROUP SYSTEM
6 38 39 40 41 42 43
ATOM$RED        STATIC     ATOMS    COLORGROUP SYSTEM
1 37
