AV-unprocessed.smi:1308|AV-procd|sdf|5441|dock2
  -GOLD-   22720 5 03D 1   1.00000     0.00000
 Structure written by MMmdl.
 45 45  0  0  0  0  0  0  0  0  1 V2000
  151.7150  138.3795  154.3733 C   0  0  0  0  0  0  0  0  0  0  0  0
  150.5156  139.2939  154.2497 C   0  0  0  0  0  0  0  0  0  0  0  0
  149.3800  138.6606  153.7722 N   0  0  0  0  0  0  0  0  0  0  0  0
  148.2284  139.4151  153.6319 C   0  0  0  0  0  0  0  0  0  0  0  0
  147.0297  138.6456  153.1039 C   0  0  0  0  0  0  0  0  0  0  0  0
  148.2111  140.7352  153.9472 C   0  0  0  0  0  0  0  0  0  0  0  0
  146.9609  141.6033  153.8065 C   0  0  0  0  0  0  0  0  0  0  0  0
  146.1996  141.9115  155.0983 C   0  0  0  0  0  0  0  0  0  0  0  0
  146.7729  142.4365  156.0530 O   0  0  0  0  0  0  0  0  0  0  0  0
  144.8961  141.5851  155.0987 N   0  0  0  0  0  0  0  0  0  0  0  0
  143.9218  141.8124  156.1692 C   0  0  1  0  0  0  0  0  0  0  0  0
  144.3413  141.1200  157.4782 C   0  0  0  0  0  0  0  0  0  0  0  0
  143.5929  143.3086  156.3738 C   0  0  0  0  0  0  0  0  0  0  0  0
  143.0795  144.0146  155.1026 C   0  0  0  0  0  0  0  0  0  0  0  0
  143.3460  145.5334  155.0740 C   0  0  0  0  0  0  0  0  0  0  0  0
  143.1464  146.1925  156.4493 C   0  0  0  0  0  0  0  0  0  0  0  0
  142.4616  146.2194  154.0214 C   0  0  0  0  0  0  0  0  0  0  0  0
  149.4605  141.3597  154.4426 C   0  0  0  0  0  0  0  0  0  0  0  0
  149.5138  142.5553  154.7281 O   0  0  0  0  0  0  0  0  0  0  0  0
  150.5987  140.5480  154.5756 N   0  0  0  0  0  0  0  0  0  0  0  0
  149.3499  137.6821  153.5247 H   0  0  0  0  0  0  0  0  0  0  0  0
  152.5900  138.9283  154.7238 H   0  0  0  0  0  0  0  0  0  0  0  0
  151.9567  137.9358  153.4070 H   0  0  0  0  0  0  0  0  0  0  0  0
  151.5098  137.5772  155.0827 H   0  0  0  0  0  0  0  0  0  0  0  0
  146.6602  139.0973  152.1829 H   0  0  0  0  0  0  0  0  0  0  0  0
  146.2227  138.6465  153.8367 H   0  0  0  0  0  0  0  0  0  0  0  0
  147.2830  137.6070  152.8871 H   0  0  0  0  0  0  0  0  0  0  0  0
  146.2654  141.1619  153.0921 H   0  0  0  0  0  0  0  0  0  0  0  0
  147.2545  142.5527  153.3576 H   0  0  0  0  0  0  0  0  0  0  0  0
  144.5341  141.1548  154.2600 H   0  0  0  0  0  0  0  0  0  0  0  0
  143.0068  141.3232  155.8335 H   0  0  0  0  0  0  0  0  0  0  0  0
  143.5447  141.1789  158.2202 H   0  0  0  0  0  0  0  0  0  0  0  0
  145.2280  141.5791  157.9158 H   0  0  0  0  0  0  0  0  0  0  0  0
  144.5582  140.0641  157.3137 H   0  0  0  0  0  0  0  0  0  0  0  0
  142.8402  143.3841  157.1581 H   0  0  0  0  0  0  0  0  0  0  0  0
  144.4688  143.8360  156.7527 H   0  0  0  0  0  0  0  0  0  0  0  0
  143.5634  143.5655  154.2347 H   0  0  0  0  0  0  0  0  0  0  0  0
  142.0120  143.8262  154.9819 H   0  0  0  0  0  0  0  0  0  0  0  0
  144.3830  145.6901  154.7735 H   0  0  0  0  0  0  0  0  0  0  0  0
  142.1347  146.0313  156.8227 H   0  0  0  0  0  0  0  0  0  0  0  0
  143.3106  147.2690  156.3940 H   0  0  0  0  0  0  0  0  0  0  0  0
  143.8427  145.8020  157.1909 H   0  0  0  0  0  0  0  0  0  0  0  0
  141.4029  146.0943  154.2509 H   0  0  0  0  0  0  0  0  0  0  0  0
  142.6382  145.8073  153.0274 H   0  0  0  0  0  0  0  0  0  0  0  0
  142.6669  147.2892  153.9718 H   0  0  0  0  0  0  0  0  0  0  0  0
  1 22  1  0  0  0  0
  1 23  1  0  0  0  0
  1 24  1  0  0  0  0
  1  2  1  0  0  0  0
  2  3  1  0  0  0  0
  2 20  2  0  0  0  0
  3  4  1  0  0  0  0
  3 21  1  0  0  0  0
  4  6  2  0  0  0  0
  4  5  1  0  0  0  0
  5 25  1  0  0  0  0
  5 26  1  0  0  0  0
  5 27  1  0  0  0  0
  6 18  1  0  0  0  0
  6  7  1  0  0  0  0
  7  8  1  0  0  0  0
  7 28  1  0  0  0  0
  7 29  1  0  0  0  0
  8  9  2  0  0  0  0
  8 10  1  0  0  0  0
 10 11  1  0  0  0  0
 10 30  1  0  0  0  0
 11 12  1  0  0  0  0
 11 13  1  0  0  0  0
 11 31  1  0  0  0  0
 12 32  1  0  0  0  0
 12 33  1  0  0  0  0
 12 34  1  0  0  0  0
 13 14  1  0  0  0  0
 13 35  1  0  0  0  0
 13 36  1  0  0  0  0
 14 15  1  0  0  0  0
 14 37  1  0  0  0  0
 14 38  1  0  0  0  0
 15 16  1  0  0  0  0
 15 17  1  0  0  0  0
 15 39  1  0  0  0  0
 16 40  1  0  0  0  0
 16 41  1  0  0  0  0
 16 42  1  0  0  0  0
 17 43  1  0  0  0  0
 17 44  1  0  0  0  0
 17 45  1  0  0  0  0
 18 19  2  0  0  0  0
 18 20  1  0  0  0  0
M  END
> <s_m_source_file>
AV-unprocessed.smi

> <i_m_source_file_index>
1308

> <i_lp_mmshare_version>
43012

> <i_f3d_flags>
0

> <s_epik_input>
W0NIM11jMW5jKFtDSDNdKWMoYyg9TylbbkhdMSlbQ0gyXUMoPU8pW05IXVtDQEhdKFtDSDNdKVtDSDJdW0NIMl1bQ0hdKFtDSDNdKVtDSDNd

> <s_epik_cmdline>
J2VwaWtfcHl0aG9uJywgJy1waCcsICc3LjAnLCAnLXRuJywgJzgnLCAnLW1hJywgJzIwMCcsICctbWV0YWxfYmluZGluZycsICctaW1hZScsICc8aW5maWxlLm1hZT4nLCAnLW9tYWUnLCAnPG91dGZpbGUubWFlPic=

> <r_lp_tautomer_probability>
0.156392

> <r_epik_Ionization_Penalty>
0.0141156

> <r_epik_Ionization_Penalty_Charging>
0.0139937

> <r_epik_Ionization_Penalty_Neutral>
0.00012188

> <r_epik_State_Penalty>
1.52994

> <r_epik_Charging_Adjusted_Penalty>
1.54393

> <i_epik_Tot_Q>
0

> <i_epik_Tot_abs_Q>
0

> <r_epik_Metal_State_Penalty>
1.70663

> <b_epik_Metal_Only>
0

> <s_lp_Force_Field>
OPLS_2005

> <r_lp_Energy>
10.3869

> <b_lp_Chiralities_Consistent>
1

> <s_lp_Variant>
AV-unprocessed.smi:1308-4

> <Gold.Version>
5.8.1

> <Gold.Id.Protein>
6NUR|6NUR_protein|mol2

> <Gold.PLP.Fitness>
39.2643

> <Gold.PLP.PLP>
-31.4146

> <Gold.PLP.part.hbond>
-4.4251

> <Gold.PLP.part.metal>
0.0000

> <Gold.PLP.part.buried>
-1.3436

> <Gold.PLP.part.nonpolar>
-28.8666

> <Gold.PLP.part.repulsive>
3.0880

> <Gold.PLP.ligand.clash>
0.0000

> <Gold.PLP.ligand.torsion>
0.6315

> <Gold.PLP.Chemscore.Hbond>
3.0000

> <Gold.PLP.Chemscore.CHOScore>
0.0000

> <Gold.PLP.Chemscore.Metal>
0.0000

> <Gold.Chemscore.Hbonds>
donor molecule, donor type, donor heavy atom, donor atom, acceptor molecule, acceptor atom, score
      L1  H     3    21       P1  7948  0.47
      L1  H    10    30       P1 10175  0.91
      P1  H  7989  7998       L1    20  0.73

> <Gold.PLP.Chemscore.Internal.Correction>
0.1127

> <Gold.Rescore>
     Score         DG    S(hbond)    S(metal)    S(lipo)     H(rot)  DE(clash)    DE(int)     intcor
     11.91     -12.77       1.87        0.00      52.48       1.98       0.17       0.69       ----

> <Gold.Chemscore.Fitness>
11.9140

> <Gold.Chemscore.DG>
-12.7727

> <Gold.Chemscore.ZeroCoef>
-5.4800

> <Gold.Chemscore.Hbond>
1.8652

> <Gold.Chemscore.Metal>
0.0000

> <Gold.Chemscore.Lipo>
52.4840

> <Gold.Chemscore.Internal_Hbond>
0.0000

> <Gold.Chemscore.DEClash>
0.1677

> <Gold.Chemscore.DEInternal>
0.6910

> <Gold.Chemscore.Rot>
1.9835

> <Gold.Chemscore.Internal.Correction>
   9.000000E+99

> <Gold.Chemscore.Hbonds>
donor molecule, donor type, donor heavy atom, donor atom, acceptor molecule, acceptor atom, score
      L1  H     3    21       P1  7948  0.46
      L1  H    10    30       P1 10175  0.68
      P1  H  7989  7998       L1    20  0.06

> <Gold.Chemscore.Hbond.Weighted>
-6.2298

> <Gold.Chemscore.Metal.Weighted>
-0.0000

> <Gold.Chemscore.Lipo.Weighted>
-6.1406

> <Gold.Chemscore.Internal_Hbond.Weighted>
0.0000

> <Gold.Chemscore.DEClash.Weighted>
0.1677

> <Gold.Chemscore.DEInternal.Weighted>
0.6910

> <Gold.Chemscore.Rot.Weighted>
5.0778

> <Gold.Chemscore.Internal.Correction.Weighted>
   9.000000E+99

> <Gold.Protein.RotatedTorsions>
[ 6907 6896 6895 6894 ] final  126.43 input  -60.11 | X-H torsion
[ 7974 7965 7964 7962 ] final   18.65 input  175.53 | X-H torsion
[ 8008 7997 7996 7995 ] final -140.95 input   59.86 | X-H torsion
[ 10167 10162 10161 10158 ] final   25.35 input  -65.29 | X-H torsion
[ 10718 10713 10712 10709 ] final  114.42 input   66.30 | X-H torsion
[ 10763 10752 10751 10750 ] final  151.53 input  -60.55 | X-H torsion
[ 11005 11000 10999 10996 ] final   75.43 input  -57.11 | X-H torsion

> <Gold.Protein.ActiveResidues>
 VAL166  LYS551  ARG553  GLY616  TRP617  ASP618  TYR619  PRO620  LYS621  CYS622 
 ASP623  PHE694  ASN695  SER759  ASP760  ASP761  ALA762  ILE779  LEU786  VAL792 
 PHE793  MET794  SER795  GLU796  ALA797  LYS798  CYS799  TRP800  GLU811  SER814 

> <Gold.Protein.RotatedAtoms>
  152.3904  133.6670  159.6232 H   0  0  0  0  0  0  0  0  0  0  0  0  # atno 6907 bound_to 6896
  150.7813  133.8965  159.3337 H   0  0  0  0  0  0  0  0  0  0  0  0  # atno 6908 bound_to 6896
  151.6752  135.0971  160.0257 H   0  0  0  0  0  0  0  0  0  0  0  0  # atno 6909 bound_to 6896
  146.2177  139.8426  142.8638 H   0  0  0  0  0  0  0  0  0  0  0  0  # atno 7974 bound_to 7965
  155.4698  140.0552  157.2981 H   0  0  0  0  0  0  0  0  0  0  0  0  # atno 8008 bound_to 7997
  154.4703  140.2037  155.9966 H   0  0  0  0  0  0  0  0  0  0  0  0  # atno 8009 bound_to 7997
  156.1044  140.3214  155.7991 H   0  0  0  0  0  0  0  0  0  0  0  0  # atno 8010 bound_to 7997
  140.5113  144.0155  150.6374 H   0  0  0  0  0  0  0  0  0  0  0  0  # atno 10167 bound_to 10162
  157.6282  131.0998  150.7184 H   0  0  0  0  0  0  0  0  0  0  0  0  # atno 10718 bound_to 10713
  154.1053  135.2843  155.3243 H   0  0  0  0  0  0  0  0  0  0  0  0  # atno 10763 bound_to 10752
  154.6527  135.5363  153.7925 H   0  0  0  0  0  0  0  0  0  0  0  0  # atno 10764 bound_to 10752
  153.0364  135.6514  154.1214 H   0  0  0  0  0  0  0  0  0  0  0  0  # atno 10765 bound_to 10752
  139.9344  134.7516  156.1269 H   0  0  0  0  0  0  0  0  0  0  0  0  # atno 11005 bound_to 11000
  145.2883  141.0159  143.3678 LP  0  0  0  0  0  0  0  0  0  0  0  0  # atno 17320 bound_to 7965
  144.9097  139.4544  143.6593 LP  0  0  0  0  0  0  0  0  0  0  0  0  # atno 17321 bound_to 7965
  140.3478  143.2981  152.0519 LP  0  0  0  0  0  0  0  0  0  0  0  0  # atno 17342 bound_to 10162
  139.4897  144.6396  151.6905 LP  0  0  0  0  0  0  0  0  0  0  0  0  # atno 17343 bound_to 10162
  156.7528  130.4774  149.5453 LP  0  0  0  0  0  0  0  0  0  0  0  0  # atno 17370 bound_to 10713
  156.1467  130.6282  151.0541 LP  0  0  0  0  0  0  0  0  0  0  0  0  # atno 17371 bound_to 10713
  141.0950  133.6699  156.2626 LP  0  0  0  0  0  0  0  0  0  0  0  0  # atno 17394 bound_to 11000
  140.6114  134.5454  157.5534 LP  0  0  0  0  0  0  0  0  0  0  0  0  # atno 17395 bound_to 11000

$$$$
