AV-unprocessed.smi:2488|AV-procd|sdf|9793|dock2
  -GOLD-   2272013433D 1   1.00000     0.00000
 Structure written by MMmdl.
 33 34  0  0  0  0  0  0  0  0  1 V2000
  152.0328  145.1953  159.0748 C   0  0  0  0  0  0  0  0  0  0  0  0
  151.4579  144.1626  158.0988 C   0  0  0  0  0  0  0  0  0  0  0  0
  151.9413  142.7560  158.3991 C   0  0  0  0  0  0  0  0  0  0  0  0
  153.0555  142.6454  159.1562 N   0  0  0  0  0  0  0  0  0  0  0  0
  153.4870  141.4087  159.4134 C   0  0  0  0  0  0  0  0  0  0  0  0
  152.9334  140.2670  158.9986 N   0  0  0  0  0  0  0  0  0  0  0  0
  151.8212  140.3579  158.2275 C   0  0  0  0  0  0  0  0  0  0  0  0
  151.1975  139.1765  157.7774 N   0  0  0  0  0  0  0  0  0  0  0  0
  150.9520  138.2596  158.8876 C   0  0  0  0  0  0  0  0  0  0  0  0
  150.1062  137.0638  158.4269 C   0  0  0  0  0  0  0  0  0  0  0  0
  150.7569  136.4259  157.3364 O   0  0  0  0  0  0  0  0  0  0  0  0
  150.8733  137.2955  156.2167 C   0  0  0  0  0  0  0  0  0  0  0  0
  151.7387  138.5275  156.5726 C   0  0  1  0  0  0  0  0  0  0  0  0
  151.8173  139.4363  155.3318 C   0  0  0  0  0  0  0  0  0  0  0  0
  152.9727  139.4500  154.6625 N   0  0  0  0  0  0  0  0  0  0  0  0
  150.8485  140.1053  154.9756 O   0  0  0  0  0  0  0  0  0  0  0  0
  151.2709  141.6184  157.8996 C   0  0  0  0  0  0  0  0  0  0  0  0
  150.1591  141.7303  157.1320 F   0  0  0  0  0  0  0  0  0  0  0  0
  151.6721  146.1963  158.8383 H   0  0  0  0  0  0  0  0  0  0  0  0
  153.1220  145.2138  159.0289 H   0  0  0  0  0  0  0  0  0  0  0  0
  151.7439  144.9712  160.1020 H   0  0  0  0  0  0  0  0  0  0  0  0
  150.3683  144.1808  158.1430 H   0  0  0  0  0  0  0  0  0  0  0  0
  151.7251  144.4312  157.0765 H   0  0  0  0  0  0  0  0  0  0  0  0
  154.3747  141.3224  160.0220 H   0  0  0  0  0  0  0  0  0  0  0  0
  151.9065  137.9077  159.2827 H   0  0  0  0  0  0  0  0  0  0  0  0
  150.4384  138.7691  159.7041 H   0  0  0  0  0  0  0  0  0  0  0  0
  149.9923  136.3475  159.2407 H   0  0  0  0  0  0  0  0  0  0  0  0
  149.1028  137.3811  158.1376 H   0  0  0  0  0  0  0  0  0  0  0  0
  151.3264  136.7355  155.3976 H   0  0  0  0  0  0  0  0  0  0  0  0
  149.8778  137.5933  155.8805 H   0  0  0  0  0  0  0  0  0  0  0  0
  152.7443  138.1725  156.8067 H   0  0  0  0  0  0  0  0  0  0  0  0
  153.0726  140.0267  153.8400 H   0  0  0  0  0  0  0  0  0  0  0  0
  153.7422  138.8789  154.9807 H   0  0  0  0  0  0  0  0  0  0  0  0
  1  2  1  0  0  0  0
  1 19  1  0  0  0  0
  1 20  1  0  0  0  0
  1 21  1  0  0  0  0
  2  3  1  0  0  0  0
  2 22  1  0  0  0  0
  2 23  1  0  0  0  0
  3 17  1  0  0  0  0
  3  4  2  0  0  0  0
  4  5  1  0  0  0  0
  5  6  2  0  0  0  0
  5 24  1  0  0  0  0
  6  7  1  0  0  0  0
  7  8  1  0  0  0  0
  7 17  2  0  0  0  0
  8 13  1  0  0  0  0
  8  9  1  0  0  0  0
  9 10  1  0  0  0  0
  9 25  1  0  0  0  0
  9 26  1  0  0  0  0
 10 11  1  0  0  0  0
 10 27  1  0  0  0  0
 10 28  1  0  0  0  0
 11 12  1  0  0  0  0
 12 13  1  0  0  0  0
 12 29  1  0  0  0  0
 12 30  1  0  0  0  0
 13 14  1  0  0  0  0
 13 31  1  0  0  0  0
 14 15  1  0  0  0  0
 14 16  2  0  0  0  0
 15 32  1  0  0  0  0
 15 33  1  0  0  0  0
 17 18  1  0  0  0  0
M  END
> <s_m_source_file>
AV-unprocessed.smi

> <i_m_source_file_index>
2488

> <i_lp_mmshare_version>
43012

> <i_f3d_flags>
0

> <s_epik_input>
W0NIM11bQ0gyXWMxbltjSF1uYyhjMUYpTjJbQ0gyXVtDSDJdT1tDSDJdW0NASF0yQyg9TylbTkgyXQ==

> <s_epik_cmdline>
J2VwaWtfcHl0aG9uJywgJy1waCcsICc3LjAnLCAnLXRuJywgJzgnLCAnLW1hJywgJzIwMCcsICctbWV0YWxfYmluZGluZycsICctaW1hZScsICc8aW5maWxlLm1hZT4nLCAnLW9tYWUnLCAnPG91dGZpbGUubWFlPic=

> <r_lp_tautomer_probability>
1

> <r_epik_Ionization_Penalty>
2.73136e-05

> <r_epik_Ionization_Penalty_Charging>
0

> <r_epik_Ionization_Penalty_Neutral>
2.73136e-05

> <r_epik_State_Penalty>
-0

> <r_epik_Charging_Adjusted_Penalty>
0

> <i_epik_Tot_Q>
0

> <i_epik_Tot_abs_Q>
0

> <r_epik_Metal_State_Penalty>
-0

> <b_epik_Metal_Only>
0

> <s_lp_Force_Field>
OPLS_2005

> <r_lp_Energy>
12.1778

> <b_lp_Chiralities_Consistent>
1

> <s_lp_Variant>
AV-unprocessed.smi:2488-1

> <Gold.Version>
5.8.1

> <Gold.Id.Protein>
6NUR|6NUR_protein|mol2

> <Gold.PLP.Fitness>
32.2650

> <Gold.PLP.PLP>
-30.8724

> <Gold.PLP.part.hbond>
-1.0000

> <Gold.PLP.part.metal>
0.0000

> <Gold.PLP.part.buried>
-6.8147

> <Gold.PLP.part.nonpolar>
-24.0958

> <Gold.PLP.part.repulsive>
1.3284

> <Gold.PLP.ligand.clash>
0.0000

> <Gold.PLP.ligand.torsion>
0.9072

> <Gold.PLP.Chemscore.Hbond>
1.0000

> <Gold.PLP.Chemscore.CHOScore>
0.0000

> <Gold.PLP.Chemscore.Metal>
0.0000

> <Gold.Chemscore.Hbonds>
donor molecule, donor type, donor heavy atom, donor atom, acceptor molecule, acceptor atom, score
      P1  H  7989  7998       L1    16  0.85

> <Gold.PLP.Chemscore.Internal.Correction>
0.2071

> <Gold.Rescore>
     Score         DG    S(hbond)    S(metal)    S(lipo)     H(rot)  DE(clash)    DE(int)     intcor
     10.44     -10.75       1.00        0.00      57.14       1.86       0.03       0.27       ----

> <Gold.Chemscore.Fitness>
10.4416

> <Gold.Chemscore.DG>
-10.7457

> <Gold.Chemscore.ZeroCoef>
-5.4800

> <Gold.Chemscore.Hbond>
0.9992

> <Gold.Chemscore.Metal>
0.0000

> <Gold.Chemscore.Lipo>
57.1397

> <Gold.Chemscore.Internal_Hbond>
0.0000

> <Gold.Chemscore.DEClash>
0.0307

> <Gold.Chemscore.DEInternal>
0.2734

> <Gold.Chemscore.Rot>
1.8582

> <Gold.Chemscore.Internal.Correction>
   9.000000E+99

> <Gold.Chemscore.Hbonds>
donor molecule, donor type, donor heavy atom, donor atom, acceptor molecule, acceptor atom, score
      P1  H  7989  7998       L1    16  0.15

> <Gold.Chemscore.Hbond.Weighted>
-3.3373

> <Gold.Chemscore.Metal.Weighted>
-0.0000

> <Gold.Chemscore.Lipo.Weighted>
-6.6853

> <Gold.Chemscore.Internal_Hbond.Weighted>
0.0000

> <Gold.Chemscore.DEClash.Weighted>
0.0307

> <Gold.Chemscore.DEInternal.Weighted>
0.2734

> <Gold.Chemscore.Rot.Weighted>
4.7570

> <Gold.Chemscore.Internal.Correction.Weighted>
   9.000000E+99

> <Gold.Protein.RotatedTorsions>
[ 6907 6896 6895 6894 ] final  147.19 input  -60.11 | X-H torsion
[ 7974 7965 7964 7962 ] final  -72.41 input  175.53 | X-H torsion
[ 8008 7997 7996 7995 ] final -108.21 input   59.86 | X-H torsion
[ 10167 10162 10161 10158 ] final -169.70 input  -65.29 | X-H torsion
[ 10718 10713 10712 10709 ] final  158.45 input   66.30 | X-H torsion
[ 10763 10752 10751 10750 ] final   13.64 input  -60.55 | X-H torsion
[ 11005 11000 10999 10996 ] final  179.25 input  -57.11 | X-H torsion

> <Gold.Protein.ActiveResidues>
 VAL166  LYS551  ARG553  GLY616  TRP617  ASP618  TYR619  PRO620  LYS621  CYS622 
 ASP623  PHE694  ASN695  SER759  ASP760  ASP761  ALA762  ILE779  LEU786  VAL792 
 PHE793  MET794  SER795  GLU796  ALA797  LYS798  CYS799  TRP800  GLU811  SER814 

> <Gold.Protein.RotatedAtoms>
  152.1581  133.4564  159.4846 H   0  0  0  0  0  0  0  0  0  0  0  0  # atno 6907 bound_to 6896
  150.6903  134.2106  159.4367 H   0  0  0  0  0  0  0  0  0  0  0  0  # atno 6908 bound_to 6896
  152.0007  134.9930  160.0615 H   0  0  0  0  0  0  0  0  0  0  0  0  # atno 6909 bound_to 6896
  145.6655  140.9238  143.0911 H   0  0  0  0  0  0  0  0  0  0  0  0  # atno 7974 bound_to 7965
  154.9408  140.0403  157.2096 H   0  0  0  0  0  0  0  0  0  0  0  0  # atno 8008 bound_to 7997
  154.8070  140.2861  155.5858 H   0  0  0  0  0  0  0  0  0  0  0  0  # atno 8009 bound_to 7997
  156.2967  140.2544  156.2951 H   0  0  0  0  0  0  0  0  0  0  0  0  # atno 8010 bound_to 7997
  139.5907  144.1220  152.1630 H   0  0  0  0  0  0  0  0  0  0  0  0  # atno 10167 bound_to 10162
  157.1778  131.0625  151.2148 H   0  0  0  0  0  0  0  0  0  0  0  0  # atno 10718 bound_to 10713
  153.1701  135.6811  153.8620 H   0  0  0  0  0  0  0  0  0  0  0  0  # atno 10763 bound_to 10752
  153.7987  135.3159  155.3388 H   0  0  0  0  0  0  0  0  0  0  0  0  # atno 10764 bound_to 10752
  154.7992  135.4788  154.0326 H   0  0  0  0  0  0  0  0  0  0  0  0  # atno 10765 bound_to 10752
  140.4041  134.6751  157.4578 H   0  0  0  0  0  0  0  0  0  0  0  0  # atno 11005 bound_to 11000
  144.7074  139.8505  143.7425 LP  0  0  0  0  0  0  0  0  0  0  0  0  # atno 17320 bound_to 7965
  146.1089  139.4092  143.0300 LP  0  0  0  0  0  0  0  0  0  0  0  0  # atno 17321 bound_to 7965
  140.0794  144.5713  150.7133 LP  0  0  0  0  0  0  0  0  0  0  0  0  # atno 17342 bound_to 10162
  140.7170  143.2553  151.4402 LP  0  0  0  0  0  0  0  0  0  0  0  0  # atno 17343 bound_to 10162
  157.3982  130.7319  149.6747 LP  0  0  0  0  0  0  0  0  0  0  0  0  # atno 17370 bound_to 10713
  155.9729  130.4128  150.4049 LP  0  0  0  0  0  0  0  0  0  0  0  0  # atno 17371 bound_to 10713
  140.0315  134.6400  155.9101 LP  0  0  0  0  0  0  0  0  0  0  0  0  # atno 17394 bound_to 11000
  141.1846  133.6553  156.5162 LP  0  0  0  0  0  0  0  0  0  0  0  0  # atno 17395 bound_to 11000

$$$$
