AV-unprocessed.smi:1464|AV-procd|sdf|5944|dock8
  -GOLD-   22720 6 23D 1   1.00000     0.00000
 Structure written by MMmdl.
 41 42  0  0  0  0  0  0  0  0  1 V2000
  151.8002  144.8657  159.8366 C   0  0  0  0  0  0  0  0  0  0  0  0
  151.9362  143.6790  158.8680 C   0  0  1  0  0  0  0  0  0  0  0  0
  152.2252  142.3610  159.6153 C   0  0  0  0  0  0  0  0  0  0  0  0
  152.4595  141.1986  158.6376 C   0  0  0  0  0  0  0  0  0  0  0  0
  151.2913  141.0445  157.6521 C   0  0  0  0  0  0  0  0  0  0  0  0
  151.0122  142.3637  156.9064 C   0  0  1  0  0  0  0  0  0  0  0  0
  149.9228  142.1724  155.9515 N   0  0  0  0  0  0  0  0  0  0  0  0
  149.8188  141.1544  155.0836 C   0  0  0  0  0  0  0  0  0  0  0  0
  150.6609  140.2602  154.9877 O   0  0  0  0  0  0  0  0  0  0  0  0
  148.5827  141.1722  154.1726 C   0  0  0  0  0  0  0  0  0  0  0  0
  147.3795  141.6995  154.8326 N   0  0  0  0  0  0  0  0  0  0  0  0
  146.6444  142.5797  154.0527 N   0  0  0  0  0  0  0  0  0  0  0  0
  145.5593  143.1005  154.5174 C   0  0  0  0  0  0  0  0  0  0  0  0
  144.8598  143.9634  153.7101 O   0  0  0  0  0  0  0  0  0  0  0  0
  145.0891  142.7878  155.8490 C   0  0  0  0  0  0  0  0  0  0  0  0
  145.8143  141.9329  156.6029 C   0  0  0  0  0  0  0  0  0  0  0  0
  147.0494  141.3233  156.1065 C   0  0  0  0  0  0  0  0  0  0  0  0
  147.7304  140.5430  156.7716 O   0  0  0  0  0  0  0  0  0  0  0  0
  150.7377  143.5327  157.8926 C   0  0  1  0  0  0  0  0  0  0  0  0
  149.3704  143.4189  158.6065 C   0  0  0  0  0  0  0  0  0  0  0  0
  144.1224  143.4661  153.3913 H   0  0  0  0  0  0  0  0  0  0  0  0
  151.0113  144.7018  160.5706 H   0  0  0  0  0  0  0  0  0  0  0  0
  151.5763  145.7883  159.3006 H   0  0  0  0  0  0  0  0  0  0  0  0
  152.7273  145.0240  160.3881 H   0  0  0  0  0  0  0  0  0  0  0  0
  152.8132  143.8928  158.2546 H   0  0  0  0  0  0  0  0  0  0  0  0
  153.1040  142.4798  160.2500 H   0  0  0  0  0  0  0  0  0  0  0  0
  151.3991  142.1183  160.2842 H   0  0  0  0  0  0  0  0  0  0  0  0
  153.3818  141.3725  158.0816 H   0  0  0  0  0  0  0  0  0  0  0  0
  152.6045  140.2705  159.1912 H   0  0  0  0  0  0  0  0  0  0  0  0
  151.5246  140.2552  156.9363 H   0  0  0  0  0  0  0  0  0  0  0  0
  150.4005  140.7155  158.1882 H   0  0  0  0  0  0  0  0  0  0  0  0
  151.9128  142.6044  156.3374 H   0  0  0  0  0  0  0  0  0  0  0  0
  149.1889  142.8660  155.9562 H   0  0  0  0  0  0  0  0  0  0  0  0
  148.7982  141.7534  153.2739 H   0  0  0  0  0  0  0  0  0  0  0  0
  148.4063  140.1525  153.8255 H   0  0  0  0  0  0  0  0  0  0  0  0
  144.1786  143.2328  156.2225 H   0  0  0  0  0  0  0  0  0  0  0  0
  145.4747  141.6905  157.5992 H   0  0  0  0  0  0  0  0  0  0  0  0
  150.6971  144.4491  157.3019 H   0  0  0  0  0  0  0  0  0  0  0  0
  149.3139  142.5402  159.2480 H   0  0  0  0  0  0  0  0  0  0  0  0
  148.5493  143.3562  157.8925 H   0  0  0  0  0  0  0  0  0  0  0  0
  149.1692  144.2921  159.2261 H   0  0  0  0  0  0  0  0  0  0  0  0
  1  2  1  0  0  0  0
  1 22  1  0  0  0  0
  1 23  1  0  0  0  0
  1 24  1  0  0  0  0
  2 19  1  0  0  0  0
  2  3  1  0  0  0  0
  2 25  1  0  0  0  0
  3  4  1  0  0  0  0
  3 26  1  0  0  0  0
  3 27  1  0  0  0  0
  4  5  1  0  0  0  0
  4 28  1  0  0  0  0
  4 29  1  0  0  0  0
  5  6  1  0  0  0  0
  5 30  1  0  0  0  0
  5 31  1  0  0  0  0
  6  7  1  0  0  0  0
  6 19  1  0  0  0  0
  6 32  1  0  0  0  0
  7  8  1  0  0  0  0
  7 33  1  0  0  0  0
  8  9  2  0  0  0  0
  8 10  1  0  0  0  0
 10 34  1  0  0  0  0
 10 35  1  0  0  0  0
 10 11  1  0  0  0  0
 11 12  1  0  0  0  0
 11 17  1  0  0  0  0
 12 13  2  0  0  0  0
 13 14  1  0  0  0  0
 13 15  1  0  0  0  0
 14 21  1  0  0  0  0
 15 36  1  0  0  0  0
 15 16  2  0  0  0  0
 16 37  1  0  0  0  0
 16 17  1  0  0  0  0
 17 18  2  0  0  0  0
 19 20  1  0  0  0  0
 19 38  1  0  0  0  0
 20 39  1  0  0  0  0
 20 40  1  0  0  0  0
 20 41  1  0  0  0  0
M  END
> <s_m_source_file>
AV-unprocessed.smi

> <i_m_source_file_index>
1464

> <i_lp_mmshare_version>
43012

> <i_f3d_flags>
0

> <s_epik_input>
W0NIM11bQ0BASF0xW0NIMl1bQ0gyXVtDSDJdW0NASF0oW0NASF0xW0NIM10pW05IXUMoPU8pW0NIMl1uMltuSF1jKD1PKVtjSF1bY0hdYzI9Tw==

> <s_epik_cmdline>
J2VwaWtfcHl0aG9uJywgJy1waCcsICc3LjAnLCAnLXRuJywgJzgnLCAnLW1hJywgJzIwMCcsICctbWV0YWxfYmluZGluZycsICctaW1hZScsICc8aW5maWxlLm1hZT4nLCAnLW9tYWUnLCAnPG91dGZpbGUubWFlPic=

> <r_lp_tautomer_probability>
0.9996

> <r_epik_Ionization_Penalty>
2.10335

> <r_epik_Ionization_Penalty_Charging>
3.98079e-08

> <r_epik_Ionization_Penalty_Neutral>
2.10335

> <r_epik_State_Penalty>
1.67957

> <r_epik_Charging_Adjusted_Penalty>
1.67957

> <i_epik_Tot_Q>
0

> <i_epik_Tot_abs_Q>
0

> <r_epik_Metal_State_Penalty>
1.67957

> <b_epik_Metal_Only>
0

> <s_lp_Force_Field>
OPLS_2005

> <r_lp_Energy>
25.7359

> <b_lp_Chiralities_Consistent>
1

> <s_lp_Variant>
AV-unprocessed.smi:1464-10

> <Gold.Version>
5.8.1

> <Gold.Id.Protein>
6NUR|6NUR_protein|mol2

> <Gold.PLP.Fitness>
45.5517

> <Gold.PLP.PLP>
-39.1683

> <Gold.PLP.part.hbond>
-2.8856

> <Gold.PLP.part.metal>
0.0000

> <Gold.PLP.part.buried>
-4.8782

> <Gold.PLP.part.nonpolar>
-32.5345

> <Gold.PLP.part.repulsive>
0.3944

> <Gold.PLP.ligand.clash>
0.0000

> <Gold.PLP.ligand.torsion>
0.6602

> <Gold.PLP.Chemscore.Hbond>
2.5630

> <Gold.PLP.Chemscore.CHOScore>
0.0000

> <Gold.PLP.Chemscore.Metal>
0.0000

> <Gold.Chemscore.Hbonds>
donor molecule, donor type, donor heavy atom, donor atom, acceptor molecule, acceptor atom, score
      L1  H     7    33       P1  8028  0.85
      L1  H    14    21       P1 10174  0.71
      P1  H  7989  7998       L1     9  1.00

> <Gold.PLP.Chemscore.Internal.Correction>
0.0147

> <Gold.Rescore>
     Score         DG    S(hbond)    S(metal)    S(lipo)     H(rot)  DE(clash)    DE(int)     intcor
     11.41     -14.81       1.56        0.00      83.91       2.22       0.33       3.07       ----

> <Gold.Chemscore.Fitness>
11.4079

> <Gold.Chemscore.DG>
-14.8073

> <Gold.Chemscore.ZeroCoef>
-5.4800

> <Gold.Chemscore.Hbond>
1.5566

> <Gold.Chemscore.Metal>
0.0000

> <Gold.Chemscore.Lipo>
83.9112

> <Gold.Chemscore.Internal_Hbond>
0.0000

> <Gold.Chemscore.DEClash>
0.3269

> <Gold.Chemscore.DEInternal>
3.0724

> <Gold.Chemscore.Rot>
2.2224

> <Gold.Chemscore.Internal.Correction>
   9.000000E+99

> <Gold.Chemscore.Hbonds>
donor molecule, donor type, donor heavy atom, donor atom, acceptor molecule, acceptor atom, score
      L1  H     7    33       P1  8028  0.83
      L1  H    14    21       P1 10174  0.18
      P1  H  7989  7998       L1     9  0.25

> <Gold.Chemscore.Hbond.Weighted>
-5.1990

> <Gold.Chemscore.Metal.Weighted>
-0.0000

> <Gold.Chemscore.Lipo.Weighted>
-9.8176

> <Gold.Chemscore.Internal_Hbond.Weighted>
0.0000

> <Gold.Chemscore.DEClash.Weighted>
0.3269

> <Gold.Chemscore.DEInternal.Weighted>
3.0724

> <Gold.Chemscore.Rot.Weighted>
5.6893

> <Gold.Chemscore.Internal.Correction.Weighted>
   9.000000E+99

> <Gold.Protein.RotatedTorsions>
[ 6907 6896 6895 6894 ] final   -0.63 input  -60.11 | X-H torsion
[ 7974 7965 7964 7962 ] final  -11.95 input  175.53 | X-H torsion
[ 8008 7997 7996 7995 ] final  135.69 input   59.86 | X-H torsion
[ 10167 10162 10161 10158 ] final   16.63 input  -65.29 | X-H torsion
[ 10718 10713 10712 10709 ] final  -36.36 input   66.30 | X-H torsion
[ 10763 10752 10751 10750 ] final  -14.72 input  -60.55 | X-H torsion
[ 11005 11000 10999 10996 ] final   15.16 input  -57.11 | X-H torsion

> <Gold.Protein.ActiveResidues>
 VAL166  LYS551  ARG553  GLY616  TRP617  ASP618  TYR619  PRO620  LYS621  CYS622 
 ASP623  PHE694  ASN695  SER759  ASP760  ASP761  ALA762  ILE779  LEU786  VAL792 
 PHE793  MET794  SER795  GLU796  ALA797  LYS798  CYS799  TRP800  GLU811  SER814 

> <Gold.Protein.RotatedAtoms>
  151.5591  135.1066  159.9968 H   0  0  0  0  0  0  0  0  0  0  0  0  # atno 6907 bound_to 6896
  152.4455  133.7524  159.6712 H   0  0  0  0  0  0  0  0  0  0  0  0  # atno 6908 bound_to 6896
  150.8370  133.7930  159.3100 H   0  0  0  0  0  0  0  0  0  0  0  0  # atno 6909 bound_to 6896
  146.2169  140.2986  142.8373 H   0  0  0  0  0  0  0  0  0  0  0  0  # atno 7974 bound_to 7965
  156.3003  140.2464  156.3623 H   0  0  0  0  0  0  0  0  0  0  0  0  # atno 8008 bound_to 7997
  154.8866  140.0410  157.1833 H   0  0  0  0  0  0  0  0  0  0  0  0  # atno 8009 bound_to 7997
  154.8641  140.2925  155.5525 H   0  0  0  0  0  0  0  0  0  0  0  0  # atno 8010 bound_to 7997
  140.5784  143.9029  150.6769 H   0  0  0  0  0  0  0  0  0  0  0  0  # atno 10167 bound_to 10162
  156.3277  130.4275  149.7901 H   0  0  0  0  0  0  0  0  0  0  0  0  # atno 10718 bound_to 10713
  153.5325  135.7014  153.5676 H   0  0  0  0  0  0  0  0  0  0  0  0  # atno 10763 bound_to 10752
  153.3677  135.3953  155.1765 H   0  0  0  0  0  0  0  0  0  0  0  0  # atno 10764 bound_to 10752
  154.8683  135.3804  154.4823 H   0  0  0  0  0  0  0  0  0  0  0  0  # atno 10765 bound_to 10752
  140.4614  134.1123  155.7717 H   0  0  0  0  0  0  0  0  0  0  0  0  # atno 11005 bound_to 11000
  144.9074  140.7716  143.5829 LP  0  0  0  0  0  0  0  0  0  0  0  0  # atno 17320 bound_to 7965
  145.2915  139.1882  143.4738 LP  0  0  0  0  0  0  0  0  0  0  0  0  # atno 17321 bound_to 7965
  140.2522  143.3585  152.1396 LP  0  0  0  0  0  0  0  0  0  0  0  0  # atno 17342 bound_to 10162
  139.5155  144.6964  151.5617 LP  0  0  0  0  0  0  0  0  0  0  0  0  # atno 17343 bound_to 10162
  156.5185  130.8204  151.3195 LP  0  0  0  0  0  0  0  0  0  0  0  0  # atno 17370 bound_to 10713
  157.7424  130.9890  150.2517 LP  0  0  0  0  0  0  0  0  0  0  0  0  # atno 17371 bound_to 10713
  141.1619  133.8776  157.1823 LP  0  0  0  0  0  0  0  0  0  0  0  0  # atno 17394 bound_to 11000
  139.9943  135.0053  157.0046 LP  0  0  0  0  0  0  0  0  0  0  0  0  # atno 17395 bound_to 11000

$$$$
