AV-unprocessed.smi:955|AV-procd|sdf|4261|dock6
  -GOLD-   22720 2173D 1   1.00000     0.00000
 Structure written by MMmdl.
 29 29  0  0  0  0  0  0  0  0  1 V2000
  149.7771  137.0063  157.5809 C   0  0  0  0  0  0  0  0  0  0  0  0
  150.8469  137.6994  156.7210 C   0  0  2  0  0  0  0  0  0  0  0  0
  150.5516  139.1305  156.7024 N   0  0  0  0  0  0  0  0  0  0  0  0
  151.4601  140.1138  156.8126 C   0  0  0  0  0  0  0  0  0  0  0  0
  152.6598  139.9022  156.9963 O   0  0  0  0  0  0  0  0  0  0  0  0
  150.9219  141.5479  156.6886 C   0  0  1  0  0  0  0  0  0  0  0  0
  149.3818  141.6188  156.7425 C   0  0  0  0  0  0  0  0  0  0  0  0
  151.5504  142.4076  157.6857 N   0  0  0  0  0  0  0  0  0  0  0  0
  151.4612  143.7805  157.7982 C   0  0  0  0  0  0  0  0  0  0  0  0
  152.2490  144.1596  158.8469 C   0  0  0  0  0  0  0  0  0  0  0  0
  152.8005  142.9350  159.3145 C   0  0  0  0  0  0  0  0  0  0  0  0
  152.3880  141.8910  158.6149 N   0  0  0  0  0  0  0  0  0  0  0  0
  150.7633  137.1185  155.2997 C   0  0  0  0  0  0  0  0  0  0  0  0
  149.5928  137.2365  154.6688 N   0  0  0  0  0  0  0  0  0  0  0  0
  151.7394  136.5867  154.7715 O   0  0  0  0  0  0  0  0  0  0  0  0
  149.9470  135.9302  157.6335 H   0  0  0  0  0  0  0  0  0  0  0  0
  148.7718  137.1656  157.1873 H   0  0  0  0  0  0  0  0  0  0  0  0
  149.7940  137.3863  158.6028 H   0  0  0  0  0  0  0  0  0  0  0  0
  151.8358  137.5221  157.1485 H   0  0  0  0  0  0  0  0  0  0  0  0
  149.5888  139.3917  156.5476 H   0  0  0  0  0  0  0  0  0  0  0  0
  151.2249  141.9202  155.7085 H   0  0  0  0  0  0  0  0  0  0  0  0
  148.9330  141.0185  155.9505 H   0  0  0  0  0  0  0  0  0  0  0  0
  149.0362  142.6443  156.6099 H   0  0  0  0  0  0  0  0  0  0  0  0
  148.9866  141.2584  157.6933 H   0  0  0  0  0  0  0  0  0  0  0  0
  150.8517  144.3681  157.1280 H   0  0  0  0  0  0  0  0  0  0  0  0
  152.4117  145.1601  159.2189 H   0  0  0  0  0  0  0  0  0  0  0  0
  153.4870  142.7749  160.1327 H   0  0  0  0  0  0  0  0  0  0  0  0
  149.4873  136.8810  153.7296 H   0  0  0  0  0  0  0  0  0  0  0  0
  148.8190  137.6911  155.1314 H   0  0  0  0  0  0  0  0  0  0  0  0
  1  2  1  0  0  0  0
  1 16  1  0  0  0  0
  1 17  1  0  0  0  0
  1 18  1  0  0  0  0
  2  3  1  0  0  0  0
  2 13  1  0  0  0  0
  2 19  1  0  0  0  0
  3  4  1  0  0  0  0
  3 20  1  0  0  0  0
  4  5  2  0  0  0  0
  4  6  1  0  0  0  0
  6  7  1  0  0  0  0
  6  8  1  0  0  0  0
  6 21  1  0  0  0  0
  7 22  1  0  0  0  0
  7 23  1  0  0  0  0
  7 24  1  0  0  0  0
  8 12  1  0  0  0  0
  8  9  1  0  0  0  0
  9 10  2  0  0  0  0
  9 25  1  0  0  0  0
 10 11  1  0  0  0  0
 10 26  1  0  0  0  0
 11 12  2  0  0  0  0
 11 27  1  0  0  0  0
 13 14  1  0  0  0  0
 13 15  2  0  0  0  0
 14 28  1  0  0  0  0
 14 29  1  0  0  0  0
M  END
> <s_m_source_file>
AV-unprocessed.smi

> <i_m_source_file_index>
955

> <i_lp_mmshare_version>
43012

> <i_f3d_flags>
0

> <s_epik_input>
W05IMl1DKD1PKVtDQEhdKFtDSDNdKVtOSF1DKD1PKVtDQEhdKFtDSDNdKW4xW2NIXVtjSF1bY0hdbjE=

> <s_epik_cmdline>
J2VwaWtfcHl0aG9uJywgJy1waCcsICc3LjAnLCAnLXRuJywgJzgnLCAnLW1hJywgJzIwMCcsICctbWV0YWxfYmluZGluZycsICctaW1hZScsICc8aW5maWxlLm1hZT4nLCAnLW9tYWUnLCAnPG91dGZpbGUubWFlPic=

> <r_lp_tautomer_probability>
1

> <r_epik_Ionization_Penalty>
2.8146e-05

> <r_epik_Ionization_Penalty_Charging>
0

> <r_epik_Ionization_Penalty_Neutral>
2.8146e-05

> <r_epik_State_Penalty>
-0

> <r_epik_Charging_Adjusted_Penalty>
0

> <i_epik_Tot_Q>
0

> <i_epik_Tot_abs_Q>
0

> <r_epik_Metal_State_Penalty>
-0

> <b_epik_Metal_Only>
0

> <s_lp_Force_Field>
OPLS_2005

> <r_lp_Energy>
4.42999

> <b_lp_Chiralities_Consistent>
1

> <s_lp_Variant>
AV-unprocessed.smi:955-3

> <Gold.Version>
5.8.1

> <Gold.Id.Protein>
6NUR|6NUR_protein|mol2

> <Gold.PLP.Fitness>
36.3072

> <Gold.PLP.PLP>
-25.4943

> <Gold.PLP.part.hbond>
-2.9776

> <Gold.PLP.part.metal>
0.0000

> <Gold.PLP.part.buried>
-3.4651

> <Gold.PLP.part.nonpolar>
-19.2692

> <Gold.PLP.part.repulsive>
0.1583

> <Gold.PLP.ligand.clash>
0.0059

> <Gold.PLP.ligand.torsion>
0.6460

> <Gold.PLP.Chemscore.Hbond>
3.0000

> <Gold.PLP.Chemscore.CHOScore>
1.0000

> <Gold.PLP.Chemscore.Metal>
0.0000

> <Gold.Chemscore.Hbonds>
donor molecule, donor type, donor heavy atom, donor atom, acceptor molecule, acceptor atom, score
      L1  H    14    28       P1  7948  1.00
      P1  H  7997  8008       L1     5  1.00
      P1  H 10752 10763       L1    15  1.00
      L1  C     9    25       P1  8028  1.00

> <Gold.PLP.Chemscore.Internal.Correction>
0.1107

> <Gold.Rescore>
     Score         DG    S(hbond)    S(metal)    S(lipo)     H(rot)  DE(clash)    DE(int)     intcor
     13.79     -15.95       2.98        0.00      54.70       2.30       0.03       2.13       ----

> <Gold.Chemscore.Fitness>
13.7909

> <Gold.Chemscore.DG>
-15.9538

> <Gold.Chemscore.ZeroCoef>
-5.4800

> <Gold.Chemscore.Hbond>
2.9806

> <Gold.Chemscore.Metal>
0.0000

> <Gold.Chemscore.Lipo>
54.6971

> <Gold.Chemscore.Internal_Hbond>
0.0000

> <Gold.Chemscore.DEClash>
0.0348

> <Gold.Chemscore.DEInternal>
2.1281

> <Gold.Chemscore.Rot>
2.2972

> <Gold.Chemscore.Internal.Correction>
   9.000000E+99

> <Gold.Chemscore.Hbonds>
donor molecule, donor type, donor heavy atom, donor atom, acceptor molecule, acceptor atom, score
      L1  H    14    28       P1  7948  0.83
      P1  H  7997  8008       L1     5  0.94
      P1  H 10752 10763       L1    15  0.95

> <Gold.Chemscore.Hbond.Weighted>
-9.9552

> <Gold.Chemscore.Metal.Weighted>
-0.0000

> <Gold.Chemscore.Lipo.Weighted>
-6.3996

> <Gold.Chemscore.Internal_Hbond.Weighted>
0.0000

> <Gold.Chemscore.DEClash.Weighted>
0.0348

> <Gold.Chemscore.DEInternal.Weighted>
2.1281

> <Gold.Chemscore.Rot.Weighted>
5.8809

> <Gold.Chemscore.Internal.Correction.Weighted>
   9.000000E+99

> <Gold.Protein.RotatedTorsions>
[ 6907 6896 6895 6894 ] final  -52.59 input  -60.11 | X-H torsion
[ 7974 7965 7964 7962 ] final   58.65 input  175.53 | X-H torsion
[ 8008 7997 7996 7995 ] final  -73.61 input   59.86 | X-H torsion
[ 10167 10162 10161 10158 ] final  -34.79 input  -65.29 | X-H torsion
[ 10718 10713 10712 10709 ] final  -53.31 input   66.30 | X-H torsion
[ 10763 10752 10751 10750 ] final   36.69 input  -60.55 | X-H torsion
[ 11005 11000 10999 10996 ] final  -11.37 input  -57.11 | X-H torsion

> <Gold.Protein.ActiveResidues>
 VAL166  LYS551  ARG553  GLY616  TRP617  ASP618  TYR619  PRO620  LYS621  CYS622 
 ASP623  PHE694  ASN695  SER759  ASP760  ASP761  ALA762  ILE779  LEU786  VAL792 
 PHE793  MET794  SER795  GLU796  ALA797  LYS798  CYS799  TRP800  GLU811  SER814 

> <Gold.Protein.RotatedAtoms>
  150.8504  134.7827  159.7003 H   0  0  0  0  0  0  0  0  0  0  0  0  # atno 6907 bound_to 6896
  152.4570  134.5266  159.9808 H   0  0  0  0  0  0  0  0  0  0  0  0  # atno 6908 bound_to 6896
  151.5388  133.3398  159.2967 H   0  0  0  0  0  0  0  0  0  0  0  0  # atno 6909 bound_to 6896
  145.9158  139.3690  143.0508 H   0  0  0  0  0  0  0  0  0  0  0  0  # atno 7974 bound_to 7965
  154.5261  140.0776  156.8261 H   0  0  0  0  0  0  0  0  0  0  0  0  # atno 8008 bound_to 7997
  155.3472  140.3410  155.4221 H   0  0  0  0  0  0  0  0  0  0  0  0  # atno 8009 bound_to 7997
  156.1733  140.1627  156.8395 H   0  0  0  0  0  0  0  0  0  0  0  0  # atno 8010 bound_to 7997
  140.7178  143.3523  151.2131 H   0  0  0  0  0  0  0  0  0  0  0  0  # atno 10167 bound_to 10162
  156.1546  130.4150  149.9890 H   0  0  0  0  0  0  0  0  0  0  0  0  # atno 10718 bound_to 10713
  153.0067  135.6299  154.2025 H   0  0  0  0  0  0  0  0  0  0  0  0  # atno 10763 bound_to 10752
  154.1768  135.2815  155.3066 H   0  0  0  0  0  0  0  0  0  0  0  0  # atno 10764 bound_to 10752
  154.5865  135.5631  153.7296 H   0  0  0  0  0  0  0  0  0  0  0  0  # atno 10765 bound_to 10752
  140.7545  133.8565  155.9073 H   0  0  0  0  0  0  0  0  0  0  0  0  # atno 11005 bound_to 11000
  145.8613  140.9473  143.0698 LP  0  0  0  0  0  0  0  0  0  0  0  0  # atno 17320 bound_to 7965
  144.6747  140.0534  143.7478 LP  0  0  0  0  0  0  0  0  0  0  0  0  # atno 17321 bound_to 7965
  139.7056  143.9461  152.2925 LP  0  0  0  0  0  0  0  0  0  0  0  0  # atno 17342 bound_to 10162
  139.9168  144.6823  150.8503 LP  0  0  0  0  0  0  0  0  0  0  0  0  # atno 17343 bound_to 10162
  156.7737  130.9196  151.3645 LP  0  0  0  0  0  0  0  0  0  0  0  0  # atno 17370 bound_to 10713
  157.6684  130.9029  149.9985 LP  0  0  0  0  0  0  0  0  0  0  0  0  # atno 17371 bound_to 10713
  140.9720  134.1519  157.4568 LP  0  0  0  0  0  0  0  0  0  0  0  0  # atno 17394 bound_to 11000
  139.8781  134.9982  156.5886 LP  0  0  0  0  0  0  0  0  0  0  0  0  # atno 17395 bound_to 11000

$$$$
