AV-unprocessed.smi:249|AV-procd|sdf|1907|dock3
  -GOLD-   2262020593D 1   1.00000     0.00000
 Structure written by MMmdl.
 64 67  0  0  0  0  0  0  0  0  2 V2000
  145.0364  129.9051  151.9626 C   0  0  0  0  0  0  0  0  0  0  0  0
  145.7059  131.0959  152.6656 C   0  0  0  0  0  0  0  0  0  0  0  0
  146.6934  131.8081  151.8020 N   0  3  1  0  0  0  0  0  0  0  0  0
  146.1031  132.4159  150.5755 C   0  0  0  0  0  0  0  0  0  0  0  0
  145.2662  133.6688  150.8988 C   0  0  0  0  0  0  0  0  0  0  0  0
  146.1071  134.7028  151.6709 C   0  0  1  0  0  0  0  0  0  0  0  0
  145.3357  135.9009  152.0111 N   0  0  0  0  0  0  0  0  0  0  0  0
  143.9248  136.0223  151.6511 C   0  0  0  0  0  0  0  0  0  0  0  0
  145.9684  136.9923  152.5164 C   0  0  0  0  0  0  0  0  0  0  0  0
  146.4140  137.9404  151.6503 N   0  0  0  0  0  0  0  0  0  0  0  0
  147.0550  139.0227  152.1000 C   0  0  0  0  0  0  0  0  0  0  0  0
  147.3463  139.3563  153.3578 N   0  0  0  0  0  0  0  0  0  0  0  0
  146.8844  138.4222  154.2366 C   0  0  0  0  0  0  0  0  0  0  0  0
  146.1932  137.2209  153.9066 C   0  0  0  0  0  0  0  0  0  0  0  0
  145.8754  136.5302  155.0718 N   0  0  0  0  0  0  0  0  0  0  0  0
  146.3635  137.2698  156.0294 C   0  0  0  0  0  0  0  0  0  0  0  0
  146.9702  138.4343  155.6182 N   0  0  0  0  0  0  0  0  0  0  0  0
  147.6024  139.4285  156.4682 C   0  0  0  0  0  0  0  0  0  0  0  0
  148.8713  140.0981  155.8694 C   0  0  2  0  0  0  0  0  0  0  0  0
  149.6918  139.0316  155.1038 C   0  0  0  0  0  0  0  0  0  0  0  0
  150.5092  139.6219  154.1140 O   0  0  0  0  0  0  0  0  0  0  0  0
  149.7406  140.8296  156.9360 C   0  0  1  0  0  0  0  0  0  0  0  0
  150.9112  141.6265  156.3783 C   0  0  0  0  0  0  0  0  0  0  0  0
  151.2519  142.5573  157.5323 C   0  0  0  0  0  0  0  0  0  0  0  0
  149.9929  142.9164  158.0774 O   0  0  0  0  0  0  0  0  0  0  0  0
  149.0249  141.9258  157.7447 C   0  0  0  0  0  0  0  0  0  0  0  0
  146.7578  134.0580  152.9098 C   0  0  0  0  0  0  0  0  0  0  0  0
  147.5583  132.8009  152.5113 C   0  0  1  0  0  0  0  0  0  0  0  0
  148.3459  132.2029  153.6906 C   0  0  0  0  0  0  0  0  0  0  0  0
  144.4469  129.3264  152.6742 H   0  0  0  0  0  0  0  0  0  0  0  0
  145.7773  129.2337  151.5276 H   0  0  0  0  0  0  0  0  0  0  0  0
  144.3561  130.2215  151.1727 H   0  0  0  0  0  0  0  0  0  0  0  0
  144.9481  131.7829  153.0418 H   0  0  0  0  0  0  0  0  0  0  0  0
  146.2087  130.6908  153.5415 H   0  0  0  0  0  0  0  0  0  0  0  0
  146.9183  132.6935  149.9059 H   0  0  0  0  0  0  0  0  0  0  0  0
  145.5092  131.6931  150.0185 H   0  0  0  0  0  0  0  0  0  0  0  0
  144.8999  134.1116  149.9718 H   0  0  0  0  0  0  0  0  0  0  0  0
  144.3813  133.3841  151.4678 H   0  0  0  0  0  0  0  0  0  0  0  0
  146.9096  134.9830  150.9898 H   0  0  0  0  0  0  0  0  0  0  0  0
  143.3707  136.5457  152.4313 H   0  0  0  0  0  0  0  0  0  0  0  0
  143.4623  135.0453  151.5153 H   0  0  0  0  0  0  0  0  0  0  0  0
  143.8159  136.5781  150.7192 H   0  0  0  0  0  0  0  0  0  0  0  0
  147.3808  139.7214  151.3437 H   0  0  0  0  0  0  0  0  0  0  0  0
  146.2826  136.9898  157.0698 H   0  0  0  0  0  0  0  0  0  0  0  0
  146.8639  140.1925  156.7146 H   0  0  0  0  0  0  0  0  0  0  0  0
  147.8415  138.9275  157.4063 H   0  0  0  0  0  0  0  0  0  0  0  0
  148.5591  140.8419  155.1353 H   0  0  0  0  0  0  0  0  0  0  0  0
  150.3617  138.4876  155.7684 H   0  0  0  0  0  0  0  0  0  0  0  0
  149.0347  138.2965  154.6382 H   0  0  0  0  0  0  0  0  0  0  0  0
  150.0472  139.6016  153.2897 H   0  0  0  0  0  0  0  0  0  0  0  0
  150.1440  140.0928  157.6330 H   0  0  0  0  0  0  0  0  0  0  0  0
  151.7602  141.0055  156.0918 H   0  0  0  0  0  0  0  0  0  0  0  0
  150.6001  142.2084  155.5090 H   0  0  0  0  0  0  0  0  0  0  0  0
  151.8304  142.0298  158.2920 H   0  0  0  0  0  0  0  0  0  0  0  0
  151.8180  143.4337  157.2166 H   0  0  0  0  0  0  0  0  0  0  0  0
  148.2445  142.4077  157.1551 H   0  0  0  0  0  0  0  0  0  0  0  0
  148.5704  141.5349  158.6542 H   0  0  0  0  0  0  0  0  0  0  0  0
  147.4221  134.7795  153.3872 H   0  0  0  0  0  0  0  0  0  0  0  0
  146.0046  133.8007  153.6545 H   0  0  0  0  0  0  0  0  0  0  0  0
  148.3109  133.1138  151.7854 H   0  0  0  0  0  0  0  0  0  0  0  0
  149.1105  132.9012  154.0323 H   0  0  0  0  0  0  0  0  0  0  0  0
  148.8519  131.2809  153.4025 H   0  0  0  0  0  0  0  0  0  0  0  0
  147.7083  131.9893  154.5483 H   0  0  0  0  0  0  0  0  0  0  0  0
  147.3226  131.0879  151.4764 H   0  0  0  0  0  0  0  0  0  0  0  0
  1  2  1  0  0  0  0
  1 30  1  0  0  0  0
  1 31  1  0  0  0  0
  1 32  1  0  0  0  0
  2  3  1  0  0  0  0
  2 33  1  0  0  0  0
  2 34  1  0  0  0  0
  3 28  1  0  0  0  0
  3  4  1  0  0  0  0
  3 64  1  0  0  0  0
  4  5  1  0  0  0  0
  4 35  1  0  0  0  0
  4 36  1  0  0  0  0
  5  6  1  0  0  0  0
  5 37  1  0  0  0  0
  5 38  1  0  0  0  0
  6  7  1  0  0  0  0
  6 27  1  0  0  0  0
  6 39  1  0  0  0  0
  7  8  1  0  0  0  0
  7  9  1  0  0  0  0
  8 40  1  0  0  0  0
  8 41  1  0  0  0  0
  8 42  1  0  0  0  0
  9 14  1  0  0  0  0
  9 10  2  0  0  0  0
 10 11  1  0  0  0  0
 11 12  2  0  0  0  0
 11 43  1  0  0  0  0
 12 13  1  0  0  0  0
 13 17  1  0  0  0  0
 13 14  2  0  0  0  0
 14 15  1  0  0  0  0
 15 16  2  0  0  0  0
 16 17  1  0  0  0  0
 16 44  1  0  0  0  0
 17 18  1  0  0  0  0
 18 19  1  0  0  0  0
 18 45  1  0  0  0  0
 18 46  1  0  0  0  0
 19 20  1  0  0  0  0
 19 22  1  0  0  0  0
 19 47  1  0  0  0  0
 20 21  1  0  0  0  0
 20 48  1  0  0  0  0
 20 49  1  0  0  0  0
 21 50  1  0  0  0  0
 22 26  1  0  0  0  0
 22 23  1  0  0  0  0
 22 51  1  0  0  0  0
 23 24  1  0  0  0  0
 23 52  1  0  0  0  0
 23 53  1  0  0  0  0
 24 25  1  0  0  0  0
 24 54  1  0  0  0  0
 24 55  1  0  0  0  0
 25 26  1  0  0  0  0
 26 56  1  0  0  0  0
 26 57  1  0  0  0  0
 27 28  1  0  0  0  0
 27 58  1  0  0  0  0
 27 59  1  0  0  0  0
 28 29  1  0  0  0  0
 28 60  1  0  0  0  0
 29 61  1  0  0  0  0
 29 62  1  0  0  0  0
 29 63  1  0  0  0  0
M  CHG  1   3   1
M  END
> <s_m_source_file>
AV-unprocessed.smi

> <i_m_source_file_index>
249

> <i_lp_mmshare_version>
43012

> <i_f3d_flags>
0

> <s_epik_input>
W0NIM11bQ0gyXU4xW0NIMl1bQ0gyXVtDQEhdKFtDSDJdW0NASF0xW0NIM10pTihbQ0gzXSljKG5bY0hdbjIpYyhjMjMpbltjSF1uM1tDSDJdW0NASF0oW0NIMl1bT0hdKVtDQEBIXTRbQ0gyXVtDSDJdT1tDSDJdNA==

> <s_epik_cmdline>
J2VwaWtfcHl0aG9uJywgJy1waCcsICc3LjAnLCAnLXRuJywgJzgnLCAnLW1hJywgJzIwMCcsICctbWV0YWxfYmluZGluZycsICctaW1hZScsICc8aW5maWxlLm1hZT4nLCAnLW9tYWUnLCAnPG91dGZpbGUubWFlPic=

> <r_lp_tautomer_probability>
1

> <r_epik_Ionization_Penalty>
0.00294688

> <r_epik_Ionization_Penalty_Charging>
0.00169971

> <r_epik_Ionization_Penalty_Neutral>
0.00124717

> <r_epik_State_Penalty>
-0

> <r_epik_Charging_Adjusted_Penalty>
0.00169971

> <i_epik_Tot_Q>
1

> <i_epik_Tot_abs_Q>
1

> <r_epik_Metal_State_Penalty>
-0

> <b_epik_Metal_Only>
0

> <s_lp_Force_Field>
OPLS_2005

> <r_lp_Energy>
54.7906

> <b_lp_Chiralities_Consistent>
1

> <s_lp_Variant>
AV-unprocessed.smi:249-10

> <Gold.Version>
5.8.1

> <Gold.Id.Protein>
6NUR|6NUR_protein|mol2

> <Gold.PLP.Fitness>
47.7063

> <Gold.PLP.PLP>
-40.9816

> <Gold.PLP.part.hbond>
-3.0000

> <Gold.PLP.part.metal>
0.0000

> <Gold.PLP.part.buried>
-3.4358

> <Gold.PLP.part.nonpolar>
-35.1162

> <Gold.PLP.part.repulsive>
1.5936

> <Gold.PLP.ligand.clash>
0.0000

> <Gold.PLP.ligand.torsion>
2.3248

> <Gold.PLP.Chemscore.Hbond>
3.0000

> <Gold.PLP.Chemscore.CHOScore>
0.5869

> <Gold.PLP.Chemscore.Metal>
0.0000

> <Gold.Chemscore.Hbonds>
donor molecule, donor type, donor heavy atom, donor atom, acceptor molecule, acceptor atom, score
      L1  H     3    64       P1 10747  0.77
      L1  H    21    50       P1  7957  0.55
      P1  H  7989  7998       L1    21  0.50
      L1  C    11    43       P1  7957  0.75

> <Gold.PLP.Chemscore.Internal.Correction>
0.6137

> <Gold.Rescore>
     Score         DG    S(hbond)    S(metal)    S(lipo)     H(rot)  DE(clash)    DE(int)     intcor
     14.46     -18.17       2.49        0.00      95.40       2.65       1.32       2.39       ----

> <Gold.Chemscore.Fitness>
14.4564

> <Gold.Chemscore.DG>
-18.1703

> <Gold.Chemscore.ZeroCoef>
-5.4800

> <Gold.Chemscore.Hbond>
2.4901

> <Gold.Chemscore.Metal>
0.0000

> <Gold.Chemscore.Lipo>
95.3961

> <Gold.Chemscore.Internal_Hbond>
0.0000

> <Gold.Chemscore.DEClash>
1.3222

> <Gold.Chemscore.DEInternal>
2.3917

> <Gold.Chemscore.Rot>
2.6515

> <Gold.Chemscore.Internal.Correction>
   9.000000E+99

> <Gold.Chemscore.Hbonds>
donor molecule, donor type, donor heavy atom, donor atom, acceptor molecule, acceptor atom, score
      L1  H     3    64       P1 10747  0.73
      L1  H    21    50       P1  7957  0.54
      P1  H  7989  7998       L1    21  0.02

> <Gold.Chemscore.Hbond.Weighted>
-8.3169

> <Gold.Chemscore.Metal.Weighted>
-0.0000

> <Gold.Chemscore.Lipo.Weighted>
-11.1613

> <Gold.Chemscore.Internal_Hbond.Weighted>
0.0000

> <Gold.Chemscore.DEClash.Weighted>
1.3222

> <Gold.Chemscore.DEInternal.Weighted>
2.3917

> <Gold.Chemscore.Rot.Weighted>
6.7880

> <Gold.Chemscore.Internal.Correction.Weighted>
   9.000000E+99

> <Gold.Protein.RotatedTorsions>
[ 6907 6896 6895 6894 ] final  -54.36 input  -60.11 | X-H torsion
[ 7974 7965 7964 7962 ] final  -44.03 input  175.53 | X-H torsion
[ 8008 7997 7996 7995 ] final  -13.70 input   59.86 | X-H torsion
[ 10167 10162 10161 10158 ] final  143.25 input  -65.29 | X-H torsion
[ 10718 10713 10712 10709 ] final -128.91 input   66.30 | X-H torsion
[ 10763 10752 10751 10750 ] final -179.68 input  -60.55 | X-H torsion
[ 11005 11000 10999 10996 ] final  150.93 input  -57.11 | X-H torsion

> <Gold.Protein.ActiveResidues>
 VAL166  LYS551  ARG553  GLY616  TRP617  ASP618  TYR619  PRO620  LYS621  CYS622 
 ASP623  PHE694  ASN695  SER759  ASP760  ASP761  ALA762  ILE779  LEU786  VAL792 
 PHE793  MET794  SER795  GLU796  ALA797  LYS798  CYS799  TRP800  GLU811  SER814 

> <Gold.Protein.RotatedAtoms>
  150.8345  134.7612  159.6881 H   0  0  0  0  0  0  0  0  0  0  0  0  # atno 6907 bound_to 6896
  152.4444  134.5522  159.9880 H   0  0  0  0  0  0  0  0  0  0  0  0  # atno 6908 bound_to 6896
  151.5675  133.3357  159.3019 H   0  0  0  0  0  0  0  0  0  0  0  0  # atno 6909 bound_to 6896
  145.9961  140.7126  142.9293 H   0  0  0  0  0  0  0  0  0  0  0  0  # atno 7974 bound_to 7965
  154.5271  140.2243  155.8871 H   0  0  0  0  0  0  0  0  0  0  0  0  # atno 8008 bound_to 7997
  156.1725  140.3118  155.8963 H   0  0  0  0  0  0  0  0  0  0  0  0  # atno 8009 bound_to 7997
  155.3529  140.0456  157.3037 H   0  0  0  0  0  0  0  0  0  0  0  0  # atno 8010 bound_to 7997
  139.4974  144.6053  151.6392 H   0  0  0  0  0  0  0  0  0  0  0  0  # atno 10167 bound_to 10162
  156.1996  130.6849  151.0523 H   0  0  0  0  0  0  0  0  0  0  0  0  # atno 10718 bound_to 10713
  154.5319  135.2800  155.1172 H   0  0  0  0  0  0  0  0  0  0  0  0  # atno 10763 bound_to 10752
  154.2688  135.6307  153.5306 H   0  0  0  0  0  0  0  0  0  0  0  0  # atno 10764 bound_to 10752
  152.9959  135.5623  154.5835 H   0  0  0  0  0  0  0  0  0  0  0  0  # atno 10765 bound_to 10752
  140.1174  134.8885  157.2024 H   0  0  0  0  0  0  0  0  0  0  0  0  # atno 11005 bound_to 11000
  144.6904  140.3153  143.7241 LP  0  0  0  0  0  0  0  0  0  0  0  0  # atno 17320 bound_to 7965
  145.7557  139.1808  143.2296 LP  0  0  0  0  0  0  0  0  0  0  0  0  # atno 17321 bound_to 7965
  140.5713  144.0104  150.6218 LP  0  0  0  0  0  0  0  0  0  0  0  0  # atno 17342 bound_to 10162
  140.3222  143.3130  152.0772 LP  0  0  0  0  0  0  0  0  0  0  0  0  # atno 17343 bound_to 10162
  157.6978  131.0787  150.6915 LP  0  0  0  0  0  0  0  0  0  0  0  0  # atno 17370 bound_to 10713
  156.6973  130.4613  149.5583 LP  0  0  0  0  0  0  0  0  0  0  0  0  # atno 17371 bound_to 10713
  140.3010  134.3132  155.7290 LP  0  0  0  0  0  0  0  0  0  0  0  0  # atno 17394 bound_to 11000
  141.2144  133.7592  156.9640 LP  0  0  0  0  0  0  0  0  0  0  0  0  # atno 17395 bound_to 11000

$$$$
