#       Name:                AV-unprocessed.smi:274
#       Creating user name   scv26
#       Creation time:       Thu Mar 26 21:30:25 2020


#       File generated by GOLD software.
#

@<TRIPOS>MOLECULE
AV-unprocessed.smi:274
    59    62     1
SMALL
NO_CHARGES


@<TRIPOS>ATOM
      1 ****        -3.5528  -1.7638  -0.1010 C.3            1 S1                 0.0000
      2 ****        -3.8503  -1.2658  -1.5300 C.3            1 S1                 0.0000
      3 ****        -4.5260  -2.4017  -2.3243 C.3            1 S1                 0.0000
      4 ****        -2.5750  -0.6927  -2.2248 C.3            1 S1                 0.0000
      5 ****        -2.8635  -0.1252  -3.6375 C.2            1 S1                 0.0000
      6 ****        -3.0229  -0.8916  -4.5854 O.2            1 S1                 0.0000
      7 ****        -2.9026   1.2081  -3.8128 N.am           1 S1                 0.0000
      8 ****        -2.6472   2.2220  -2.7892 C.3            1 S1                 0.0000
      9 ****        -2.5847   1.6493  -1.3619 C.3            1 S1                 0.0000
     10 ****        -1.9562   0.3307  -1.3655 N.pl3          1 S1                 0.0000
     11 ****        -0.6058   0.3428  -1.2216 C.ar           1 S1                 0.0000
     12 ****         0.1958  -0.0394  -2.2512 N.ar           1 S1                 0.0000
     13 ****         1.5247  -0.0139  -2.1157 C.ar           1 S1                 0.0000
     14 ****         2.2484   0.3511  -1.0557 N.ar           1 S1                 0.0000
     15 ****         1.4493   0.7312  -0.0178 C.ar           1 S1                 0.0000
     16 ****         0.0264   0.7617  -0.0185 C.ar           1 S1                 0.0000
     17 ****        -0.4390   1.2059   1.2131 N.2            1 S1                 0.0000
     18 ****         0.6472   1.4307   1.9008 C.2            1 S1                 0.0000
     19 ****         1.8265   1.1609   1.2430 N.pl3          1 S1                 0.0000
     20 ****         3.1760   1.3115   1.7666 C.3            1 S1                 0.0000
     21 ****         3.7098   0.0462   2.4798 C.3            1 S1                 0.0000
     22 ****         3.6903  -1.0429   1.5730 O.3            1 S1                 0.0000
     23 ****         5.1333   0.2153   2.9948 C.3            1 S1                 0.0000
     24 ****         5.1727  -0.7264   4.1908 C.3            1 S1                 0.0000
     25 ****         3.8967  -0.5435   4.7802 O.3            1 S1                 0.0000
     26 ****         2.9311  -0.3591   3.7487 C.3            1 S1                 0.0000
     27 ****        -2.7897  -2.5427  -0.1063 H              1 S1                 0.0000
     28 ****        -4.4465  -2.1798   0.3649 H              1 S1                 0.0000
     29 ****        -3.2047  -0.9606   0.5490 H              1 S1                 0.0000
     30 ****        -4.5872  -0.4669  -1.4422 H              1 S1                 0.0000
     31 ****        -3.8228  -3.2066  -2.5402 H              1 S1                 0.0000
     32 ****        -4.9383  -2.0510  -3.2699 H              1 S1                 0.0000
     33 ****        -5.3579  -2.8310  -1.7652 H              1 S1                 0.0000
     34 ****        -1.8859  -1.5300  -2.3500 H              1 S1                 0.0000
     35 ****        -3.0886   1.5468  -4.7457 H              1 S1                 0.0000
     36 ****        -1.6904   2.6852  -3.0325 H              1 S1                 0.0000
     37 ****        -3.4000   3.0077  -2.8531 H              1 S1                 0.0000
     38 ****        -2.0771   2.3522  -0.7007 H              1 S1                 0.0000
     39 ****        -3.5936   1.5488  -0.9624 H              1 S1                 0.0000
     40 ****         2.0887  -0.3310  -2.9805 H              1 S1                 0.0000
     41 ****         0.6148   1.7995   2.9155 H              1 S1                 0.0000
     42 ****         3.8354   1.5818   0.9406 H              1 S1                 0.0000
     43 ****         3.1821   2.1608   2.4510 H              1 S1                 0.0000
     44 ****         4.0149  -1.8103   2.0186 H              1 S1                 0.0000
     45 ****         5.8993  -0.0032   2.2493 H              1 S1                 0.0000
     46 ****         5.2906   1.2375   3.3422 H              1 S1                 0.0000
     47 ****         5.2839  -1.7636   3.8708 H              1 S1                 0.0000
     48 ****         5.9763  -0.4915   4.8888 H              1 S1                 0.0000
     49 ****         2.2413   0.4185   4.0749 H              1 S1                 0.0000
     50 ****         2.3508  -1.2721   3.6063 H              1 S1                 0.0000
     51 ****        -2.9663  -1.8800  -4.4443 LP             1 S1                 0.0000
     52 ****        -3.2091  -0.5266  -5.4976 LP             1 S1                 0.0000
     53 ****        -0.2110  -0.3409  -3.1135 LP             1 S1                 0.0000
     54 ****         3.2480   0.3465  -1.0261 LP             1 S1                 0.0000
     55 ****        -1.3878   1.3258   1.5053 LP             1 S1                 0.0000
     56 ****         4.2732  -0.8376   0.7868 LP             1 S1                 0.0000
     57 ****         2.7543  -1.2050   1.2606 LP             1 S1                 0.0000
     58 ****         3.9132   0.2625   5.3719 LP             1 S1                 0.0000
     59 ****         3.6589  -1.3498   5.3217 LP             1 S1                 0.0000
@<TRIPOS>BOND
    1    1    2 1     
    2    1   27 1     
    3    1   28 1     
    4    1   29 1     
    5    2    3 1     
    6    2    4 1     
    7    2   30 1     
    8    3   31 1     
    9    3   32 1     
   10    3   33 1     
   11    4   10 1     
   12    4    5 1     
   13    4   34 1     
   14    5    6 2     
   15    5    7 am    
   16    7    8 1     
   17    7   35 1     
   18    8    9 1     
   19    8   36 1     
   20    8   37 1     
   21    9   10 1     
   22    9   38 1     
   23    9   39 1     
   24   10   11 1     
   25   11   16 ar    
   26   11   12 ar    
   27   12   13 ar    
   28   13   14 ar    
   29   13   40 1     
   30   14   15 ar    
   31   15   19 1     
   32   15   16 ar    
   33   16   17 1     
   34   17   18 2     
   35   18   19 1     
   36   18   41 1     
   37   19   20 1     
   38   20   21 1     
   39   20   42 1     
   40   20   43 1     
   41   21   26 1     
   42   21   22 1     
   43   21   23 1     
   44   22   44 1     
   45   23   24 1     
   46   23   45 1     
   47   23   46 1     
   48   24   25 1     
   49   24   47 1     
   50   24   48 1     
   51   25   26 1     
   52   26   49 1     
   53   26   50 1     
   54    6   51 1     
   55    6   52 1     
   56   12   53 1     
   57   14   54 1     
   58   17   55 1     
   59   22   56 1     
   60   22   57 1     
   61   25   58 1     
   62   25   59 1     
@<TRIPOS>SUBSTRUCTURE
      1 S1             1
@<TRIPOS>SET
LONE_PAIRS      STATIC     ATOMS    <user>   **** ""
9 51 52 53 54 55 56 57 58 59
DONOR_HYDROGENS      STATIC     ATOMS    <user>   **** ""
2 35 44
ATOM$BLUE        STATIC     ATOMS    COLORGROUP SYSTEM
9 51 52 53 54 55 56 57 58 59
ATOM$RED        STATIC     ATOMS    COLORGROUP SYSTEM
2 35 44
