#       Name:                AV-unprocessed.smi:1413
#       Creating user name   scv26
#       Creation time:       Fri Mar 27 05:38:44 2020


#       File generated by GOLD software.
#

@<TRIPOS>MOLECULE
AV-unprocessed.smi:1413
    61    63     1
SMALL
NO_CHARGES


@<TRIPOS>ATOM
      1 ****        -6.7695  -1.0113   2.5489 C.3            1 S1                 0.0000
      2 ****        -6.1357  -0.8193   1.1671 C.3            1 S1                 0.0000
      3 ****        -4.6213  -0.5618   1.2626 C.3            1 S1                 0.0000
      4 ****        -4.0726  -0.2611  -0.0557 N.3            1 S1                 0.0000
      5 ****        -2.6662  -0.3278  -0.1614 C.ar           1 S1                 0.0000
      6 ****        -1.9757  -1.4896   0.2551 C.ar           1 S1                 0.0000
      7 ****        -0.5729  -1.5287   0.1491 C.ar           1 S1                 0.0000
      8 ****         0.1143  -0.4142  -0.3699 C.ar           1 S1                 0.0000
      9 ****         1.5319  -0.4999  -0.4557 N.am           1 S1                 0.0000
     10 ****         2.4254   0.4299  -0.8361 C.2            1 S1                 0.0000
     11 ****         2.1597   1.5705  -1.2122 O.2            1 S1                 0.0000
     12 ****         3.6755  -0.0467  -0.7527 N.am           1 S1                 0.0000
     13 ****         4.8907   0.6963  -1.0792 C.3            1 S1                 0.0000
     14 ****         5.2224   0.5168  -2.5695 C.3            1 S1                 0.0000
     15 ****         6.0463   0.2330  -0.1712 C.3            1 S1                 0.0000
     16 ****         5.7670   0.3563   1.3292 C.3            1 S1                 0.0000
     17 ****         7.1641   0.4639   1.8944 C.3            1 S1                 0.0000
     18 ****         7.8539   1.3276   0.8442 C.3            1 S1                 0.0000
     19 ****         7.2077   1.0317  -0.3912 O.3            1 S1                 0.0000
     20 ****        -0.6617   0.6993  -0.7733 C.ar           1 S1                 0.0000
     21 ****        -2.0073   0.7403  -0.6729 N.ar           1 S1                 0.0000
     22 ****        -4.7607   0.8413  -0.7250 C.3            1 S1                 0.0000
     23 ****        -6.2830   0.6022  -0.7678 C.3            1 S1                 0.0000
     24 ****        -6.7105  -0.4453  -1.8115 C.3            1 S1                 0.0000
     25 ****        -6.7722   0.2930   0.5393 O.3            1 S1                 0.0000
     26 ****        -6.3239  -1.8591   3.0701 H              1 S1                 0.0000
     27 ****        -7.8401  -1.1988   2.4635 H              1 S1                 0.0000
     28 ****        -6.6345  -0.1266   3.1721 H              1 S1                 0.0000
     29 ****        -6.3167  -1.7234   0.5854 H              1 S1                 0.0000
     30 ****        -4.4245   0.2844   1.9226 H              1 S1                 0.0000
     31 ****        -4.1409  -1.4294   1.7124 H              1 S1                 0.0000
     32 ****        -2.5028  -2.3499   0.6398 H              1 S1                 0.0000
     33 ****        -0.0332  -2.4103   0.4638 H              1 S1                 0.0000
     34 ****         1.9221  -1.3850  -0.1677 H              1 S1                 0.0000
     35 ****         3.8000  -0.9963  -0.4336 H              1 S1                 0.0000
     36 ****         4.7245   1.7584  -0.8890 H              1 S1                 0.0000
     37 ****         6.1146   1.0792  -2.8450 H              1 S1                 0.0000
     38 ****         4.4065   0.8709  -3.2005 H              1 S1                 0.0000
     39 ****         5.4020  -0.5309  -2.8130 H              1 S1                 0.0000
     40 ****         6.3105  -0.8017  -0.3963 H              1 S1                 0.0000
     41 ****         5.2080   1.2685   1.5437 H              1 S1                 0.0000
     42 ****         5.2086  -0.4895   1.7312 H              1 S1                 0.0000
     43 ****         7.1928   0.9009   2.8928 H              1 S1                 0.0000
     44 ****         7.6285  -0.5223   1.9369 H              1 S1                 0.0000
     45 ****         7.7070   2.3854   1.0654 H              1 S1                 0.0000
     46 ****         8.9261   1.1384   0.7893 H              1 S1                 0.0000
     47 ****        -0.2262   1.5906  -1.1936 H              1 S1                 0.0000
     48 ****        -4.5513   1.7644  -0.1825 H              1 S1                 0.0000
     49 ****        -4.3824   0.9720  -1.7397 H              1 S1                 0.0000
     50 ****        -6.7567   1.5414  -1.0548 H              1 S1                 0.0000
     51 ****        -6.4424  -0.1193  -2.8166 H              1 S1                 0.0000
     52 ****        -7.7900  -0.5959  -1.7912 H              1 S1                 0.0000
     53 ****        -6.2336  -1.4113  -1.6485 H              1 S1                 0.0000
     54 ****        -4.3057  -1.0428  -0.6342 LP             1 S1                 0.0000
     55 ****         1.2078   1.8742  -1.2538 LP             1 S1                 0.0000
     56 ****         2.8955   2.1940  -1.4764 LP             1 S1                 0.0000
     57 ****         6.9394   1.8867  -0.8349 LP             1 S1                 0.0000
     58 ****         7.8418   0.5338  -0.9829 LP             1 S1                 0.0000
     59 ****        -2.5123   1.5497  -0.9726 LP             1 S1                 0.0000
     60 ****        -6.6390   1.0963   1.1197 LP             1 S1                 0.0000
     61 ****        -7.7492   0.0925   0.4667 LP             1 S1                 0.0000
@<TRIPOS>BOND
    1    1    2 1     
    2    1   26 1     
    3    1   27 1     
    4    1   28 1     
    5    2   25 1     
    6    2    3 1     
    7    2   29 1     
    8    3    4 1     
    9    3   30 1     
   10    3   31 1     
   11    4    5 1     
   12    4   22 1     
   13    5   21 ar    
   14    5    6 ar    
   15    6    7 ar    
   16    6   32 1     
   17    7    8 ar    
   18    7   33 1     
   19    8    9 1     
   20    8   20 ar    
   21    9   10 am    
   22    9   34 1     
   23   10   11 2     
   24   10   12 am    
   25   12   13 1     
   26   12   35 1     
   27   13   14 1     
   28   13   15 1     
   29   13   36 1     
   30   14   37 1     
   31   14   38 1     
   32   14   39 1     
   33   15   19 1     
   34   15   16 1     
   35   15   40 1     
   36   16   17 1     
   37   16   41 1     
   38   16   42 1     
   39   17   18 1     
   40   17   43 1     
   41   17   44 1     
   42   18   19 1     
   43   18   45 1     
   44   18   46 1     
   45   20   21 ar    
   46   20   47 1     
   47   22   23 1     
   48   22   48 1     
   49   22   49 1     
   50   23   24 1     
   51   23   25 1     
   52   23   50 1     
   53   24   51 1     
   54   24   52 1     
   55   24   53 1     
   56    4   54 1     
   57   11   55 1     
   58   11   56 1     
   59   19   57 1     
   60   19   58 1     
   61   21   59 1     
   62   25   60 1     
   63   25   61 1     
@<TRIPOS>SUBSTRUCTURE
      1 S1             1
@<TRIPOS>SET
LONE_PAIRS      STATIC     ATOMS    <user>   **** ""
8 54 55 56 57 58 59 60 61
DONOR_HYDROGENS      STATIC     ATOMS    <user>   **** ""
2 34 35
ATOM$BLUE        STATIC     ATOMS    COLORGROUP SYSTEM
8 54 55 56 57 58 59 60 61
ATOM$RED        STATIC     ATOMS    COLORGROUP SYSTEM
2 34 35
