AV-unprocessed.smi:2371|AV-procd|sdf|9437|dock1
  -GOLD-   2272013 63D 1   1.00000     0.00000
 Structure written by MMmdl.
 35 36  0  0  0  0  0  0  0  0  1 V2000
  150.8242  140.6131  155.3361 C   0  0  0  0  0  0  0  0  0  0  0  0
  149.5337  140.5517  154.6450 N   0  0  0  0  0  0  0  0  0  0  0  0
  148.7694  141.7291  154.5897 C   0  0  0  0  0  0  0  0  0  0  0  0
  147.5789  141.7658  153.9757 C   0  0  0  0  0  0  0  0  0  0  0  0
  147.0849  140.5562  153.3620 C   0  0  0  0  0  0  0  0  0  0  0  0
  147.8034  139.4056  153.4091 C   0  0  0  0  0  0  0  0  0  0  0  0
  147.4068  138.1820  152.8394 N   0  0  0  0  0  0  0  0  0  0  0  0
  146.1770  137.6555  152.6898 C   0  0  0  0  0  0  0  0  0  0  0  0
  145.1186  138.1676  153.0528 O   0  0  0  0  0  0  0  0  0  0  0  0
  146.2428  136.4594  152.0885 N   0  0  0  0  0  0  0  0  0  0  0  0
  145.0997  135.6023  151.7966 C   0  0  0  0  0  0  0  0  0  0  0  0
  145.5384  134.2652  151.1762 C   0  0  1  0  0  0  0  0  0  0  0  0
  146.2309  133.3228  152.1611 C   0  0  0  0  0  0  0  0  0  0  0  0
  145.9049  131.9330  151.6312 C   0  0  0  0  0  0  0  0  0  0  0  0
  144.8675  132.1819  150.5341 C   0  0  0  0  0  0  0  0  0  0  0  0
  144.4125  133.5065  150.7638 O   0  0  0  0  0  0  0  0  0  0  0  0
  149.1157  139.3774  154.0852 C   0  0  0  0  0  0  0  0  0  0  0  0
  149.8088  138.3590  154.1501 O   0  0  0  0  0  0  0  0  0  0  0  0
  151.0486  141.6076  155.7231 H   0  0  0  0  0  0  0  0  0  0  0  0
  151.6350  140.3381  154.6599 H   0  0  0  0  0  0  0  0  0  0  0  0
  150.8382  139.9243  156.1821 H   0  0  0  0  0  0  0  0  0  0  0  0
  149.2066  142.5909  155.0727 H   0  0  0  0  0  0  0  0  0  0  0  0
  147.0019  142.6781  153.9414 H   0  0  0  0  0  0  0  0  0  0  0  0
  146.1316  140.6186  152.8648 H   0  0  0  0  0  0  0  0  0  0  0  0
  148.1731  137.6118  152.5121 H   0  0  0  0  0  0  0  0  0  0  0  0
  147.1518  136.1061  151.8277 H   0  0  0  0  0  0  0  0  0  0  0  0
  144.5268  135.4261  152.7085 H   0  0  0  0  0  0  0  0  0  0  0  0
  144.4380  136.1343  151.1126 H   0  0  0  0  0  0  0  0  0  0  0  0
  146.1882  134.4331  150.3149 H   0  0  0  0  0  0  0  0  0  0  0  0
  147.3030  133.5095  152.2282 H   0  0  0  0  0  0  0  0  0  0  0  0
  145.8088  133.4383  153.1604 H   0  0  0  0  0  0  0  0  0  0  0  0
  146.7857  131.4303  151.2309 H   0  0  0  0  0  0  0  0  0  0  0  0
  145.4955  131.3094  152.4267 H   0  0  0  0  0  0  0  0  0  0  0  0
  145.3314  132.1284  149.5479 H   0  0  0  0  0  0  0  0  0  0  0  0
  144.0442  131.4677  150.5625 H   0  0  0  0  0  0  0  0  0  0  0  0
  1  2  1  0  0  0  0
  1 19  1  0  0  0  0
  1 20  1  0  0  0  0
  1 21  1  0  0  0  0
  2 17  1  0  0  0  0
  2  3  1  0  0  0  0
  3  4  2  0  0  0  0
  3 22  1  0  0  0  0
  4  5  1  0  0  0  0
  4 23  1  0  0  0  0
  5  6  2  0  0  0  0
  5 24  1  0  0  0  0
  6  7  1  0  0  0  0
  6 17  1  0  0  0  0
  7  8  1  0  0  0  0
  7 25  1  0  0  0  0
  8  9  2  0  0  0  0
  8 10  1  0  0  0  0
 10 11  1  0  0  0  0
 10 26  1  0  0  0  0
 11 12  1  0  0  0  0
 11 27  1  0  0  0  0
 11 28  1  0  0  0  0
 12 16  1  0  0  0  0
 12 13  1  0  0  0  0
 12 29  1  0  0  0  0
 13 14  1  0  0  0  0
 13 30  1  0  0  0  0
 13 31  1  0  0  0  0
 14 15  1  0  0  0  0
 14 32  1  0  0  0  0
 14 33  1  0  0  0  0
 15 16  1  0  0  0  0
 15 34  1  0  0  0  0
 15 35  1  0  0  0  0
 17 18  2  0  0  0  0
M  END
> <s_m_source_file>
AV-unprocessed.smi

> <i_m_source_file_index>
2371

> <i_lp_mmshare_version>
43012

> <i_f3d_flags>
0

> <s_epik_input>
W0NIM11uMVtjSF1bY0hdW2NIXWMoYzE9TylbTkhdQyg9TylbTkhdW0NIMl1bQ0BASF0yW0NIMl1bQ0gyXVtDSDJdTzI=

> <s_epik_cmdline>
J2VwaWtfcHl0aG9uJywgJy1waCcsICc3LjAnLCAnLXRuJywgJzgnLCAnLW1hJywgJzIwMCcsICctbWV0YWxfYmluZGluZycsICctaW1hZScsICc8aW5maWxlLm1hZT4nLCAnLW9tYWUnLCAnPG91dGZpbGUubWFlPic=

> <r_lp_tautomer_probability>
1

> <r_epik_Ionization_Penalty>
2.36512e-05

> <r_epik_Ionization_Penalty_Charging>
4.84074e-06

> <r_epik_Ionization_Penalty_Neutral>
1.88105e-05

> <r_epik_State_Penalty>
-0

> <r_epik_Charging_Adjusted_Penalty>
4.84074e-06

> <i_epik_Tot_Q>
0

> <i_epik_Tot_abs_Q>
0

> <r_epik_Metal_State_Penalty>
-0

> <b_epik_Metal_Only>
0

> <s_lp_Force_Field>
OPLS_2005

> <r_lp_Energy>
29.3434

> <b_lp_Chiralities_Consistent>
1

> <s_lp_Variant>
AV-unprocessed.smi:2371-2

> <Gold.Version>
5.8.1

> <Gold.Id.Protein>
6NUR|6NUR_protein|mol2

> <Gold.PLP.Fitness>
40.6413

> <Gold.PLP.PLP>
-32.1709

> <Gold.PLP.part.hbond>
-2.3651

> <Gold.PLP.part.metal>
0.0000

> <Gold.PLP.part.buried>
-1.1399

> <Gold.PLP.part.nonpolar>
-31.7050

> <Gold.PLP.part.repulsive>
3.6421

> <Gold.PLP.ligand.clash>
0.0000

> <Gold.PLP.ligand.torsion>
0.2684

> <Gold.PLP.Chemscore.Hbond>
2.0000

> <Gold.PLP.Chemscore.CHOScore>
1.0000

> <Gold.PLP.Chemscore.Metal>
0.0000

> <Gold.Chemscore.Hbonds>
donor molecule, donor type, donor heavy atom, donor atom, acceptor molecule, acceptor atom, score
      L1  H     7    25       P1  7948  1.00
      L1  H    10    26       P1  7948  1.00
      L1  C     3    22       P1  8028  1.00

> <Gold.PLP.Chemscore.Internal.Correction>
0.0072

> <Gold.Rescore>
     Score         DG    S(hbond)    S(metal)    S(lipo)     H(rot)  DE(clash)    DE(int)     intcor
     14.92     -16.78       1.95        0.00      68.23       1.25       1.55       0.32       ----

> <Gold.Chemscore.Fitness>
14.9203

> <Gold.Chemscore.DG>
-16.7833

> <Gold.Chemscore.ZeroCoef>
-5.4800

> <Gold.Chemscore.Hbond>
1.9505

> <Gold.Chemscore.Metal>
0.0000

> <Gold.Chemscore.Lipo>
68.2316

> <Gold.Chemscore.Internal_Hbond>
0.0000

> <Gold.Chemscore.DEClash>
1.5458

> <Gold.Chemscore.DEInternal>
0.3172

> <Gold.Chemscore.Rot>
1.2478

> <Gold.Chemscore.Internal.Correction>
   9.000000E+99

> <Gold.Chemscore.Hbonds>
donor molecule, donor type, donor heavy atom, donor atom, acceptor molecule, acceptor atom, score
      L1  H     7    25       P1  7948  0.99
      L1  H    10    26       P1  7948  0.96

> <Gold.Chemscore.Hbond.Weighted>
-6.5146

> <Gold.Chemscore.Metal.Weighted>
-0.0000

> <Gold.Chemscore.Lipo.Weighted>
-7.9831

> <Gold.Chemscore.Internal_Hbond.Weighted>
0.0000

> <Gold.Chemscore.DEClash.Weighted>
1.5458

> <Gold.Chemscore.DEInternal.Weighted>
0.3172

> <Gold.Chemscore.Rot.Weighted>
3.1944

> <Gold.Chemscore.Internal.Correction.Weighted>
   9.000000E+99

> <Gold.Protein.RotatedTorsions>
[ 6907 6896 6895 6894 ] final  -87.78 input  -60.11 | X-H torsion
[ 7974 7965 7964 7962 ] final -174.69 input  175.53 | X-H torsion
[ 8008 7997 7996 7995 ] final   46.83 input   59.86 | X-H torsion
[ 10167 10162 10161 10158 ] final  171.35 input  -65.29 | X-H torsion
[ 10718 10713 10712 10709 ] final  156.42 input   66.30 | X-H torsion
[ 10763 10752 10751 10750 ] final  105.08 input  -60.55 | X-H torsion
[ 11005 11000 10999 10996 ] final -137.58 input  -57.11 | X-H torsion

> <Gold.Protein.ActiveResidues>
 VAL166  LYS551  ARG553  GLY616  TRP617  ASP618  TYR619  PRO620  LYS621  CYS622 
 ASP623  PHE694  ASN695  SER759  ASP760  ASP761  ALA762  ILE779  LEU786  VAL792 
 PHE793  MET794  SER795  GLU796  ALA797  LYS798  CYS799  TRP800  GLU811  SER814 

> <Gold.Protein.RotatedAtoms>
  150.6867  134.2843  159.4640 H   0  0  0  0  0  0  0  0  0  0  0  0  # atno 6907 bound_to 6896
  152.0754  134.9503  160.0583 H   0  0  0  0  0  0  0  0  0  0  0  0  # atno 6908 bound_to 6896
  152.0877  133.4149  159.4566 H   0  0  0  0  0  0  0  0  0  0  0  0  # atno 6909 bound_to 6896
  144.7131  140.1433  143.6390 H   0  0  0  0  0  0  0  0  0  0  0  0  # atno 7974 bound_to 7965
  155.3589  140.3417  155.4240 H   0  0  0  0  0  0  0  0  0  0  0  0  # atno 8008 bound_to 7997
  156.1724  140.1636  156.8458 H   0  0  0  0  0  0  0  0  0  0  0  0  # atno 8009 bound_to 7997
  154.5247  140.0759  156.8219 H   0  0  0  0  0  0  0  0  0  0  0  0  # atno 8010 bound_to 7997
  139.5044  144.3495  151.9937 H   0  0  0  0  0  0  0  0  0  0  0  0  # atno 10167 bound_to 10162
  157.2052  131.0685  151.2002 H   0  0  0  0  0  0  0  0  0  0  0  0  # atno 10718 bound_to 10713
  153.3745  135.3922  155.1813 H   0  0  0  0  0  0  0  0  0  0  0  0  # atno 10763 bound_to 10752
  154.8699  135.3710  154.4935 H   0  0  0  0  0  0  0  0  0  0  0  0  # atno 10764 bound_to 10752
  153.5406  135.7084  153.5699 H   0  0  0  0  0  0  0  0  0  0  0  0  # atno 10765 bound_to 10752
  140.8697  134.2066  157.4658 H   0  0  0  0  0  0  0  0  0  0  0  0  # atno 11005 bound_to 11000
  145.9182  139.2529  143.1397 LP  0  0  0  0  0  0  0  0  0  0  0  0  # atno 17320 bound_to 7965
  145.9647  140.8808  143.0193 LP  0  0  0  0  0  0  0  0  0  0  0  0  # atno 17321 bound_to 7965
  140.2932  144.3730  150.6082 LP  0  0  0  0  0  0  0  0  0  0  0  0  # atno 17342 bound_to 10162
  140.5930  143.2167  151.7217 LP  0  0  0  0  0  0  0  0  0  0  0  0  # atno 17343 bound_to 10162
  157.3728  130.7190  149.6576 LP  0  0  0  0  0  0  0  0  0  0  0  0  # atno 17370 bound_to 10713
  155.9696  130.4194  150.4374 LP  0  0  0  0  0  0  0  0  0  0  0  0  # atno 17371 bound_to 10713
  139.8711  134.9768  156.4937 LP  0  0  0  0  0  0  0  0  0  0  0  0  # atno 17394 bound_to 11000
  140.8587  133.8076  155.9243 LP  0  0  0  0  0  0  0  0  0  0  0  0  # atno 17395 bound_to 11000

$$$$
