AV-unprocessed.smi:91|AV-procd|sdf|834|dock4
  -GOLD-   2262017263D 1   1.00000     0.00000
 Structure written by MMmdl.
 60 63  0  0  0  0  0  0  0  0  1 V2000
  153.0961  142.6950  162.4837 C   0  0  0  0  0  0  0  0  0  0  0  0
  154.0026  141.9642  161.6729 O   0  0  0  0  0  0  0  0  0  0  0  0
  153.3787  141.1245  160.7101 C   0  0  0  0  0  0  0  0  0  0  0  0
  152.9239  141.8948  159.4576 C   0  0  1  0  0  0  0  0  0  0  0  0
  152.0255  141.0386  158.5470 C   0  0  0  0  0  0  0  0  0  0  0  0
  151.4791  141.8536  157.4679 N   0  0  0  0  0  0  0  0  0  0  0  0
  151.0025  141.1780  156.3905 C   0  0  0  0  0  0  0  0  0  0  0  0
  151.8085  140.2258  155.8522 N   0  0  0  0  0  0  0  0  0  0  0  0
  151.4154  139.5264  154.7845 C   0  0  0  0  0  0  0  0  0  0  0  0
  150.2697  139.6119  154.1080 N   0  0  0  0  0  0  0  0  0  0  0  0
  149.4491  140.5589  154.6444 C   0  0  0  0  0  0  0  0  0  0  0  0
  149.7323  141.3855  155.7708 C   0  0  0  0  0  0  0  0  0  0  0  0
  148.6488  142.2250  156.0116 N   0  0  0  0  0  0  0  0  0  0  0  0
  147.7848  141.9187  155.0841 C   0  0  0  0  0  0  0  0  0  0  0  0
  148.1762  140.9126  154.2317 N   0  0  0  0  0  0  0  0  0  0  0  0
  147.4160  140.3764  153.1163 C   0  0  0  0  0  0  0  0  0  0  0  0
  147.0176  138.8819  153.2486 C   0  0  2  0  0  0  0  0  0  0  0  0
  146.4950  138.4127  151.8688 C   0  0  0  0  0  0  0  0  0  0  0  0
  146.3098  137.0131  151.8187 O   0  0  0  0  0  0  0  0  0  0  0  0
  145.9945  138.6188  154.3969 C   0  0  2  0  0  0  0  0  0  0  0  0
  146.3589  139.2094  155.7609 C   0  0  0  0  0  0  0  0  0  0  0  0
  145.8328  138.2042  156.7896 C   0  0  0  0  0  0  0  0  0  0  0  0
  145.1417  137.2233  156.0339 O   0  0  0  0  0  0  0  0  0  0  0  0
  145.7755  137.1496  154.7705 C   0  0  0  0  0  0  0  0  0  0  0  0
  150.7732  143.0394  157.9363 C   0  0  0  0  0  0  0  0  0  0  0  0
  151.6646  143.8831  158.8735 C   0  0  0  0  0  0  0  0  0  0  0  0
  152.7914  144.6039  158.1025 C   0  0  0  0  0  0  0  0  0  0  0  0
  150.8057  144.9275  159.6027 C   0  0  0  0  0  0  0  0  0  0  0  0
  152.1956  143.0402  159.9025 O   0  0  0  0  0  0  0  0  0  0  0  0
  153.6542  143.2575  163.2321 H   0  0  0  0  0  0  0  0  0  0  0  0
  152.4103  142.0299  163.0100 H   0  0  0  0  0  0  0  0  0  0  0  0
  152.5151  143.4099  161.9015 H   0  0  0  0  0  0  0  0  0  0  0  0
  154.1031  140.3637  160.4178 H   0  0  0  0  0  0  0  0  0  0  0  0
  152.5413  140.5892  161.1604 H   0  0  0  0  0  0  0  0  0  0  0  0
  153.8022  142.2245  158.9053 H   0  0  0  0  0  0  0  0  0  0  0  0
  152.6001  140.1963  158.1612 H   0  0  0  0  0  0  0  0  0  0  0  0
  151.1974  140.6199  159.1205 H   0  0  0  0  0  0  0  0  0  0  0  0
  152.1201  138.7932  154.4209 H   0  0  0  0  0  0  0  0  0  0  0  0
  146.8264  142.4114  155.0058 H   0  0  0  0  0  0  0  0  0  0  0  0
  146.5219  140.9870  152.9823 H   0  0  0  0  0  0  0  0  0  0  0  0
  148.0219  140.5238  152.2213 H   0  0  0  0  0  0  0  0  0  0  0  0
  147.9258  138.3158  153.4600 H   0  0  0  0  0  0  0  0  0  0  0  0
  145.5641  138.9190  151.6114 H   0  0  0  0  0  0  0  0  0  0  0  0
  147.2103  138.6548  151.0824 H   0  0  0  0  0  0  0  0  0  0  0  0
  147.1162  136.6129  151.5314 H   0  0  0  0  0  0  0  0  0  0  0  0
  145.0247  139.0216  154.1002 H   0  0  0  0  0  0  0  0  0  0  0  0
  147.4374  139.3195  155.8781 H   0  0  0  0  0  0  0  0  0  0  0  0
  145.9038  140.1885  155.9062 H   0  0  0  0  0  0  0  0  0  0  0  0
  146.6592  137.7340  157.3245 H   0  0  0  0  0  0  0  0  0  0  0  0
  145.1709  138.6647  157.5233 H   0  0  0  0  0  0  0  0  0  0  0  0
  145.1513  136.6174  154.0523 H   0  0  0  0  0  0  0  0  0  0  0  0
  146.7224  136.6166  154.8728 H   0  0  0  0  0  0  0  0  0  0  0  0
  150.4496  143.6484  157.0912 H   0  0  0  0  0  0  0  0  0  0  0  0
  149.8773  142.7183  158.4695 H   0  0  0  0  0  0  0  0  0  0  0  0
  152.3802  145.3365  157.4076 H   0  0  0  0  0  0  0  0  0  0  0  0
  153.3993  143.9185  157.5127 H   0  0  0  0  0  0  0  0  0  0  0  0
  153.4568  145.1343  158.7841 H   0  0  0  0  0  0  0  0  0  0  0  0
  150.3310  145.6122  158.8992 H   0  0  0  0  0  0  0  0  0  0  0  0
  151.4071  145.5226  160.2908 H   0  0  0  0  0  0  0  0  0  0  0  0
  150.0158  144.4523  160.1853 H   0  0  0  0  0  0  0  0  0  0  0  0
  1  2  1  0  0  0  0
  1 30  1  0  0  0  0
  1 31  1  0  0  0  0
  1 32  1  0  0  0  0
  2  3  1  0  0  0  0
  3  4  1  0  0  0  0
  3 33  1  0  0  0  0
  3 34  1  0  0  0  0
  4 29  1  0  0  0  0
  4  5  1  0  0  0  0
  4 35  1  0  0  0  0
  5  6  1  0  0  0  0
  5 36  1  0  0  0  0
  5 37  1  0  0  0  0
  6  7  1  0  0  0  0
  6 25  1  0  0  0  0
  7 12  1  0  0  0  0
  7  8  2  0  0  0  0
  8  9  1  0  0  0  0
  9 10  2  0  0  0  0
  9 38  1  0  0  0  0
 10 11  1  0  0  0  0
 11 15  1  0  0  0  0
 11 12  2  0  0  0  0
 12 13  1  0  0  0  0
 13 14  2  0  0  0  0
 14 15  1  0  0  0  0
 14 39  1  0  0  0  0
 15 16  1  0  0  0  0
 16 17  1  0  0  0  0
 16 40  1  0  0  0  0
 16 41  1  0  0  0  0
 17 18  1  0  0  0  0
 17 20  1  0  0  0  0
 17 42  1  0  0  0  0
 18 19  1  0  0  0  0
 18 43  1  0  0  0  0
 18 44  1  0  0  0  0
 19 45  1  0  0  0  0
 20 24  1  0  0  0  0
 20 21  1  0  0  0  0
 20 46  1  0  0  0  0
 21 22  1  0  0  0  0
 21 47  1  0  0  0  0
 21 48  1  0  0  0  0
 22 23  1  0  0  0  0
 22 49  1  0  0  0  0
 22 50  1  0  0  0  0
 23 24  1  0  0  0  0
 24 51  1  0  0  0  0
 24 52  1  0  0  0  0
 25 26  1  0  0  0  0
 25 53  1  0  0  0  0
 25 54  1  0  0  0  0
 26 27  1  0  0  0  0
 26 28  1  0  0  0  0
 26 29  1  0  0  0  0
 27 55  1  0  0  0  0
 27 56  1  0  0  0  0
 27 57  1  0  0  0  0
 28 58  1  0  0  0  0
 28 59  1  0  0  0  0
 28 60  1  0  0  0  0
M  END
> <s_m_source_file>
AV-unprocessed.smi

> <i_m_source_file_index>
91

> <i_lp_mmshare_version>
43012

> <i_f3d_flags>
0

> <s_epik_input>
W0NIM11PW0NIMl1bQ0BASF0oTzEpW0NIMl1OKFtDSDJdQzEoW0NIM10pW0NIM10pYyhuW2NIXW4yKWMoYzIzKW5bY0hdbjNbQ0gyXVtDQEhdKFtDSDJdW09IXSlbQ0BASF00W0NIMl1bQ0gyXU9bQ0gyXTQ=

> <s_epik_cmdline>
J2VwaWtfcHl0aG9uJywgJy1waCcsICc3LjAnLCAnLXRuJywgJzgnLCAnLW1hJywgJzIwMCcsICctbWV0YWxfYmluZGluZycsICctaW1hZScsICc8aW5maWxlLm1hZT4nLCAnLW9tYWUnLCAnPG91dGZpbGUubWFlPic=

> <r_lp_tautomer_probability>
1

> <r_epik_Ionization_Penalty>
8.63591e-05

> <r_epik_Ionization_Penalty_Charging>
0

> <r_epik_Ionization_Penalty_Neutral>
8.63591e-05

> <r_epik_State_Penalty>
-0

> <r_epik_Charging_Adjusted_Penalty>
0

> <i_epik_Tot_Q>
0

> <i_epik_Tot_abs_Q>
0

> <r_epik_Metal_State_Penalty>
-0

> <b_epik_Metal_Only>
0

> <s_lp_Force_Field>
OPLS_2005

> <r_lp_Energy>
49.706

> <b_lp_Chiralities_Consistent>
1

> <s_lp_Variant>
AV-unprocessed.smi:91-2

> <Gold.Version>
5.8.1

> <Gold.Id.Protein>
6NUR|6NUR_protein|mol2

> <Gold.PLP.Fitness>
54.4711

> <Gold.PLP.PLP>
-51.9602

> <Gold.PLP.part.hbond>
-3.2286

> <Gold.PLP.part.metal>
0.0000

> <Gold.PLP.part.buried>
-2.9512

> <Gold.PLP.part.nonpolar>
-50.5086

> <Gold.PLP.part.repulsive>
4.6547

> <Gold.PLP.ligand.clash>
0.0000

> <Gold.PLP.ligand.torsion>
0.5623

> <Gold.PLP.Chemscore.Hbond>
1.0000

> <Gold.PLP.Chemscore.CHOScore>
0.0000

> <Gold.PLP.Chemscore.Metal>
0.0000

> <Gold.Chemscore.Hbonds>
donor molecule, donor type, donor heavy atom, donor atom, acceptor molecule, acceptor atom, score
      L1  H    19    45       P1  7948  1.00

> <Gold.PLP.Chemscore.Internal.Correction>
0.6355

> <Gold.Rescore>
     Score         DG    S(hbond)    S(metal)    S(lipo)     H(rot)  DE(clash)    DE(int)     intcor
     10.46     -14.22       1.00        0.00     112.54       3.03       1.67       2.10       ----

> <Gold.Chemscore.Fitness>
10.4575

> <Gold.Chemscore.DG>
-14.2237

> <Gold.Chemscore.ZeroCoef>
-5.4800

> <Gold.Chemscore.Hbond>
0.9968

> <Gold.Chemscore.Metal>
0.0000

> <Gold.Chemscore.Lipo>
112.5394

> <Gold.Chemscore.Internal_Hbond>
0.0000

> <Gold.Chemscore.DEClash>
1.6664

> <Gold.Chemscore.DEInternal>
2.0998

> <Gold.Chemscore.Rot>
3.0284

> <Gold.Chemscore.Internal.Correction>
   9.000000E+99

> <Gold.Chemscore.Hbonds>
donor molecule, donor type, donor heavy atom, donor atom, acceptor molecule, acceptor atom, score
      L1  H    19    45       P1  7948  0.94

> <Gold.Chemscore.Hbond.Weighted>
-3.3294

> <Gold.Chemscore.Metal.Weighted>
-0.0000

> <Gold.Chemscore.Lipo.Weighted>
-13.1671

> <Gold.Chemscore.Internal_Hbond.Weighted>
0.0000

> <Gold.Chemscore.DEClash.Weighted>
1.6664

> <Gold.Chemscore.DEInternal.Weighted>
2.0998

> <Gold.Chemscore.Rot.Weighted>
7.7528

> <Gold.Chemscore.Internal.Correction.Weighted>
   9.000000E+99

> <Gold.Protein.RotatedTorsions>
[ 6907 6896 6895 6894 ] final    0.20 input  -60.11 | X-H torsion
[ 7974 7965 7964 7962 ] final  143.12 input  175.53 | X-H torsion
[ 8008 7997 7996 7995 ] final  -17.64 input   59.86 | X-H torsion
[ 10167 10162 10161 10158 ] final -170.93 input  -65.29 | X-H torsion
[ 10718 10713 10712 10709 ] final  137.49 input   66.30 | X-H torsion
[ 10763 10752 10751 10750 ] final -122.97 input  -60.55 | X-H torsion
[ 11005 11000 10999 10996 ] final  -52.79 input  -57.11 | X-H torsion

> <Gold.Protein.ActiveResidues>
 VAL166  LYS551  ARG553  GLY616  TRP617  ASP618  TYR619  PRO620  LYS621  CYS622 
 ASP623  PHE694  ASN695  SER759  ASP760  ASP761  ALA762  ILE779  LEU786  VAL792 
 PHE793  MET794  SER795  GLU796  ALA797  LYS798  CYS799  TRP800  GLU811  SER814 

> <Gold.Protein.RotatedAtoms>
  151.5725  135.1062  159.9998 H   0  0  0  0  0  0  0  0  0  0  0  0  # atno 6907 bound_to 6896
  152.4394  133.7415  159.6654 H   0  0  0  0  0  0  0  0  0  0  0  0  # atno 6908 bound_to 6896
  150.8296  133.8043  159.3127 H   0  0  0  0  0  0  0  0  0  0  0  0  # atno 6909 bound_to 6896
  144.8948  139.5506  143.5781 H   0  0  0  0  0  0  0  0  0  0  0  0  # atno 7974 bound_to 7965
  154.4964  140.2137  155.9439 H   0  0  0  0  0  0  0  0  0  0  0  0  # atno 8008 bound_to 7997
  156.1375  140.3186  155.8412 H   0  0  0  0  0  0  0  0  0  0  0  0  # atno 8009 bound_to 7997
  155.4182  140.0495  157.3018 H   0  0  0  0  0  0  0  0  0  0  0  0  # atno 8010 bound_to 7997
  139.5832  144.1376  152.1542 H   0  0  0  0  0  0  0  0  0  0  0  0  # atno 10167 bound_to 10162
  157.4355  131.1052  151.0202 H   0  0  0  0  0  0  0  0  0  0  0  0  # atno 10718 bound_to 10713
  154.8699  135.4114  154.2868 H   0  0  0  0  0  0  0  0  0  0  0  0  # atno 10763 bound_to 10752
  153.3751  135.7009  153.6614 H   0  0  0  0  0  0  0  0  0  0  0  0  # atno 10764 bound_to 10752
  153.5459  135.3638  155.2710 H   0  0  0  0  0  0  0  0  0  0  0  0  # atno 10765 bound_to 10752
  141.0943  133.6627  156.4077 H   0  0  0  0  0  0  0  0  0  0  0  0  # atno 11005 bound_to 11000
  146.3075  139.7630  142.9045 LP  0  0  0  0  0  0  0  0  0  0  0  0  # atno 17320 bound_to 7965
  145.3719  141.0344  143.3226 LP  0  0  0  0  0  0  0  0  0  0  0  0  # atno 17321 bound_to 7965
  140.0934  144.5601  150.7039 LP  0  0  0  0  0  0  0  0  0  0  0  0  # atno 17342 bound_to 10162
  140.7108  143.2503  151.4587 LP  0  0  0  0  0  0  0  0  0  0  0  0  # atno 17343 bound_to 10162
  157.1083  130.6011  149.5476 LP  0  0  0  0  0  0  0  0  0  0  0  0  # atno 17370 bound_to 10713
  155.9929  130.4988  150.7358 LP  0  0  0  0  0  0  0  0  0  0  0  0  # atno 17371 bound_to 10713
  140.5178  134.6333  157.5307 LP  0  0  0  0  0  0  0  0  0  0  0  0  # atno 17394 bound_to 11000
  139.9776  134.7190  155.9921 LP  0  0  0  0  0  0  0  0  0  0  0  0  # atno 17395 bound_to 11000

$$$$
