AV-unprocessed.smi:2615|AV-procd|sdf|10215|dock4
  -GOLD-   2272014223D 1   1.00000     0.00000
 Structure written by MMmdl.
 36 37  0  0  0  0  0  0  0  0  1 V2000
  146.4801  138.4143  152.0224 C   0  0  0  0  0  0  0  0  0  0  0  0
  147.2123  139.3886  152.9212 C   0  0  0  0  0  0  0  0  0  0  0  0
  146.8633  140.7521  152.9591 C   0  0  0  0  0  0  0  0  0  0  0  0
  147.5789  141.6119  153.8144 C   0  0  0  0  0  0  0  0  0  0  0  0
  148.6240  141.0906  154.6100 C   0  0  0  0  0  0  0  0  0  0  0  0
  149.2816  142.0406  155.4363 N   0  0  0  0  0  0  0  0  0  0  0  0
  150.2327  141.8211  156.3613 C   0  0  0  0  0  0  0  0  0  0  0  0
  150.7035  140.7212  156.6525 O   0  0  0  0  0  0  0  0  0  0  0  0
  150.6150  142.9670  156.9441 N   0  0  0  0  0  0  0  0  0  0  0  0
  151.6286  143.0852  157.9882 C   0  0  0  0  0  0  0  0  0  0  0  0
  151.5100  141.9236  158.9971 C   0  0  0  0  0  0  0  0  0  0  0  0
  152.5182  142.0729  160.1479 C   0  0  0  0  0  0  0  0  0  0  0  0
  152.3662  143.4307  160.8510 C   0  0  0  0  0  0  0  0  0  0  0  0
  152.4905  144.5897  159.8496 C   0  0  0  0  0  0  0  0  0  0  0  0
  151.4809  144.4437  158.6995 C   0  0  0  0  0  0  0  0  0  0  0  0
  148.9523  139.7753  154.5664 N   0  0  0  0  0  0  0  0  0  0  0  0
  148.2660  138.9518  153.7465 C   0  0  0  0  0  0  0  0  0  0  0  0
  145.7257  138.9209  151.4196 H   0  0  0  0  0  0  0  0  0  0  0  0
  145.9833  137.6499  152.6204 H   0  0  0  0  0  0  0  0  0  0  0  0
  147.1813  137.9219  151.3480 H   0  0  0  0  0  0  0  0  0  0  0  0
  146.0622  141.1372  152.3453 H   0  0  0  0  0  0  0  0  0  0  0  0
  147.3246  142.6610  153.8556 H   0  0  0  0  0  0  0  0  0  0  0  0
  148.9937  142.9993  155.3084 H   0  0  0  0  0  0  0  0  0  0  0  0
  150.1739  143.8235  156.6428 H   0  0  0  0  0  0  0  0  0  0  0  0
  152.6178  143.0518  157.5269 H   0  0  0  0  0  0  0  0  0  0  0  0
  150.4989  141.8909  159.4055 H   0  0  0  0  0  0  0  0  0  0  0  0
  151.6708  140.9689  158.4947 H   0  0  0  0  0  0  0  0  0  0  0  0
  152.3831  141.2646  160.8673 H   0  0  0  0  0  0  0  0  0  0  0  0
  153.5326  141.9745  159.7593 H   0  0  0  0  0  0  0  0  0  0  0  0
  151.3964  143.4785  161.3478 H   0  0  0  0  0  0  0  0  0  0  0  0
  153.1199  143.5315  161.6325 H   0  0  0  0  0  0  0  0  0  0  0  0
  152.3373  145.5404  160.3610 H   0  0  0  0  0  0  0  0  0  0  0  0
  153.5030  144.6159  159.4448 H   0  0  0  0  0  0  0  0  0  0  0  0
  151.6193  145.2566  157.9857 H   0  0  0  0  0  0  0  0  0  0  0  0
  150.4687  144.5472  159.0936 H   0  0  0  0  0  0  0  0  0  0  0  0
  148.5679  137.9147  153.7505 H   0  0  0  0  0  0  0  0  0  0  0  0
  1  2  1  0  0  0  0
  1 18  1  0  0  0  0
  1 19  1  0  0  0  0
  1 20  1  0  0  0  0
  2 17  1  0  0  0  0
  2  3  2  0  0  0  0
  3  4  1  0  0  0  0
  3 21  1  0  0  0  0
  4  5  2  0  0  0  0
  4 22  1  0  0  0  0
  5  6  1  0  0  0  0
  5 16  1  0  0  0  0
  6  7  1  0  0  0  0
  6 23  1  0  0  0  0
  7  8  2  0  0  0  0
  7  9  1  0  0  0  0
  9 10  1  0  0  0  0
  9 24  1  0  0  0  0
 10 15  1  0  0  0  0
 10 11  1  0  0  0  0
 10 25  1  0  0  0  0
 11 12  1  0  0  0  0
 11 26  1  0  0  0  0
 11 27  1  0  0  0  0
 12 13  1  0  0  0  0
 12 28  1  0  0  0  0
 12 29  1  0  0  0  0
 13 14  1  0  0  0  0
 13 30  1  0  0  0  0
 13 31  1  0  0  0  0
 14 15  1  0  0  0  0
 14 32  1  0  0  0  0
 14 33  1  0  0  0  0
 15 34  1  0  0  0  0
 15 35  1  0  0  0  0
 16 17  2  0  0  0  0
 17 36  1  0  0  0  0
M  END
> <s_m_source_file>
AV-unprocessed.smi

> <i_m_source_file_index>
2615

> <i_lp_mmshare_version>
43012

> <i_f3d_flags>
0

> <s_epik_input>
W0NIM11jMVtjSF1bY0hdYyhuW2NIXTEpW05IXUMoPU8pW05IXVtDSF0yW0NIMl1bQ0gyXVtDSDJdW0NIMl1bQ0gyXTI=

> <s_epik_cmdline>
J2VwaWtfcHl0aG9uJywgJy1waCcsICc3LjAnLCAnLXRuJywgJzgnLCAnLW1hJywgJzIwMCcsICctbWV0YWxfYmluZGluZycsICctaW1hZScsICc8aW5maWxlLm1hZT4nLCAnLW9tYWUnLCAnPG91dGZpbGUubWFlPic=

> <r_lp_tautomer_probability>
1

> <r_epik_Ionization_Penalty>
6.39786e-05

> <r_epik_Ionization_Penalty_Charging>
0

> <r_epik_Ionization_Penalty_Neutral>
6.39786e-05

> <r_epik_State_Penalty>
-0

> <r_epik_Charging_Adjusted_Penalty>
0

> <i_epik_Tot_Q>
0

> <i_epik_Tot_abs_Q>
0

> <r_epik_Metal_State_Penalty>
-0

> <b_epik_Metal_Only>
0

> <s_lp_Force_Field>
OPLS_2005

> <r_lp_Energy>
11.2563

> <b_lp_Chiralities_Consistent>
1

> <s_lp_Variant>
AV-unprocessed.smi:2615-1

> <Gold.Version>
5.8.1

> <Gold.Id.Protein>
6NUR|6NUR_protein|mol2

> <Gold.PLP.Fitness>
47.6127

> <Gold.PLP.PLP>
-39.1401

> <Gold.PLP.part.hbond>
-2.0000

> <Gold.PLP.part.metal>
0.0000

> <Gold.PLP.part.buried>
-2.8298

> <Gold.PLP.part.nonpolar>
-34.7413

> <Gold.PLP.part.repulsive>
0.3258

> <Gold.PLP.ligand.clash>
0.0000

> <Gold.PLP.ligand.torsion>
0.2649

> <Gold.PLP.Chemscore.Hbond>
2.0000

> <Gold.PLP.Chemscore.CHOScore>
0.9998

> <Gold.PLP.Chemscore.Metal>
0.0000

> <Gold.Chemscore.Hbonds>
donor molecule, donor type, donor heavy atom, donor atom, acceptor molecule, acceptor atom, score
      L1  H     6    23       P1  8028  1.00
      L1  H     9    24       P1  8028  1.00
      L1  C    17    36       P1  7948  0.96

> <Gold.PLP.Chemscore.Internal.Correction>
0.0031

> <Gold.Rescore>
     Score         DG    S(hbond)    S(metal)    S(lipo)     H(rot)  DE(clash)    DE(int)     intcor
     18.75     -21.71       1.95        0.00     104.83       1.00       0.18       2.79       ----

> <Gold.Chemscore.Fitness>
18.7504

> <Gold.Chemscore.DG>
-21.7128

> <Gold.Chemscore.ZeroCoef>
-5.4800

> <Gold.Chemscore.Hbond>
1.9543

> <Gold.Chemscore.Metal>
0.0000

> <Gold.Chemscore.Lipo>
104.8339

> <Gold.Chemscore.Internal_Hbond>
0.0000

> <Gold.Chemscore.DEClash>
0.1767

> <Gold.Chemscore.DEInternal>
2.7856

> <Gold.Chemscore.Rot>
1.0000

> <Gold.Chemscore.Internal.Correction>
   9.000000E+99

> <Gold.Chemscore.Hbonds>
donor molecule, donor type, donor heavy atom, donor atom, acceptor molecule, acceptor atom, score
      L1  H     6    23       P1  8028  0.99
      L1  H     9    24       P1  8028  0.96

> <Gold.Chemscore.Hbond.Weighted>
-6.5272

> <Gold.Chemscore.Metal.Weighted>
-0.0000

> <Gold.Chemscore.Lipo.Weighted>
-12.2656

> <Gold.Chemscore.Internal_Hbond.Weighted>
0.0000

> <Gold.Chemscore.DEClash.Weighted>
0.1767

> <Gold.Chemscore.DEInternal.Weighted>
2.7856

> <Gold.Chemscore.Rot.Weighted>
2.5600

> <Gold.Chemscore.Internal.Correction.Weighted>
   9.000000E+99

> <Gold.Protein.RotatedTorsions>
[ 6907 6896 6895 6894 ] final  108.53 input  -60.11 | X-H torsion
[ 7974 7965 7964 7962 ] final  -40.41 input  175.53 | X-H torsion
[ 8008 7997 7996 7995 ] final  102.86 input   59.86 | X-H torsion
[ 10167 10162 10161 10158 ] final   98.09 input  -65.29 | X-H torsion
[ 10718 10713 10712 10709 ] final  129.44 input   66.30 | X-H torsion
[ 10763 10752 10751 10750 ] final  -66.10 input  -60.55 | X-H torsion
[ 11005 11000 10999 10996 ] final  106.90 input  -57.11 | X-H torsion

> <Gold.Protein.ActiveResidues>
 VAL166  LYS551  ARG553  GLY616  TRP617  ASP618  TYR619  PRO620  LYS621  CYS622 
 ASP623  PHE694  ASN695  SER759  ASP760  ASP761  ALA762  ILE779  LEU786  VAL792 
 PHE793  MET794  SER795  GLU796  ALA797  LYS798  CYS799  TRP800  GLU811  SER814 

> <Gold.Protein.RotatedAtoms>
  152.5108  133.9076  159.7471 H   0  0  0  0  0  0  0  0  0  0  0  0  # atno 6907 bound_to 6896
  150.9477  133.6576  159.2785 H   0  0  0  0  0  0  0  0  0  0  0  0  # atno 6908 bound_to 6896
  151.3866  135.0954  159.9565 H   0  0  0  0  0  0  0  0  0  0  0  0  # atno 6909 bound_to 6896
  146.0307  140.6735  142.9134 H   0  0  0  0  0  0  0  0  0  0  0  0  # atno 7974 bound_to 7965
  156.1432  140.3174  155.8528 H   0  0  0  0  0  0  0  0  0  0  0  0  # atno 8008 bound_to 7997
  155.4115  140.0506  157.3048 H   0  0  0  0  0  0  0  0  0  0  0  0  # atno 8009 bound_to 7997
  154.4994  140.2123  155.9391 H   0  0  0  0  0  0  0  0  0  0  0  0  # atno 8010 bound_to 7997
  139.7740  144.6912  151.0115 H   0  0  0  0  0  0  0  0  0  0  0  0  # atno 10167 bound_to 10162
  157.5154  131.1097  150.9232 H   0  0  0  0  0  0  0  0  0  0  0  0  # atno 10718 bound_to 10713
  154.3548  135.6129  153.5660 H   0  0  0  0  0  0  0  0  0  0  0  0  # atno 10763 bound_to 10752
  152.9796  135.5801  154.4702 H   0  0  0  0  0  0  0  0  0  0  0  0  # atno 10764 bound_to 10752
  154.4429  135.2850  155.1812 H   0  0  0  0  0  0  0  0  0  0  0  0  # atno 10765 bound_to 10752
  139.8820  134.9384  156.5737 H   0  0  0  0  0  0  0  0  0  0  0  0  # atno 11005 bound_to 11000
  144.7029  140.3731  143.7141 LP  0  0  0  0  0  0  0  0  0  0  0  0  # atno 17320 bound_to 7965
  145.7045  139.1669  143.2574 LP  0  0  0  0  0  0  0  0  0  0  0  0  # atno 17321 bound_to 7965
  140.7815  143.4556  151.0350 LP  0  0  0  0  0  0  0  0  0  0  0  0  # atno 17342 bound_to 10162
  139.8239  143.7782  152.3178 LP  0  0  0  0  0  0  0  0  0  0  0  0  # atno 17343 bound_to 10162
  156.9859  130.5544  149.5299 LP  0  0  0  0  0  0  0  0  0  0  0  0  # atno 17370 bound_to 10713
  156.0317  130.5408  150.8551 LP  0  0  0  0  0  0  0  0  0  0  0  0  # atno 17371 bound_to 10713
  140.8079  133.8453  155.8783 LP  0  0  0  0  0  0  0  0  0  0  0  0  # atno 17394 bound_to 11000
  140.9533  134.1750  157.4711 LP  0  0  0  0  0  0  0  0  0  0  0  0  # atno 17395 bound_to 11000

$$$$
