AV-unprocessed.smi:3198|AV-procd|sdf|12229|dock3
  -GOLD-   2272018 63D 1   1.00000     0.00000
 Structure written by MMmdl.
 37 38  0  0  0  0  0  0  0  0  1 V2000
  151.4650  145.2608  159.9743 C   0  0  0  0  0  0  0  0  0  0  0  0
  151.8986  143.8117  160.0456 C   0  0  0  0  0  0  0  0  0  0  0  0
  152.8136  143.3755  161.0256 C   0  0  0  0  0  0  0  0  0  0  0  0
  153.1777  142.0160  161.0397 C   0  0  0  0  0  0  0  0  0  0  0  0
  152.6186  141.1521  160.0780 C   0  0  0  0  0  0  0  0  0  0  0  0
  151.7135  141.6802  159.1331 C   0  0  0  0  0  0  0  0  0  0  0  0
  151.1611  140.8148  158.1774 N   0  0  0  0  0  0  0  0  0  0  0  0
  152.0007  139.9945  157.3120 C   0  0  0  0  0  0  0  0  0  0  0  0
  151.1828  139.1913  156.2906 C   0  0  0  0  0  0  0  0  0  0  0  0
  150.8646  140.0276  155.1905 O   0  0  0  0  0  0  0  0  0  0  0  0
  149.8355  140.9561  155.4878 C   0  0  0  0  0  0  0  0  0  0  0  0
  148.7807  140.9023  154.3760 C   0  0  2  0  0  0  0  0  0  0  0  0
  147.5995  141.8440  154.6011 C   0  0  0  0  0  0  0  0  0  0  0  0
  146.4746  141.1973  153.8080 C   0  0  0  0  0  0  0  0  0  0  0  0
  146.9653  139.7669  153.5643 C   0  0  0  0  0  0  0  0  0  0  0  0
  148.1419  139.6359  154.3503 O   0  0  0  0  0  0  0  0  0  0  0  0
  151.3590  142.9876  159.1213 N   0  0  0  0  0  0  0  0  0  0  0  0
  151.8596  145.8339  160.8138 H   0  0  0  0  0  0  0  0  0  0  0  0
  150.3772  145.3336  159.9955 H   0  0  0  0  0  0  0  0  0  0  0  0
  151.8226  145.7171  159.0509 H   0  0  0  0  0  0  0  0  0  0  0  0
  153.2269  144.0623  161.7495 H   0  0  0  0  0  0  0  0  0  0  0  0
  153.8744  141.6416  161.7753 H   0  0  0  0  0  0  0  0  0  0  0  0
  152.8837  140.1049  160.0686 H   0  0  0  0  0  0  0  0  0  0  0  0
  150.1712  140.6181  158.2062 H   0  0  0  0  0  0  0  0  0  0  0  0
  152.7037  140.6450  156.7914 H   0  0  0  0  0  0  0  0  0  0  0  0
  152.6053  139.3211  157.9207 H   0  0  0  0  0  0  0  0  0  0  0  0
  151.7764  138.3460  155.9396 H   0  0  0  0  0  0  0  0  0  0  0  0
  150.2777  138.7849  156.7446 H   0  0  0  0  0  0  0  0  0  0  0  0
  149.3832  140.7411  156.4574 H   0  0  0  0  0  0  0  0  0  0  0  0
  150.2633  141.9586  155.5383 H   0  0  0  0  0  0  0  0  0  0  0  0
  149.2350  141.1039  153.4039 H   0  0  0  0  0  0  0  0  0  0  0  0
  147.3326  141.8666  155.6587 H   0  0  0  0  0  0  0  0  0  0  0  0
  147.8091  142.8664  154.2857 H   0  0  0  0  0  0  0  0  0  0  0  0
  145.5390  141.2169  154.3680 H   0  0  0  0  0  0  0  0  0  0  0  0
  146.3099  141.7110  152.8601 H   0  0  0  0  0  0  0  0  0  0  0  0
  146.2247  139.0165  153.8416 H   0  0  0  0  0  0  0  0  0  0  0  0
  147.2186  139.6234  152.5128 H   0  0  0  0  0  0  0  0  0  0  0  0
  1  2  1  0  0  0  0
  1 18  1  0  0  0  0
  1 19  1  0  0  0  0
  1 20  1  0  0  0  0
  2 17  1  0  0  0  0
  2  3  2  0  0  0  0
  3  4  1  0  0  0  0
  3 21  1  0  0  0  0
  4  5  2  0  0  0  0
  4 22  1  0  0  0  0
  5  6  1  0  0  0  0
  5 23  1  0  0  0  0
  6  7  1  0  0  0  0
  6 17  2  0  0  0  0
  7  8  1  0  0  0  0
  7 24  1  0  0  0  0
  8  9  1  0  0  0  0
  8 25  1  0  0  0  0
  8 26  1  0  0  0  0
  9 10  1  0  0  0  0
  9 27  1  0  0  0  0
  9 28  1  0  0  0  0
 10 11  1  0  0  0  0
 11 12  1  0  0  0  0
 11 29  1  0  0  0  0
 11 30  1  0  0  0  0
 12 16  1  0  0  0  0
 12 13  1  0  0  0  0
 12 31  1  0  0  0  0
 13 14  1  0  0  0  0
 13 32  1  0  0  0  0
 13 33  1  0  0  0  0
 14 15  1  0  0  0  0
 14 34  1  0  0  0  0
 14 35  1  0  0  0  0
 15 16  1  0  0  0  0
 15 36  1  0  0  0  0
 15 37  1  0  0  0  0
M  END
> <s_m_source_file>
AV-unprocessed.smi

> <i_m_source_file_index>
3198

> <i_lp_mmshare_version>
43012

> <i_f3d_flags>
0

> <s_epik_input>
W0NIM11jMVtjSF1bY0hdW2NIXWMobjEpW05IXVtDSDJdW0NIMl1PW0NIMl1bQ0BASF0yW0NIMl1bQ0gyXVtDSDJdTzI=

> <s_epik_cmdline>
J2VwaWtfcHl0aG9uJywgJy1waCcsICc3LjAnLCAnLXRuJywgJzgnLCAnLW1hJywgJzIwMCcsICctbWV0YWxfYmluZGluZycsICctaW1hZScsICc8aW5maWxlLm1hZT4nLCAnLW9tYWUnLCAnPG91dGZpbGUubWFlPic=

> <r_lp_tautomer_probability>
1

> <r_epik_Ionization_Penalty>
1.29225

> <r_epik_Ionization_Penalty_Charging>
0

> <r_epik_Ionization_Penalty_Neutral>
1.29225

> <r_epik_State_Penalty>
1.3654

> <r_epik_Charging_Adjusted_Penalty>
1.3654

> <i_epik_Tot_Q>
0

> <i_epik_Tot_abs_Q>
0

> <r_epik_Metal_State_Penalty>
0.00531989

> <b_epik_Metal_Only>
0

> <s_lp_Force_Field>
OPLS_2005

> <r_lp_Energy>
18.1736

> <b_lp_Chiralities_Consistent>
1

> <s_lp_Variant>
AV-unprocessed.smi:3198-3

> <Gold.Version>
5.8.1

> <Gold.Id.Protein>
6NUR|6NUR_protein|mol2

> <Gold.PLP.Fitness>
39.6203

> <Gold.PLP.PLP>
-38.5596

> <Gold.PLP.part.hbond>
-1.0000

> <Gold.PLP.part.metal>
0.0000

> <Gold.PLP.part.buried>
-2.3476

> <Gold.PLP.part.nonpolar>
-34.3838

> <Gold.PLP.part.repulsive>
0.3128

> <Gold.PLP.ligand.clash>
0.0000

> <Gold.PLP.ligand.torsion>
1.0203

> <Gold.PLP.Chemscore.Hbond>
1.0000

> <Gold.PLP.Chemscore.CHOScore>
0.0000

> <Gold.PLP.Chemscore.Metal>
0.0000

> <Gold.Chemscore.Hbonds>
donor molecule, donor type, donor heavy atom, donor atom, acceptor molecule, acceptor atom, score
      P1  H  7989  7998       L1    10  0.98

> <Gold.PLP.Chemscore.Internal.Correction>
0.1013

> <Gold.Rescore>
     Score         DG    S(hbond)    S(metal)    S(lipo)     H(rot)  DE(clash)    DE(int)     intcor
     13.97     -16.05       0.89        0.00     100.74       1.63       0.34       1.75       ----

> <Gold.Chemscore.Fitness>
13.9677

> <Gold.Chemscore.DG>
-16.0543

> <Gold.Chemscore.ZeroCoef>
-5.4800

> <Gold.Chemscore.Hbond>
0.8872

> <Gold.Chemscore.Metal>
0.0000

> <Gold.Chemscore.Lipo>
100.7423

> <Gold.Chemscore.Internal_Hbond>
0.0000

> <Gold.Chemscore.DEClash>
0.3379

> <Gold.Chemscore.DEInternal>
1.7487

> <Gold.Chemscore.Rot>
1.6311

> <Gold.Chemscore.Internal.Correction>
   9.000000E+99

> <Gold.Chemscore.Hbonds>
donor molecule, donor type, donor heavy atom, donor atom, acceptor molecule, acceptor atom, score
      P1  H  7989  7998       L1    10  0.24

> <Gold.Chemscore.Hbond.Weighted>
-2.9631

> <Gold.Chemscore.Metal.Weighted>
-0.0000

> <Gold.Chemscore.Lipo.Weighted>
-11.7869

> <Gold.Chemscore.Internal_Hbond.Weighted>
0.0000

> <Gold.Chemscore.DEClash.Weighted>
0.3379

> <Gold.Chemscore.DEInternal.Weighted>
1.7487

> <Gold.Chemscore.Rot.Weighted>
4.1757

> <Gold.Chemscore.Internal.Correction.Weighted>
   9.000000E+99

> <Gold.Protein.RotatedTorsions>
[ 6907 6896 6895 6894 ] final   21.52 input  -60.11 | X-H torsion
[ 7974 7965 7964 7962 ] final  124.14 input  175.53 | X-H torsion
[ 8008 7997 7996 7995 ] final   -3.74 input   59.86 | X-H torsion
[ 10167 10162 10161 10158 ] final -123.64 input  -65.29 | X-H torsion
[ 10718 10713 10712 10709 ] final   84.21 input   66.30 | X-H torsion
[ 10763 10752 10751 10750 ] final   18.60 input  -60.55 | X-H torsion
[ 11005 11000 10999 10996 ] final   16.45 input  -57.11 | X-H torsion

> <Gold.Protein.ActiveResidues>
 VAL166  LYS551  ARG553  GLY616  TRP617  ASP618  TYR619  PRO620  LYS621  CYS622 
 ASP623  PHE694  ASN695  SER759  ASP760  ASP761  ALA762  ILE779  LEU786  VAL792 
 PHE793  MET794  SER795  GLU796  ALA797  LYS798  CYS799  TRP800  GLU811  SER814 

> <Gold.Protein.RotatedAtoms>
  151.9131  135.0330  160.0515 H   0  0  0  0  0  0  0  0  0  0  0  0  # atno 6907 bound_to 6896
  152.2263  133.5018  159.5199 H   0  0  0  0  0  0  0  0  0  0  0  0  # atno 6908 bound_to 6896
  150.7013  134.1192  159.4071 H   0  0  0  0  0  0  0  0  0  0  0  0  # atno 6909 bound_to 6896
  145.0878  139.3609  143.4876 H   0  0  0  0  0  0  0  0  0  0  0  0  # atno 7974 bound_to 7965
  154.6216  140.2501  155.7542 H   0  0  0  0  0  0  0  0  0  0  0  0  # atno 8008 bound_to 7997
  156.2430  140.2925  156.0446 H   0  0  0  0  0  0  0  0  0  0  0  0  # atno 8009 bound_to 7997
  155.1887  140.0391  157.2886 H   0  0  0  0  0  0  0  0  0  0  0  0  # atno 8010 bound_to 7997
  140.0013  143.5537  152.2302 H   0  0  0  0  0  0  0  0  0  0  0  0  # atno 10167 bound_to 10162
  157.6894  131.0123  150.2638 H   0  0  0  0  0  0  0  0  0  0  0  0  # atno 10718 bound_to 10713
  153.1235  135.6724  153.9296 H   0  0  0  0  0  0  0  0  0  0  0  0  # atno 10763 bound_to 10752
  153.8804  135.3059  155.3446 H   0  0  0  0  0  0  0  0  0  0  0  0  # atno 10764 bound_to 10752
  154.7643  135.4972  153.9604 H   0  0  0  0  0  0  0  0  0  0  0  0  # atno 10765 bound_to 10752
  140.4470  134.1263  155.7697 H   0  0  0  0  0  0  0  0  0  0  0  0  # atno 11005 bound_to 11000
  146.3531  140.0699  142.8624 LP  0  0  0  0  0  0  0  0  0  0  0  0  # atno 17320 bound_to 7965
  145.1101  140.9400  143.4661 LP  0  0  0  0  0  0  0  0  0  0  0  0  # atno 17321 bound_to 7965
  139.6270  144.7638  151.2618 LP  0  0  0  0  0  0  0  0  0  0  0  0  # atno 17342 bound_to 10162
  140.7417  143.6547  150.8217 LP  0  0  0  0  0  0  0  0  0  0  0  0  # atno 17343 bound_to 10162
  156.3213  130.3786  149.7573 LP  0  0  0  0  0  0  0  0  0  0  0  0  # atno 17370 bound_to 10713
  156.5142  130.8186  151.3180 LP  0  0  0  0  0  0  0  0  0  0  0  0  # atno 17371 bound_to 10713
  141.1681  133.8663  157.1654 LP  0  0  0  0  0  0  0  0  0  0  0  0  # atno 17394 bound_to 11000
  140.0032  135.0019  157.0235 LP  0  0  0  0  0  0  0  0  0  0  0  0  # atno 17395 bound_to 11000

$$$$
