AV-unprocessed.smi:1898|AV-procd|sdf|7703|dock6
  -GOLD-   22720 9443D 1   1.00000     0.00000
 Structure written by MMmdl.
 46 47  0  0  0  0  0  0  0  0  3 V2000
  152.9239  143.2733  159.4464 C   0  0  0  0  0  0  0  0  0  0  0  0
  153.2548  141.8838  159.7396 N   0  5  0  0  0  0  0  0  0  0  0  0
  152.8804  140.8415  158.9505 C   0  0  0  0  0  0  0  0  0  0  0  0
  153.4836  139.8092  158.6386 O   0  0  0  0  0  0  0  0  0  0  0  0
  151.4571  141.0355  158.4154 C   0  0  0  0  0  0  0  0  0  0  0  0
  151.0812  139.8908  157.5494 N   0  3  2  0  0  0  0  0  0  0  0  0
  151.8072  139.8975  156.2545 C   0  0  0  0  0  0  0  0  0  0  0  0
  151.5159  138.6202  155.4492 C   0  0  0  0  0  0  0  0  0  0  0  0
  150.0071  138.4377  155.2187 C   0  0  1  0  0  0  0  0  0  0  0  0
  149.7603  137.1682  154.5411 N   0  0  0  0  0  0  0  0  0  0  0  0
  149.7589  135.9642  155.1305 C   0  0  0  0  0  0  0  0  0  0  0  0
  149.9468  135.8011  156.3354 O   0  0  0  0  0  0  0  0  0  0  0  0
  149.5194  134.9904  154.2356 N   0  0  0  0  0  0  0  0  0  0  0  0
  149.4504  133.5813  154.4278 C   0  0  0  0  0  0  0  0  0  0  0  0
  150.2587  132.8610  155.3416 C   0  0  0  0  0  0  0  0  0  0  0  0
  150.1104  131.4646  155.4322 C   0  0  0  0  0  0  0  0  0  0  0  0
  149.1642  130.8353  154.6033 C   0  0  0  0  0  0  0  0  0  0  0  0
  148.3949  131.5050  153.7214 N   0  0  0  0  0  0  0  0  0  0  0  0
  148.5363  132.8513  153.6315 C   0  0  0  0  0  0  0  0  0  0  0  0
  147.7513  133.5340  152.7216 O   0  0  0  0  0  0  0  0  0  0  0  0
  146.7746  132.8061  151.9849 C   0  0  0  0  0  0  0  0  0  0  0  0
  149.2688  138.4843  156.5690 C   0  0  0  0  0  0  0  0  0  0  0  0
  149.6125  139.7630  157.3501 C   0  0  0  0  0  0  0  0  0  0  0  0
  153.2878  143.9488  160.2200 H   0  0  0  0  0  0  0  0  0  0  0  0
  151.8489  143.4392  159.3718 H   0  0  0  0  0  0  0  0  0  0  0  0
  153.3620  143.6145  158.5080 H   0  0  0  0  0  0  0  0  0  0  0  0
  150.7185  141.1777  159.2077 H   0  0  0  0  0  0  0  0  0  0  0  0
  151.4635  141.9583  157.8334 H   0  0  0  0  0  0  0  0  0  0  0  0
  151.5219  140.7809  155.6811 H   0  0  0  0  0  0  0  0  0  0  0  0
  152.8808  139.9677  156.4338 H   0  0  0  0  0  0  0  0  0  0  0  0
  152.0384  138.6615  154.4927 H   0  0  0  0  0  0  0  0  0  0  0  0
  151.9174  137.7580  155.9843 H   0  0  0  0  0  0  0  0  0  0  0  0
  149.6552  139.2582  154.5899 H   0  0  0  0  0  0  0  0  0  0  0  0
  149.5899  137.2084  153.5467 H   0  0  0  0  0  0  0  0  0  0  0  0
  149.3280  135.2973  153.2930 H   0  0  0  0  0  0  0  0  0  0  0  0
  150.9959  133.3394  155.9660 H   0  0  0  0  0  0  0  0  0  0  0  0
  150.7122  130.8890  156.1198 H   0  0  0  0  0  0  0  0  0  0  0  0
  149.0245  129.7652  154.6459 H   0  0  0  0  0  0  0  0  0  0  0  0
  146.2489  133.4857  151.3146 H   0  0  0  0  0  0  0  0  0  0  0  0
  146.0328  132.3523  152.6437 H   0  0  0  0  0  0  0  0  0  0  0  0
  147.2342  132.0286  151.3728 H   0  0  0  0  0  0  0  0  0  0  0  0
  148.1908  138.4313  156.4116 H   0  0  0  0  0  0  0  0  0  0  0  0
  149.5365  137.6132  157.1690 H   0  0  0  0  0  0  0  0  0  0  0  0
  149.1003  139.7366  158.3121 H   0  0  0  0  0  0  0  0  0  0  0  0
  149.2384  140.6397  156.8192 H   0  0  0  0  0  0  0  0  0  0  0  0
  151.3851  139.0638  158.0433 H   0  0  0  0  0  0  0  0  0  0  0  0
  1  2  1  0  0  0  0
  1 24  1  0  0  0  0
  1 25  1  0  0  0  0
  1 26  1  0  0  0  0
  2  3  1  0  0  0  0
  3  4  2  0  0  0  0
  3  5  1  0  0  0  0
  5  6  1  0  0  0  0
  5 27  1  0  0  0  0
  5 28  1  0  0  0  0
  6 23  1  0  0  0  0
  6  7  1  0  0  0  0
  6 46  1  0  0  0  0
  7  8  1  0  0  0  0
  7 29  1  0  0  0  0
  7 30  1  0  0  0  0
  8  9  1  0  0  0  0
  8 31  1  0  0  0  0
  8 32  1  0  0  0  0
  9 10  1  0  0  0  0
  9 22  1  0  0  0  0
  9 33  1  0  0  0  0
 10 11  1  0  0  0  0
 10 34  1  0  0  0  0
 11 12  2  0  0  0  0
 11 13  1  0  0  0  0
 13 14  1  0  0  0  0
 13 35  1  0  0  0  0
 14 19  1  0  0  0  0
 14 15  2  0  0  0  0
 15 16  1  0  0  0  0
 15 36  1  0  0  0  0
 16 17  2  0  0  0  0
 16 37  1  0  0  0  0
 17 18  1  0  0  0  0
 17 38  1  0  0  0  0
 18 19  2  0  0  0  0
 19 20  1  0  0  0  0
 20 21  1  0  0  0  0
 21 39  1  0  0  0  0
 21 40  1  0  0  0  0
 21 41  1  0  0  0  0
 22 23  1  0  0  0  0
 22 42  1  0  0  0  0
 22 43  1  0  0  0  0
 23 44  1  0  0  0  0
 23 45  1  0  0  0  0
M  CHG  1   2  -1
M  CHG  1   6   1
M  END
> <s_m_source_file>
AV-unprocessed.smi

> <i_m_source_file_index>
1898

> <i_lp_mmshare_version>
43012

> <i_f3d_flags>
0

> <s_epik_input>
W0NIM11bTkhdQyg9TylbQ0gyXU4xW0NIMl1bQ0gyXVtDSF0oW0NIMl1bQ0gyXTEpW05IXUMoPU8pW05IXWMyW2NIXVtjSF1bY0hdbmMyT1tDSDNd

> <s_epik_cmdline>
J2VwaWtfcHl0aG9uJywgJy1waCcsICc3LjAnLCAnLXRuJywgJzgnLCAnLW1hJywgJzIwMCcsICctbWV0YWxfYmluZGluZycsICctaW1hZScsICc8aW5maWxlLm1hZT4nLCAnLW9tYWUnLCAnPG91dGZpbGUubWFlPic=

> <r_lp_tautomer_probability>
1

> <r_epik_Ionization_Penalty>
6.13954

> <r_epik_Ionization_Penalty_Charging>
6.13946

> <r_epik_Ionization_Penalty_Neutral>
7.84403e-05

> <r_epik_State_Penalty>
6.9595

> <r_epik_Charging_Adjusted_Penalty>
13.099

> <i_epik_Tot_Q>
0

> <i_epik_Tot_abs_Q>
2

> <r_epik_Metal_State_Penalty>
2.89145

> <b_epik_Metal_Only>
1

> <s_lp_Force_Field>
OPLS_2005

> <r_lp_Energy>
12.3689

> <b_lp_Chiralities_Consistent>
1

> <s_lp_Variant>
AV-unprocessed.smi:1898-4

> <Gold.Version>
5.8.1

> <Gold.Id.Protein>
6NUR|6NUR_protein|mol2

> <Gold.PLP.Fitness>
40.9549

> <Gold.PLP.PLP>
-34.3760

> <Gold.PLP.part.hbond>
-3.0789

> <Gold.PLP.part.metal>
0.0000

> <Gold.PLP.part.buried>
-5.8644

> <Gold.PLP.part.nonpolar>
-26.8531

> <Gold.PLP.part.repulsive>
0.7876

> <Gold.PLP.ligand.clash>
0.0000

> <Gold.PLP.ligand.torsion>
0.9101

> <Gold.PLP.Chemscore.Hbond>
2.7760

> <Gold.PLP.Chemscore.CHOScore>
0.0000

> <Gold.PLP.Chemscore.Metal>
0.0000

> <Gold.Chemscore.Hbonds>
donor molecule, donor type, donor heavy atom, donor atom, acceptor molecule, acceptor atom, score
      L1  H    10    34       P1  7948  0.96
      L1  H    13    35       P1  7948  0.80
      P1  H  7997  8009       L1     4  1.00

> <Gold.PLP.Chemscore.Internal.Correction>
0.0711

> <Gold.Rescore>
     Score         DG    S(hbond)    S(metal)    S(lipo)     H(rot)  DE(clash)    DE(int)     intcor
     12.68     -16.37       2.50        0.00      63.88       1.93       0.04       3.65       ----

> <Gold.Chemscore.Fitness>
12.6803

> <Gold.Chemscore.DG>
-16.3708

> <Gold.Chemscore.ZeroCoef>
-5.4800

> <Gold.Chemscore.Hbond>
2.5010

> <Gold.Chemscore.Metal>
0.0000

> <Gold.Chemscore.Lipo>
63.8812

> <Gold.Chemscore.Internal_Hbond>
0.0000

> <Gold.Chemscore.DEClash>
0.0402

> <Gold.Chemscore.DEInternal>
3.6503

> <Gold.Chemscore.Rot>
1.9283

> <Gold.Chemscore.Internal.Correction>
   9.000000E+99

> <Gold.Chemscore.Hbonds>
donor molecule, donor type, donor heavy atom, donor atom, acceptor molecule, acceptor atom, score
      L1  H    10    34       P1  7948  0.74
      L1  H    13    35       P1  7948  0.12
      P1  H  7997  8009       L1     4  0.84

> <Gold.Chemscore.Hbond.Weighted>
-8.3533

> <Gold.Chemscore.Metal.Weighted>
-0.0000

> <Gold.Chemscore.Lipo.Weighted>
-7.4741

> <Gold.Chemscore.Internal_Hbond.Weighted>
0.0000

> <Gold.Chemscore.DEClash.Weighted>
0.0402

> <Gold.Chemscore.DEInternal.Weighted>
3.6503

> <Gold.Chemscore.Rot.Weighted>
4.9365

> <Gold.Chemscore.Internal.Correction.Weighted>
   9.000000E+99

> <Gold.Protein.RotatedTorsions>
[ 6907 6896 6895 6894 ] final -118.72 input  -60.11 | X-H torsion
[ 7974 7965 7964 7962 ] final -136.03 input  175.53 | X-H torsion
[ 8008 7997 7996 7995 ] final  149.19 input   59.86 | X-H torsion
[ 10167 10162 10161 10158 ] final   98.86 input  -65.29 | X-H torsion
[ 10718 10713 10712 10709 ] final   51.77 input   66.30 | X-H torsion
[ 10763 10752 10751 10750 ] final  -16.22 input  -60.55 | X-H torsion
[ 11005 11000 10999 10996 ] final   15.02 input  -57.11 | X-H torsion

> <Gold.Protein.ActiveResidues>
 VAL166  LYS551  ARG553  GLY616  TRP617  ASP618  TYR619  PRO620  LYS621  CYS622 
 ASP623  PHE694  ASN695  SER759  ASP760  ASP761  ALA762  ILE779  LEU786  VAL792 
 PHE793  MET794  SER795  GLU796  ALA797  LYS798  CYS799  TRP800  GLU811  SER814 

> <Gold.Protein.RotatedAtoms>
  150.8244  133.8198  159.3124 H   0  0  0  0  0  0  0  0  0  0  0  0  # atno 6907 bound_to 6896
  151.5946  135.1049  160.0056 H   0  0  0  0  0  0  0  0  0  0  0  0  # atno 6908 bound_to 6896
  152.4330  133.7270  159.6622 H   0  0  0  0  0  0  0  0  0  0  0  0  # atno 6909 bound_to 6896
  144.8962  140.6710  143.5114 H   0  0  0  0  0  0  0  0  0  0  0  0  # atno 7974 bound_to 7965
  156.2764  140.2108  156.5818 H   0  0  0  0  0  0  0  0  0  0  0  0  # atno 8008 bound_to 7997
  154.7053  140.0517  157.0520 H   0  0  0  0  0  0  0  0  0  0  0  0  # atno 8009 bound_to 7997
  155.0680  140.3173  155.4642 H   0  0  0  0  0  0  0  0  0  0  0  0  # atno 8010 bound_to 7997
  139.7670  144.6935  151.0210 H   0  0  0  0  0  0  0  0  0  0  0  0  # atno 10167 bound_to 10162
  157.5012  130.8439  149.8319 H   0  0  0  0  0  0  0  0  0  0  0  0  # atno 10718 bound_to 10713
  153.5552  135.7011  153.5572 H   0  0  0  0  0  0  0  0  0  0  0  0  # atno 10763 bound_to 10752
  153.3479  135.4003  155.1623 H   0  0  0  0  0  0  0  0  0  0  0  0  # atno 10764 bound_to 10752
  154.8655  135.3758  154.5066 H   0  0  0  0  0  0  0  0  0  0  0  0  # atno 10765 bound_to 10752
  140.4629  134.1108  155.7719 H   0  0  0  0  0  0  0  0  0  0  0  0  # atno 11005 bound_to 11000
  145.3696  139.1662  143.4339 LP  0  0  0  0  0  0  0  0  0  0  0  0  # atno 17320 bound_to 7965
  146.3082  140.3766  142.8679 LP  0  0  0  0  0  0  0  0  0  0  0  0  # atno 17321 bound_to 7965
  140.7811  143.4632  151.0249 LP  0  0  0  0  0  0  0  0  0  0  0  0  # atno 17342 bound_to 10162
  139.8316  143.7683  152.3180 LP  0  0  0  0  0  0  0  0  0  0  0  0  # atno 17343 bound_to 10162
  156.0230  130.3789  150.1904 LP  0  0  0  0  0  0  0  0  0  0  0  0  # atno 17370 bound_to 10713
  157.0094  130.9946  151.3370 LP  0  0  0  0  0  0  0  0  0  0  0  0  # atno 17371 bound_to 10713
  141.1613  133.8788  157.1841 LP  0  0  0  0  0  0  0  0  0  0  0  0  # atno 17394 bound_to 11000
  139.9933  135.0056  157.0026 LP  0  0  0  0  0  0  0  0  0  0  0  0  # atno 17395 bound_to 11000

$$$$
