AV-unprocessed.smi:1944|AV-procd|sdf|7854|dock4
  -GOLD-   2272010 03D 1   1.00000     0.00000
 Structure written by MMmdl.
 46 47  0  0  0  0  0  0  0  0  2 V2000
  152.5846  137.8495  154.4978 C   0  0  0  0  0  0  0  0  0  0  0  0
  151.1925  138.0855  154.3162 O   0  0  0  0  0  0  0  0  0  0  0  0
  150.6602  139.2755  154.7749 C   0  0  0  0  0  0  0  0  0  0  0  0
  151.4322  140.0668  155.5613 N   0  0  0  0  0  0  0  0  0  0  0  0
  150.9156  141.2302  156.0075 C   0  0  0  0  0  0  0  0  0  0  0  0
  149.6165  141.6678  155.6914 C   0  0  0  0  0  0  0  0  0  0  0  0
  148.8136  140.8488  154.8763 C   0  0  0  0  0  0  0  0  0  0  0  0
  149.3359  139.6169  154.4131 C   0  0  0  0  0  0  0  0  0  0  0  0
  148.6152  138.7289  153.5680 N   0  0  0  0  0  0  0  0  0  0  0  0
  147.3267  138.7992  153.1931 C   0  0  0  0  0  0  0  0  0  0  0  0
  146.5220  139.6530  153.5660 O   0  0  0  0  0  0  0  0  0  0  0  0
  147.0035  137.7961  152.3645 N   0  0  0  0  0  0  0  0  0  0  0  0
  145.6845  137.5991  151.7744 C   0  0  0  0  0  0  0  0  0  0  0  0
  145.6307  136.3090  150.9323 C   0  0  0  0  0  0  0  0  0  0  0  0
  146.1935  135.1237  151.6344 N   0  3  1  0  0  0  0  0  0  0  0  0
  145.7272  135.0370  153.0448 C   0  0  0  0  0  0  0  0  0  0  0  0
  146.4816  133.9450  153.8195 C   0  0  0  0  0  0  0  0  0  0  0  0
  146.3560  132.5872  153.1206 C   0  0  0  0  0  0  0  0  0  0  0  0
  146.8253  132.7070  151.6644 C   0  0  0  0  0  0  0  0  0  0  0  0
  146.0797  133.8225  150.9008 C   0  0  1  0  0  0  0  0  0  0  0  0
  144.6267  133.4251  150.5614 C   0  0  0  0  0  0  0  0  0  0  0  0
  152.8398  136.8711  154.0914 H   0  0  0  0  0  0  0  0  0  0  0  0
  152.8551  137.8484  155.5547 H   0  0  0  0  0  0  0  0  0  0  0  0
  153.1878  138.5924  153.9741 H   0  0  0  0  0  0  0  0  0  0  0  0
  151.5599  141.8339  156.6294 H   0  0  0  0  0  0  0  0  0  0  0  0
  149.2461  142.6125  156.0613 H   0  0  0  0  0  0  0  0  0  0  0  0
  147.8239  141.1865  154.6104 H   0  0  0  0  0  0  0  0  0  0  0  0
  149.1281  137.9150  153.2615 H   0  0  0  0  0  0  0  0  0  0  0  0
  147.7225  137.1329  152.1139 H   0  0  0  0  0  0  0  0  0  0  0  0
  144.9439  137.5891  152.5744 H   0  0  0  0  0  0  0  0  0  0  0  0
  145.4579  138.4629  151.1488 H   0  0  0  0  0  0  0  0  0  0  0  0
  144.5837  136.1074  150.7011 H   0  0  0  0  0  0  0  0  0  0  0  0
  146.1232  136.4456  149.9695 H   0  0  0  0  0  0  0  0  0  0  0  0
  145.8894  135.9931  153.5438 H   0  0  0  0  0  0  0  0  0  0  0  0
  144.6527  134.8527  153.0739 H   0  0  0  0  0  0  0  0  0  0  0  0
  147.5347  134.2169  153.9032 H   0  0  0  0  0  0  0  0  0  0  0  0
  146.0976  133.8770  154.8378 H   0  0  0  0  0  0  0  0  0  0  0  0
  146.9493  131.8380  153.6458 H   0  0  0  0  0  0  0  0  0  0  0  0
  145.3218  132.2434  153.1566 H   0  0  0  0  0  0  0  0  0  0  0  0
  147.8952  132.9203  151.6544 H   0  0  0  0  0  0  0  0  0  0  0  0
  146.7052  131.7513  151.1529 H   0  0  0  0  0  0  0  0  0  0  0  0
  146.6059  133.9270  149.9531 H   0  0  0  0  0  0  0  0  0  0  0  0
  144.6017  132.4590  150.0570 H   0  0  0  0  0  0  0  0  0  0  0  0
  144.1577  134.1400  149.8856 H   0  0  0  0  0  0  0  0  0  0  0  0
  143.9994  133.3419  151.4484 H   0  0  0  0  0  0  0  0  0  0  0  0
  147.1851  135.3037  151.7016 H   0  0  0  0  0  0  0  0  0  0  0  0
  1  2  1  0  0  0  0
  1 22  1  0  0  0  0
  1 23  1  0  0  0  0
  1 24  1  0  0  0  0
  2  3  1  0  0  0  0
  3  8  1  0  0  0  0
  3  4  2  0  0  0  0
  4  5  1  0  0  0  0
  5  6  2  0  0  0  0
  5 25  1  0  0  0  0
  6  7  1  0  0  0  0
  6 26  1  0  0  0  0
  7  8  2  0  0  0  0
  7 27  1  0  0  0  0
  8  9  1  0  0  0  0
  9 10  1  0  0  0  0
  9 28  1  0  0  0  0
 10 11  2  0  0  0  0
 10 12  1  0  0  0  0
 12 13  1  0  0  0  0
 12 29  1  0  0  0  0
 13 14  1  0  0  0  0
 13 30  1  0  0  0  0
 13 31  1  0  0  0  0
 14 15  1  0  0  0  0
 14 32  1  0  0  0  0
 14 33  1  0  0  0  0
 15 20  1  0  0  0  0
 15 16  1  0  0  0  0
 15 46  1  0  0  0  0
 16 17  1  0  0  0  0
 16 34  1  0  0  0  0
 16 35  1  0  0  0  0
 17 18  1  0  0  0  0
 17 36  1  0  0  0  0
 17 37  1  0  0  0  0
 18 19  1  0  0  0  0
 18 38  1  0  0  0  0
 18 39  1  0  0  0  0
 19 20  1  0  0  0  0
 19 40  1  0  0  0  0
 19 41  1  0  0  0  0
 20 21  1  0  0  0  0
 20 42  1  0  0  0  0
 21 43  1  0  0  0  0
 21 44  1  0  0  0  0
 21 45  1  0  0  0  0
M  CHG  1  15   1
M  END
> <s_m_source_file>
AV-unprocessed.smi

> <i_m_source_file_index>
1944

> <i_lp_mmshare_version>
43012

> <i_f3d_flags>
0

> <s_epik_input>
W0NIM11PYzFuW2NIXVtjSF1bY0hdYzFbTkhdQyg9TylbTkhdW0NIMl1bQ0gyXU4yW0NIMl1bQ0gyXVtDSDJdW0NIMl1bQ0BIXTJbQ0gzXQ==

> <s_epik_cmdline>
J2VwaWtfcHl0aG9uJywgJy1waCcsICc3LjAnLCAnLXRuJywgJzgnLCAnLW1hJywgJzIwMCcsICctbWV0YWxfYmluZGluZycsICctaW1hZScsICc8aW5maWxlLm1hZT4nLCAnLW9tYWUnLCAnPG91dGZpbGUubWFlPic=

> <r_lp_tautomer_probability>
1

> <r_epik_Ionization_Penalty>
0.00219525

> <r_epik_Ionization_Penalty_Charging>
0.00211816

> <r_epik_Ionization_Penalty_Neutral>
7.7088e-05

> <r_epik_State_Penalty>
0.00145254

> <r_epik_Charging_Adjusted_Penalty>
0.0035707

> <i_epik_Tot_Q>
1

> <i_epik_Tot_abs_Q>
1

> <r_epik_Metal_State_Penalty>
-0

> <b_epik_Metal_Only>
0

> <s_lp_Force_Field>
OPLS_2005

> <r_lp_Energy>
22.8304

> <b_lp_Chiralities_Consistent>
1

> <s_lp_Variant>
AV-unprocessed.smi:1944-2

> <Gold.Version>
5.8.1

> <Gold.Id.Protein>
6NUR|6NUR_protein|mol2

> <Gold.PLP.Fitness>
44.5356

> <Gold.PLP.PLP>
-34.0993

> <Gold.PLP.part.hbond>
-4.9900

> <Gold.PLP.part.metal>
0.0000

> <Gold.PLP.part.buried>
2.4547

> <Gold.PLP.part.nonpolar>
-32.4027

> <Gold.PLP.part.repulsive>
0.5832

> <Gold.PLP.ligand.clash>
0.0000

> <Gold.PLP.ligand.torsion>
0.2111

> <Gold.PLP.Chemscore.Hbond>
3.5861

> <Gold.PLP.Chemscore.CHOScore>
0.0000

> <Gold.PLP.Chemscore.Metal>
0.0000

> <Gold.Chemscore.Hbonds>
donor molecule, donor type, donor heavy atom, donor atom, acceptor molecule, acceptor atom, score
      L1  H     9    28       P1  7948  0.53
      L1  H    12    29       P1  7948  0.99
      L1  H    15    46       P1  7948  2.00

> <Gold.PLP.Chemscore.Internal.Correction>
0.1002

> <Gold.Rescore>
     Score         DG    S(hbond)    S(metal)    S(lipo)     H(rot)  DE(clash)    DE(int)     intcor
     15.97     -19.36       2.62        0.00      81.38       1.71       1.82       1.57       ----

> <Gold.Chemscore.Fitness>
15.9749

> <Gold.Chemscore.DG>
-19.3604

> <Gold.Chemscore.ZeroCoef>
-5.4800

> <Gold.Chemscore.Hbond>
2.6165

> <Gold.Chemscore.Metal>
0.0000

> <Gold.Chemscore.Lipo>
81.3751

> <Gold.Chemscore.Internal_Hbond>
0.0000

> <Gold.Chemscore.DEClash>
1.8198

> <Gold.Chemscore.DEInternal>
1.5658

> <Gold.Chemscore.Rot>
1.7107

> <Gold.Chemscore.Internal.Correction>
   9.000000E+99

> <Gold.Chemscore.Hbonds>
donor molecule, donor type, donor heavy atom, donor atom, acceptor molecule, acceptor atom, score
      L1  H     9    28       P1  7948  0.52
      L1  H    12    29       P1  7948  0.92
      L1  H    15    46       P1  7948  0.96

> <Gold.Chemscore.Hbond.Weighted>
-8.7390

> <Gold.Chemscore.Metal.Weighted>
-0.0000

> <Gold.Chemscore.Lipo.Weighted>
-9.5209

> <Gold.Chemscore.Internal_Hbond.Weighted>
0.0000

> <Gold.Chemscore.DEClash.Weighted>
1.8198

> <Gold.Chemscore.DEInternal.Weighted>
1.5658

> <Gold.Chemscore.Rot.Weighted>
4.3794

> <Gold.Chemscore.Internal.Correction.Weighted>
   9.000000E+99

> <Gold.Protein.RotatedTorsions>
[ 6907 6896 6895 6894 ] final   63.62 input  -60.11 | X-H torsion
[ 7974 7965 7964 7962 ] final -110.80 input  175.53 | X-H torsion
[ 8008 7997 7996 7995 ] final   38.16 input   59.86 | X-H torsion
[ 10167 10162 10161 10158 ] final  -16.09 input  -65.29 | X-H torsion
[ 10718 10713 10712 10709 ] final   47.35 input   66.30 | X-H torsion
[ 10763 10752 10751 10750 ] final  -83.00 input  -60.55 | X-H torsion
[ 11005 11000 10999 10996 ] final   12.40 input  -57.11 | X-H torsion

> <Gold.Protein.ActiveResidues>
 VAL166  LYS551  ARG553  GLY616  TRP617  ASP618  TYR619  PRO620  LYS621  CYS622 
 ASP623  PHE694  ASN695  SER759  ASP760  ASP761  ALA762  ILE779  LEU786  VAL792 
 PHE793  MET794  SER795  GLU796  ALA797  LYS798  CYS799  TRP800  GLU811  SER814 

> <Gold.Protein.RotatedAtoms>
  152.4267  134.5854  159.9959 H   0  0  0  0  0  0  0  0  0  0  0  0  # atno 6907 bound_to 6896
  151.5989  133.3353  159.3051 H   0  0  0  0  0  0  0  0  0  0  0  0  # atno 6908 bound_to 6896
  150.8157  134.7375  159.6793 H   0  0  0  0  0  0  0  0  0  0  0  0  # atno 6909 bound_to 6896
  145.1639  140.8892  143.3575 H   0  0  0  0  0  0  0  0  0  0  0  0  # atno 7974 bound_to 7965
  155.2157  140.3327  155.4322 H   0  0  0  0  0  0  0  0  0  0  0  0  # atno 8008 bound_to 7997
  156.2353  140.1869  156.7184 H   0  0  0  0  0  0  0  0  0  0  0  0  # atno 8009 bound_to 7997
  154.6048  140.0617  156.9402 H   0  0  0  0  0  0  0  0  0  0  0  0  # atno 8010 bound_to 7997
  140.7228  143.5151  150.9702 H   0  0  0  0  0  0  0  0  0  0  0  0  # atno 10167 bound_to 10162
  157.4575  130.8176  149.7852 H   0  0  0  0  0  0  0  0  0  0  0  0  # atno 10718 bound_to 10713
  154.5825  135.5571  153.7199 H   0  0  0  0  0  0  0  0  0  0  0  0  # atno 10763 bound_to 10752
  153.0087  135.6323  154.1962 H   0  0  0  0  0  0  0  0  0  0  0  0  # atno 10764 bound_to 10752
  154.1903  135.2883  155.3004 H   0  0  0  0  0  0  0  0  0  0  0  0  # atno 10765 bound_to 10752
  140.4924  134.0827  155.7774 H   0  0  0  0  0  0  0  0  0  0  0  0  # atno 11005 bound_to 11000
  145.0303  139.3347  143.6028 LP  0  0  0  0  0  0  0  0  0  0  0  0  # atno 17320 bound_to 7965
  146.3478  139.9637  142.8714 LP  0  0  0  0  0  0  0  0  0  0  0  0  # atno 17321 bound_to 7965
  139.8866  143.7005  152.3150 LP  0  0  0  0  0  0  0  0  0  0  0  0  # atno 17342 bound_to 10162
  139.7306  144.7583  151.0808 LP  0  0  0  0  0  0  0  0  0  0  0  0  # atno 17343 bound_to 10162
  156.0014  130.3878  150.2592 LP  0  0  0  0  0  0  0  0  0  0  0  0  # atno 17370 bound_to 10713
  157.0768  131.0132  151.3171 LP  0  0  0  0  0  0  0  0  0  0  0  0  # atno 17371 bound_to 10713
  141.1477  133.9025  157.2175 LP  0  0  0  0  0  0  0  0  0  0  0  0  # atno 17394 bound_to 11000
  139.9761  135.0113  156.9634 LP  0  0  0  0  0  0  0  0  0  0  0  0  # atno 17395 bound_to 11000

$$$$
