AV-unprocessed.smi:1734|AV-procd|sdf|6985|dock3
  -GOLD-   22720 8203D 1   1.00000     0.00000
 Structure written by MMmdl.
 51 53  0  0  0  0  0  0  0  0  2 V2000
  147.1695  132.6553  152.4924 C   0  0  0  0  0  0  0  0  0  0  0  0
  145.9137  132.8374  151.6553 C   0  0  0  0  0  0  0  0  0  0  0  0
  145.1831  131.7000  151.2498 C   0  0  0  0  0  0  0  0  0  0  0  0
  144.0223  131.8706  150.4763 C   0  0  0  0  0  0  0  0  0  0  0  0
  143.6390  133.1799  150.1384 C   0  0  0  0  0  0  0  0  0  0  0  0
  144.3309  134.2723  150.5222 N   0  0  0  0  0  0  0  0  0  0  0  0
  145.4539  134.1250  151.2689 C   0  0  0  0  0  0  0  0  0  0  0  0
  146.2344  135.2320  151.7078 N   0  0  0  0  0  0  0  0  0  0  0  0
  145.8139  136.3946  152.2366 C   0  0  0  0  0  0  0  0  0  0  0  0
  144.6396  136.7091  152.4324 O   0  0  0  0  0  0  0  0  0  0  0  0
  146.8478  137.1896  152.5477 N   0  0  0  0  0  0  0  0  0  0  0  0
  146.7260  138.5072  153.1614 C   0  0  0  0  0  0  0  0  0  0  0  0
  148.0807  139.2595  153.3049 C   0  0  1  0  0  0  0  0  0  0  0  0
  147.9733  140.6135  154.0631 C   0  0  2  0  0  0  0  0  0  0  0  0
  147.5141  140.5314  155.5121 C   0  0  0  0  0  0  0  0  0  0  0  0
  146.9415  141.9212  155.7942 C   0  0  0  0  0  0  0  0  0  0  0  0
  146.7058  142.5212  154.5254 O   0  0  0  0  0  0  0  0  0  0  0  0
  146.9031  141.5556  153.5049 C   0  0  0  0  0  0  0  0  0  0  0  0
  149.1243  138.4021  153.9431 N   0  3  0  0  0  0  0  0  0  0  0  0
  150.3967  139.0783  154.3027 C   0  0  0  0  0  0  0  0  0  0  0  0
  151.4256  138.0383  154.7760 C   0  0  0  0  0  0  0  0  0  0  0  0
  150.8955  137.3139  155.8799 O   0  0  0  0  0  0  0  0  0  0  0  0
  149.7146  136.5990  155.5347 C   0  0  0  0  0  0  0  0  0  0  0  0
  148.6260  137.5842  155.0762 C   0  0  0  0  0  0  0  0  0  0  0  0
  147.3535  131.6026  152.7098 H   0  0  0  0  0  0  0  0  0  0  0  0
  147.0744  133.1815  153.4427 H   0  0  0  0  0  0  0  0  0  0  0  0
  148.0399  133.0458  151.9642 H   0  0  0  0  0  0  0  0  0  0  0  0
  145.5056  130.7070  151.5268 H   0  0  0  0  0  0  0  0  0  0  0  0
  143.4414  131.0205  150.1504 H   0  0  0  0  0  0  0  0  0  0  0  0
  142.7540  133.3561  149.5449 H   0  0  0  0  0  0  0  0  0  0  0  0
  147.2327  135.1172  151.6155 H   0  0  0  0  0  0  0  0  0  0  0  0
  147.7817  136.8595  152.3516 H   0  0  0  0  0  0  0  0  0  0  0  0
  146.0373  139.0851  152.5451 H   0  0  0  0  0  0  0  0  0  0  0  0
  146.2395  138.3876  154.1301 H   0  0  0  0  0  0  0  0  0  0  0  0
  148.4493  139.4923  152.3049 H   0  0  0  0  0  0  0  0  0  0  0  0
  148.9332  141.1309  154.0406 H   0  0  0  0  0  0  0  0  0  0  0  0
  146.7265  139.7840  155.6192 H   0  0  0  0  0  0  0  0  0  0  0  0
  148.3182  140.2766  156.2025 H   0  0  0  0  0  0  0  0  0  0  0  0
  146.0195  141.8629  156.3732 H   0  0  0  0  0  0  0  0  0  0  0  0
  147.6516  142.5357  156.3485 H   0  0  0  0  0  0  0  0  0  0  0  0
  147.2025  142.0327  152.5712 H   0  0  0  0  0  0  0  0  0  0  0  0
  145.9657  141.0242  153.3316 H   0  0  0  0  0  0  0  0  0  0  0  0
  150.7975  139.6217  153.4475 H   0  0  0  0  0  0  0  0  0  0  0  0
  150.2288  139.8049  155.0983 H   0  0  0  0  0  0  0  0  0  0  0  0
  151.6900  137.3542  153.9679 H   0  0  0  0  0  0  0  0  0  0  0  0
  152.3451  138.5340  155.0874 H   0  0  0  0  0  0  0  0  0  0  0  0
  149.9335  135.8695  154.7533 H   0  0  0  0  0  0  0  0  0  0  0  0
  149.3726  136.0398  156.4058 H   0  0  0  0  0  0  0  0  0  0  0  0
  148.3377  138.2265  155.9087 H   0  0  0  0  0  0  0  0  0  0  0  0
  147.7363  137.0293  154.7763 H   0  0  0  0  0  0  0  0  0  0  0  0
  149.3693  137.7281  153.2318 H   0  0  0  0  0  0  0  0  0  0  0  0
  1  2  1  0  0  0  0
  1 25  1  0  0  0  0
  1 26  1  0  0  0  0
  1 27  1  0  0  0  0
  2  7  1  0  0  0  0
  2  3  2  0  0  0  0
  3  4  1  0  0  0  0
  3 28  1  0  0  0  0
  4  5  2  0  0  0  0
  4 29  1  0  0  0  0
  5  6  1  0  0  0  0
  5 30  1  0  0  0  0
  6  7  2  0  0  0  0
  7  8  1  0  0  0  0
  8  9  1  0  0  0  0
  8 31  1  0  0  0  0
  9 10  2  0  0  0  0
  9 11  1  0  0  0  0
 11 12  1  0  0  0  0
 11 32  1  0  0  0  0
 12 13  1  0  0  0  0
 12 33  1  0  0  0  0
 12 34  1  0  0  0  0
 13 14  1  0  0  0  0
 13 19  1  0  0  0  0
 13 35  1  0  0  0  0
 14 18  1  0  0  0  0
 14 15  1  0  0  0  0
 14 36  1  0  0  0  0
 15 16  1  0  0  0  0
 15 37  1  0  0  0  0
 15 38  1  0  0  0  0
 16 17  1  0  0  0  0
 16 39  1  0  0  0  0
 16 40  1  0  0  0  0
 17 18  1  0  0  0  0
 18 41  1  0  0  0  0
 18 42  1  0  0  0  0
 19 24  1  0  0  0  0
 19 20  1  0  0  0  0
 19 51  1  0  0  0  0
 20 21  1  0  0  0  0
 20 43  1  0  0  0  0
 20 44  1  0  0  0  0
 21 22  1  0  0  0  0
 21 45  1  0  0  0  0
 21 46  1  0  0  0  0
 22 23  1  0  0  0  0
 23 24  1  0  0  0  0
 23 47  1  0  0  0  0
 23 48  1  0  0  0  0
 24 49  1  0  0  0  0
 24 50  1  0  0  0  0
M  CHG  1  19   1
M  END
> <s_m_source_file>
AV-unprocessed.smi

> <i_m_source_file_index>
1734

> <i_lp_mmshare_version>
43012

> <i_f3d_flags>
0

> <s_epik_input>
W0NIM11jMVtjSF1bY0hdW2NIXW5jMVtOSF1DKD1PKVtOSF1bQ0gyXVtDQEhdKFtDQEBIXTJbQ0gyXVtDSDJdT1tDSDJdMilOM1tDSDJdW0NIMl1PW0NIMl1bQ0gyXTM=

> <s_epik_cmdline>
J2VwaWtfcHl0aG9uJywgJy1waCcsICc3LjAnLCAnLXRuJywgJzgnLCAnLW1hJywgJzIwMCcsICctbWV0YWxfYmluZGluZycsICctaW1hZScsICc8aW5maWxlLm1hZT4nLCAnLW9tYWUnLCAnPG91dGZpbGUubWFlPic=

> <r_epik_Ionization_Penalty>
0.983302

> <r_epik_Ionization_Penalty_Charging>
0.98326

> <r_epik_Ionization_Penalty_Neutral>
4.21967e-05

> <r_epik_State_Penalty>
1.0303

> <r_epik_Charging_Adjusted_Penalty>
2.01356

> <i_epik_Tot_Q>
1

> <i_epik_Tot_abs_Q>
1

> <r_epik_Metal_State_Penalty>
1.03031

> <b_epik_Metal_Only>
0

> <s_lp_Force_Field>
OPLS_2005

> <r_lp_Energy>
39.7986

> <b_lp_Chiralities_Consistent>
1

> <s_lp_Variant>
AV-unprocessed.smi:1734-6

> <Gold.Version>
5.8.1

> <Gold.Id.Protein>
6NUR|6NUR_protein|mol2

> <Gold.PLP.Fitness>
47.4445

> <Gold.PLP.PLP>
-34.9591

> <Gold.PLP.part.hbond>
-3.2586

> <Gold.PLP.part.metal>
0.0000

> <Gold.PLP.part.buried>
-2.1617

> <Gold.PLP.part.nonpolar>
-29.9881

> <Gold.PLP.part.repulsive>
0.6886

> <Gold.PLP.ligand.clash>
0.0000

> <Gold.PLP.ligand.torsion>
0.7436

> <Gold.PLP.Chemscore.Hbond>
3.5310

> <Gold.PLP.Chemscore.CHOScore>
1.0000

> <Gold.PLP.Chemscore.Metal>
0.0000

> <Gold.Chemscore.Hbonds>
donor molecule, donor type, donor heavy atom, donor atom, acceptor molecule, acceptor atom, score
      L1  H     8    31       P1  7948  0.80
      L1  H    11    32       P1  7948  0.70
      L1  H    19    51       P1  7948  1.95
      L1  C     5    30       P1 10186  1.00

> <Gold.PLP.Chemscore.Internal.Correction>
0.3796

> <Gold.Rescore>
     Score         DG    S(hbond)    S(metal)    S(lipo)     H(rot)  DE(clash)    DE(int)     intcor
     18.12     -20.07       2.34        0.00      95.15       1.70       1.25       0.71       ----

> <Gold.Chemscore.Fitness>
18.1154

> <Gold.Chemscore.DG>
-20.0719

> <Gold.Chemscore.ZeroCoef>
-5.4800

> <Gold.Chemscore.Hbond>
2.3376

> <Gold.Chemscore.Metal>
0.0000

> <Gold.Chemscore.Lipo>
95.1529

> <Gold.Chemscore.Internal_Hbond>
0.0000

> <Gold.Chemscore.DEClash>
1.2453

> <Gold.Chemscore.DEInternal>
0.7112

> <Gold.Chemscore.Rot>
1.6986

> <Gold.Chemscore.Internal.Correction>
   9.000000E+99

> <Gold.Chemscore.Hbonds>
donor molecule, donor type, donor heavy atom, donor atom, acceptor molecule, acceptor atom, score
      L1  H     8    31       P1  7948  0.66
      L1  H    11    32       P1  7948  0.69
      L1  H    19    51       P1  7948  0.86

> <Gold.Chemscore.Hbond.Weighted>
-7.8075

> <Gold.Chemscore.Metal.Weighted>
-0.0000

> <Gold.Chemscore.Lipo.Weighted>
-11.1329

> <Gold.Chemscore.Internal_Hbond.Weighted>
0.0000

> <Gold.Chemscore.DEClash.Weighted>
1.2453

> <Gold.Chemscore.DEInternal.Weighted>
0.7112

> <Gold.Chemscore.Rot.Weighted>
4.3485

> <Gold.Chemscore.Internal.Correction.Weighted>
   9.000000E+99

> <Gold.Protein.RotatedTorsions>
[ 6907 6896 6895 6894 ] final   49.43 input  -60.11 | X-H torsion
[ 7974 7965 7964 7962 ] final   25.98 input  175.53 | X-H torsion
[ 8008 7997 7996 7995 ] final   14.19 input   59.86 | X-H torsion
[ 10167 10162 10161 10158 ] final  -90.97 input  -65.29 | X-H torsion
[ 10718 10713 10712 10709 ] final  -48.84 input   66.30 | X-H torsion
[ 10763 10752 10751 10750 ] final -150.41 input  -60.55 | X-H torsion
[ 11005 11000 10999 10996 ] final   89.44 input  -57.11 | X-H torsion

> <Gold.Protein.ActiveResidues>
 VAL166  LYS551  ARG553  GLY616  TRP617  ASP618  TYR619  PRO620  LYS621  CYS622 
 ASP623  PHE694  ASN695  SER759  ASP760  ASP761  ALA762  ILE779  LEU786  VAL792 
 PHE793  MET794  SER795  GLU796  ALA797  LYS798  CYS799  TRP800  GLU811  SER814 

> <Gold.Protein.RotatedAtoms>
  152.2907  134.7725  160.0378 H   0  0  0  0  0  0  0  0  0  0  0  0  # atno 6907 bound_to 6896
  151.8272  133.3398  159.3610 H   0  0  0  0  0  0  0  0  0  0  0  0  # atno 6908 bound_to 6896
  150.7229  134.5446  159.5809 H   0  0  0  0  0  0  0  0  0  0  0  0  # atno 6909 bound_to 6896
  146.1861  139.7391  142.8865 H   0  0  0  0  0  0  0  0  0  0  0  0  # atno 7974 bound_to 7965
  154.8450  140.2920  155.5635 H   0  0  0  0  0  0  0  0  0  0  0  0  # atno 8008 bound_to 7997
  156.3014  140.2507  156.3331 H   0  0  0  0  0  0  0  0  0  0  0  0  # atno 8009 bound_to 7997
  154.9083  140.0389  157.1921 H   0  0  0  0  0  0  0  0  0  0  0  0  # atno 8010 bound_to 7997
  140.3496  143.2898  151.9741 H   0  0  0  0  0  0  0  0  0  0  0  0  # atno 10167 bound_to 10162
  156.1950  130.4154  149.9319 H   0  0  0  0  0  0  0  0  0  0  0  0  # atno 10718 bound_to 10713
  154.8120  135.3285  154.7278 H   0  0  0  0  0  0  0  0  0  0  0  0  # atno 10763 bound_to 10752
  153.7926  135.6910  153.4873 H   0  0  0  0  0  0  0  0  0  0  0  0  # atno 10764 bound_to 10752
  153.1907  135.4552  155.0091 H   0  0  0  0  0  0  0  0  0  0  0  0  # atno 10765 bound_to 10752
  139.8875  134.8552  156.3143 H   0  0  0  0  0  0  0  0  0  0  0  0  # atno 11005 bound_to 11000
  145.3934  141.0375  143.3111 LP  0  0  0  0  0  0  0  0  0  0  0  0  # atno 17320 bound_to 7965
  144.8400  139.5488  143.6905 LP  0  0  0  0  0  0  0  0  0  0  0  0  # atno 17321 bound_to 7965
  139.4828  144.6087  151.7473 LP  0  0  0  0  0  0  0  0  0  0  0  0  # atno 17342 bound_to 10162
  140.5232  144.0847  150.6029 LP  0  0  0  0  0  0  0  0  0  0  0  0  # atno 17343 bound_to 10162
  156.7047  130.8947  151.3603 LP  0  0  0  0  0  0  0  0  0  0  0  0  # atno 17370 bound_to 10713
  157.6952  130.9274  150.0624 LP  0  0  0  0  0  0  0  0  0  0  0  0  # atno 17371 bound_to 10713
  140.9829  133.7256  156.0699 LP  0  0  0  0  0  0  0  0  0  0  0  0  # atno 17394 bound_to 11000
  140.7725  134.3816  157.5504 LP  0  0  0  0  0  0  0  0  0  0  0  0  # atno 17395 bound_to 11000

$$$$
