#       Name:                AV-unprocessed.smi:72
#       Creating user name   scv26
#       Creation time:       Thu Mar 26 17:07:18 2020


#       File generated by GOLD software.
#

@<TRIPOS>MOLECULE
AV-unprocessed.smi:72
    41    42     1
SMALL
NO_CHARGES


@<TRIPOS>ATOM
      1 ****        -4.1312   2.7948  -1.7367 N.2            1 S1                 0.0000
      2 ****        -3.1527   2.2614  -1.1464 C.2            1 S1                 0.0000
      3 ****        -2.0118   1.8018  -1.9081 N.2            1 S1                 0.0000
      4 ****        -1.0271   1.2617  -1.2576 C.2            1 S1                 0.0000
      5 ****        -1.0518   1.1159   0.1926 N.am           1 S1                 0.0000
      6 ****         0.0940   0.4808   0.9629 C.3            1 S1                 0.0000
      7 ****         1.2658   0.5128   0.1966 O.3            1 S1                 0.0000
      8 ****         1.6083  -0.8012  -0.2366 C.3            1 S1                 0.0000
      9 ****         3.1173  -0.8811  -0.5141 C.3            1 S1                 0.0000
     10 ****         3.3998  -0.3969  -1.8098 O.3            1 S1                 0.0000
     11 ****         1.1574  -1.6460   0.9543 C.3            1 S1                 0.0000
     12 ****         1.0471  -3.0243   0.6507 O.3            1 S1                 0.0000
     13 ****        -0.1682  -0.9973   1.3388 C.3            1 S1                 0.0000
     14 ****        -1.2643  -1.5758   0.6457 O.3            1 S1                 0.0000
     15 ****        -2.1884   1.5704   0.9126 C.2            1 S1                 0.0000
     16 ****        -2.1965   1.4210   2.1348 O.2            1 S1                 0.0000
     17 ****        -3.2175   2.1377   0.2239 N.pl3          1 S1                -1.0000
     18 ****         0.2582   1.1241   1.8290 H              1 S1                 0.0000
     19 ****         1.0263  -1.0705  -1.1203 H              1 S1                 0.0000
     20 ****         1.8640  -1.5222   1.7766 H              1 S1                 0.0000
     21 ****        -0.3584  -1.0740   2.4098 H              1 S1                 0.0000
     22 ****        -4.8650   3.0732  -1.1018 H              1 S1                 0.0000
     23 ****        -0.1327   0.8872  -1.7549 H              1 S1                 0.0000
     24 ****         3.6880  -0.3274   0.2320 H              1 S1                 0.0000
     25 ****         3.4519  -1.9181  -0.4740 H              1 S1                 0.0000
     26 ****         4.3296  -0.4705  -1.9617 H              1 S1                 0.0000
     27 ****         0.6292  -3.4571   1.3791 H              1 S1                 0.0000
     28 ****        -2.0340  -1.0540   0.8182 H              1 S1                 0.0000
     29 ****        -4.1754   2.9276  -2.7269 LP             1 S1                 0.0000
     30 ****        -1.9828   1.8972  -2.9032 LP             1 S1                 0.0000
     31 ****         2.0120   0.8830   0.7499 LP             1 S1                 0.0000
     32 ****         1.1219   1.0968  -0.6024 LP             1 S1                 0.0000
     33 ****         3.1214   0.5610  -1.8800 LP             1 S1                 0.0000
     34 ****         2.9034  -0.9388  -2.4880 LP             1 S1                 0.0000
     35 ****         1.9572  -3.4119   0.5043 LP             1 S1                 0.0000
     36 ****         0.4965  -3.1453  -0.1753 LP             1 S1                 0.0000
     37 ****        -1.4113  -2.5114   0.9665 LP             1 S1                 0.0000
     38 ****        -1.0759  -1.5859  -0.3364 LP             1 S1                 0.0000
     39 ****        -1.4177   0.9905   2.5910 LP             1 S1                 0.0000
     40 ****        -2.9818   1.7302   2.6711 LP             1 S1                 0.0000
     41 ****        -4.0240   2.4660   0.7155 LP             1 S1                 0.0000
@<TRIPOS>BOND
    1    1    2 2     
    2    1   22 1     
    3    2   17 1     
    4    2    3 1     
    5    3    4 2     
    6    4    5 1     
    7    4   23 1     
    8    5    6 1     
    9    5   15 am    
   10    6   18 1     
   11    6   13 1     
   12    6    7 1     
   13    7    8 1     
   14    8   19 1     
   15    8    9 1     
   16    8   11 1     
   17    9   10 1     
   18    9   24 1     
   19    9   25 1     
   20   10   26 1     
   21   11   20 1     
   22   11   12 1     
   23   11   13 1     
   24   12   27 1     
   25   13   21 1     
   26   13   14 1     
   27   14   28 1     
   28   15   16 2     
   29   15   17 1     
   30    1   29 1     
   31    3   30 1     
   32    7   31 1     
   33    7   32 1     
   34   10   33 1     
   35   10   34 1     
   36   12   35 1     
   37   12   36 1     
   38   14   37 1     
   39   14   38 1     
   40   16   39 1     
   41   16   40 1     
   42   17   41 1     
@<TRIPOS>SUBSTRUCTURE
      1 S1             1
@<TRIPOS>SET
LONE_PAIRS      STATIC     ATOMS    <user>   **** ""
13 29 30 31 32 33 34 35 36 37 38 39 40 41
DONOR_HYDROGENS      STATIC     ATOMS    <user>   **** ""
4 22 26 27 28
ATOM$BLUE        STATIC     ATOMS    COLORGROUP SYSTEM
13 29 30 31 32 33 34 35 36 37 38 39 40 41
ATOM$RED        STATIC     ATOMS    COLORGROUP SYSTEM
4 22 26 27 28
