AV-unprocessed.smi:1742|AV-procd|sdf|7021|dock9
  -GOLD-   22720 8243D 1   1.00000     0.00000
 Structure written by MMmdl.
 34 35  0  0  0  0  0  0  0  0  1 V2000
  143.7355  132.6857  148.4036 C   0  0  0  0  0  0  0  0  0  0  0  0
  143.8124  132.4766  149.9203 C   0  0  0  0  0  0  0  0  0  0  0  0
  144.5092  133.5658  150.5760 N   0  0  0  0  0  0  0  0  0  0  0  0
  144.1091  134.8814  150.6986 C   0  0  0  0  0  0  0  0  0  0  0  0
  145.1004  135.5054  151.4019 C   0  0  0  0  0  0  0  0  0  0  0  0
  145.1996  136.8601  151.8073 N   0  0  0  0  0  0  0  0  0  0  0  0
  146.0026  137.3737  152.7589 C   0  0  0  0  0  0  0  0  0  0  0  0
  146.7940  136.7155  153.4311 O   0  0  0  0  0  0  0  0  0  0  0  0
  145.8842  138.7027  152.9285 N   0  0  0  0  0  0  0  0  0  0  0  0
  146.6010  139.5668  153.8674 C   0  0  1  0  0  0  0  0  0  0  0  0
  147.1247  140.8297  153.1580 C   0  0  0  0  0  0  0  0  0  0  0  0
  147.5335  141.8610  154.2172 C   0  0  0  0  0  0  0  0  0  0  0  0
  146.4455  141.5668  155.6630 S   0  0  0  0  0  0  0  0  0  0  0  0
  147.2826  141.2588  156.8324 O   0  0  0  0  0  0  0  0  0  0  0  0
  145.4115  142.6108  155.7249 O   0  0  0  0  0  0  0  0  0  0  0  0
  145.6984  140.0203  155.0264 C   0  0  0  0  0  0  0  0  0  0  0  0
  146.0705  134.5056  151.6731 C   0  0  0  0  0  0  0  0  0  0  0  0
  145.7050  133.3351  151.1725 N   0  0  0  0  0  0  0  0  0  0  0  0
  143.2249  131.8512  147.9229 H   0  0  0  0  0  0  0  0  0  0  0  0
  144.7312  132.7635  147.9661 H   0  0  0  0  0  0  0  0  0  0  0  0
  143.1888  133.5966  148.1581 H   0  0  0  0  0  0  0  0  0  0  0  0
  142.8106  132.3903  150.3435 H   0  0  0  0  0  0  0  0  0  0  0  0
  144.3332  131.5453  150.1461 H   0  0  0  0  0  0  0  0  0  0  0  0
  143.1777  135.2373  150.2837 H   0  0  0  0  0  0  0  0  0  0  0  0
  144.5979  137.5092  151.3219 H   0  0  0  0  0  0  0  0  0  0  0  0
  145.2256  139.1705  152.3224 H   0  0  0  0  0  0  0  0  0  0  0  0
  147.4656  139.0409  154.2769 H   0  0  0  0  0  0  0  0  0  0  0  0
  147.9500  140.6031  152.4824 H   0  0  0  0  0  0  0  0  0  0  0  0
  146.3258  141.2569  152.5498 H   0  0  0  0  0  0  0  0  0  0  0  0
  148.5643  141.7028  154.5349 H   0  0  0  0  0  0  0  0  0  0  0  0
  147.4304  142.8893  153.8702 H   0  0  0  0  0  0  0  0  0  0  0  0
  144.6941  140.2578  154.6737 H   0  0  0  0  0  0  0  0  0  0  0  0
  145.6202  139.2847  155.8270 H   0  0  0  0  0  0  0  0  0  0  0  0
  147.0068  134.5873  152.2052 H   0  0  0  0  0  0  0  0  0  0  0  0
  1  2  1  0  0  0  0
  1 19  1  0  0  0  0
  1 20  1  0  0  0  0
  1 21  1  0  0  0  0
  2  3  1  0  0  0  0
  2 22  1  0  0  0  0
  2 23  1  0  0  0  0
  3 18  1  0  0  0  0
  3  4  1  0  0  0  0
  4  5  2  0  0  0  0
  4 24  1  0  0  0  0
  5  6  1  0  0  0  0
  5 17  1  0  0  0  0
  6  7  1  0  0  0  0
  6 25  1  0  0  0  0
  7  8  2  0  0  0  0
  7  9  1  0  0  0  0
  9 10  1  0  0  0  0
  9 26  1  0  0  0  0
 10 16  1  0  0  0  0
 10 11  1  0  0  0  0
 10 27  1  0  0  0  0
 11 12  1  0  0  0  0
 11 28  1  0  0  0  0
 11 29  1  0  0  0  0
 12 13  1  0  0  0  0
 12 30  1  0  0  0  0
 12 31  1  0  0  0  0
 13 14  2  0  0  0  0
 13 15  2  0  0  0  0
 13 16  1  0  0  0  0
 16 32  1  0  0  0  0
 16 33  1  0  0  0  0
 17 18  2  0  0  0  0
 17 34  1  0  0  0  0
M  END
> <s_m_source_file>
AV-unprocessed.smi

> <i_m_source_file_index>
1742

> <i_lp_mmshare_version>
43012

> <i_f3d_flags>
0

> <s_epik_input>
W0NIM11bQ0gyXW4xW2NIXWMoW2NIXW4xKVtOSF1DKD1PKVtOSF1bQ0BASF0oW0NIMl0yKVtDSDJdW0NIMl1TMig9Tyk9Tw==

> <s_epik_cmdline>
J2VwaWtfcHl0aG9uJywgJy1waCcsICc3LjAnLCAnLXRuJywgJzgnLCAnLW1hJywgJzIwMCcsICctbWV0YWxfYmluZGluZycsICctaW1hZScsICc8aW5maWxlLm1hZT4nLCAnLW9tYWUnLCAnPG91dGZpbGUubWFlPic=

> <r_lp_tautomer_probability>
1

> <r_epik_Ionization_Penalty>
0.000152028

> <r_epik_Ionization_Penalty_Charging>
0

> <r_epik_Ionization_Penalty_Neutral>
0.000152028

> <r_epik_State_Penalty>
-0

> <r_epik_Charging_Adjusted_Penalty>
0

> <i_epik_Tot_Q>
0

> <i_epik_Tot_abs_Q>
0

> <r_epik_Metal_State_Penalty>
-0

> <b_epik_Metal_Only>
0

> <s_lp_Force_Field>
OPLS_2005

> <r_lp_Energy>
18.8672

> <b_lp_Chiralities_Consistent>
1

> <s_lp_Variant>
AV-unprocessed.smi:1742-2

> <Gold.Version>
5.8.1

> <Gold.Id.Protein>
6NUR|6NUR_protein|mol2

> <Gold.PLP.Fitness>
39.0116

> <Gold.PLP.PLP>
-28.6931

> <Gold.PLP.part.hbond>
-2.0000

> <Gold.PLP.part.metal>
0.0000

> <Gold.PLP.part.buried>
-5.5682

> <Gold.PLP.part.nonpolar>
-25.0080

> <Gold.PLP.part.repulsive>
2.9484

> <Gold.PLP.ligand.clash>
0.0000

> <Gold.PLP.ligand.torsion>
0.2691

> <Gold.PLP.Chemscore.Hbond>
1.8000

> <Gold.PLP.Chemscore.CHOScore>
1.8182

> <Gold.PLP.Chemscore.Metal>
0.0000

> <Gold.Chemscore.Hbonds>
donor molecule, donor type, donor heavy atom, donor atom, acceptor molecule, acceptor atom, score
      L1  H     6    25       P1 10171  1.00
      L1  H     9    26       P1 10175  0.80
      L1  C     4    24       P1 10186  0.82
      L1  C    17    34       P1  7948  0.99

> <Gold.PLP.Chemscore.Internal.Correction>
0.0022

> <Gold.Rescore>
     Score         DG    S(hbond)    S(metal)    S(lipo)     H(rot)  DE(clash)    DE(int)     intcor
     12.82     -15.76       1.83        0.00      63.19       1.26       1.40       1.54       ----

> <Gold.Chemscore.Fitness>
12.8190

> <Gold.Chemscore.DG>
-15.7586

> <Gold.Chemscore.ZeroCoef>
-5.4800

> <Gold.Chemscore.Hbond>
1.8262

> <Gold.Chemscore.Metal>
0.0000

> <Gold.Chemscore.Lipo>
63.1886

> <Gold.Chemscore.Internal_Hbond>
0.0000

> <Gold.Chemscore.DEClash>
1.4001

> <Gold.Chemscore.DEInternal>
1.5395

> <Gold.Chemscore.Rot>
1.2554

> <Gold.Chemscore.Internal.Correction>
   9.000000E+99

> <Gold.Chemscore.Hbonds>
donor molecule, donor type, donor heavy atom, donor atom, acceptor molecule, acceptor atom, score
      L1  H     6    25       P1 10171  0.96
      L1  H     9    26       P1 10175  0.75

> <Gold.Chemscore.Hbond.Weighted>
-6.0994

> <Gold.Chemscore.Metal.Weighted>
-0.0000

> <Gold.Chemscore.Lipo.Weighted>
-7.3931

> <Gold.Chemscore.Internal_Hbond.Weighted>
0.0000

> <Gold.Chemscore.DEClash.Weighted>
1.4001

> <Gold.Chemscore.DEInternal.Weighted>
1.5395

> <Gold.Chemscore.Rot.Weighted>
3.2139

> <Gold.Chemscore.Internal.Correction.Weighted>
   9.000000E+99

> <Gold.Protein.RotatedTorsions>
[ 6907 6896 6895 6894 ] final  -32.55 input  -60.11 | X-H torsion
[ 7974 7965 7964 7962 ] final   17.81 input  175.53 | X-H torsion
[ 8008 7997 7996 7995 ] final  -61.53 input   59.86 | X-H torsion
[ 10167 10162 10161 10158 ] final   53.70 input  -65.29 | X-H torsion
[ 10718 10713 10712 10709 ] final -154.03 input   66.30 | X-H torsion
[ 10763 10752 10751 10750 ] final  -93.77 input  -60.55 | X-H torsion
[ 11005 11000 10999 10996 ] final  -43.97 input  -57.11 | X-H torsion

> <Gold.Protein.ActiveResidues>
 VAL166  LYS551  ARG553  GLY616  TRP617  ASP618  TYR619  PRO620  LYS621  CYS622 
 ASP623  PHE694  ASN695  SER759  ASP760  ASP761  ALA762  ILE779  LEU786  VAL792 
 PHE793  MET794  SER795  GLU796  ALA797  LYS798  CYS799  TRP800  GLU811  SER814 

> <Gold.Protein.RotatedAtoms>
  151.0772  134.9836  159.8337 H   0  0  0  0  0  0  0  0  0  0  0  0  # atno 6907 bound_to 6896
  152.5415  134.2226  159.8803 H   0  0  0  0  0  0  0  0  0  0  0  0  # atno 6908 bound_to 6896
  151.2254  133.4436  159.2635 H   0  0  0  0  0  0  0  0  0  0  0  0  # atno 6909 bound_to 6896
  146.2206  139.8548  142.8615 H   0  0  0  0  0  0  0  0  0  0  0  0  # atno 7974 bound_to 7965
  154.4453  140.1015  156.6445 H   0  0  0  0  0  0  0  0  0  0  0  0  # atno 8008 bound_to 7997
  155.5465  140.3484  155.4440 H   0  0  0  0  0  0  0  0  0  0  0  0  # atno 8009 bound_to 7997
  156.0560  140.1315  156.9985 H   0  0  0  0  0  0  0  0  0  0  0  0  # atno 8010 bound_to 7997
  140.2380  144.3615  150.6390 H   0  0  0  0  0  0  0  0  0  0  0  0  # atno 10167 bound_to 10162
  156.4938  130.8360  151.2581 H   0  0  0  0  0  0  0  0  0  0  0  0  # atno 10718 bound_to 10713
  154.6991  135.5182  153.8501 H   0  0  0  0  0  0  0  0  0  0  0  0  # atno 10763 bound_to 10752
  153.0690  135.6595  154.0299 H   0  0  0  0  0  0  0  0  0  0  0  0  # atno 10764 bound_to 10752
  154.0161  135.2998  155.3366 H   0  0  0  0  0  0  0  0  0  0  0  0  # atno 10765 bound_to 10752
  141.0419  133.6776  156.2807 H   0  0  0  0  0  0  0  0  0  0  0  0  # atno 11005 bound_to 11000
  145.2764  141.0125  143.3742 LP  0  0  0  0  0  0  0  0  0  0  0  0  # atno 17320 bound_to 7965
  144.9184  139.4442  143.6553 LP  0  0  0  0  0  0  0  0  0  0  0  0  # atno 17321 bound_to 7965
  140.6135  143.2171  151.6838 LP  0  0  0  0  0  0  0  0  0  0  0  0  # atno 17342 bound_to 10162
  139.5087  144.3602  152.0569 LP  0  0  0  0  0  0  0  0  0  0  0  0  # atno 17343 bound_to 10162
  157.7471  131.0004  150.2926 LP  0  0  0  0  0  0  0  0  0  0  0  0  # atno 17370 bound_to 10713
  156.3400  130.3814  149.7417 LP  0  0  0  0  0  0  0  0  0  0  0  0  # atno 17371 bound_to 10713
  140.6218  134.5354  157.5548 LP  0  0  0  0  0  0  0  0  0  0  0  0  # atno 17394 bound_to 11000
  139.9282  134.8014  156.1006 LP  0  0  0  0  0  0  0  0  0  0  0  0  # atno 17395 bound_to 11000

$$$$
