AV-unprocessed.smi:1489|AV-procd|sdf|6027|dock5
  -GOLD-   22720 6133D 1   1.00000     0.00000
 Structure written by MMmdl.
 47 49  0  0  0  0  0  0  0  0  2 V2000
  149.4859  136.1163  156.9250 O   0  0  0  0  0  0  0  0  0  0  0  0
  149.5888  136.3878  155.7288 C   0  0  0  0  0  0  0  0  0  0  0  0
  150.0078  137.5657  155.2347 N   0  0  0  0  0  0  0  0  0  0  0  0
  150.3610  138.7443  155.9458 C   0  0  0  0  0  0  0  0  0  0  0  0
  150.9848  139.8692  155.3506 C   0  0  0  0  0  0  0  0  0  0  0  0
  151.3102  140.9854  156.1480 C   0  0  0  0  0  0  0  0  0  0  0  0
  151.0168  140.9631  157.5314 C   0  0  0  0  0  0  0  0  0  0  0  0
  151.2942  142.0245  158.4051 N   0  0  0  0  0  0  0  0  0  0  0  0
  151.5172  143.3022  157.7484 C   0  0  0  0  0  0  0  0  0  0  0  0
  152.2222  144.1854  158.7822 C   0  0  0  0  0  0  0  0  0  0  0  0
  152.7952  143.2078  159.8147 C   0  0  0  0  0  0  0  0  0  0  0  0
  152.4357  141.8193  159.2812 C   0  0  0  0  0  0  0  0  0  0  0  0
  150.4347  139.8651  158.0610 N   0  3  0  0  0  0  0  0  0  0  0  0
  150.1085  138.7747  157.3335 C   0  0  0  0  0  0  0  0  0  0  0  0
  149.3081  135.5198  154.7460 N   0  0  0  0  0  0  0  0  0  0  0  0
  148.8403  134.1495  154.9374 C   0  0  2  0  0  0  0  0  0  0  0  0
  149.8794  133.3624  155.7592 C   0  0  0  0  0  0  0  0  0  0  0  0
  149.4632  131.8934  155.9386 C   0  0  0  0  0  0  0  0  0  0  0  0
  149.2172  131.2180  154.5788 C   0  0  1  0  0  0  0  0  0  0  0  0
  148.7740  129.8931  154.7825 O   0  0  0  0  0  0  0  0  0  0  0  0
  148.1700  131.9922  153.7600 C   0  0  0  0  0  0  0  0  0  0  0  0
  148.5831  133.4619  153.5791 C   0  0  0  0  0  0  0  0  0  0  0  0
  150.1337  137.6079  154.2338 H   0  0  0  0  0  0  0  0  0  0  0  0
  151.2325  139.8938  154.3008 H   0  0  0  0  0  0  0  0  0  0  0  0
  151.7815  141.8456  155.6958 H   0  0  0  0  0  0  0  0  0  0  0  0
  152.1500  143.1780  156.8685 H   0  0  0  0  0  0  0  0  0  0  0  0
  150.5742  143.7431  157.4235 H   0  0  0  0  0  0  0  0  0  0  0  0
  152.9965  144.7982  158.3195 H   0  0  0  0  0  0  0  0  0  0  0  0
  151.5097  144.8582  159.2611 H   0  0  0  0  0  0  0  0  0  0  0  0
  153.8714  143.3240  159.9475 H   0  0  0  0  0  0  0  0  0  0  0  0
  152.3217  143.3742  160.7832 H   0  0  0  0  0  0  0  0  0  0  0  0
  152.1903  141.1313  160.0908 H   0  0  0  0  0  0  0  0  0  0  0  0
  153.2778  141.4017  158.7283 H   0  0  0  0  0  0  0  0  0  0  0  0
  149.6496  137.9656  157.8832 H   0  0  0  0  0  0  0  0  0  0  0  0
  149.4287  135.8261  153.7917 H   0  0  0  0  0  0  0  0  0  0  0  0
  147.9072  134.1721  155.5039 H   0  0  0  0  0  0  0  0  0  0  0  0
  150.8503  133.4021  155.2629 H   0  0  0  0  0  0  0  0  0  0  0  0
  150.0131  133.8267  156.7371 H   0  0  0  0  0  0  0  0  0  0  0  0
  150.2357  131.3562  156.4902 H   0  0  0  0  0  0  0  0  0  0  0  0
  148.5584  131.8458  156.5465 H   0  0  0  0  0  0  0  0  0  0  0  0
  150.1535  131.1754  154.0208 H   0  0  0  0  0  0  0  0  0  0  0  0
  149.5184  129.3592  155.0152 H   0  0  0  0  0  0  0  0  0  0  0  0
  148.0357  131.5243  152.7841 H   0  0  0  0  0  0  0  0  0  0  0  0
  147.2012  131.9487  154.2602 H   0  0  0  0  0  0  0  0  0  0  0  0
  147.8050  133.9907  153.0275 H   0  0  0  0  0  0  0  0  0  0  0  0
  149.4834  133.5102  152.9646 H   0  0  0  0  0  0  0  0  0  0  0  0
  150.2313  139.8588  159.0607 H   0  0  0  0  0  0  0  0  0  0  0  0
  1  2  2  0  0  0  0
  2  3  1  0  0  0  0
  2 15  1  0  0  0  0
  3  4  1  0  0  0  0
  3 23  1  0  0  0  0
  4 14  1  0  0  0  0
  4  5  2  0  0  0  0
  5  6  1  0  0  0  0
  5 24  1  0  0  0  0
  6  7  2  0  0  0  0
  6 25  1  0  0  0  0
  7  8  1  0  0  0  0
  7 13  1  0  0  0  0
  8 12  1  0  0  0  0
  8  9  1  0  0  0  0
  9 10  1  0  0  0  0
  9 26  1  0  0  0  0
  9 27  1  0  0  0  0
 10 11  1  0  0  0  0
 10 28  1  0  0  0  0
 10 29  1  0  0  0  0
 11 12  1  0  0  0  0
 11 30  1  0  0  0  0
 11 31  1  0  0  0  0
 12 32  1  0  0  0  0
 12 33  1  0  0  0  0
 13 14  2  0  0  0  0
 13 47  1  0  0  0  0
 14 34  1  0  0  0  0
 15 16  1  0  0  0  0
 15 35  1  0  0  0  0
 16 22  1  0  0  0  0
 16 17  1  0  0  0  0
 16 36  1  0  0  0  0
 17 18  1  0  0  0  0
 17 37  1  0  0  0  0
 17 38  1  0  0  0  0
 18 19  1  0  0  0  0
 18 39  1  0  0  0  0
 18 40  1  0  0  0  0
 19 20  1  0  0  0  0
 19 21  1  0  0  0  0
 19 41  1  0  0  0  0
 20 42  1  0  0  0  0
 21 22  1  0  0  0  0
 21 43  1  0  0  0  0
 21 44  1  0  0  0  0
 22 45  1  0  0  0  0
 22 46  1  0  0  0  0
M  CHG  1  13   1
M  END
> <s_m_source_file>
AV-unprocessed.smi

> <i_m_source_file_index>
1489

> <i_lp_mmshare_version>
43012

> <i_f3d_flags>
0

> <s_epik_input>
W0NIMl0xW0NIMl1bQ0BIXShbT0hdKVtDSDJdW0NIMl1bQ0BIXTFbTkhdQyg9TylbTkhdYzJbY0hdW2NIXWMobltjSF0yKU4zW0NIMl1bQ0gyXVtDSDJdW0NIMl0z

> <s_epik_cmdline>
J2VwaWtfcHl0aG9uJywgJy1waCcsICc3LjAnLCAnLXRuJywgJzgnLCAnLW1hJywgJzIwMCcsICctbWV0YWxfYmluZGluZycsICctaW1hZScsICc8aW5maWxlLm1hZT4nLCAnLW9tYWUnLCAnPG91dGZpbGUubWFlPic=

> <r_lp_tautomer_probability>
0.999994

> <r_epik_Ionization_Penalty>
1.08454

> <r_epik_Ionization_Penalty_Charging>
1.08452

> <r_epik_Ionization_Penalty_Neutral>
2.18252e-05

> <r_epik_State_Penalty>
1.14025

> <r_epik_Charging_Adjusted_Penalty>
2.22477

> <i_epik_Tot_Q>
1

> <i_epik_Tot_abs_Q>
1

> <r_epik_Metal_State_Penalty>
1.22975

> <b_epik_Metal_Only>
0

> <s_lp_Force_Field>
OPLS_2005

> <r_lp_Energy>
44.1541

> <b_lp_Chiralities_Consistent>
1

> <s_lp_Variant>
AV-unprocessed.smi:1489-3

> <Gold.Version>
5.8.1

> <Gold.Id.Protein>
6NUR|6NUR_protein|mol2

> <Gold.PLP.Fitness>
41.4754

> <Gold.PLP.PLP>
-39.3855

> <Gold.PLP.part.hbond>
-1.0000

> <Gold.PLP.part.metal>
0.0000

> <Gold.PLP.part.buried>
-4.5020

> <Gold.PLP.part.nonpolar>
-34.4550

> <Gold.PLP.part.repulsive>
0.2001

> <Gold.PLP.ligand.clash>
0.0000

> <Gold.PLP.ligand.torsion>
0.4627

> <Gold.PLP.Chemscore.Hbond>
1.0000

> <Gold.PLP.Chemscore.CHOScore>
0.0000

> <Gold.PLP.Chemscore.Metal>
0.0000

> <Gold.Chemscore.Hbonds>
donor molecule, donor type, donor heavy atom, donor atom, acceptor molecule, acceptor atom, score
      L1  H    15    35       P1  7948  1.00

> <Gold.PLP.Chemscore.Internal.Correction>
0.0152

> <Gold.Rescore>
     Score         DG    S(hbond)    S(metal)    S(lipo)     H(rot)  DE(clash)    DE(int)     intcor
     13.46     -16.42       0.97        0.00     102.99       1.69       0.16       2.79       ----

> <Gold.Chemscore.Fitness>
13.4639

> <Gold.Chemscore.DG>
-16.4217

> <Gold.Chemscore.ZeroCoef>
-5.4800

> <Gold.Chemscore.Hbond>
0.9657

> <Gold.Chemscore.Metal>
0.0000

> <Gold.Chemscore.Lipo>
102.9919

> <Gold.Chemscore.Internal_Hbond>
0.0000

> <Gold.Chemscore.DEClash>
0.1635

> <Gold.Chemscore.DEInternal>
2.7942

> <Gold.Chemscore.Rot>
1.6929

> <Gold.Chemscore.Internal.Correction>
   9.000000E+99

> <Gold.Chemscore.Hbonds>
donor molecule, donor type, donor heavy atom, donor atom, acceptor molecule, acceptor atom, score
      L1  H    15    35       P1  7948  0.48

> <Gold.Chemscore.Hbond.Weighted>
-3.2254

> <Gold.Chemscore.Metal.Weighted>
-0.0000

> <Gold.Chemscore.Lipo.Weighted>
-12.0501

> <Gold.Chemscore.Internal_Hbond.Weighted>
0.0000

> <Gold.Chemscore.DEClash.Weighted>
0.1635

> <Gold.Chemscore.DEInternal.Weighted>
2.7942

> <Gold.Chemscore.Rot.Weighted>
4.3338

> <Gold.Chemscore.Internal.Correction.Weighted>
   9.000000E+99

> <Gold.Protein.RotatedTorsions>
[ 6907 6896 6895 6894 ] final  -72.49 input  -60.11 | X-H torsion
[ 7974 7965 7964 7962 ] final  162.25 input  175.53 | X-H torsion
[ 8008 7997 7996 7995 ] final   44.57 input   59.86 | X-H torsion
[ 10167 10162 10161 10158 ] final   89.49 input  -65.29 | X-H torsion
[ 10718 10713 10712 10709 ] final    4.85 input   66.30 | X-H torsion
[ 10763 10752 10751 10750 ] final -120.54 input  -60.55 | X-H torsion
[ 11005 11000 10999 10996 ] final  -75.02 input  -57.11 | X-H torsion

> <Gold.Protein.ActiveResidues>
 VAL166  LYS551  ARG553  GLY616  TRP617  ASP618  TYR619  PRO620  LYS621  CYS622 
 ASP623  PHE694  ASN695  SER759  ASP760  ASP761  ALA762  ILE779  LEU786  VAL792 
 PHE793  MET794  SER795  GLU796  ALA797  LYS798  CYS799  TRP800  GLU811  SER814 

> <Gold.Protein.RotatedAtoms>
  150.7168  134.5156  159.5628 H   0  0  0  0  0  0  0  0  0  0  0  0  # atno 6907 bound_to 6896
  152.2722  134.7917  160.0421 H   0  0  0  0  0  0  0  0  0  0  0  0  # atno 6908 bound_to 6896
  151.8593  133.3419  159.3735 H   0  0  0  0  0  0  0  0  0  0  0  0  # atno 6909 bound_to 6896
  144.7646  139.8013  143.6320 H   0  0  0  0  0  0  0  0  0  0  0  0  # atno 7974 bound_to 7965
  155.3215  140.3397  155.4241 H   0  0  0  0  0  0  0  0  0  0  0  0  # atno 8008 bound_to 7997
  156.1906  140.1696  156.8136 H   0  0  0  0  0  0  0  0  0  0  0  0  # atno 8009 bound_to 7997
  154.5438  140.0719  156.8538 H   0  0  0  0  0  0  0  0  0  0  0  0  # atno 8010 bound_to 7997
  139.8567  144.6565  150.9106 H   0  0  0  0  0  0  0  0  0  0  0  0  # atno 10167 bound_to 10162
  156.8988  130.5714  149.5648 H   0  0  0  0  0  0  0  0  0  0  0  0  # atno 10718 bound_to 10713
  154.8646  135.4199  154.2475 H   0  0  0  0  0  0  0  0  0  0  0  0  # atno 10763 bound_to 10752
  153.3428  135.6994  153.6858 H   0  0  0  0  0  0  0  0  0  0  0  0  # atno 10764 bound_to 10752
  153.5830  135.3569  155.2855 H   0  0  0  0  0  0  0  0  0  0  0  0  # atno 10765 bound_to 10752
  141.1641  133.6932  156.7453 H   0  0  0  0  0  0  0  0  0  0  0  0  # atno 11005 bound_to 11000
  146.1741  139.4904  142.9908 LP  0  0  0  0  0  0  0  0  0  0  0  0  # atno 17320 bound_to 7965
  145.6511  141.0263  143.1760 LP  0  0  0  0  0  0  0  0  0  0  0  0  # atno 17321 bound_to 7965
  140.7780  143.3780  151.1529 LP  0  0  0  0  0  0  0  0  0  0  0  0  # atno 17342 bound_to 10162
  139.7413  143.8920  152.3050 LP  0  0  0  0  0  0  0  0  0  0  0  0  # atno 17343 bound_to 10162
  156.0592  130.5648  150.9157 LP  0  0  0  0  0  0  0  0  0  0  0  0  # atno 17370 bound_to 10713
  157.6039  131.0940  150.8913 LP  0  0  0  0  0  0  0  0  0  0  0  0  # atno 17371 bound_to 10713
  140.2644  134.8441  157.3789 LP  0  0  0  0  0  0  0  0  0  0  0  0  # atno 17394 bound_to 11000
  140.1581  134.4764  155.7914 LP  0  0  0  0  0  0  0  0  0  0  0  0  # atno 17395 bound_to 11000

$$$$
