#       Name:                AV-unprocessed.smi:109
#       Creating user name   scv26
#       Creation time:       Thu Mar 26 18:04:17 2020


#       File generated by GOLD software.
#

@<TRIPOS>MOLECULE
AV-unprocessed.smi:109
    71    74     1
SMALL
NO_CHARGES


@<TRIPOS>ATOM
      1 ****        -1.5814   2.9655  -4.0615 O.3            1 S1                 0.0000
      2 ****        -1.3010   2.3884  -2.8048 C.3            1 S1                 0.0000
      3 ****        -2.6142   2.0702  -2.0694 C.3            1 S1                 0.0000
      4 ****        -2.4199   1.5087  -0.6391 C.3            1 S1                 0.0000
      5 ****        -1.6994   0.2352  -0.7096 N.pl3          1 S1                 0.0000
      6 ****        -0.3704   0.1416  -0.4798 C.ar           1 S1                 0.0000
      7 ****         0.3614   1.2172  -0.0900 N.ar           1 S1                 0.0000
      8 ****         1.6738   1.0915   0.1243 C.ar           1 S1                 0.0000
      9 ****         2.4360   0.0024   0.0094 N.ar           1 S1                 0.0000
     10 ****         1.7080  -1.0829  -0.3829 C.ar           1 S1                 0.0000
     11 ****         0.3090  -1.0930  -0.6431 C.ar           1 S1                 0.0000
     12 ****        -0.0918  -2.3686  -1.0164 N.2            1 S1                 0.0000
     13 ****         1.0093  -3.0693  -0.9748 C.2            1 S1                 0.0000
     14 ****         2.1402  -2.3767  -0.6027 N.pl3          1 S1                 0.0000
     15 ****         3.5308  -2.9228  -0.4695 C.3            1 S1                 0.0000
     16 ****         4.4477  -1.9769  -0.9376 O.3            1 S1                 0.0000
     17 ****         5.3509  -1.5935   0.0995 C.3            1 S1                 0.0000
     18 ****         6.7180  -1.2500  -0.5096 C.3            1 S1                 0.0000
     19 ****         6.7069   0.0748  -0.9964 O.3            1 S1                 0.0000
     20 ****         5.3710  -2.8251   1.0063 C.3            1 S1                 0.0000
     21 ****         5.8444  -2.5501   2.3114 O.3            1 S1                 0.0000
     22 ****         3.9162  -3.2728   0.9811 C.3            1 S1                 0.0000
     23 ****         3.1213  -2.6171   1.9570 O.3            1 S1                 0.0000
     24 ****        -3.7516   1.3071   0.1406 C.3            1 S1                 0.0000
     25 ****        -4.6037   2.5982   0.2370 C.3            1 S1                 0.0000
     26 ****        -5.8885   2.3992   1.0581 C.3            1 S1                 0.0000
     27 ****        -5.5805   1.8696   2.4633 C.3            1 S1                 0.0000
     28 ****        -4.7709   0.5706   2.3815 C.3            1 S1                 0.0000
     29 ****        -3.4814   0.7715   1.5708 C.3            1 S1                 0.0000
     30 ****         3.5516  -3.7891  -1.1318 H              1 S1                 0.0000
     31 ****         4.9438  -0.7450   0.6517 H              1 S1                 0.0000
     32 ****         5.9928  -3.6016   0.5576 H              1 S1                 0.0000
     33 ****         3.8240  -4.3484   1.1342 H              1 S1                 0.0000
     34 ****        -2.0662   2.3399  -4.5780 H              1 S1                 0.0000
     35 ****        -0.7065   1.4890  -2.9641 H              1 S1                 0.0000
     36 ****        -0.6950   3.0840  -2.2238 H              1 S1                 0.0000
     37 ****        -3.1801   2.9992  -2.0295 H              1 S1                 0.0000
     38 ****        -3.2090   1.3726  -2.6607 H              1 S1                 0.0000
     39 ****        -1.8452   2.2429  -0.0751 H              1 S1                 0.0000
     40 ****        -2.2597  -0.5639  -0.9697 H              1 S1                 0.0000
     41 ****         2.1863   1.9914   0.4310 H              1 S1                 0.0000
     42 ****         1.0266  -4.1224  -1.2148 H              1 S1                 0.0000
     43 ****         7.4970  -1.3127   0.2507 H              1 S1                 0.0000
     44 ****         6.9842  -1.9462  -1.3055 H              1 S1                 0.0000
     45 ****         6.0273   0.1479  -1.6493 H              1 S1                 0.0000
     46 ****         5.7198  -3.3203   2.8447 H              1 S1                 0.0000
     47 ****         3.1608  -1.6861   1.7953 H              1 S1                 0.0000
     48 ****        -4.3444   0.5605  -0.3905 H              1 S1                 0.0000
     49 ****        -4.0095   3.3993   0.6786 H              1 S1                 0.0000
     50 ****        -4.9028   2.9412  -0.7520 H              1 S1                 0.0000
     51 ****        -6.4326   3.3415   1.1286 H              1 S1                 0.0000
     52 ****        -6.5479   1.7010   0.5409 H              1 S1                 0.0000
     53 ****        -5.0204   2.6184   3.0249 H              1 S1                 0.0000
     54 ****        -6.5077   1.6987   3.0107 H              1 S1                 0.0000
     55 ****        -4.5271   0.2218   3.3855 H              1 S1                 0.0000
     56 ****        -5.3757  -0.2113   1.9205 H              1 S1                 0.0000
     57 ****        -2.9516  -0.1804   1.5339 H              1 S1                 0.0000
     58 ****        -2.8256   1.4631   2.1016 H              1 S1                 0.0000
     59 ****        -0.7258   3.1950  -4.5256 LP             1 S1                 0.0000
     60 ****        -2.1262   3.7949  -3.9376 LP             1 S1                 0.0000
     61 ****        -0.0827   2.1042   0.0367 LP             1 S1                 0.0000
     62 ****         3.4197  -0.0161   0.1887 LP             1 S1                 0.0000
     63 ****        -1.0105  -2.6788  -1.2605 LP             1 S1                 0.0000
     64 ****         3.9521  -1.1690  -1.2565 LP             1 S1                 0.0000
     65 ****         4.9670  -2.3704  -1.6962 LP             1 S1                 0.0000
     66 ****         7.5932   0.2914  -1.4059 LP             1 S1                 0.0000
     67 ****         6.5230   0.7089  -0.2453 LP             1 S1                 0.0000
     68 ****         5.3333  -1.7839   2.7010 LP             1 S1                 0.0000
     69 ****         6.8166  -2.3184   2.2756 LP             1 S1                 0.0000
     70 ****         3.4747  -2.8169   2.8709 LP             1 S1                 0.0000
     71 ****         2.1747  -2.9322   1.8895 LP             1 S1                 0.0000
@<TRIPOS>BOND
    1    1    2 1     
    2    1   34 1     
    3    2    3 1     
    4    2   35 1     
    5    2   36 1     
    6    3    4 1     
    7    3   37 1     
    8    3   38 1     
    9    4    5 1     
   10    4   24 1     
   11    4   39 1     
   12    5    6 1     
   13    5   40 1     
   14    6   11 ar    
   15    6    7 ar    
   16    7    8 ar    
   17    8    9 ar    
   18    8   41 1     
   19    9   10 ar    
   20   10   14 1     
   21   10   11 ar    
   22   11   12 1     
   23   12   13 2     
   24   13   14 1     
   25   13   42 1     
   26   14   15 1     
   27   15   30 1     
   28   15   22 1     
   29   15   16 1     
   30   16   17 1     
   31   17   31 1     
   32   17   18 1     
   33   17   20 1     
   34   18   19 1     
   35   18   43 1     
   36   18   44 1     
   37   19   45 1     
   38   20   32 1     
   39   20   21 1     
   40   20   22 1     
   41   21   46 1     
   42   22   33 1     
   43   22   23 1     
   44   23   47 1     
   45   24   29 1     
   46   24   25 1     
   47   24   48 1     
   48   25   26 1     
   49   25   49 1     
   50   25   50 1     
   51   26   27 1     
   52   26   51 1     
   53   26   52 1     
   54   27   28 1     
   55   27   53 1     
   56   27   54 1     
   57   28   29 1     
   58   28   55 1     
   59   28   56 1     
   60   29   57 1     
   61   29   58 1     
   62    1   59 1     
   63    1   60 1     
   64    7   61 1     
   65    9   62 1     
   66   12   63 1     
   67   16   64 1     
   68   16   65 1     
   69   19   66 1     
   70   19   67 1     
   71   21   68 1     
   72   21   69 1     
   73   23   70 1     
   74   23   71 1     
@<TRIPOS>SUBSTRUCTURE
      1 S1             1
@<TRIPOS>SET
LONE_PAIRS      STATIC     ATOMS    <user>   **** ""
13 59 60 61 62 63 64 65 66 67 68 69 70 71
DONOR_HYDROGENS      STATIC     ATOMS    <user>   **** ""
5 34 40 45 46 47
ATOM$BLUE        STATIC     ATOMS    COLORGROUP SYSTEM
13 59 60 61 62 63 64 65 66 67 68 69 70 71
ATOM$RED        STATIC     ATOMS    COLORGROUP SYSTEM
5 34 40 45 46 47
