#       Name:                AV-unprocessed.smi:3165
#       Creating user name   scv26
#       Creation time:       Fri Mar 27 17:52:31 2020


#       File generated by GOLD software.
#

@<TRIPOS>MOLECULE
AV-unprocessed.smi:3165
    41    42     1
SMALL
NO_CHARGES


@<TRIPOS>ATOM
      1 ****        -2.7692  -0.9416  -1.5991 C.3            1 S1                 0.0000
      2 ****        -2.2088  -0.1240  -0.4244 C.3            1 S1                 0.0000
      3 ****        -2.6152  -0.7114   0.9514 C.3            1 S1                 0.0000
      4 ****        -2.1836  -2.0851   1.1576 N.pl3          1 S1                 0.0000
      5 ****        -2.8812  -3.2494   0.9107 C.2            1 S1                 0.0000
      6 ****        -2.0723  -4.2917   1.2620 C.2            1 S1                 0.0000
      7 ****        -0.8861  -3.6568   1.7247 C.2            1 S1                 0.0000
      8 ****        -0.9575  -2.3371   1.6656 N.2            1 S1                 0.0000
      9 ****        -0.7578   0.0204  -0.5847 N.3            1 S1                 0.0000
     10 ****        -0.1042   0.9360   0.3505 C.3            1 S1                 0.0000
     11 ****         1.3856   1.0995   0.0148 C.3            1 S1                 0.0000
     12 ****         1.6194   1.9388  -1.2586 C.3            1 S1                 0.0000
     13 ****         3.1190   2.1467  -1.4986 C.3            1 S1                 0.0000
     14 ****         3.7684   2.7281  -0.2387 C.3            1 S1                 0.0000
     15 ****         3.4218   1.8672   0.9864 C.3            1 S1                 0.0000
     16 ****         2.0075   1.7550   1.1178 O.3            1 S1                 0.0000
     17 ****        -3.8491  -1.0639  -1.5122 H              1 S1                 0.0000
     18 ****        -2.3237  -1.9358  -1.6494 H              1 S1                 0.0000
     19 ****        -2.5711  -0.4454  -2.5497 H              1 S1                 0.0000
     20 ****        -2.6564   0.8684  -0.4913 H              1 S1                 0.0000
     21 ****        -2.2515  -0.0975   1.7757 H              1 S1                 0.0000
     22 ****        -3.7023  -0.6922   1.0378 H              1 S1                 0.0000
     23 ****        -3.8826  -3.2388   0.5062 H              1 S1                 0.0000
     24 ****        -2.2938  -5.3465   1.1982 H              1 S1                 0.0000
     25 ****         0.0182  -4.1123   2.1006 H              1 S1                 0.0000
     26 ****        -0.5481   0.3027  -1.5367 H              1 S1                 0.0000
     27 ****        -0.5959   1.9096   0.3419 H              1 S1                 0.0000
     28 ****        -0.1883   0.5504   1.3663 H              1 S1                 0.0000
     29 ****         1.8344   0.1106  -0.0993 H              1 S1                 0.0000
     30 ****         1.1713   1.4522  -2.1255 H              1 S1                 0.0000
     31 ****         1.1293   2.9080  -1.1563 H              1 S1                 0.0000
     32 ****         3.5864   1.1928  -1.7462 H              1 S1                 0.0000
     33 ****         3.2812   2.8073  -2.3506 H              1 S1                 0.0000
     34 ****         4.8497   2.7896  -0.3647 H              1 S1                 0.0000
     35 ****         3.4125   3.7467  -0.0799 H              1 S1                 0.0000
     36 ****         3.8703   0.8759   0.9054 H              1 S1                 0.0000
     37 ****         3.8239   2.3242   1.8907 H              1 S1                 0.0000
     38 ****        -0.2596  -1.6741   1.9365 LP             1 S1                 0.0000
     39 ****        -0.3819  -0.8817  -0.3725 LP             1 S1                 0.0000
     40 ****         1.8067   1.2363   1.9489 LP             1 S1                 0.0000
     41 ****         1.6228   2.6746   1.1978 LP             1 S1                 0.0000
@<TRIPOS>BOND
    1    1    2 1     
    2    1   17 1     
    3    1   18 1     
    4    1   19 1     
    5    2    3 1     
    6    2    9 1     
    7    2   20 1     
    8    3    4 1     
    9    3   21 1     
   10    3   22 1     
   11    4    8 1     
   12    4    5 1     
   13    5    6 2     
   14    5   23 1     
   15    6    7 1     
   16    6   24 1     
   17    7    8 2     
   18    7   25 1     
   19    9   10 1     
   20    9   26 1     
   21   10   11 1     
   22   10   27 1     
   23   10   28 1     
   24   11   16 1     
   25   11   12 1     
   26   11   29 1     
   27   12   13 1     
   28   12   30 1     
   29   12   31 1     
   30   13   14 1     
   31   13   32 1     
   32   13   33 1     
   33   14   15 1     
   34   14   34 1     
   35   14   35 1     
   36   15   16 1     
   37   15   36 1     
   38   15   37 1     
   39    8   38 1     
   40    9   39 1     
   41   16   40 1     
   42   16   41 1     
@<TRIPOS>SUBSTRUCTURE
      1 S1             1
@<TRIPOS>SET
LONE_PAIRS      STATIC     ATOMS    <user>   **** ""
4 38 39 40 41
DONOR_HYDROGENS      STATIC     ATOMS    <user>   **** ""
1 26
ATOM$BLUE        STATIC     ATOMS    COLORGROUP SYSTEM
4 38 39 40 41
ATOM$RED        STATIC     ATOMS    COLORGROUP SYSTEM
1 26
