AV-unprocessed.smi:2211|AV-procd|sdf|8950|dock3
  -GOLD-   2272012163D 1   1.00000     0.00000
 Structure written by MMmdl.
 25 26  0  0  0  0  0  0  0  0  1 V2000
  150.3703  140.9101  157.8910 O   0  0  0  0  0  0  0  0  0  0  0  0
  150.1421  141.7520  157.0210 C   0  0  0  0  0  0  0  0  0  0  0  0
  149.9790  141.3420  155.5509 C   0  0  0  0  0  0  0  0  0  0  0  0
  150.6974  140.1130  155.2101 N   0  0  0  0  0  0  0  0  0  0  0  0
  150.1982  139.3308  154.2156 N   0  0  0  0  0  0  0  0  0  0  0  0
  150.9301  138.2976  154.0191 C   0  0  0  0  0  0  0  0  0  0  0  0
  152.3563  138.1433  155.0531 S   0  0  0  0  0  0  0  0  0  0  0  0
  151.8661  139.6757  155.8269 C   0  0  0  0  0  0  0  0  0  0  0  0
  152.4933  140.2051  156.7427 O   0  0  0  0  0  0  0  0  0  0  0  0
  150.0401  143.0646  157.2786 N   0  0  0  0  0  0  0  0  0  0  0  0
  150.1768  143.6700  158.5967 C   0  0  0  0  0  0  0  0  0  0  0  0
  151.0692  144.8953  158.6483 C   0  0  0  0  0  0  0  0  0  0  0  0
  152.5671  144.7813  158.4794 C   0  0  0  0  0  0  0  0  0  0  0  0
  151.9846  145.1221  159.8288 C   0  0  0  0  0  0  0  0  0  0  0  0
  148.9195  141.2063  155.3277 H   0  0  0  0  0  0  0  0  0  0  0  0
  150.3226  142.1646  154.9216 H   0  0  0  0  0  0  0  0  0  0  0  0
  150.7544  137.5153  153.2808 H   0  0  0  0  0  0  0  0  0  0  0  0
  149.8558  143.6885  156.5061 H   0  0  0  0  0  0  0  0  0  0  0  0
  149.1803  143.9634  158.9270 H   0  0  0  0  0  0  0  0  0  0  0  0
  150.5288  142.9271  159.3146 H   0  0  0  0  0  0  0  0  0  0  0  0
  150.6049  145.7920  158.2420 H   0  0  0  0  0  0  0  0  0  0  0  0
  152.9899  143.7867  158.3513 H   0  0  0  0  0  0  0  0  0  0  0  0
  153.0708  145.5754  157.9322 H   0  0  0  0  0  0  0  0  0  0  0  0
  152.1026  146.1439  160.1838 H   0  0  0  0  0  0  0  0  0  0  0  0
  152.0203  144.3539  160.5986 H   0  0  0  0  0  0  0  0  0  0  0  0
  1  2  2  0  0  0  0
  2  3  1  0  0  0  0
  2 10  1  0  0  0  0
  3  4  1  0  0  0  0
  3 15  1  0  0  0  0
  3 16  1  0  0  0  0
  4  8  1  0  0  0  0
  4  5  1  0  0  0  0
  5  6  2  0  0  0  0
  6  7  1  0  0  0  0
  6 17  1  0  0  0  0
  7  8  1  0  0  0  0
  8  9  2  0  0  0  0
 10 11  1  0  0  0  0
 10 18  1  0  0  0  0
 11 12  1  0  0  0  0
 11 19  1  0  0  0  0
 11 20  1  0  0  0  0
 12 14  1  0  0  0  0
 12 13  1  0  0  0  0
 12 21  1  0  0  0  0
 13 14  1  0  0  0  0
 13 22  1  0  0  0  0
 13 23  1  0  0  0  0
 14 24  1  0  0  0  0
 14 25  1  0  0  0  0
M  END
> <s_m_source_file>
AV-unprocessed.smi

> <i_m_source_file_index>
2211

> <i_lp_mmshare_version>
43012

> <i_f3d_flags>
0

> <s_epik_input>
W0NIMl0xW0NIMl1bQ0hdMVtDSDJdW05IXUMoPU8pW0NIMl1uMm5bY0hdc2MyPU8=

> <s_epik_cmdline>
J2VwaWtfcHl0aG9uJywgJy1waCcsICc3LjAnLCAnLXRuJywgJzgnLCAnLW1hJywgJzIwMCcsICctbWV0YWxfYmluZGluZycsICctaW1hZScsICc8aW5maWxlLm1hZT4nLCAnLW9tYWUnLCAnPG91dGZpbGUubWFlPic=

> <r_lp_tautomer_probability>
1

> <r_epik_Ionization_Penalty>
1.04444e-07

> <r_epik_Ionization_Penalty_Charging>
1.36178e-08

> <r_epik_Ionization_Penalty_Neutral>
9.08257e-08

> <r_epik_State_Penalty>
-0

> <r_epik_Charging_Adjusted_Penalty>
1.36178e-08

> <i_epik_Tot_Q>
0

> <i_epik_Tot_abs_Q>
0

> <r_epik_Metal_State_Penalty>
-0

> <b_epik_Metal_Only>
0

> <s_lp_Force_Field>
OPLS_2005

> <r_lp_Energy>
12.8792

> <b_lp_Chiralities_Consistent>
1

> <s_lp_Variant>
AV-unprocessed.smi:2211-1

> <Gold.Version>
5.8.1

> <Gold.Id.Protein>
6NUR|6NUR_protein|mol2

> <Gold.PLP.Fitness>
41.0012

> <Gold.PLP.PLP>
-33.3306

> <Gold.PLP.part.hbond>
-2.4197

> <Gold.PLP.part.metal>
0.0000

> <Gold.PLP.part.buried>
-3.0517

> <Gold.PLP.part.nonpolar>
-28.0532

> <Gold.PLP.part.repulsive>
0.1909

> <Gold.PLP.ligand.clash>
0.0000

> <Gold.PLP.ligand.torsion>
1.1155

> <Gold.PLP.Chemscore.Hbond>
2.0000

> <Gold.PLP.Chemscore.CHOScore>
1.1183

> <Gold.PLP.Chemscore.Metal>
0.0000

> <Gold.Chemscore.Hbonds>
donor molecule, donor type, donor heavy atom, donor atom, acceptor molecule, acceptor atom, score
      L1  H    10    18       P1  8028  1.00
      P1  H  7997  8008       L1     9  1.00
      L1  C     6    17       P1  7948  0.33
      L1  C     6    17       P1  7949  0.78

> <Gold.PLP.Chemscore.Internal.Correction>
0.5468

> <Gold.Rescore>
     Score         DG    S(hbond)    S(metal)    S(lipo)     H(rot)  DE(clash)    DE(int)     intcor
      9.80     -15.43       1.96        0.00      71.45       1.94       0.17       5.46       ----

> <Gold.Chemscore.Fitness>
9.8014

> <Gold.Chemscore.DG>
-15.4312

> <Gold.Chemscore.ZeroCoef>
-5.4800

> <Gold.Chemscore.Hbond>
1.9622

> <Gold.Chemscore.Metal>
0.0000

> <Gold.Chemscore.Lipo>
71.4518

> <Gold.Chemscore.Internal_Hbond>
0.0000

> <Gold.Chemscore.DEClash>
0.1684

> <Gold.Chemscore.DEInternal>
5.4615

> <Gold.Chemscore.Rot>
1.9384

> <Gold.Chemscore.Internal.Correction>
   9.000000E+99

> <Gold.Chemscore.Hbonds>
donor molecule, donor type, donor heavy atom, donor atom, acceptor molecule, acceptor atom, score
      L1  H    10    18       P1  8028  0.96
      P1  H  7997  8008       L1     9  0.85

> <Gold.Chemscore.Hbond.Weighted>
-6.5536

> <Gold.Chemscore.Metal.Weighted>
-0.0000

> <Gold.Chemscore.Lipo.Weighted>
-8.3599

> <Gold.Chemscore.Internal_Hbond.Weighted>
0.0000

> <Gold.Chemscore.DEClash.Weighted>
0.1684

> <Gold.Chemscore.DEInternal.Weighted>
5.4615

> <Gold.Chemscore.Rot.Weighted>
4.9622

> <Gold.Chemscore.Internal.Correction.Weighted>
   9.000000E+99

> <Gold.Protein.RotatedTorsions>
[ 6907 6896 6895 6894 ] final  -58.77 input  -60.11 | X-H torsion
[ 7974 7965 7964 7962 ] final  -17.56 input  175.53 | X-H torsion
[ 8008 7997 7996 7995 ] final  -55.22 input   59.86 | X-H torsion
[ 10167 10162 10161 10158 ] final  -23.81 input  -65.29 | X-H torsion
[ 10718 10713 10712 10709 ] final -134.94 input   66.30 | X-H torsion
[ 10763 10752 10751 10750 ] final  159.62 input  -60.55 | X-H torsion
[ 11005 11000 10999 10996 ] final  -52.02 input  -57.11 | X-H torsion

> <Gold.Protein.ActiveResidues>
 VAL166  LYS551  ARG553  GLY616  TRP617  ASP618  TYR619  PRO620  LYS621  CYS622 
 ASP623  PHE694  ASN695  SER759  ASP760  ASP761  ALA762  ILE779  LEU786  VAL792 
 PHE793  MET794  SER795  GLU796  ALA797  LYS798  CYS799  TRP800  GLU811  SER814 

> <Gold.Protein.RotatedAtoms>
  150.7981  134.7056  159.6574 H   0  0  0  0  0  0  0  0  0  0  0  0  # atno 6907 bound_to 6896
  152.4096  134.6144  160.0044 H   0  0  0  0  0  0  0  0  0  0  0  0  # atno 6908 bound_to 6896
  151.6392  133.3290  159.3162 H   0  0  0  0  0  0  0  0  0  0  0  0  # atno 6909 bound_to 6896
  146.1935  140.3796  142.8449 H   0  0  0  0  0  0  0  0  0  0  0  0  # atno 7974 bound_to 7965
  154.4188  140.1158  156.5442 H   0  0  0  0  0  0  0  0  0  0  0  0  # atno 8008 bound_to 7997
  155.6477  140.3496  155.4718 H   0  0  0  0  0  0  0  0  0  0  0  0  # atno 8009 bound_to 7997
  155.9819  140.1162  157.0709 H   0  0  0  0  0  0  0  0  0  0  0  0  # atno 8010 bound_to 7997
  140.7288  143.4409  151.0658 H   0  0  0  0  0  0  0  0  0  0  0  0  # atno 10167 bound_to 10162
  156.2609  130.7209  151.1142 H   0  0  0  0  0  0  0  0  0  0  0  0  # atno 10718 bound_to 10713
  154.2347  135.2777  155.2877 H   0  0  0  0  0  0  0  0  0  0  0  0  # atno 10763 bound_to 10752
  154.5595  135.5651  153.6997 H   0  0  0  0  0  0  0  0  0  0  0  0  # atno 10764 bound_to 10752
  153.0012  135.6294  154.2489 H   0  0  0  0  0  0  0  0  0  0  0  0  # atno 10765 bound_to 10752
  141.0902  133.6634  156.3963 H   0  0  0  0  0  0  0  0  0  0  0  0  # atno 11005 bound_to 11000
  144.8534  140.7034  143.6154 LP  0  0  0  0  0  0  0  0  0  0  0  0  # atno 17320 bound_to 7965
  145.3717  139.1657  143.4328 LP  0  0  0  0  0  0  0  0  0  0  0  0  # atno 17321 bound_to 7965
  139.8076  143.7996  152.3168 LP  0  0  0  0  0  0  0  0  0  0  0  0  # atno 17342 bound_to 10162
  139.8034  144.7365  150.9794 LP  0  0  0  0  0  0  0  0  0  0  0  0  # atno 17343 bound_to 10162
  157.7250  131.0656  150.5972 LP  0  0  0  0  0  0  0  0  0  0  0  0  # atno 17370 bound_to 10713
  156.6059  130.4367  149.5878 LP  0  0  0  0  0  0  0  0  0  0  0  0  # atno 17371 bound_to 10713
  140.5269  134.6250  157.5337 LP  0  0  0  0  0  0  0  0  0  0  0  0  # atno 17394 bound_to 11000
  139.9727  134.7267  156.0010 LP  0  0  0  0  0  0  0  0  0  0  0  0  # atno 17395 bound_to 11000

$$$$
