AV-unprocessed.smi:169|AV-procd|sdf|1404|dock6
  -GOLD-   2262019153D 1   1.00000     0.00000
 Structure written by MMmdl.
 56 60  0  0  0  0  0  0  0  0  2 V2000
  152.1226  143.2594  158.6988 C   0  0  0  0  0  0  0  0  0  0  0  0
  150.6207  143.3064  158.3646 C   0  0  0  0  0  0  0  0  0  0  0  0
  150.1575  142.1947  157.4931 N   0  3  2  0  0  0  0  0  0  0  0  0
  150.9496  142.0416  156.2466 C   0  0  0  0  0  0  0  0  0  0  0  0
  151.1781  140.5570  155.9046 C   0  0  0  0  0  0  0  0  0  0  0  0
  149.9124  139.7324  155.5881 C   0  0  2  0  0  0  0  0  0  0  0  0
  149.1213  140.2662  154.3889 C   0  0  0  0  0  0  0  0  0  0  0  0
  148.0375  141.1602  155.0028 C   0  0  0  0  0  0  0  0  0  0  0  0
  148.1361  140.9491  156.5278 C   0  0  2  0  0  0  0  0  0  0  0  0
  148.6824  142.1823  157.2899 C   0  0  0  0  0  0  0  0  0  0  0  0
  148.9666  139.7594  156.7014 N   0  0  0  0  0  0  0  0  0  0  0  0
  148.3029  138.6373  157.0814 C   0  0  0  0  0  0  0  0  0  0  0  0
  147.2959  138.1341  156.3198 N   0  0  0  0  0  0  0  0  0  0  0  0
  146.6419  137.0347  156.7071 C   0  0  0  0  0  0  0  0  0  0  0  0
  146.8293  136.2949  157.8018 N   0  0  0  0  0  0  0  0  0  0  0  0
  147.8385  136.7950  158.5706 C   0  0  0  0  0  0  0  0  0  0  0  0
  148.6222  137.9473  158.2838 C   0  0  0  0  0  0  0  0  0  0  0  0
  149.5688  138.1391  159.2827 N   0  0  0  0  0  0  0  0  0  0  0  0
  149.3516  137.1589  160.1168 C   0  0  0  0  0  0  0  0  0  0  0  0
  148.3191  136.3129  159.7762 N   0  0  0  0  0  0  0  0  0  0  0  0
  147.8605  135.1453  160.5161 C   0  0  0  0  0  0  0  0  0  0  0  0
  147.1158  135.4625  161.8358 C   0  0  0  0  0  0  0  0  0  0  0  0
  146.7360  134.1319  162.5001 C   0  0  0  0  0  0  0  0  0  0  0  0
  145.8760  133.3721  161.6751 O   0  0  0  0  0  0  0  0  0  0  0  0
  147.7993  136.4837  162.7612 C   0  0  0  0  0  0  0  0  0  0  0  0
  146.9142  137.5405  162.3345 O   0  0  0  0  0  0  0  0  0  0  0  0
  146.0196  136.5422  161.7998 C   0  0  0  0  0  0  0  0  0  0  0  0
  152.3857  144.0750  159.3726 H   0  0  0  0  0  0  0  0  0  0  0  0
  152.7427  143.3667  157.8093 H   0  0  0  0  0  0  0  0  0  0  0  0
  152.4004  142.3285  159.1935 H   0  0  0  0  0  0  0  0  0  0  0  0
  150.0433  143.2857  159.2899 H   0  0  0  0  0  0  0  0  0  0  0  0
  150.3814  144.2573  157.8868 H   0  0  0  0  0  0  0  0  0  0  0  0
  150.4871  142.5852  155.4224 H   0  0  0  0  0  0  0  0  0  0  0  0
  151.9334  142.4923  156.3843 H   0  0  0  0  0  0  0  0  0  0  0  0
  151.8540  140.4968  155.0510 H   0  0  0  0  0  0  0  0  0  0  0  0
  151.7090  140.0819  156.7308 H   0  0  0  0  0  0  0  0  0  0  0  0
  150.2493  138.7184  155.3710 H   0  0  0  0  0  0  0  0  0  0  0  0
  149.7471  140.7932  153.6678 H   0  0  0  0  0  0  0  0  0  0  0  0
  148.6486  139.4355  153.8631 H   0  0  0  0  0  0  0  0  0  0  0  0
  148.1710  142.2038  154.7169 H   0  0  0  0  0  0  0  0  0  0  0  0
  147.0566  140.8537  154.6380 H   0  0  0  0  0  0  0  0  0  0  0  0
  147.1209  140.7712  156.8867 H   0  0  0  0  0  0  0  0  0  0  0  0
  148.2296  142.1813  158.2823 H   0  0  0  0  0  0  0  0  0  0  0  0
  148.3442  143.1013  156.8117 H   0  0  0  0  0  0  0  0  0  0  0  0
  145.8547  136.7014  156.0468 H   0  0  0  0  0  0  0  0  0  0  0  0
  149.9445  137.0273  161.0099 H   0  0  0  0  0  0  0  0  0  0  0  0
  147.2295  134.5631  159.8438 H   0  0  0  0  0  0  0  0  0  0  0  0
  148.7311  134.5196  160.7172 H   0  0  0  0  0  0  0  0  0  0  0  0
  147.6224  133.5397  162.7304 H   0  0  0  0  0  0  0  0  0  0  0  0
  146.2225  134.3010  163.4471 H   0  0  0  0  0  0  0  0  0  0  0  0
  145.2875  133.9614  161.2284 H   0  0  0  0  0  0  0  0  0  0  0  0
  147.6815  136.2684  163.8247 H   0  0  0  0  0  0  0  0  0  0  0  0
  148.8446  136.6813  162.5289 H   0  0  0  0  0  0  0  0  0  0  0  0
  145.6487  136.7895  160.8066 H   0  0  0  0  0  0  0  0  0  0  0  0
  145.1873  136.3454  162.4780 H   0  0  0  0  0  0  0  0  0  0  0  0
  150.3554  141.3598  158.0264 H   0  0  0  0  0  0  0  0  0  0  0  0
  1  2  1  0  0  0  0
  1 28  1  0  0  0  0
  1 29  1  0  0  0  0
  1 30  1  0  0  0  0
  2  3  1  0  0  0  0
  2 31  1  0  0  0  0
  2 32  1  0  0  0  0
  3 10  1  0  0  0  0
  3  4  1  0  0  0  0
  3 56  1  0  0  0  0
  4  5  1  0  0  0  0
  4 33  1  0  0  0  0
  4 34  1  0  0  0  0
  5  6  1  0  0  0  0
  5 35  1  0  0  0  0
  5 36  1  0  0  0  0
  6 11  1  0  0  0  0
  6  7  1  0  0  0  0
  6 37  1  0  0  0  0
  7  8  1  0  0  0  0
  7 38  1  0  0  0  0
  7 39  1  0  0  0  0
  8  9  1  0  0  0  0
  8 40  1  0  0  0  0
  8 41  1  0  0  0  0
  9 10  1  0  0  0  0
  9 11  1  0  0  0  0
  9 42  1  0  0  0  0
 10 43  1  0  0  0  0
 10 44  1  0  0  0  0
 11 12  1  0  0  0  0
 12 17  1  0  0  0  0
 12 13  2  0  0  0  0
 13 14  1  0  0  0  0
 14 15  2  0  0  0  0
 14 45  1  0  0  0  0
 15 16  1  0  0  0  0
 16 20  1  0  0  0  0
 16 17  2  0  0  0  0
 17 18  1  0  0  0  0
 18 19  2  0  0  0  0
 19 20  1  0  0  0  0
 19 46  1  0  0  0  0
 20 21  1  0  0  0  0
 21 22  1  0  0  0  0
 21 47  1  0  0  0  0
 21 48  1  0  0  0  0
 22 27  1  0  0  0  0
 22 23  1  0  0  0  0
 22 25  1  0  0  0  0
 23 24  1  0  0  0  0
 23 49  1  0  0  0  0
 23 50  1  0  0  0  0
 24 51  1  0  0  0  0
 25 26  1  0  0  0  0
 25 52  1  0  0  0  0
 25 53  1  0  0  0  0
 26 27  1  0  0  0  0
 27 54  1  0  0  0  0
 27 55  1  0  0  0  0
M  CHG  1   3   1
M  END
> <s_m_source_file>
AV-unprocessed.smi

> <i_m_source_file_index>
169

> <i_lp_mmshare_version>
43012

> <i_f3d_flags>
0

> <s_epik_input>
W0NASF0xMltDSDJdW0NIMl1OKFtDSDJdW0NIM10pW0NIMl1bQ0BIXShbQ0gyXVtDSDJdMSlOMmMobltjSF1uMyljKGMzNCluW2NIXW40W0NIMl1DNShbQ0gyXVtPSF0pW0NIMl1PW0NIMl01

> <s_epik_cmdline>
J2VwaWtfcHl0aG9uJywgJy1waCcsICc3LjAnLCAnLXRuJywgJzgnLCAnLW1hJywgJzIwMCcsICctbWV0YWxfYmluZGluZycsICctaW1hZScsICc8aW5maWxlLm1hZT4nLCAnLW9tYWUnLCAnPG91dGZpbGUubWFlPic=

> <r_lp_tautomer_probability>
1

> <r_epik_Ionization_Penalty>
0.00274162

> <r_epik_Ionization_Penalty_Charging>
0.00243722

> <r_epik_Ionization_Penalty_Neutral>
0.000304399

> <r_epik_State_Penalty>
-0

> <r_epik_Charging_Adjusted_Penalty>
0.00243722

> <i_epik_Tot_Q>
1

> <i_epik_Tot_abs_Q>
1

> <r_epik_Metal_State_Penalty>
-0

> <b_epik_Metal_Only>
0

> <s_lp_Force_Field>
OPLS_2005

> <r_lp_Energy>
74.1365

> <b_lp_Chiralities_Consistent>
1

> <s_lp_Variant>
AV-unprocessed.smi:169-7

> <Gold.Version>
5.8.1

> <Gold.Id.Protein>
6NUR|6NUR_protein|mol2

> <Gold.PLP.Fitness>
41.1898

> <Gold.PLP.PLP>
-40.2839

> <Gold.PLP.part.hbond>
-3.0000

> <Gold.PLP.part.metal>
0.0000

> <Gold.PLP.part.buried>
-2.8087

> <Gold.PLP.part.nonpolar>
-32.8558

> <Gold.PLP.part.repulsive>
0.0314

> <Gold.PLP.ligand.clash>
0.0000

> <Gold.PLP.ligand.torsion>
0.4338

> <Gold.PLP.Chemscore.Hbond>
0.4160

> <Gold.PLP.Chemscore.CHOScore>
0.0000

> <Gold.PLP.Chemscore.Metal>
0.0000

> <Gold.Chemscore.Hbonds>
donor molecule, donor type, donor heavy atom, donor atom, acceptor molecule, acceptor atom, score
      P1  H  6934  6947       L1    26  0.58

> <Gold.PLP.Chemscore.Internal.Correction>
0.5255

> <Gold.Rescore>
     Score         DG    S(hbond)    S(metal)    S(lipo)     H(rot)  DE(clash)    DE(int)     intcor
     11.50     -12.73       0.82        0.00      95.93       2.62       0.47       0.77       ----

> <Gold.Chemscore.Fitness>
11.4986

> <Gold.Chemscore.DG>
-12.7347

> <Gold.Chemscore.ZeroCoef>
-5.4800

> <Gold.Chemscore.Hbond>
0.8205

> <Gold.Chemscore.Metal>
0.0000

> <Gold.Chemscore.Lipo>
95.9341

> <Gold.Chemscore.Internal_Hbond>
0.0000

> <Gold.Chemscore.DEClash>
0.4684

> <Gold.Chemscore.DEInternal>
0.7677

> <Gold.Chemscore.Rot>
2.6212

> <Gold.Chemscore.Internal.Correction>
   9.000000E+99

> <Gold.Chemscore.Hbonds>
donor molecule, donor type, donor heavy atom, donor atom, acceptor molecule, acceptor atom, score
      P1  H  6934  6947       L1    26  0.41

> <Gold.Chemscore.Hbond.Weighted>
-2.7406

> <Gold.Chemscore.Metal.Weighted>
-0.0000

> <Gold.Chemscore.Lipo.Weighted>
-11.2243

> <Gold.Chemscore.Internal_Hbond.Weighted>
0.0000

> <Gold.Chemscore.DEClash.Weighted>
0.4684

> <Gold.Chemscore.DEInternal.Weighted>
0.7677

> <Gold.Chemscore.Rot.Weighted>
6.7102

> <Gold.Chemscore.Internal.Correction.Weighted>
   9.000000E+99

> <Gold.Protein.RotatedTorsions>
[ 6907 6896 6895 6894 ] final  -84.73 input  -60.11 | X-H torsion
[ 7974 7965 7964 7962 ] final -173.05 input  175.53 | X-H torsion
[ 8008 7997 7996 7995 ] final -166.52 input   59.86 | X-H torsion
[ 10167 10162 10161 10158 ] final  174.14 input  -65.29 | X-H torsion
[ 10718 10713 10712 10709 ] final  174.57 input   66.30 | X-H torsion
[ 10763 10752 10751 10750 ] final   92.90 input  -60.55 | X-H torsion
[ 11005 11000 10999 10996 ] final  138.49 input  -57.11 | X-H torsion

> <Gold.Protein.ActiveResidues>
 VAL166  LYS551  ARG553  GLY616  TRP617  ASP618  TYR619  PRO620  LYS621  CYS622 
 ASP623  PHE694  ASN695  SER759  ASP760  ASP761  ALA762  ILE779  LEU786  VAL792 
 PHE793  MET794  SER795  GLU796  ALA797  LYS798  CYS799  TRP800  GLU811  SER814 

> <Gold.Protein.RotatedAtoms>
  150.6874  134.3313  159.4827 H   0  0  0  0  0  0  0  0  0  0  0  0  # atno 6907 bound_to 6896
  152.1177  134.9226  160.0573 H   0  0  0  0  0  0  0  0  0  0  0  0  # atno 6908 bound_to 6896
  152.0444  133.3956  159.4387 H   0  0  0  0  0  0  0  0  0  0  0  0  # atno 6909 bound_to 6896
  144.7141  140.1680  143.6370 H   0  0  0  0  0  0  0  0  0  0  0  0  # atno 7974 bound_to 7965
  155.8649  140.0984  157.1589 H   0  0  0  0  0  0  0  0  0  0  0  0  # atno 8008 bound_to 7997
  154.3993  140.1358  156.4069 H   0  0  0  0  0  0  0  0  0  0  0  0  # atno 8009 bound_to 7997
  155.7815  140.3458  155.5302 H   0  0  0  0  0  0  0  0  0  0  0  0  # atno 8010 bound_to 7997
  139.5132  144.3180  152.0229 H   0  0  0  0  0  0  0  0  0  0  0  0  # atno 10167 bound_to 10162
  156.9476  131.0021  151.2955 H   0  0  0  0  0  0  0  0  0  0  0  0  # atno 10718 bound_to 10713
  153.2243  135.4345  155.0524 H   0  0  0  0  0  0  0  0  0  0  0  0  # atno 10763 bound_to 10752
  154.8265  135.3364  154.6882 H   0  0  0  0  0  0  0  0  0  0  0  0  # atno 10764 bound_to 10752
  153.7312  135.7011  153.5045 H   0  0  0  0  0  0  0  0  0  0  0  0  # atno 10765 bound_to 10752
  140.0187  134.9406  157.0429 H   0  0  0  0  0  0  0  0  0  0  0  0  # atno 11005 bound_to 11000
  145.8969  139.2408  143.1516 LP  0  0  0  0  0  0  0  0  0  0  0  0  # atno 17320 bound_to 7965
  145.9849  140.8652  143.0096 LP  0  0  0  0  0  0  0  0  0  0  0  0  # atno 17321 bound_to 7965
  140.2623  144.4054  150.6181 LP  0  0  0  0  0  0  0  0  0  0  0  0  # atno 17342 bound_to 10162
  140.6148  143.2171  151.6813 LP  0  0  0  0  0  0  0  0  0  0  0  0  # atno 17343 bound_to 10162
  157.5743  130.8332  149.8435 LP  0  0  0  0  0  0  0  0  0  0  0  0  # atno 17370 bound_to 10713
  156.0377  130.3747  150.1517 LP  0  0  0  0  0  0  0  0  0  0  0  0  # atno 17371 bound_to 10713
  140.4425  134.1666  155.7175 LP  0  0  0  0  0  0  0  0  0  0  0  0  # atno 17394 bound_to 11000
  141.1760  133.8513  157.1420 LP  0  0  0  0  0  0  0  0  0  0  0  0  # atno 17395 bound_to 11000

$$$$
