#       Name:                AV-unprocessed.smi:2173
#       Creating user name   scv26
#       Creation time:       Fri Mar 27 12:03:12 2020


#       File generated by GOLD software.
#

@<TRIPOS>MOLECULE
AV-unprocessed.smi:2173
    38    39     1
SMALL
NO_CHARGES


@<TRIPOS>ATOM
      1 ****         0.6429   1.3716   0.7500 O.2            1 S1                 0.0000
      2 ****         0.2197   0.2734   1.1130 C.2            1 S1                 0.0000
      3 ****         1.0195  -0.7537   1.4423 N.am           1 S1                 0.0000
      4 ****         2.4786  -0.7504   1.3716 C.3            1 S1                 0.0000
      5 ****         3.0127  -1.3838   0.0707 C.3            1 S1                 0.0000
      6 ****         2.5259  -0.6981  -1.1955 C.ar           1 S1                 0.0000
      7 ****         3.2037   0.4301  -1.7041 C.ar           1 S1                 0.0000
      8 ****         2.6907   1.0587  -2.8551 C.ar           1 S1                 0.0000
      9 ****         1.5260   0.5374  -3.4509 C.ar           1 S1                 0.0000
     10 ****         0.9239  -0.5945  -2.8667 C.ar           1 S1                 0.0000
     11 ****         1.4081  -1.2053  -1.7642 N.ar           1 S1                 0.0000
     12 ****        -1.2898   0.0115   1.1843 C.3            1 S1                 0.0000
     13 ****        -1.9003  -0.0699  -0.2334 C.3            1 S1                 0.0000
     14 ****        -3.4184  -0.0781  -0.2037 C.2            1 S1                 0.0000
     15 ****        -4.1380   0.2824   0.8728 C.2            1 S1                 0.0000
     16 ****        -3.5150   0.7448   2.1784 C.3            1 S1                 0.0000
     17 ****        -2.0190   1.0792   2.0246 C.3            1 S1                 0.0000
     18 ****         0.5810  -1.6176   1.7266 H              1 S1                 0.0000
     19 ****         2.8663   0.2640   1.4789 H              1 S1                 0.0000
     20 ****         2.8572  -1.3093   2.2275 H              1 S1                 0.0000
     21 ****         4.1030  -1.3686   0.0796 H              1 S1                 0.0000
     22 ****         2.7291  -2.4369   0.0349 H              1 S1                 0.0000
     23 ****         4.0885   0.8126  -1.2170 H              1 S1                 0.0000
     24 ****         3.1790   1.9276  -3.2708 H              1 S1                 0.0000
     25 ****         1.1031   0.9949  -4.3328 H              1 S1                 0.0000
     26 ****         0.0280  -1.0194  -3.2943 H              1 S1                 0.0000
     27 ****        -1.4437  -0.9516   1.6752 H              1 S1                 0.0000
     28 ****        -1.5789   0.7687  -0.8529 H              1 S1                 0.0000
     29 ****        -1.5581  -0.9787  -0.7298 H              1 S1                 0.0000
     30 ****        -3.9216  -0.3832  -1.1095 H              1 S1                 0.0000
     31 ****        -5.2167   0.2403   0.8354 H              1 S1                 0.0000
     32 ****        -4.0553   1.6173   2.5464 H              1 S1                 0.0000
     33 ****        -3.6495  -0.0476   2.9154 H              1 S1                 0.0000
     34 ****        -1.5612   1.1776   3.0098 H              1 S1                 0.0000
     35 ****        -1.9209   2.0532   1.5418 H              1 S1                 0.0000
     36 ****         1.6280   1.5326   0.6890 LP             1 S1                 0.0000
     37 ****         0.0014   2.1023   0.5164 LP             1 S1                 0.0000
     38 ****         0.9539  -2.0088  -1.3794 LP             1 S1                 0.0000
@<TRIPOS>BOND
    1    1    2 2     
    2    2    3 am    
    3    2   12 1     
    4    3    4 1     
    5    3   18 1     
    6    4    5 1     
    7    4   19 1     
    8    4   20 1     
    9    5    6 1     
   10    5   21 1     
   11    5   22 1     
   12    6   11 ar    
   13    6    7 ar    
   14    7    8 ar    
   15    7   23 1     
   16    8    9 ar    
   17    8   24 1     
   18    9   10 ar    
   19    9   25 1     
   20   10   11 ar    
   21   10   26 1     
   22   12   17 1     
   23   12   13 1     
   24   12   27 1     
   25   13   14 1     
   26   13   28 1     
   27   13   29 1     
   28   14   15 2     
   29   14   30 1     
   30   15   16 1     
   31   15   31 1     
   32   16   17 1     
   33   16   32 1     
   34   16   33 1     
   35   17   34 1     
   36   17   35 1     
   37    1   36 1     
   38    1   37 1     
   39   11   38 1     
@<TRIPOS>SUBSTRUCTURE
      1 S1             1
@<TRIPOS>SET
LONE_PAIRS      STATIC     ATOMS    <user>   **** ""
3 36 37 38
DONOR_HYDROGENS      STATIC     ATOMS    <user>   **** ""
1 18
ATOM$BLUE        STATIC     ATOMS    COLORGROUP SYSTEM
3 36 37 38
ATOM$RED        STATIC     ATOMS    COLORGROUP SYSTEM
1 18
