AV-unprocessed.smi:1075|AV-procd|sdf|4693|dock9
  -GOLD-   22720 3213D 1   1.00000     0.00000
 Structure written by MMmdl.
 50 51  0  0  0  0  0  0  0  0  1 V2000
  149.4807  136.9982  158.5894 C   0  0  0  0  0  0  0  0  0  0  0  0
  148.8963  135.7145  158.0727 C   0  0  0  0  0  0  0  0  0  0  0  0
  149.7069  134.7420  157.6929 N   0  0  0  0  0  0  0  0  0  0  0  0
  148.8887  133.7543  157.2806 N   0  0  0  0  0  0  0  0  0  0  0  0
  149.4627  132.5171  156.7876 C   0  0  0  0  0  0  0  0  0  0  0  0
  147.5572  134.1040  157.3960 C   0  0  0  0  0  0  0  0  0  0  0  0
  146.4612  133.1719  156.9852 C   0  0  0  0  0  0  0  0  0  0  0  0
  147.5199  135.3742  157.9152 C   0  0  0  0  0  0  0  0  0  0  0  0
  146.3297  136.2565  158.2443 C   0  0  2  0  0  0  0  0  0  0  0  0
  146.2431  137.4630  157.2903 C   0  0  0  0  0  0  0  0  0  0  0  0
  146.3463  136.6608  159.7309 C   0  0  0  0  0  0  0  0  0  0  0  0
  146.1857  137.8361  160.0601 O   0  0  0  0  0  0  0  0  0  0  0  0
  146.5296  135.6623  160.6148 N   0  0  0  0  0  0  0  0  0  0  0  0
  146.6009  135.7231  162.0803 C   0  0  1  0  0  0  0  0  0  0  0  0
  148.0145  136.1596  162.5225 C   0  0  0  0  0  0  0  0  0  0  0  0
  145.5277  136.6817  162.6584 C   0  0  0  0  0  0  0  0  0  0  0  0
  144.0906  136.2112  162.3675 C   0  0  0  0  0  0  0  0  0  0  0  0
  143.8444  134.7869  162.8979 C   0  0  1  0  0  0  0  0  0  0  0  0
  142.4164  134.3128  162.5939 C   0  0  0  0  0  0  0  0  0  0  0  0
  144.8940  133.8129  162.3327 C   0  0  0  0  0  0  0  0  0  0  0  0
  146.3285  134.2975  162.6169 C   0  0  0  0  0  0  0  0  0  0  0  0
  149.1540  137.8440  157.9838 H   0  0  0  0  0  0  0  0  0  0  0  0
  150.5712  136.9828  158.5748 H   0  0  0  0  0  0  0  0  0  0  0  0
  149.1660  137.1828  159.6167 H   0  0  0  0  0  0  0  0  0  0  0  0
  149.0191  131.6718  157.3137 H   0  0  0  0  0  0  0  0  0  0  0  0
  150.5419  132.5017  156.9470 H   0  0  0  0  0  0  0  0  0  0  0  0
  149.2605  132.4197  155.7209 H   0  0  0  0  0  0  0  0  0  0  0  0
  145.5069  133.6896  156.8975 H   0  0  0  0  0  0  0  0  0  0  0  0
  146.3431  132.3712  157.7153 H   0  0  0  0  0  0  0  0  0  0  0  0
  146.6753  132.7195  156.0167 H   0  0  0  0  0  0  0  0  0  0  0  0
  145.4070  135.6904  158.1125 H   0  0  0  0  0  0  0  0  0  0  0  0
  147.1131  138.1143  157.3746 H   0  0  0  0  0  0  0  0  0  0  0  0
  145.3567  138.0661  157.4892 H   0  0  0  0  0  0  0  0  0  0  0  0
  146.1802  137.1308  156.2537 H   0  0  0  0  0  0  0  0  0  0  0  0
  146.6460  134.7402  160.2198 H   0  0  0  0  0  0  0  0  0  0  0  0
  148.1224  136.1046  163.6062 H   0  0  0  0  0  0  0  0  0  0  0  0
  148.2369  137.1867  162.2342 H   0  0  0  0  0  0  0  0  0  0  0  0
  148.7821  135.5202  162.0847 H   0  0  0  0  0  0  0  0  0  0  0  0
  145.6573  136.7556  163.7391 H   0  0  0  0  0  0  0  0  0  0  0  0
  145.6638  137.6945  162.2793 H   0  0  0  0  0  0  0  0  0  0  0  0
  143.3837  136.9039  162.8254 H   0  0  0  0  0  0  0  0  0  0  0  0
  143.8992  136.2473  161.2942 H   0  0  0  0  0  0  0  0  0  0  0  0
  143.9589  134.8095  163.9828 H   0  0  0  0  0  0  0  0  0  0  0  0
  142.2348  134.2645  161.5197 H   0  0  0  0  0  0  0  0  0  0  0  0
  141.6782  134.9886  163.0264 H   0  0  0  0  0  0  0  0  0  0  0  0
  142.2361  133.3200  163.0074 H   0  0  0  0  0  0  0  0  0  0  0  0
  144.7538  132.8235  162.7693 H   0  0  0  0  0  0  0  0  0  0  0  0
  144.7486  133.6927  161.2582 H   0  0  0  0  0  0  0  0  0  0  0  0
  147.0417  133.5917  162.1882 H   0  0  0  0  0  0  0  0  0  0  0  0
  146.4962  134.2745  163.6947 H   0  0  0  0  0  0  0  0  0  0  0  0
  1  2  1  0  0  0  0
  1 22  1  0  0  0  0
  1 23  1  0  0  0  0
  1 24  1  0  0  0  0
  2  8  1  0  0  0  0
  2  3  2  0  0  0  0
  3  4  1  0  0  0  0
  4  5  1  0  0  0  0
  4  6  1  0  0  0  0
  5 25  1  0  0  0  0
  5 26  1  0  0  0  0
  5 27  1  0  0  0  0
  6  7  1  0  0  0  0
  6  8  2  0  0  0  0
  7 28  1  0  0  0  0
  7 29  1  0  0  0  0
  7 30  1  0  0  0  0
  8  9  1  0  0  0  0
  9 10  1  0  0  0  0
  9 11  1  0  0  0  0
  9 31  1  0  0  0  0
 10 32  1  0  0  0  0
 10 33  1  0  0  0  0
 10 34  1  0  0  0  0
 11 12  2  0  0  0  0
 11 13  1  0  0  0  0
 13 14  1  0  0  0  0
 13 35  1  0  0  0  0
 14 21  1  0  0  0  0
 14 15  1  0  0  0  0
 14 16  1  0  0  0  0
 15 36  1  0  0  0  0
 15 37  1  0  0  0  0
 15 38  1  0  0  0  0
 16 17  1  0  0  0  0
 16 39  1  0  0  0  0
 16 40  1  0  0  0  0
 17 18  1  0  0  0  0
 17 41  1  0  0  0  0
 17 42  1  0  0  0  0
 18 19  1  0  0  0  0
 18 20  1  0  0  0  0
 18 43  1  0  0  0  0
 19 44  1  0  0  0  0
 19 45  1  0  0  0  0
 19 46  1  0  0  0  0
 20 21  1  0  0  0  0
 20 47  1  0  0  0  0
 20 48  1  0  0  0  0
 21 49  1  0  0  0  0
 21 50  1  0  0  0  0
M  END
> <s_m_source_file>
AV-unprocessed.smi

> <i_m_source_file_index>
1075

> <i_lp_mmshare_version>
43012

> <i_f3d_flags>
0

> <s_epik_input>
W0NIM11jMW5uKFtDSDNdKWMoW0NIM10pYzFbQ0BIXShbQ0gzXSlDKD1PKVtOSF1bQ0BAXTIoW0NIM10pW0NIMl1bQ0gyXVtDQEBIXShbQ0gzXSlbQ0gyXVtDSDJdMg==

> <s_epik_cmdline>
J2VwaWtfcHl0aG9uJywgJy1waCcsICc3LjAnLCAnLXRuJywgJzgnLCAnLW1hJywgJzIwMCcsICctbWV0YWxfYmluZGluZycsICctaW1hZScsICc8aW5maWxlLm1hZT4nLCAnLW9tYWUnLCAnPG91dGZpbGUubWFlPic=

> <r_lp_tautomer_probability>
1

> <r_epik_Ionization_Penalty>
0.00502928

> <r_epik_Ionization_Penalty_Charging>
0

> <r_epik_Ionization_Penalty_Neutral>
0.00502928

> <r_epik_State_Penalty>
0.0036576

> <r_epik_Charging_Adjusted_Penalty>
0.0036576

> <i_epik_Tot_Q>
0

> <i_epik_Tot_abs_Q>
0

> <r_epik_Metal_State_Penalty>
-0

> <b_epik_Metal_Only>
0

> <s_lp_Force_Field>
OPLS_2005

> <r_lp_Energy>
4.57547

> <b_lp_Chiralities_Consistent>
1

> <s_lp_Variant>
AV-unprocessed.smi:1075-1

> <Gold.Version>
5.8.1

> <Gold.Id.Protein>
6NUR|6NUR_protein|mol2

> <Gold.PLP.Fitness>
33.3575

> <Gold.PLP.PLP>
-28.8916

> <Gold.PLP.part.hbond>
-2.0000

> <Gold.PLP.part.metal>
0.0000

> <Gold.PLP.part.buried>
-4.3512

> <Gold.PLP.part.nonpolar>
-22.2710

> <Gold.PLP.part.repulsive>
0.0444

> <Gold.PLP.ligand.clash>
0.0000

> <Gold.PLP.ligand.torsion>
0.6317

> <Gold.PLP.Chemscore.Hbond>
1.8800

> <Gold.PLP.Chemscore.CHOScore>
0.0000

> <Gold.PLP.Chemscore.Metal>
0.0000

> <Gold.Chemscore.Hbonds>
donor molecule, donor type, donor heavy atom, donor atom, acceptor molecule, acceptor atom, score
      P1  H  6896  6907       L1     3  0.88
      P1  H  6934  6947       L1    12  1.00

> <Gold.PLP.Chemscore.Internal.Correction>
0.0893

> <Gold.Rescore>
     Score         DG    S(hbond)    S(metal)    S(lipo)     H(rot)  DE(clash)    DE(int)     intcor
     14.66     -16.82       1.64        0.00      77.15       1.23       0.38       1.78       ----

> <Gold.Chemscore.Fitness>
14.6618

> <Gold.Chemscore.DG>
-16.8166

> <Gold.Chemscore.ZeroCoef>
-5.4800

> <Gold.Chemscore.Hbond>
1.6361

> <Gold.Chemscore.Metal>
0.0000

> <Gold.Chemscore.Lipo>
77.1452

> <Gold.Chemscore.Internal_Hbond>
0.0000

> <Gold.Chemscore.DEClash>
0.3759

> <Gold.Chemscore.DEInternal>
1.7790

> <Gold.Chemscore.Rot>
1.2321

> <Gold.Chemscore.Internal.Correction>
   9.000000E+99

> <Gold.Chemscore.Hbonds>
donor molecule, donor type, donor heavy atom, donor atom, acceptor molecule, acceptor atom, score
      P1  H  6896  6907       L1     3  0.17
      P1  H  6934  6947       L1    12  0.96

> <Gold.Chemscore.Hbond.Weighted>
-5.4647

> <Gold.Chemscore.Metal.Weighted>
-0.0000

> <Gold.Chemscore.Lipo.Weighted>
-9.0260

> <Gold.Chemscore.Internal_Hbond.Weighted>
0.0000

> <Gold.Chemscore.DEClash.Weighted>
0.3759

> <Gold.Chemscore.DEInternal.Weighted>
1.7790

> <Gold.Chemscore.Rot.Weighted>
3.1541

> <Gold.Chemscore.Internal.Correction.Weighted>
   9.000000E+99

> <Gold.Protein.RotatedTorsions>
[ 6907 6896 6895 6894 ] final  -79.82 input  -60.11 | X-H torsion
[ 7974 7965 7964 7962 ] final    4.86 input  175.53 | X-H torsion
[ 8008 7997 7996 7995 ] final -105.69 input   59.86 | X-H torsion
[ 10167 10162 10161 10158 ] final  -88.30 input  -65.29 | X-H torsion
[ 10718 10713 10712 10709 ] final  -10.16 input   66.30 | X-H torsion
[ 10763 10752 10751 10750 ] final  177.34 input  -60.55 | X-H torsion
[ 11005 11000 10999 10996 ] final   66.30 input  -57.11 | X-H torsion

> <Gold.Protein.ActiveResidues>
 VAL166  LYS551  ARG553  GLY616  TRP617  ASP618  TYR619  PRO620  LYS621  CYS622 
 ASP623  PHE694  ASN695  SER759  ASP760  ASP761  ALA762  ILE779  LEU786  VAL792 
 PHE793  MET794  SER795  GLU796  ALA797  LYS798  CYS799  TRP800  GLU811  SER814 

> <Gold.Protein.RotatedAtoms>
  150.6942  134.4063  159.5141 H   0  0  0  0  0  0  0  0  0  0  0  0  # atno 6907 bound_to 6896
  152.1829  134.8736  160.0534 H   0  0  0  0  0  0  0  0  0  0  0  0  # atno 6908 bound_to 6896
  151.9720  133.3694  159.4111 H   0  0  0  0  0  0  0  0  0  0  0  0  # atno 6909 bound_to 6896
  146.2442  140.0470  142.8378 H   0  0  0  0  0  0  0  0  0  0  0  0  # atno 7974 bound_to 7965
  154.9035  140.0412  157.1906 H   0  0  0  0  0  0  0  0  0  0  0  0  # atno 8008 bound_to 7997
  154.8419  140.2916  155.5632 H   0  0  0  0  0  0  0  0  0  0  0  0  # atno 8009 bound_to 7997
  156.2992  140.2481  156.3363 H   0  0  0  0  0  0  0  0  0  0  0  0  # atno 8010 bound_to 7997
  140.3761  143.2771  151.9441 H   0  0  0  0  0  0  0  0  0  0  0  0  # atno 10167 bound_to 10162
  156.6775  130.5027  149.5981 H   0  0  0  0  0  0  0  0  0  0  0  0  # atno 10718 bound_to 10713
  154.4932  135.2780  155.1480 H   0  0  0  0  0  0  0  0  0  0  0  0  # atno 10763 bound_to 10752
  154.3143  135.6222  153.5483 H   0  0  0  0  0  0  0  0  0  0  0  0  # atno 10764 bound_to 10752
  152.9891  135.5727  154.5358 H   0  0  0  0  0  0  0  0  0  0  0  0  # atno 10765 bound_to 10752
  139.9840  134.6697  156.0209 H   0  0  0  0  0  0  0  0  0  0  0  0  # atno 11005 bound_to 11000
  145.1018  140.9350  143.4708 LP  0  0  0  0  0  0  0  0  0  0  0  0  # atno 17320 bound_to 7965
  145.0665  139.3064  143.5854 LP  0  0  0  0  0  0  0  0  0  0  0  0  # atno 17321 bound_to 7965
  139.4799  144.5862  151.7849 LP  0  0  0  0  0  0  0  0  0  0  0  0  # atno 17342 bound_to 10162
  140.4985  144.1204  150.5965 LP  0  0  0  0  0  0  0  0  0  0  0  0  # atno 17343 bound_to 10162
  156.1892  130.6549  151.1042 LP  0  0  0  0  0  0  0  0  0  0  0  0  # atno 17370 bound_to 10713
  157.7055  131.0758  150.6679 LP  0  0  0  0  0  0  0  0  0  0  0  0  # atno 17371 bound_to 10713
  141.1508  133.6549  156.4008 LP  0  0  0  0  0  0  0  0  0  0  0  0  # atno 17394 bound_to 11000
  140.5039  134.6459  157.5259 LP  0  0  0  0  0  0  0  0  0  0  0  0  # atno 17395 bound_to 11000

$$$$
