AV-unprocessed.smi:313|AV-procd|sdf|2311|dock5
  -GOLD-   2262022213D 1   1.00000     0.00000
 Structure written by MMmdl.
 50 51  0  0  0  0  0  0  0  0  1 V2000
  143.3297  134.3794  152.4052 C   0  0  0  0  0  0  0  0  0  0  0  0
  144.1013  135.6852  152.6471 C   0  0  0  0  0  0  0  0  0  0  0  0
  145.5529  135.4673  153.1136 C   0  0  2  0  0  0  0  0  0  0  0  0
  145.6514  135.3630  154.6428 C   0  0  0  0  0  0  0  0  0  0  0  0
  146.4010  136.5553  152.6340 N   0  0  0  0  0  0  0  0  0  0  0  0
  146.3046  137.8421  153.0008 C   0  0  0  0  0  0  0  0  0  0  0  0
  145.4406  138.2659  153.7702 O   0  0  0  0  0  0  0  0  0  0  0  0
  147.3504  138.7947  152.4010 C   0  0  1  0  0  0  0  0  0  0  0  0
  146.6189  139.8755  151.5875 C   0  0  0  0  0  0  0  0  0  0  0  0
  148.0934  139.4558  153.4713 N   0  0  0  0  0  0  0  0  0  0  0  0
  147.5781  140.3506  154.3317 C   0  0  0  0  0  0  0  0  0  0  0  0
  146.3900  140.6738  154.3469 O   0  0  0  0  0  0  0  0  0  0  0  0
  148.5407  140.9090  155.3382 C   0  0  0  0  0  0  0  0  0  0  0  0
  149.9367  140.8669  155.1326 C   0  0  0  0  0  0  0  0  0  0  0  0
  150.7895  141.4302  156.1009 C   0  0  0  0  0  0  0  0  0  0  0  0
  150.2272  142.0332  157.2509 C   0  0  0  0  0  0  0  0  0  0  0  0
  151.0632  142.6037  158.2353 N   0  0  0  0  0  0  0  0  0  0  0  0
  151.9164  141.6682  158.9641 C   0  0  0  0  0  0  0  0  0  0  0  0
  152.5284  142.3526  160.1982 C   0  0  0  0  0  0  0  0  0  0  0  0
  153.2180  143.5332  159.8020 O   0  0  0  0  0  0  0  0  0  0  0  0
  152.3444  144.4777  159.1927 C   0  0  0  0  0  0  0  0  0  0  0  0
  151.7264  143.8683  157.9231 C   0  0  0  0  0  0  0  0  0  0  0  0
  148.8858  142.0769  157.4430 N   0  0  0  0  0  0  0  0  0  0  0  0
  148.0717  141.5382  156.5107 C   0  0  0  0  0  0  0  0  0  0  0  0
  142.2969  134.5872  152.1255 H   0  0  0  0  0  0  0  0  0  0  0  0
  143.3120  133.7614  153.3031 H   0  0  0  0  0  0  0  0  0  0  0  0
  143.7752  133.7905  151.6029 H   0  0  0  0  0  0  0  0  0  0  0  0
  144.0912  136.2835  151.7351 H   0  0  0  0  0  0  0  0  0  0  0  0
  143.5680  136.2694  153.3980 H   0  0  0  0  0  0  0  0  0  0  0  0
  145.8975  134.5231  152.6875 H   0  0  0  0  0  0  0  0  0  0  0  0
  145.0351  134.5467  155.0203 H   0  0  0  0  0  0  0  0  0  0  0  0
  145.3181  136.2820  155.1262 H   0  0  0  0  0  0  0  0  0  0  0  0
  146.6773  135.1725  154.9599 H   0  0  0  0  0  0  0  0  0  0  0  0
  147.1426  136.3029  151.9969 H   0  0  0  0  0  0  0  0  0  0  0  0
  148.0367  138.2500  151.7493 H   0  0  0  0  0  0  0  0  0  0  0  0
  146.0359  139.4341  150.7781 H   0  0  0  0  0  0  0  0  0  0  0  0
  147.3302  140.5667  151.1346 H   0  0  0  0  0  0  0  0  0  0  0  0
  145.9387  140.4630  152.2062 H   0  0  0  0  0  0  0  0  0  0  0  0
  149.0763  139.2373  153.5449 H   0  0  0  0  0  0  0  0  0  0  0  0
  150.3595  140.4125  154.2484 H   0  0  0  0  0  0  0  0  0  0  0  0
  151.8582  141.3823  155.9555 H   0  0  0  0  0  0  0  0  0  0  0  0
  151.3681  140.7841  159.2855 H   0  0  0  0  0  0  0  0  0  0  0  0
  152.7088  141.3243  158.2979 H   0  0  0  0  0  0  0  0  0  0  0  0
  151.7566  142.5968  160.9298 H   0  0  0  0  0  0  0  0  0  0  0  0
  153.2313  141.6799  160.6898 H   0  0  0  0  0  0  0  0  0  0  0  0
  151.5676  144.7785  159.8975 H   0  0  0  0  0  0  0  0  0  0  0  0
  152.9104  145.3745  158.9411 H   0  0  0  0  0  0  0  0  0  0  0  0
  152.5026  143.6937  157.1770 H   0  0  0  0  0  0  0  0  0  0  0  0
  151.0137  144.5741  157.4948 H   0  0  0  0  0  0  0  0  0  0  0  0
  147.0136  141.6102  156.7168 H   0  0  0  0  0  0  0  0  0  0  0  0
  1  2  1  0  0  0  0
  1 25  1  0  0  0  0
  1 26  1  0  0  0  0
  1 27  1  0  0  0  0
  2  3  1  0  0  0  0
  2 28  1  0  0  0  0
  2 29  1  0  0  0  0
  3  4  1  0  0  0  0
  3  5  1  0  0  0  0
  3 30  1  0  0  0  0
  4 31  1  0  0  0  0
  4 32  1  0  0  0  0
  4 33  1  0  0  0  0
  5  6  1  0  0  0  0
  5 34  1  0  0  0  0
  6  7  2  0  0  0  0
  6  8  1  0  0  0  0
  8  9  1  0  0  0  0
  8 10  1  0  0  0  0
  8 35  1  0  0  0  0
  9 36  1  0  0  0  0
  9 37  1  0  0  0  0
  9 38  1  0  0  0  0
 10 11  1  0  0  0  0
 10 39  1  0  0  0  0
 11 12  2  0  0  0  0
 11 13  1  0  0  0  0
 13 24  1  0  0  0  0
 13 14  2  0  0  0  0
 14 15  1  0  0  0  0
 14 40  1  0  0  0  0
 15 16  2  0  0  0  0
 15 41  1  0  0  0  0
 16 17  1  0  0  0  0
 16 23  1  0  0  0  0
 17 22  1  0  0  0  0
 17 18  1  0  0  0  0
 18 19  1  0  0  0  0
 18 42  1  0  0  0  0
 18 43  1  0  0  0  0
 19 20  1  0  0  0  0
 19 44  1  0  0  0  0
 19 45  1  0  0  0  0
 20 21  1  0  0  0  0
 21 22  1  0  0  0  0
 21 46  1  0  0  0  0
 21 47  1  0  0  0  0
 22 48  1  0  0  0  0
 22 49  1  0  0  0  0
 23 24  2  0  0  0  0
 24 50  1  0  0  0  0
M  END
> <s_m_source_file>
AV-unprocessed.smi

> <i_m_source_file_index>
313

> <i_lp_mmshare_version>
43012

> <i_f3d_flags>
0

> <s_epik_input>
W0NIM11bQ0gyXVtDQEhdKFtDSDNdKVtOSF1DKD1PKVtDQEhdKFtDSDNdKVtOSF1DKD1PKWMxW2NIXVtjSF1jKG5bY0hdMSlOMltDSDJdW0NIMl1PW0NIMl1bQ0gyXTI=

> <s_epik_cmdline>
J2VwaWtfcHl0aG9uJywgJy1waCcsICc3LjAnLCAnLXRuJywgJzgnLCAnLW1hJywgJzIwMCcsICctbWV0YWxfYmluZGluZycsICctaW1hZScsICc8aW5maWxlLm1hZT4nLCAnLW9tYWUnLCAnPG91dGZpbGUubWFlPic=

> <r_lp_tautomer_probability>
1

> <r_epik_Ionization_Penalty>
9.96442e-06

> <r_epik_Ionization_Penalty_Charging>
0

> <r_epik_Ionization_Penalty_Neutral>
9.96442e-06

> <r_epik_State_Penalty>
-0

> <r_epik_Charging_Adjusted_Penalty>
0

> <i_epik_Tot_Q>
0

> <i_epik_Tot_abs_Q>
0

> <r_epik_Metal_State_Penalty>
-0

> <b_epik_Metal_Only>
0

> <s_lp_Force_Field>
OPLS_2005

> <r_lp_Energy>
19.146

> <b_lp_Chiralities_Consistent>
1

> <s_lp_Variant>
AV-unprocessed.smi:313-3

> <Gold.Version>
5.8.1

> <Gold.Id.Protein>
6NUR|6NUR_protein|mol2

> <Gold.PLP.Fitness>
37.0241

> <Gold.PLP.PLP>
-35.5730

> <Gold.PLP.part.hbond>
-2.0000

> <Gold.PLP.part.metal>
0.0000

> <Gold.PLP.part.buried>
-0.4528

> <Gold.PLP.part.nonpolar>
-35.9898

> <Gold.PLP.part.repulsive>
1.4684

> <Gold.PLP.ligand.clash>
0.0000

> <Gold.PLP.ligand.torsion>
0.7903

> <Gold.PLP.Chemscore.Hbond>
0.8800

> <Gold.PLP.Chemscore.CHOScore>
0.0000

> <Gold.PLP.Chemscore.Metal>
0.0000

> <Gold.Chemscore.Hbonds>
donor molecule, donor type, donor heavy atom, donor atom, acceptor molecule, acceptor atom, score
      L1  H     5    34       P1  7948  0.88

> <Gold.PLP.Chemscore.Internal.Correction>
0.3917

> <Gold.Rescore>
     Score         DG    S(hbond)    S(metal)    S(lipo)     H(rot)  DE(clash)    DE(int)     intcor
      9.91     -15.58       0.99        0.00      97.36       1.79       1.22       4.45       ----

> <Gold.Chemscore.Fitness>
9.9127

> <Gold.Chemscore.DG>
-15.5818

> <Gold.Chemscore.ZeroCoef>
-5.4800

> <Gold.Chemscore.Hbond>
0.9850

> <Gold.Chemscore.Metal>
0.0000

> <Gold.Chemscore.Lipo>
97.3594

> <Gold.Chemscore.Internal_Hbond>
0.0000

> <Gold.Chemscore.DEClash>
1.2217

> <Gold.Chemscore.DEInternal>
4.4474

> <Gold.Chemscore.Rot>
1.7888

> <Gold.Chemscore.Internal.Correction>
   9.000000E+99

> <Gold.Chemscore.Hbonds>
donor molecule, donor type, donor heavy atom, donor atom, acceptor molecule, acceptor atom, score
      L1  H     5    34       P1  7948  0.87

> <Gold.Chemscore.Hbond.Weighted>
-3.2901

> <Gold.Chemscore.Metal.Weighted>
-0.0000

> <Gold.Chemscore.Lipo.Weighted>
-11.3910

> <Gold.Chemscore.Internal_Hbond.Weighted>
0.0000

> <Gold.Chemscore.DEClash.Weighted>
1.2217

> <Gold.Chemscore.DEInternal.Weighted>
4.4474

> <Gold.Chemscore.Rot.Weighted>
4.5793

> <Gold.Chemscore.Internal.Correction.Weighted>
   9.000000E+99

> <Gold.Protein.RotatedTorsions>
[ 6907 6896 6895 6894 ] final  -50.21 input  -60.11 | X-H torsion
[ 7974 7965 7964 7962 ] final   11.82 input  175.53 | X-H torsion
[ 8008 7997 7996 7995 ] final  161.48 input   59.86 | X-H torsion
[ 10167 10162 10161 10158 ] final   66.38 input  -65.29 | X-H torsion
[ 10718 10713 10712 10709 ] final   59.70 input   66.30 | X-H torsion
[ 10763 10752 10751 10750 ] final  -74.08 input  -60.55 | X-H torsion
[ 11005 11000 10999 10996 ] final   36.28 input  -57.11 | X-H torsion

> <Gold.Protein.ActiveResidues>
 VAL166  LYS551  ARG553  GLY616  TRP617  ASP618  TYR619  PRO620  LYS621  CYS622 
 ASP623  PHE694  ASN695  SER759  ASP760  ASP761  ALA762  ILE779  LEU786  VAL792 
 PHE793  MET794  SER795  GLU796  ALA797  LYS798  CYS799  TRP800  GLU811  SER814 

> <Gold.Protein.RotatedAtoms>
  150.8729  134.8107  159.7168 H   0  0  0  0  0  0  0  0  0  0  0  0  # atno 6907 bound_to 6896
  152.4727  134.4917  159.9707 H   0  0  0  0  0  0  0  0  0  0  0  0  # atno 6908 bound_to 6896
  151.5003  133.3467  159.2903 H   0  0  0  0  0  0  0  0  0  0  0  0  # atno 6909 bound_to 6896
  146.2363  139.9428  142.8481 H   0  0  0  0  0  0  0  0  0  0  0  0  # atno 7974 bound_to 7965
  156.2100  140.1776  156.7716 H   0  0  0  0  0  0  0  0  0  0  0  0  # atno 8008 bound_to 7997
  154.5709  140.0683  156.8992 H   0  0  0  0  0  0  0  0  0  0  0  0  # atno 8009 bound_to 7997
  155.2675  140.3340  155.4270 H   0  0  0  0  0  0  0  0  0  0  0  0  # atno 8010 bound_to 7997
  140.1011  144.4903  150.7037 H   0  0  0  0  0  0  0  0  0  0  0  0  # atno 10167 bound_to 10162
  157.5696  130.8897  149.9244 H   0  0  0  0  0  0  0  0  0  0  0  0  # atno 10718 bound_to 10713
  154.4683  135.5876  153.6303 H   0  0  0  0  0  0  0  0  0  0  0  0  # atno 10763 bound_to 10752
  152.9831  135.6060  154.3399 H   0  0  0  0  0  0  0  0  0  0  0  0  # atno 10764 bound_to 10752
  154.3278  135.2843  155.2466 H   0  0  0  0  0  0  0  0  0  0  0  0  # atno 10765 bound_to 10752
  140.2341  134.3492  155.7952 H   0  0  0  0  0  0  0  0  0  0  0  0  # atno 11005 bound_to 11000
  145.1936  140.9823  143.4196 LP  0  0  0  0  0  0  0  0  0  0  0  0  # atno 17320 bound_to 7965
  144.9835  139.3759  143.6250 LP  0  0  0  0  0  0  0  0  0  0  0  0  # atno 17321 bound_to 7965
  140.6977  143.2414  151.4953 LP  0  0  0  0  0  0  0  0  0  0  0  0  # atno 17342 bound_to 10162
  139.5671  144.2017  152.1781 LP  0  0  0  0  0  0  0  0  0  0  0  0  # atno 17343 bound_to 10162
  156.0742  130.3681  150.0713 LP  0  0  0  0  0  0  0  0  0  0  0  0  # atno 17370 bound_to 10713
  156.8867  130.9575  151.3593 LP  0  0  0  0  0  0  0  0  0  0  0  0  # atno 17371 bound_to 10713
  141.2215  133.7262  156.8779 LP  0  0  0  0  0  0  0  0  0  0  0  0  # atno 17394 bound_to 11000
  140.1720  134.9093  157.2845 LP  0  0  0  0  0  0  0  0  0  0  0  0  # atno 17395 bound_to 11000

$$$$
