AV-unprocessed.smi:1276|AV-procd|sdf|5344|dock8
  -GOLD-   22720 4473D 1   1.00000     0.00000
 Structure written by MMmdl.
 44 45  0  0  0  0  0  0  0  0  1 V2000
  151.7989  144.1338  161.0861 C   0  0  0  0  0  0  0  0  0  0  0  0
  152.4507  142.8577  160.6265 C   0  0  0  0  0  0  0  0  0  0  0  0
  152.1301  142.4340  159.4483 N   0  0  0  0  0  0  0  0  0  0  0  0
  152.6660  141.2700  158.9318 N   0  0  0  0  0  0  0  0  0  0  0  0
  152.1724  140.9256  157.5902 C   0  0  0  0  0  0  0  0  0  0  0  0
  150.9850  141.7895  157.1404 C   0  0  0  0  0  0  0  0  0  0  0  0
  151.0153  143.0150  157.2619 O   0  0  0  0  0  0  0  0  0  0  0  0
  149.9502  141.1292  156.5973 N   0  0  0  0  0  0  0  0  0  0  0  0
  148.7182  141.7394  156.1009 C   0  0  0  0  0  0  0  0  0  0  0  0
  147.6165  141.5203  157.1599 C   0  0  0  0  0  0  0  0  0  0  0  0
  146.1605  141.7651  156.7225 C   0  0  0  0  0  0  0  0  0  0  0  0
  145.9445  142.8990  155.7082 C   0  0  0  0  0  0  0  0  0  0  0  0
  146.1344  142.4355  154.2542 C   0  0  0  0  0  0  0  0  0  0  0  0
  147.5945  142.2076  153.8368 C   0  0  0  0  0  0  0  0  0  0  0  0
  148.3740  141.1964  154.6965 C   0  0  0  0  0  0  0  0  0  0  0  0
  153.5668  140.4758  159.5791 C   0  0  0  0  0  0  0  0  0  0  0  0
  154.0244  139.4479  159.0769 O   0  0  0  0  0  0  0  0  0  0  0  0
  153.9266  140.9627  160.9127 C   0  0  0  0  0  0  0  0  0  0  0  0
  154.8643  140.1576  161.6269 C   0  0  0  0  0  0  0  0  0  0  0  0
  155.6106  139.5013  162.2204 N   0  0  0  0  0  0  0  0  0  0  0  0
  153.4028  142.1008  161.4331 C   0  0  0  0  0  0  0  0  0  0  0  0
  153.7423  142.6480  162.8128 C   0  0  0  0  0  0  0  0  0  0  0  0
  152.5466  144.9059  161.2678 H   0  0  0  0  0  0  0  0  0  0  0  0
  151.2443  143.9742  162.0109 H   0  0  0  0  0  0  0  0  0  0  0  0
  151.0977  144.5223  160.3459 H   0  0  0  0  0  0  0  0  0  0  0  0
  152.9700  141.0408  156.8540 H   0  0  0  0  0  0  0  0  0  0  0  0
  151.8933  139.8708  157.5550 H   0  0  0  0  0  0  0  0  0  0  0  0
  150.0153  140.1238  156.5320 H   0  0  0  0  0  0  0  0  0  0  0  0
  148.8891  142.8148  156.0224 H   0  0  0  0  0  0  0  0  0  0  0  0
  147.6754  140.5029  157.5497 H   0  0  0  0  0  0  0  0  0  0  0  0
  147.8377  142.1680  158.0094 H   0  0  0  0  0  0  0  0  0  0  0  0
  145.7436  140.8406  156.3208 H   0  0  0  0  0  0  0  0  0  0  0  0
  145.5735  141.9749  157.6174 H   0  0  0  0  0  0  0  0  0  0  0  0
  144.9160  143.2471  155.8103 H   0  0  0  0  0  0  0  0  0  0  0  0
  146.5738  143.7598  155.9365 H   0  0  0  0  0  0  0  0  0  0  0  0
  145.5557  141.5285  154.0764 H   0  0  0  0  0  0  0  0  0  0  0  0
  145.7074  143.1891  153.5917 H   0  0  0  0  0  0  0  0  0  0  0  0
  147.5994  141.8587  152.8036 H   0  0  0  0  0  0  0  0  0  0  0  0
  148.1243  143.1608  153.8247 H   0  0  0  0  0  0  0  0  0  0  0  0
  149.2978  140.9746  154.1602 H   0  0  0  0  0  0  0  0  0  0  0  0
  147.8396  140.2482  154.7656 H   0  0  0  0  0  0  0  0  0  0  0  0
  154.4843  142.0384  163.3274 H   0  0  0  0  0  0  0  0  0  0  0  0
  152.8515  142.6796  163.4407 H   0  0  0  0  0  0  0  0  0  0  0  0
  154.1463  143.6577  162.7370 H   0  0  0  0  0  0  0  0  0  0  0  0
  1  2  1  0  0  0  0
  1 23  1  0  0  0  0
  1 24  1  0  0  0  0
  1 25  1  0  0  0  0
  2 21  1  0  0  0  0
  2  3  2  0  0  0  0
  3  4  1  0  0  0  0
  4  5  1  0  0  0  0
  4 16  1  0  0  0  0
  5  6  1  0  0  0  0
  5 26  1  0  0  0  0
  5 27  1  0  0  0  0
  6  7  2  0  0  0  0
  6  8  1  0  0  0  0
  8  9  1  0  0  0  0
  8 28  1  0  0  0  0
  9 15  1  0  0  0  0
  9 10  1  0  0  0  0
  9 29  1  0  0  0  0
 10 11  1  0  0  0  0
 10 30  1  0  0  0  0
 10 31  1  0  0  0  0
 11 12  1  0  0  0  0
 11 32  1  0  0  0  0
 11 33  1  0  0  0  0
 12 13  1  0  0  0  0
 12 34  1  0  0  0  0
 12 35  1  0  0  0  0
 13 14  1  0  0  0  0
 13 36  1  0  0  0  0
 13 37  1  0  0  0  0
 14 15  1  0  0  0  0
 14 38  1  0  0  0  0
 14 39  1  0  0  0  0
 15 40  1  0  0  0  0
 15 41  1  0  0  0  0
 16 17  2  0  0  0  0
 16 18  1  0  0  0  0
 18 19  1  0  0  0  0
 18 21  2  0  0  0  0
 19 20  3  0  0  0  0
 21 22  1  0  0  0  0
 22 42  1  0  0  0  0
 22 43  1  0  0  0  0
 22 44  1  0  0  0  0
M  END
> <s_m_source_file>
AV-unprocessed.smi

> <i_m_source_file_index>
1276

> <i_lp_mmshare_version>
43012

> <i_f3d_flags>
0

> <s_epik_input>
TiNDYyhjMVtDSDNdKWMoPU8pbihuYzFbQ0gzXSlbQ0gyXUMoPU8pW05IXVtDSF0yW0NIMl1bQ0gyXVtDSDJdW0NIMl1bQ0gyXVtDSDJdMg==

> <s_epik_cmdline>
J2VwaWtfcHl0aG9uJywgJy1waCcsICc3LjAnLCAnLXRuJywgJzgnLCAnLW1hJywgJzIwMCcsICctbWV0YWxfYmluZGluZycsICctaW1hZScsICc8aW5maWxlLm1hZT4nLCAnLW9tYWUnLCAnPG91dGZpbGUubWFlPic=

> <r_lp_tautomer_probability>
1

> <r_epik_Ionization_Penalty>
2.02378e-08

> <r_epik_Ionization_Penalty_Charging>
2.27609e-11

> <r_epik_Ionization_Penalty_Neutral>
2.0215e-08

> <r_epik_State_Penalty>
-0

> <r_epik_Charging_Adjusted_Penalty>
2.27609e-11

> <i_epik_Tot_Q>
0

> <i_epik_Tot_abs_Q>
0

> <r_epik_Metal_State_Penalty>
-0

> <b_epik_Metal_Only>
0

> <s_lp_Force_Field>
OPLS_2005

> <r_lp_Energy>
30.1422

> <b_lp_Chiralities_Consistent>
1

> <s_lp_Variant>
AV-unprocessed.smi:1276-1

> <Gold.Version>
5.8.1

> <Gold.Id.Protein>
6NUR|6NUR_protein|mol2

> <Gold.PLP.Fitness>
44.3317

> <Gold.PLP.PLP>
-42.1759

> <Gold.PLP.part.hbond>
-1.0000

> <Gold.PLP.part.metal>
0.0000

> <Gold.PLP.part.buried>
-5.5941

> <Gold.PLP.part.nonpolar>
-34.3774

> <Gold.PLP.part.repulsive>
0.1742

> <Gold.PLP.ligand.clash>
0.0000

> <Gold.PLP.ligand.torsion>
0.4327

> <Gold.PLP.Chemscore.Hbond>
1.0000

> <Gold.PLP.Chemscore.CHOScore>
0.0000

> <Gold.PLP.Chemscore.Metal>
0.0000

> <Gold.Chemscore.Hbonds>
donor molecule, donor type, donor heavy atom, donor atom, acceptor molecule, acceptor atom, score
      P1  H  7997  8008       L1    17  0.81

> <Gold.PLP.Chemscore.Internal.Correction>
0.0213

> <Gold.Rescore>
     Score         DG    S(hbond)    S(metal)    S(lipo)     H(rot)  DE(clash)    DE(int)     intcor
     13.48     -15.73       0.97        0.00      91.99       1.46       0.18       2.07       ----

> <Gold.Chemscore.Fitness>
13.4754

> <Gold.Chemscore.DG>
-15.7317

> <Gold.Chemscore.ZeroCoef>
-5.4800

> <Gold.Chemscore.Hbond>
0.9673

> <Gold.Chemscore.Metal>
0.0000

> <Gold.Chemscore.Lipo>
91.9865

> <Gold.Chemscore.Internal_Hbond>
0.0000

> <Gold.Chemscore.DEClash>
0.1815

> <Gold.Chemscore.DEInternal>
2.0747

> <Gold.Chemscore.Rot>
1.4615

> <Gold.Chemscore.Internal.Correction>
   9.000000E+99

> <Gold.Chemscore.Hbonds>
donor molecule, donor type, donor heavy atom, donor atom, acceptor molecule, acceptor atom, score
      P1  H  7997  8008       L1    17  0.44

> <Gold.Chemscore.Hbond.Weighted>
-3.2306

> <Gold.Chemscore.Metal.Weighted>
-0.0000

> <Gold.Chemscore.Lipo.Weighted>
-10.7624

> <Gold.Chemscore.Internal_Hbond.Weighted>
0.0000

> <Gold.Chemscore.DEClash.Weighted>
0.1815

> <Gold.Chemscore.DEInternal.Weighted>
2.0747

> <Gold.Chemscore.Rot.Weighted>
3.7414

> <Gold.Chemscore.Internal.Correction.Weighted>
   9.000000E+99

> <Gold.Protein.RotatedTorsions>
[ 6907 6896 6895 6894 ] final   -9.91 input  -60.11 | X-H torsion
[ 7974 7965 7964 7962 ] final   84.36 input  175.53 | X-H torsion
[ 8008 7997 7996 7995 ] final -100.78 input   59.86 | X-H torsion
[ 10167 10162 10161 10158 ] final  -22.92 input  -65.29 | X-H torsion
[ 10718 10713 10712 10709 ] final  -57.68 input   66.30 | X-H torsion
[ 10763 10752 10751 10750 ] final  146.52 input  -60.55 | X-H torsion
[ 11005 11000 10999 10996 ] final -127.34 input  -57.11 | X-H torsion

> <Gold.Protein.ActiveResidues>
 VAL166  LYS551  ARG553  GLY616  TRP617  ASP618  TYR619  PRO620  LYS621  CYS622 
 ASP623  PHE694  ASN695  SER759  ASP760  ASP761  ALA762  ILE779  LEU786  VAL792 
 PHE793  MET794  SER795  GLU796  ALA797  LYS798  CYS799  TRP800  GLU811  SER814 

> <Gold.Protein.RotatedAtoms>
  151.4104  135.0984  159.9582 H   0  0  0  0  0  0  0  0  0  0  0  0  # atno 6907 bound_to 6896
  152.5022  133.8803  159.7353 H   0  0  0  0  0  0  0  0  0  0  0  0  # atno 6908 bound_to 6896
  150.9297  133.6725  159.2842 H   0  0  0  0  0  0  0  0  0  0  0  0  # atno 6909 bound_to 6896
  145.5997  139.2350  143.2252 H   0  0  0  0  0  0  0  0  0  0  0  0  # atno 7974 bound_to 7965
  154.8334  140.0438  157.1492 H   0  0  0  0  0  0  0  0  0  0  0  0  # atno 8008 bound_to 7997
  154.9127  140.3016  155.5237 H   0  0  0  0  0  0  0  0  0  0  0  0  # atno 8009 bound_to 7997
  156.2988  140.2355  156.4168 H   0  0  0  0  0  0  0  0  0  0  0  0  # atno 8010 bound_to 7997
  140.7287  143.4490  151.0544 H   0  0  0  0  0  0  0  0  0  0  0  0  # atno 10167 bound_to 10162
  156.1192  130.4167  150.0474 H   0  0  0  0  0  0  0  0  0  0  0  0  # atno 10718 bound_to 10713
  154.0233  135.2904  155.3378 H   0  0  0  0  0  0  0  0  0  0  0  0  # atno 10763 bound_to 10752
  154.7033  135.5179  153.8561 H   0  0  0  0  0  0  0  0  0  0  0  0  # atno 10764 bound_to 10752
  153.0671  135.6635  154.0453 H   0  0  0  0  0  0  0  0  0  0  0  0  # atno 10765 bound_to 10752
  140.9607  134.0940  157.3971 H   0  0  0  0  0  0  0  0  0  0  0  0  # atno 11005 bound_to 11000
  146.1585  140.6822  142.9288 LP  0  0  0  0  0  0  0  0  0  0  0  0  # atno 17320 bound_to 7965
  144.7315  140.4685  143.6934 LP  0  0  0  0  0  0  0  0  0  0  0  0  # atno 17321 bound_to 7965
  139.8165  143.7879  152.3174 LP  0  0  0  0  0  0  0  0  0  0  0  0  # atno 17342 bound_to 10162
  139.7947  144.7397  150.9907 LP  0  0  0  0  0  0  0  0  0  0  0  0  # atno 17343 bound_to 10162
  156.8417  130.9428  151.3631 LP  0  0  0  0  0  0  0  0  0  0  0  0  # atno 17370 bound_to 10713
  157.6375  130.8779  149.9387 LP  0  0  0  0  0  0  0  0  0  0  0  0  # atno 17371 bound_to 10713
  139.8877  135.0092  156.6577 LP  0  0  0  0  0  0  0  0  0  0  0  0  # atno 17394 bound_to 11000
  140.7471  133.8928  155.8320 LP  0  0  0  0  0  0  0  0  0  0  0  0  # atno 17395 bound_to 11000

$$$$
