AV-unprocessed.smi:1709|AV-procd|sdf|6898|dock1
  -GOLD-   22720 8103D 1   1.00000     0.00000
 Structure written by MMmdl.
 43 45  0  0  0  0  0  0  0  0  2 V2000
  147.9677  133.5320  160.0035 C   0  0  0  0  0  0  0  0  0  0  0  0
  147.6539  134.6950  160.9316 C   0  0  0  0  0  0  0  0  0  0  0  0
  147.1225  134.4280  162.2113 C   0  0  0  0  0  0  0  0  0  0  0  0
  146.8328  135.5005  163.0711 C   0  0  0  0  0  0  0  0  0  0  0  0
  147.0894  136.8029  162.6116 C   0  0  0  0  0  0  0  0  0  0  0  0
  147.5971  137.0666  161.3901 N   0  0  0  0  0  0  0  0  0  0  0  0
  147.8811  136.0435  160.5435 C   0  0  0  0  0  0  0  0  0  0  0  0
  148.4234  136.2295  159.2335 N   0  0  0  0  0  0  0  0  0  0  0  0
  148.3351  137.2526  158.3566 C   0  0  0  0  0  0  0  0  0  0  0  0
  147.6960  138.2672  158.6296 O   0  0  0  0  0  0  0  0  0  0  0  0
  148.9802  137.0964  157.1892 N   0  0  0  0  0  0  0  0  0  0  0  0
  149.0274  138.0709  156.1043 C   0  0  1  0  0  0  0  0  0  0  0  0
  150.4006  138.1667  155.4508 C   0  0  0  0  0  0  0  0  0  0  0  0
  150.0741  138.8168  154.1054 C   0  0  0  0  0  0  0  0  0  0  0  0
  148.7312  138.3202  153.7262 N   0  3  2  0  0  0  0  0  0  0  0  0
  147.8858  139.3120  153.0176 C   0  0  0  0  0  0  0  0  0  0  0  0
  146.5231  138.6999  152.6435 C   0  0  0  0  0  0  0  0  0  0  0  0
  145.8354  137.9842  153.8249 C   0  0  0  0  0  0  0  0  0  0  0  0
  146.6362  138.1065  155.1305 C   0  0  0  0  0  0  0  0  0  0  0  0
  148.1117  137.6930  154.9282 C   0  0  2  0  0  0  0  0  0  0  0  0
  147.7539  132.5747  160.4795 H   0  0  0  0  0  0  0  0  0  0  0  0
  149.0217  133.5381  159.7246 H   0  0  0  0  0  0  0  0  0  0  0  0
  147.3677  133.5960  159.0956 H   0  0  0  0  0  0  0  0  0  0  0  0
  146.9378  133.4137  162.5332 H   0  0  0  0  0  0  0  0  0  0  0  0
  146.4251  135.3291  164.0563 H   0  0  0  0  0  0  0  0  0  0  0  0
  146.8816  137.6567  163.2395 H   0  0  0  0  0  0  0  0  0  0  0  0
  148.9825  135.4546  158.9076 H   0  0  0  0  0  0  0  0  0  0  0  0
  149.4813  136.2301  157.0480 H   0  0  0  0  0  0  0  0  0  0  0  0
  148.7646  139.0641  156.4749 H   0  0  0  0  0  0  0  0  0  0  0  0
  151.1130  138.7457  156.0393 H   0  0  0  0  0  0  0  0  0  0  0  0
  150.8192  137.1712  155.2930 H   0  0  0  0  0  0  0  0  0  0  0  0
  150.0497  139.9009  154.2278 H   0  0  0  0  0  0  0  0  0  0  0  0
  150.8148  138.5855  153.3396 H   0  0  0  0  0  0  0  0  0  0  0  0
  147.7416  140.1902  153.6493 H   0  0  0  0  0  0  0  0  0  0  0  0
  148.4009  139.6537  152.1190 H   0  0  0  0  0  0  0  0  0  0  0  0
  145.8715  139.4820  152.2528 H   0  0  0  0  0  0  0  0  0  0  0  0
  146.6586  137.9889  151.8275 H   0  0  0  0  0  0  0  0  0  0  0  0
  144.8291  138.3788  153.9691 H   0  0  0  0  0  0  0  0  0  0  0  0
  145.7128  136.9283  153.5806 H   0  0  0  0  0  0  0  0  0  0  0  0
  146.5805  139.1347  155.4910 H   0  0  0  0  0  0  0  0  0  0  0  0
  146.1767  137.4913  155.9045 H   0  0  0  0  0  0  0  0  0  0  0  0
  148.1598  136.6153  154.7630 H   0  0  0  0  0  0  0  0  0  0  0  0
  148.8791  137.5618  153.0759 H   0  0  0  0  0  0  0  0  0  0  0  0
  1  2  1  0  0  0  0
  1 21  1  0  0  0  0
  1 22  1  0  0  0  0
  1 23  1  0  0  0  0
  2  7  1  0  0  0  0
  2  3  2  0  0  0  0
  3  4  1  0  0  0  0
  3 24  1  0  0  0  0
  4  5  2  0  0  0  0
  4 25  1  0  0  0  0
  5  6  1  0  0  0  0
  5 26  1  0  0  0  0
  6  7  2  0  0  0  0
  7  8  1  0  0  0  0
  8  9  1  0  0  0  0
  8 27  1  0  0  0  0
  9 10  2  0  0  0  0
  9 11  1  0  0  0  0
 11 12  1  0  0  0  0
 11 28  1  0  0  0  0
 12 20  1  0  0  0  0
 12 13  1  0  0  0  0
 12 29  1  0  0  0  0
 13 14  1  0  0  0  0
 13 30  1  0  0  0  0
 13 31  1  0  0  0  0
 14 15  1  0  0  0  0
 14 32  1  0  0  0  0
 14 33  1  0  0  0  0
 15 20  1  0  0  0  0
 15 16  1  0  0  0  0
 15 43  1  0  0  0  0
 16 17  1  0  0  0  0
 16 34  1  0  0  0  0
 16 35  1  0  0  0  0
 17 18  1  0  0  0  0
 17 36  1  0  0  0  0
 17 37  1  0  0  0  0
 18 19  1  0  0  0  0
 18 38  1  0  0  0  0
 18 39  1  0  0  0  0
 19 20  1  0  0  0  0
 19 40  1  0  0  0  0
 19 41  1  0  0  0  0
 20 42  1  0  0  0  0
M  CHG  1  15   1
M  END
> <s_m_source_file>
AV-unprocessed.smi

> <i_m_source_file_index>
1709

> <i_lp_mmshare_version>
43012

> <i_f3d_flags>
0

> <s_epik_input>
W0NIM11jMVtjSF1bY0hdW2NIXW5jMVtOSF1DKD1PKVtOSF1bQ0BIXShbQ0gyXVtDSDJdMilbQ0BASF0oTjIzKVtDSDJdW0NIMl1bQ0gyXVtDSDJdMw==

> <s_epik_cmdline>
J2VwaWtfcHl0aG9uJywgJy1waCcsICc3LjAnLCAnLXRuJywgJzgnLCAnLW1hJywgJzIwMCcsICctbWV0YWxfYmluZGluZycsICctaW1hZScsICc8aW5maWxlLm1hZT4nLCAnLW9tYWUnLCAnPG91dGZpbGUubWFlPic=

> <r_epik_Ionization_Penalty>
0.00101524

> <r_epik_Ionization_Penalty_Charging>
0.000974069

> <r_epik_Ionization_Penalty_Neutral>
4.11757e-05

> <r_epik_State_Penalty>
0.000633842

> <r_epik_Charging_Adjusted_Penalty>
0.00160791

> <i_epik_Tot_Q>
1

> <i_epik_Tot_abs_Q>
1

> <r_epik_Metal_State_Penalty>
-0

> <b_epik_Metal_Only>
0

> <s_lp_Force_Field>
OPLS_2005

> <r_lp_Energy>
44.7523

> <b_lp_Chiralities_Consistent>
1

> <s_lp_Variant>
AV-unprocessed.smi:1709-8

> <Gold.Version>
5.8.1

> <Gold.Id.Protein>
6NUR|6NUR_protein|mol2

> <Gold.PLP.Fitness>
39.9815

> <Gold.PLP.PLP>
-29.3807

> <Gold.PLP.part.hbond>
-4.4374

> <Gold.PLP.part.metal>
0.0000

> <Gold.PLP.part.buried>
-0.9357

> <Gold.PLP.part.nonpolar>
-25.1858

> <Gold.PLP.part.repulsive>
0.1880

> <Gold.PLP.ligand.clash>
0.0000

> <Gold.PLP.ligand.torsion>
0.4006

> <Gold.PLP.Chemscore.Hbond>
3.7980

> <Gold.PLP.Chemscore.CHOScore>
0.0000

> <Gold.PLP.Chemscore.Metal>
0.0000

> <Gold.Chemscore.Hbonds>
donor molecule, donor type, donor heavy atom, donor atom, acceptor molecule, acceptor atom, score
      L1  H    15    43       P1  7948  2.00
      P1  H  6931  6943       L1     6  0.95
      P1  H  6934  6947       L1     6  0.83

> <Gold.PLP.Chemscore.Internal.Correction>
0.0081

> <Gold.Rescore>
     Score         DG    S(hbond)    S(metal)    S(lipo)     H(rot)  DE(clash)    DE(int)     intcor
     15.69     -18.12       2.00        0.00      72.91       1.00       1.02       1.41       ----

> <Gold.Chemscore.Fitness>
15.6937

> <Gold.Chemscore.DG>
-18.1250

> <Gold.Chemscore.ZeroCoef>
-5.4800

> <Gold.Chemscore.Hbond>
1.9984

> <Gold.Chemscore.Metal>
0.0000

> <Gold.Chemscore.Lipo>
72.9096

> <Gold.Chemscore.Internal_Hbond>
0.0000

> <Gold.Chemscore.DEClash>
1.0197

> <Gold.Chemscore.DEInternal>
1.4116

> <Gold.Chemscore.Rot>
1.0000

> <Gold.Chemscore.Internal.Correction>
   9.000000E+99

> <Gold.Chemscore.Hbonds>
donor molecule, donor type, donor heavy atom, donor atom, acceptor molecule, acceptor atom, score
      L1  H    15    43       P1  7948  1.00
      P1  H  6931  6943       L1     6  0.20
      P1  H  6934  6947       L1     6  0.51

> <Gold.Chemscore.Hbond.Weighted>
-6.6746

> <Gold.Chemscore.Metal.Weighted>
-0.0000

> <Gold.Chemscore.Lipo.Weighted>
-8.5304

> <Gold.Chemscore.Internal_Hbond.Weighted>
0.0000

> <Gold.Chemscore.DEClash.Weighted>
1.0197

> <Gold.Chemscore.DEInternal.Weighted>
1.4116

> <Gold.Chemscore.Rot.Weighted>
2.5600

> <Gold.Chemscore.Internal.Correction.Weighted>
   9.000000E+99

> <Gold.Protein.RotatedTorsions>
[ 6907 6896 6895 6894 ] final -108.90 input  -60.11 | X-H torsion
[ 7974 7965 7964 7962 ] final  146.30 input  175.53 | X-H torsion
[ 8008 7997 7996 7995 ] final  116.24 input   59.86 | X-H torsion
[ 10167 10162 10161 10158 ] final  -41.82 input  -65.29 | X-H torsion
[ 10718 10713 10712 10709 ] final  133.15 input   66.30 | X-H torsion
[ 10763 10752 10751 10750 ] final  -83.37 input  -60.55 | X-H torsion
[ 11005 11000 10999 10996 ] final -117.17 input  -57.11 | X-H torsion

> <Gold.Protein.ActiveResidues>
 VAL166  LYS551  ARG553  GLY616  TRP617  ASP618  TYR619  PRO620  LYS621  CYS622 
 ASP623  PHE694  ASN695  SER759  ASP760  ASP761  ALA762  ILE779  LEU786  VAL792 
 PHE793  MET794  SER795  GLU796  ALA797  LYS798  CYS799  TRP800  GLU811  SER814 

> <Gold.Protein.RotatedAtoms>
  150.7529  133.9608  159.3514 H   0  0  0  0  0  0  0  0  0  0  0  0  # atno 6907 bound_to 6896
  151.7534  135.0825  160.0344 H   0  0  0  0  0  0  0  0  0  0  0  0  # atno 6908 bound_to 6896
  152.3451  133.6075  159.5940 H   0  0  0  0  0  0  0  0  0  0  0  0  # atno 6909 bound_to 6896
  144.8682  139.5889  143.5899 H   0  0  0  0  0  0  0  0  0  0  0  0  # atno 7974 bound_to 7965
  156.2428  140.2921  156.0493 H   0  0  0  0  0  0  0  0  0  0  0  0  # atno 8008 bound_to 7997
  155.1899  140.0406  157.2915 H   0  0  0  0  0  0  0  0  0  0  0  0  # atno 8009 bound_to 7997
  154.6202  140.2474  155.7566 H   0  0  0  0  0  0  0  0  0  0  0  0  # atno 8010 bound_to 7997
  140.6990  143.3073  151.3121 H   0  0  0  0  0  0  0  0  0  0  0  0  # atno 10167 bound_to 10162
  157.4801  131.1085  150.9692 H   0  0  0  0  0  0  0  0  0  0  0  0  # atno 10718 bound_to 10713
  154.5869  135.5558  153.7240 H   0  0  0  0  0  0  0  0  0  0  0  0  # atno 10763 bound_to 10752
  153.0102  135.6333  154.1904 H   0  0  0  0  0  0  0  0  0  0  0  0  # atno 10764 bound_to 10752
  154.1845  135.2885  155.3021 H   0  0  0  0  0  0  0  0  0  0  0  0  # atno 10765 bound_to 10752
  141.0373  133.9890  157.3051 H   0  0  0  0  0  0  0  0  0  0  0  0  # atno 11005 bound_to 11000
  146.2911  139.7142  142.9160 LP  0  0  0  0  0  0  0  0  0  0  0  0  # atno 17320 bound_to 7965
  145.4181  141.0403  143.2979 LP  0  0  0  0  0  0  0  0  0  0  0  0  # atno 17321 bound_to 7965
  139.6483  144.0410  152.2607 LP  0  0  0  0  0  0  0  0  0  0  0  0  # atno 17342 bound_to 10162
  139.9938  144.6342  150.7790 LP  0  0  0  0  0  0  0  0  0  0  0  0  # atno 17343 bound_to 10162
  157.0428  130.5756  149.5358 LP  0  0  0  0  0  0  0  0  0  0  0  0  # atno 17370 bound_to 10713
  156.0117  130.5209  150.8010 LP  0  0  0  0  0  0  0  0  0  0  0  0  # atno 17371 bound_to 10713
  139.9250  135.0201  156.8201 LP  0  0  0  0  0  0  0  0  0  0  0  0  # atno 17394 bound_to 11000
  140.6299  133.9915  155.7657 LP  0  0  0  0  0  0  0  0  0  0  0  0  # atno 17395 bound_to 11000

$$$$
