AV-unprocessed.smi:1127|AV-procd|sdf|4840|dock10
  -GOLD-   22720 3403D 1   1.00000     0.00000
 Structure written by MMmdl.
 42 43  0  0  0  0  0  0  0  0  1 V2000
  146.9719  139.4242  152.8792 C   0  0  0  0  0  0  0  0  0  0  0  0
  147.8406  138.6340  154.3148 S   0  0  2  0  0  0  0  0  0  0  0  0
  146.9989  137.4314  154.7455 O   0  0  0  0  0  0  0  0  0  0  0  0
  147.3964  139.9463  155.5069 C   0  0  0  0  0  0  0  0  0  0  0  0
  146.3839  139.8522  156.3739 N   0  0  0  0  0  0  0  0  0  0  0  0
  146.3928  141.0496  157.0637 N   0  0  0  0  0  0  0  0  0  0  0  0
  147.4114  141.7350  156.5402 C   0  0  0  0  0  0  0  0  0  0  0  0
  148.0833  141.1030  155.5649 N   0  0  0  0  0  0  0  0  0  0  0  0
  149.2238  141.5710  154.7975 C   0  0  0  0  0  0  0  0  0  0  0  0
  150.4920  141.5673  155.6502 C   0  0  0  0  0  0  0  0  0  0  0  0
  151.3337  140.6829  155.4976 O   0  0  0  0  0  0  0  0  0  0  0  0
  150.6047  142.5539  156.5527 N   0  0  0  0  0  0  0  0  0  0  0  0
  151.7094  142.7355  157.4918 C   0  0  0  0  0  0  0  0  0  0  0  0
  151.4458  141.8866  158.7569 C   0  0  0  0  0  0  0  0  0  0  0  0
  152.5548  141.8568  159.8259 C   0  0  0  0  0  0  0  0  0  0  0  0
  152.8410  143.1632  160.5942 C   0  0  0  0  0  0  0  0  0  0  0  0
  151.6056  143.9973  160.9906 C   0  0  0  0  0  0  0  0  0  0  0  0
  151.3283  145.2101  160.0785 C   0  0  0  0  0  0  0  0  0  0  0  0
  150.8383  144.9066  158.6489 C   0  0  0  0  0  0  0  0  0  0  0  0
  151.8934  144.2493  157.7340 C   0  0  0  0  0  0  0  0  0  0  0  0
  147.0052  140.5115  152.9523 H   0  0  0  0  0  0  0  0  0  0  0  0
  145.9286  139.1101  152.8502 H   0  0  0  0  0  0  0  0  0  0  0  0
  147.4477  139.1281  151.9445 H   0  0  0  0  0  0  0  0  0  0  0  0
  147.6731  142.7273  156.8773 H   0  0  0  0  0  0  0  0  0  0  0  0
  149.3613  140.9173  153.9350 H   0  0  0  0  0  0  0  0  0  0  0  0
  149.0153  142.5693  154.4106 H   0  0  0  0  0  0  0  0  0  0  0  0
  149.8608  143.2348  156.5986 H   0  0  0  0  0  0  0  0  0  0  0  0
  152.6223  142.3722  157.0161 H   0  0  0  0  0  0  0  0  0  0  0  0
  150.4981  142.1679  159.2114 H   0  0  0  0  0  0  0  0  0  0  0  0
  151.2946  140.8539  158.4405 H   0  0  0  0  0  0  0  0  0  0  0  0
  152.2699  141.1018  160.5594 H   0  0  0  0  0  0  0  0  0  0  0  0
  153.4812  141.4922  159.3811 H   0  0  0  0  0  0  0  0  0  0  0  0
  153.3688  142.8841  161.5070 H   0  0  0  0  0  0  0  0  0  0  0  0
  153.5580  143.7792  160.0539 H   0  0  0  0  0  0  0  0  0  0  0  0
  150.7183  143.3735  161.0975 H   0  0  0  0  0  0  0  0  0  0  0  0
  151.7885  144.3930  161.9902 H   0  0  0  0  0  0  0  0  0  0  0  0
  150.5671  145.8213  160.5647 H   0  0  0  0  0  0  0  0  0  0  0  0
  152.2168  145.8407  160.0319 H   0  0  0  0  0  0  0  0  0  0  0  0
  149.9139  144.3298  158.6709 H   0  0  0  0  0  0  0  0  0  0  0  0
  150.5615  145.8605  158.1985 H   0  0  0  0  0  0  0  0  0  0  0  0
  152.8976  144.4586  158.0974 H   0  0  0  0  0  0  0  0  0  0  0  0
  151.8637  144.7493  156.7644 H   0  0  0  0  0  0  0  0  0  0  0  0
  1  2  1  0  0  0  0
  1 21  1  0  0  0  0
  1 22  1  0  0  0  0
  1 23  1  0  0  0  0
  2  3  2  0  0  0  0
  2  4  1  0  0  0  0
  4  8  1  0  0  0  0
  4  5  2  0  0  0  0
  5  6  1  0  0  0  0
  6  7  2  0  0  0  0
  7  8  1  0  0  0  0
  7 24  1  0  0  0  0
  8  9  1  0  0  0  0
  9 10  1  0  0  0  0
  9 25  1  0  0  0  0
  9 26  1  0  0  0  0
 10 11  2  0  0  0  0
 10 12  1  0  0  0  0
 12 13  1  0  0  0  0
 12 27  1  0  0  0  0
 13 20  1  0  0  0  0
 13 14  1  0  0  0  0
 13 28  1  0  0  0  0
 14 15  1  0  0  0  0
 14 29  1  0  0  0  0
 14 30  1  0  0  0  0
 15 16  1  0  0  0  0
 15 31  1  0  0  0  0
 15 32  1  0  0  0  0
 16 17  1  0  0  0  0
 16 33  1  0  0  0  0
 16 34  1  0  0  0  0
 17 18  1  0  0  0  0
 17 35  1  0  0  0  0
 17 36  1  0  0  0  0
 18 19  1  0  0  0  0
 18 37  1  0  0  0  0
 18 38  1  0  0  0  0
 19 20  1  0  0  0  0
 19 39  1  0  0  0  0
 19 40  1  0  0  0  0
 20 41  1  0  0  0  0
 20 42  1  0  0  0  0
M  END
> <s_m_source_file>
AV-unprocessed.smi

> <i_m_source_file_index>
1127

> <i_lp_mmshare_version>
43012

> <i_f3d_flags>
0

> <s_epik_input>
W0NIM11bU0BdKD1PKWMxbm5bY0hdbjFbQ0gyXUMoPU8pW05IXVtDSF0yW0NIMl1bQ0gyXVtDSDJdW0NIMl1bQ0gyXVtDSDJdW0NIMl0y

> <s_epik_cmdline>
J2VwaWtfcHl0aG9uJywgJy1waCcsICc3LjAnLCAnLXRuJywgJzgnLCAnLW1hJywgJzIwMCcsICctbWV0YWxfYmluZGluZycsICctaW1hZScsICc8aW5maWxlLm1hZT4nLCAnLW9tYWUnLCAnPG91dGZpbGUubWFlPic=

> <r_lp_tautomer_probability>
1

> <r_epik_Ionization_Penalty>
7.34999e-08

> <r_epik_Ionization_Penalty_Charging>
0

> <r_epik_Ionization_Penalty_Neutral>
7.34999e-08

> <r_epik_State_Penalty>
-0

> <r_epik_Charging_Adjusted_Penalty>
0

> <i_epik_Tot_Q>
0

> <i_epik_Tot_abs_Q>
0

> <r_epik_Metal_State_Penalty>
-0

> <b_epik_Metal_Only>
0

> <s_lp_Force_Field>
OPLS_2005

> <r_lp_Energy>
17.7529

> <b_lp_Chiralities_Consistent>
1

> <s_lp_Variant>
AV-unprocessed.smi:1127-1

> <Gold.Version>
5.8.1

> <Gold.Id.Protein>
6NUR|6NUR_protein|mol2

> <Gold.PLP.Fitness>
44.2732

> <Gold.PLP.PLP>
-38.6851

> <Gold.PLP.part.hbond>
-2.0000

> <Gold.PLP.part.metal>
0.0000

> <Gold.PLP.part.buried>
-3.9872

> <Gold.PLP.part.nonpolar>
-31.8353

> <Gold.PLP.part.repulsive>
0.1966

> <Gold.PLP.ligand.clash>
0.0000

> <Gold.PLP.ligand.torsion>
1.4642

> <Gold.PLP.Chemscore.Hbond>
1.7368

> <Gold.PLP.Chemscore.CHOScore>
0.7555

> <Gold.PLP.Chemscore.Metal>
0.0000

> <Gold.Chemscore.Hbonds>
donor molecule, donor type, donor heavy atom, donor atom, acceptor molecule, acceptor atom, score
      L1  H    12    27       P1  8028  0.93
      P1  H  7989  7998       L1    11  0.74
      L1  C     7    24       P1  8028  0.66

> <Gold.PLP.Chemscore.Internal.Correction>
1.0397

> <Gold.Rescore>
     Score         DG    S(hbond)    S(metal)    S(lipo)     H(rot)  DE(clash)    DE(int)     intcor
     15.61     -17.13       1.33        0.00      98.92       1.70       0.06       1.45       ----

> <Gold.Chemscore.Fitness>
15.6117

> <Gold.Chemscore.DG>
-17.1276

> <Gold.Chemscore.ZeroCoef>
-5.4800

> <Gold.Chemscore.Hbond>
1.3286

> <Gold.Chemscore.Metal>
0.0000

> <Gold.Chemscore.Lipo>
98.9162

> <Gold.Chemscore.Internal_Hbond>
0.0000

> <Gold.Chemscore.DEClash>
0.0623

> <Gold.Chemscore.DEInternal>
1.4537

> <Gold.Chemscore.Rot>
1.7044

> <Gold.Chemscore.Internal.Correction>
   9.000000E+99

> <Gold.Chemscore.Hbonds>
donor molecule, donor type, donor heavy atom, donor atom, acceptor molecule, acceptor atom, score
      L1  H    12    27       P1  8028  0.87
      P1  H  7989  7998       L1    11  0.16

> <Gold.Chemscore.Hbond.Weighted>
-4.4376

> <Gold.Chemscore.Metal.Weighted>
-0.0000

> <Gold.Chemscore.Lipo.Weighted>
-11.5732

> <Gold.Chemscore.Internal_Hbond.Weighted>
0.0000

> <Gold.Chemscore.DEClash.Weighted>
0.0623

> <Gold.Chemscore.DEInternal.Weighted>
1.4537

> <Gold.Chemscore.Rot.Weighted>
4.3631

> <Gold.Chemscore.Internal.Correction.Weighted>
   9.000000E+99

> <Gold.Protein.RotatedTorsions>
[ 6907 6896 6895 6894 ] final   27.75 input  -60.11 | X-H torsion
[ 7974 7965 7964 7962 ] final   48.36 input  175.53 | X-H torsion
[ 8008 7997 7996 7995 ] final   72.08 input   59.86 | X-H torsion
[ 10167 10162 10161 10158 ] final  -45.27 input  -65.29 | X-H torsion
[ 10718 10713 10712 10709 ] final  -61.67 input   66.30 | X-H torsion
[ 10763 10752 10751 10750 ] final -150.19 input  -60.55 | X-H torsion
[ 11005 11000 10999 10996 ] final  171.66 input  -57.11 | X-H torsion

> <Gold.Protein.ActiveResidues>
 VAL166  LYS551  ARG553  GLY616  TRP617  ASP618  TYR619  PRO620  LYS621  CYS622 
 ASP623  PHE694  ASN695  SER759  ASP760  ASP761  ALA762  ILE779  LEU786  VAL792 
 PHE793  MET794  SER795  GLU796  ALA797  LYS798  CYS799  TRP800  GLU811  SER814 

> <Gold.Protein.RotatedAtoms>
  152.0069  134.9898  160.0566 H   0  0  0  0  0  0  0  0  0  0  0  0  # atno 6907 bound_to 6896
  152.1466  133.4491  159.4801 H   0  0  0  0  0  0  0  0  0  0  0  0  # atno 6908 bound_to 6896
  150.6871  134.2158  159.4420 H   0  0  0  0  0  0  0  0  0  0  0  0  # atno 6909 bound_to 6896
  146.0212  139.4653  142.9896 H   0  0  0  0  0  0  0  0  0  0  0  0  # atno 7974 bound_to 7965
  155.7635  140.3486  155.5210 H   0  0  0  0  0  0  0  0  0  0  0  0  # atno 8008 bound_to 7997
  155.8891  140.1015  157.1452 H   0  0  0  0  0  0  0  0  0  0  0  0  # atno 8009 bound_to 7997
  154.4031  140.1308  156.4280 H   0  0  0  0  0  0  0  0  0  0  0  0  # atno 8010 bound_to 7997
  140.6865  143.2888  151.3614 H   0  0  0  0  0  0  0  0  0  0  0  0  # atno 10167 bound_to 10162
  156.0906  130.4201  150.1027 H   0  0  0  0  0  0  0  0  0  0  0  0  # atno 10718 bound_to 10713
  154.8133  135.3290  154.7244 H   0  0  0  0  0  0  0  0  0  0  0  0  # atno 10763 bound_to 10752
  153.7890  135.6912  153.4879 H   0  0  0  0  0  0  0  0  0  0  0  0  # atno 10764 bound_to 10752
  153.1929  135.4544  155.0119 H   0  0  0  0  0  0  0  0  0  0  0  0  # atno 10765 bound_to 10752
  140.3213  134.7435  157.4066 H   0  0  0  0  0  0  0  0  0  0  0  0  # atno 11005 bound_to 11000
  145.7190  141.0081  143.1412 LP  0  0  0  0  0  0  0  0  0  0  0  0  # atno 17320 bound_to 7965
  144.6990  139.8848  143.7449 LP  0  0  0  0  0  0  0  0  0  0  0  0  # atno 17321 bound_to 7965
  139.6227  144.0874  152.2406 LP  0  0  0  0  0  0  0  0  0  0  0  0  # atno 17342 bound_to 10162
  140.0324  144.6071  150.7477 LP  0  0  0  0  0  0  0  0  0  0  0  0  # atno 17343 bound_to 10162
  156.9038  130.9629  151.3572 LP  0  0  0  0  0  0  0  0  0  0  0  0  # atno 17370 bound_to 10713
  157.6054  130.8543  149.8867 LP  0  0  0  0  0  0  0  0  0  0  0  0  # atno 17371 bound_to 10713
  140.0939  134.5564  155.8417 LP  0  0  0  0  0  0  0  0  0  0  0  0  # atno 17394 bound_to 11000
  141.2086  133.6675  156.6380 LP  0  0  0  0  0  0  0  0  0  0  0  0  # atno 17395 bound_to 11000

$$$$
