AV-unprocessed.smi:153|AV-procd|sdf|1255|dock10
  -GOLD-   2262018493D 1   1.00000     0.00000
 Structure written by MMmdl.
 60 63  0  0  0  0  0  0  0  0  2 V2000
  151.9967  145.3441  158.6475 C   0  0  0  0  0  0  0  0  0  0  0  0
  152.3618  143.9025  158.2570 C   0  0  1  0  0  0  0  0  0  0  0  0
  153.1438  143.3455  159.3115 O   0  0  0  0  0  0  0  0  0  0  0  0
  152.8475  141.9655  159.4313 C   0  0  0  0  0  0  0  0  0  0  0  0
  151.3486  141.9316  159.1852 C   0  0  0  0  0  0  0  0  0  0  0  0
  151.1756  142.9229  158.0345 C   0  0  1  0  0  0  0  0  0  0  0  0
  149.9135  143.5523  158.1751 O   0  0  0  0  0  0  0  0  0  0  0  0
  151.2466  142.2732  156.6259 C   0  0  0  0  0  0  0  0  0  0  0  0
  150.7080  140.9222  156.5582 N   0  0  0  0  0  0  0  0  0  0  0  0
  149.5260  140.4831  157.1069 C   0  0  0  0  0  0  0  0  0  0  0  0
  149.2527  139.2253  156.8995 N   0  0  0  0  0  0  0  0  0  0  0  0
  150.3379  138.7451  156.1727 C   0  0  0  0  0  0  0  0  0  0  0  0
  150.6913  137.4796  155.6085 C   0  0  0  0  0  0  0  0  0  0  0  0
  149.9384  136.3452  155.6825 N   0  0  0  0  0  0  0  0  0  0  0  0
  150.5303  135.0570  155.3412 C   0  0  0  0  0  0  0  0  0  0  0  0
  148.7216  136.3482  156.4982 C   0  0  0  0  0  0  0  0  0  0  0  0
  148.9771  135.8782  157.9451 C   0  0  1  0  0  0  0  0  0  0  0  0
  150.2204  136.4002  158.3718 O   0  0  0  0  0  0  0  0  0  0  0  0
  147.8968  136.4083  158.9095 C   0  0  0  0  0  0  0  0  0  0  0  0
  147.9152  135.7222  160.2272 N   0  3  0  0  0  0  0  0  0  0  0  0
  147.2808  136.5306  161.2956 C   0  0  0  0  0  0  0  0  0  0  0  0
  147.3854  135.8098  162.6502 C   0  0  0  0  0  0  0  0  0  0  0  0
  146.7865  134.5237  162.5531 O   0  0  0  0  0  0  0  0  0  0  0  0
  147.4392  133.7046  161.5913 C   0  0  0  0  0  0  0  0  0  0  0  0
  147.3370  134.3555  160.2013 C   0  0  0  0  0  0  0  0  0  0  0  0
  151.8734  137.4163  154.9392 N   0  0  0  0  0  0  0  0  0  0  0  0
  152.6567  138.4915  154.8255 C   0  0  0  0  0  0  0  0  0  0  0  0
  152.4512  139.7226  155.2911 N   0  0  0  0  0  0  0  0  0  0  0  0
  151.2668  139.8062  155.9597 C   0  0  0  0  0  0  0  0  0  0  0  0
  151.4130  145.8302  157.8654 H   0  0  0  0  0  0  0  0  0  0  0  0
  152.8950  145.9411  158.8061 H   0  0  0  0  0  0  0  0  0  0  0  0
  151.4165  145.3707  159.5706 H   0  0  0  0  0  0  0  0  0  0  0  0
  152.9909  143.9346  157.3660 H   0  0  0  0  0  0  0  0  0  0  0  0
  153.3863  141.4004  158.6694 H   0  0  0  0  0  0  0  0  0  0  0  0
  153.1233  141.5784  160.4123 H   0  0  0  0  0  0  0  0  0  0  0  0
  150.9727  140.9287  158.9896 H   0  0  0  0  0  0  0  0  0  0  0  0
  150.8438  142.2955  160.0819 H   0  0  0  0  0  0  0  0  0  0  0  0
  149.7505  144.0750  157.4050 H   0  0  0  0  0  0  0  0  0  0  0  0
  150.7127  142.8898  155.9013 H   0  0  0  0  0  0  0  0  0  0  0  0
  152.2814  142.2349  156.2831 H   0  0  0  0  0  0  0  0  0  0  0  0
  148.8606  141.1332  157.6567 H   0  0  0  0  0  0  0  0  0  0  0  0
  151.0530  135.1095  154.3857 H   0  0  0  0  0  0  0  0  0  0  0  0
  149.7618  134.2894  155.2485 H   0  0  0  0  0  0  0  0  0  0  0  0
  151.2319  134.7364  156.1117 H   0  0  0  0  0  0  0  0  0  0  0  0
  148.2104  137.3115  156.4778 H   0  0  0  0  0  0  0  0  0  0  0  0
  148.0269  135.6559  156.0218 H   0  0  0  0  0  0  0  0  0  0  0  0
  149.0112  134.7897  157.9766 H   0  0  0  0  0  0  0  0  0  0  0  0
  150.4827  137.0807  157.7698 H   0  0  0  0  0  0  0  0  0  0  0  0
  148.0567  137.4784  159.0536 H   0  0  0  0  0  0  0  0  0  0  0  0
  146.9044  136.3062  158.4673 H   0  0  0  0  0  0  0  0  0  0  0  0
  147.7664  137.5050  161.3626 H   0  0  0  0  0  0  0  0  0  0  0  0
  146.2335  136.7095  161.0466 H   0  0  0  0  0  0  0  0  0  0  0  0
  148.4263  135.7181  162.9647 H   0  0  0  0  0  0  0  0  0  0  0  0
  146.8693  136.3824  163.4210 H   0  0  0  0  0  0  0  0  0  0  0  0
  148.4821  133.5508  161.8737 H   0  0  0  0  0  0  0  0  0  0  0  0
  146.9644  132.7234  161.5823 H   0  0  0  0  0  0  0  0  0  0  0  0
  146.2922  134.4044  159.8900 H   0  0  0  0  0  0  0  0  0  0  0  0
  147.8571  133.7308  159.4763 H   0  0  0  0  0  0  0  0  0  0  0  0
  153.5772  138.3451  154.2798 H   0  0  0  0  0  0  0  0  0  0  0  0
  148.8884  135.6290  160.4826 H   0  0  0  0  0  0  0  0  0  0  0  0
  1  2  1  0  0  0  0
  1 30  1  0  0  0  0
  1 31  1  0  0  0  0
  1 32  1  0  0  0  0
  2  6  1  0  0  0  0
  2  3  1  0  0  0  0
  2 33  1  0  0  0  0
  3  4  1  0  0  0  0
  4  5  1  0  0  0  0
  4 34  1  0  0  0  0
  4 35  1  0  0  0  0
  5  6  1  0  0  0  0
  5 36  1  0  0  0  0
  5 37  1  0  0  0  0
  6  7  1  0  0  0  0
  6  8  1  0  0  0  0
  7 38  1  0  0  0  0
  8  9  1  0  0  0  0
  8 39  1  0  0  0  0
  8 40  1  0  0  0  0
  9 29  1  0  0  0  0
  9 10  1  0  0  0  0
 10 11  2  0  0  0  0
 10 41  1  0  0  0  0
 11 12  1  0  0  0  0
 12 29  2  0  0  0  0
 12 13  1  0  0  0  0
 13 14  1  0  0  0  0
 13 26  2  0  0  0  0
 14 15  1  0  0  0  0
 14 16  1  0  0  0  0
 15 42  1  0  0  0  0
 15 43  1  0  0  0  0
 15 44  1  0  0  0  0
 16 17  1  0  0  0  0
 16 45  1  0  0  0  0
 16 46  1  0  0  0  0
 17 18  1  0  0  0  0
 17 19  1  0  0  0  0
 17 47  1  0  0  0  0
 18 48  1  0  0  0  0
 19 20  1  0  0  0  0
 19 49  1  0  0  0  0
 19 50  1  0  0  0  0
 20 25  1  0  0  0  0
 20 21  1  0  0  0  0
 20 60  1  0  0  0  0
 21 22  1  0  0  0  0
 21 51  1  0  0  0  0
 21 52  1  0  0  0  0
 22 23  1  0  0  0  0
 22 53  1  0  0  0  0
 22 54  1  0  0  0  0
 23 24  1  0  0  0  0
 24 25  1  0  0  0  0
 24 55  1  0  0  0  0
 24 56  1  0  0  0  0
 25 57  1  0  0  0  0
 25 58  1  0  0  0  0
 26 27  1  0  0  0  0
 27 28  2  0  0  0  0
 27 59  1  0  0  0  0
 28 29  1  0  0  0  0
M  CHG  1  20   1
M  END
> <s_m_source_file>
AV-unprocessed.smi

> <i_m_source_file_index>
153

> <i_lp_mmshare_version>
43012

> <i_f3d_flags>
0

> <s_epik_input>
W0NIMl0xW0NIMl1PW0NAQEhdKFtDSDNdKVtDQEBdMShbT0hdKVtDSDJdbihbY0hdbjIpYyhjMjMpbltjSF1uYzNOKFtDSDNdKVtDSDJdW0NASF0oW09IXSlbQ0gyXU40W0NIMl1bQ0gyXU9bQ0gyXVtDSDJdNA==

> <s_epik_cmdline>
J2VwaWtfcHl0aG9uJywgJy1waCcsICc3LjAnLCAnLXRuJywgJzgnLCAnLW1hJywgJzIwMCcsICctbWV0YWxfYmluZGluZycsICctaW1hZScsICc8aW5maWxlLm1hZT4nLCAnLW9tYWUnLCAnPG91dGZpbGUubWFlPic=

> <r_lp_tautomer_probability>
1

> <r_epik_Ionization_Penalty>
0.403509

> <r_epik_Ionization_Penalty_Charging>
0.40072

> <r_epik_Ionization_Penalty_Neutral>
0.00278876

> <r_epik_State_Penalty>
0.400058

> <r_epik_Charging_Adjusted_Penalty>
0.800778

> <i_epik_Tot_Q>
1

> <i_epik_Tot_abs_Q>
1

> <r_epik_Metal_State_Penalty>
0.400321

> <b_epik_Metal_Only>
0

> <s_lp_Force_Field>
OPLS_2005

> <r_lp_Energy>
46.896

> <b_lp_Chiralities_Consistent>
1

> <s_lp_Variant>
AV-unprocessed.smi:153-6

> <Gold.Version>
5.8.1

> <Gold.Id.Protein>
6NUR|6NUR_protein|mol2

> <Gold.PLP.Fitness>
60.3052

> <Gold.PLP.PLP>
-51.2108

> <Gold.PLP.part.hbond>
-4.5718

> <Gold.PLP.part.metal>
0.0000

> <Gold.PLP.part.buried>
-10.5060

> <Gold.PLP.part.nonpolar>
-37.8963

> <Gold.PLP.part.repulsive>
0.2274

> <Gold.PLP.ligand.clash>
0.0000

> <Gold.PLP.ligand.torsion>
1.4550

> <Gold.PLP.Chemscore.Hbond>
3.8440

> <Gold.PLP.Chemscore.CHOScore>
0.0000

> <Gold.PLP.Chemscore.Metal>
0.0000

> <Gold.Chemscore.Hbonds>
donor molecule, donor type, donor heavy atom, donor atom, acceptor molecule, acceptor atom, score
      L1  H     7    38       P1  8028  1.00
      P1  H  6896  6907       L1    18  0.73
      P1  H  7989  7998       L1    28  0.21
      P1  H  7997  8009       L1    28  0.78
      P1  H 10752 10765       L1    26  0.71

> <Gold.PLP.Chemscore.Internal.Correction>
0.4726

> <Gold.Rescore>
     Score         DG    S(hbond)    S(metal)    S(lipo)     H(rot)  DE(clash)    DE(int)     intcor
     15.15     -18.75       2.92        0.00     109.16       3.62       1.15       2.45       ----

> <Gold.Chemscore.Fitness>
15.1451

> <Gold.Chemscore.DG>
-18.7453

> <Gold.Chemscore.ZeroCoef>
-5.4800

> <Gold.Chemscore.Hbond>
2.9210

> <Gold.Chemscore.Metal>
0.0000

> <Gold.Chemscore.Lipo>
109.1596

> <Gold.Chemscore.Internal_Hbond>
0.0000

> <Gold.Chemscore.DEClash>
1.1527

> <Gold.Chemscore.DEInternal>
2.4475

> <Gold.Chemscore.Rot>
3.6182

> <Gold.Chemscore.Internal.Correction>
   9.000000E+99

> <Gold.Chemscore.Hbonds>
donor molecule, donor type, donor heavy atom, donor atom, acceptor molecule, acceptor atom, score
      L1  H     7    38       P1  8028  0.42
      P1  H  6896  6907       L1    18  0.39
      P1  H  7989  7998       L1    28  0.01
      P1  H  7997  8009       L1    28  0.20
      P1  H 10752 10765       L1    26  0.54

> <Gold.Chemscore.Hbond.Weighted>
-9.7561

> <Gold.Chemscore.Metal.Weighted>
-0.0000

> <Gold.Chemscore.Lipo.Weighted>
-12.7717

> <Gold.Chemscore.Internal_Hbond.Weighted>
0.0000

> <Gold.Chemscore.DEClash.Weighted>
1.1527

> <Gold.Chemscore.DEInternal.Weighted>
2.4475

> <Gold.Chemscore.Rot.Weighted>
9.2625

> <Gold.Chemscore.Internal.Correction.Weighted>
   9.000000E+99

> <Gold.Protein.RotatedTorsions>
[ 6907 6896 6895 6894 ] final  -37.20 input  -60.11 | X-H torsion
[ 7974 7965 7964 7962 ] final  -68.02 input  175.53 | X-H torsion
[ 8008 7997 7996 7995 ] final -144.34 input   59.86 | X-H torsion
[ 10167 10162 10161 10158 ] final    5.54 input  -65.29 | X-H torsion
[ 10718 10713 10712 10709 ] final   12.84 input   66.30 | X-H torsion
[ 10763 10752 10751 10750 ] final  177.36 input  -60.55 | X-H torsion
[ 11005 11000 10999 10996 ] final  168.34 input  -57.11 | X-H torsion

> <Gold.Protein.ActiveResidues>
 VAL166  LYS551  ARG553  GLY616  TRP617  ASP618  TYR619  PRO620  LYS621  CYS622 
 ASP623  PHE694  ASN695  SER759  ASP760  ASP761  ALA762  ILE779  LEU786  VAL792 
 PHE793  MET794  SER795  GLU796  ALA797  LYS798  CYS799  TRP800  GLU811  SER814 

> <Gold.Protein.RotatedAtoms>
  151.0176  134.9444  159.8041 H   0  0  0  0  0  0  0  0  0  0  0  0  # atno 6907 bound_to 6896
  152.5317  134.2946  159.9066 H   0  0  0  0  0  0  0  0  0  0  0  0  # atno 6908 bound_to 6896
  151.2953  133.4105  159.2670 H   0  0  0  0  0  0  0  0  0  0  0  0  # atno 6909 bound_to 6896
  145.7218  140.9035  143.0626 H   0  0  0  0  0  0  0  0  0  0  0  0  # atno 7974 bound_to 7965
  155.5253  140.0595  157.2899 H   0  0  0  0  0  0  0  0  0  0  0  0  # atno 8008 bound_to 7997
  154.4503  140.1945  156.0485 H   0  0  0  0  0  0  0  0  0  0  0  0  # atno 8009 bound_to 7997
  156.0690  140.3262  155.7557 H   0  0  0  0  0  0  0  0  0  0  0  0  # atno 8010 bound_to 7997
  140.6476  143.7623  150.7524 H   0  0  0  0  0  0  0  0  0  0  0  0  # atno 10167 bound_to 10162
  157.0160  130.6136  149.5714 H   0  0  0  0  0  0  0  0  0  0  0  0  # atno 10718 bound_to 10713
  154.4934  135.2780  155.1478 H   0  0  0  0  0  0  0  0  0  0  0  0  # atno 10763 bound_to 10752
  154.3141  135.6223  153.5482 H   0  0  0  0  0  0  0  0  0  0  0  0  # atno 10764 bound_to 10752
  152.9891  135.5727  154.5360 H   0  0  0  0  0  0  0  0  0  0  0  0  # atno 10765 bound_to 10752
  140.2862  134.7710  157.3800 H   0  0  0  0  0  0  0  0  0  0  0  0  # atno 11005 bound_to 11000
  144.6915  139.9213  143.7468 LP  0  0  0  0  0  0  0  0  0  0  0  0  # atno 17320 bound_to 7965
  146.0618  139.3611  143.0576 LP  0  0  0  0  0  0  0  0  0  0  0  0  # atno 17321 bound_to 7965
  140.1268  143.4562  152.2279 LP  0  0  0  0  0  0  0  0  0  0  0  0  # atno 17342 bound_to 10162
  139.5688  144.7451  151.3948 LP  0  0  0  0  0  0  0  0  0  0  0  0  # atno 17343 bound_to 10162
  156.0119  130.5211  150.8015 LP  0  0  0  0  0  0  0  0  0  0  0  0  # atno 17370 bound_to 10713
  157.5285  131.0935  150.9986 LP  0  0  0  0  0  0  0  0  0  0  0  0  # atno 17371 bound_to 10713
  140.1238  134.5185  155.8162 LP  0  0  0  0  0  0  0  0  0  0  0  0  # atno 17394 bound_to 11000
  141.2154  133.6765  156.6914 LP  0  0  0  0  0  0  0  0  0  0  0  0  # atno 17395 bound_to 11000

$$$$
