AV-unprocessed.smi:695|AV-procd|sdf|3384|dock8
  -GOLD-   22720 0363D 1   1.00000     0.00000
 Structure written by MMmdl.
 38 39  0  0  0  0  0  0  0  0  1 V2000
  149.7054  131.4849  153.9505 C   0  0  0  0  0  0  0  0  0  0  0  0
  148.5987  132.5455  153.8763 C   0  0  0  0  0  0  0  0  0  0  0  0
  149.1571  133.8917  153.8410 N   0  0  0  0  0  0  0  0  0  0  0  0
  149.7613  134.4965  154.8730 C   0  0  0  0  0  0  0  0  0  0  0  0
  149.9587  133.9626  155.9647 O   0  0  0  0  0  0  0  0  0  0  0  0
  150.0979  135.7612  154.5798 N   0  0  0  0  0  0  0  0  0  0  0  0
  150.7078  136.7122  155.5065 C   0  0  0  0  0  0  0  0  0  0  0  0
  151.5497  137.7821  154.7828 C   0  0  0  0  0  0  0  0  0  0  0  0
  151.1399  139.1886  155.1094 C   0  0  0  0  0  0  0  0  0  0  0  0
  150.1990  139.9469  154.4566 C   0  0  0  0  0  0  0  0  0  0  0  0
  149.9835  141.5041  155.2068 S   0  0  0  0  0  0  0  0  0  0  0  0
  151.2163  141.0676  156.3862 C   0  0  0  0  0  0  0  0  0  0  0  0
  151.6060  141.9328  157.4045 N   0  0  0  0  0  0  0  0  0  0  0  0
  151.4061  143.3785  157.4314 C   0  0  0  0  0  0  0  0  0  0  0  0
  151.7052  143.8626  158.8477 C   0  0  0  0  0  0  0  0  0  0  0  0
  152.7541  142.8699  159.3098 C   0  0  0  0  0  0  0  0  0  0  0  0
  152.2944  141.5761  158.6414 C   0  0  0  0  0  0  0  0  0  0  0  0
  151.7204  139.8456  156.1984 N   0  0  0  0  0  0  0  0  0  0  0  0
  149.2787  130.4834  154.0077 H   0  0  0  0  0  0  0  0  0  0  0  0
  150.3316  131.6300  154.8311 H   0  0  0  0  0  0  0  0  0  0  0  0
  150.3501  131.5204  153.0716 H   0  0  0  0  0  0  0  0  0  0  0  0
  147.9646  132.3728  153.0052 H   0  0  0  0  0  0  0  0  0  0  0  0
  147.9529  132.4666  154.7509 H   0  0  0  0  0  0  0  0  0  0  0  0
  149.0439  134.4103  152.9825 H   0  0  0  0  0  0  0  0  0  0  0  0
  149.8917  136.1022  153.6525 H   0  0  0  0  0  0  0  0  0  0  0  0
  149.9456  137.1871  156.1267 H   0  0  0  0  0  0  0  0  0  0  0  0
  151.3458  136.1504  156.1889 H   0  0  0  0  0  0  0  0  0  0  0  0
  152.6001  137.6374  155.0380 H   0  0  0  0  0  0  0  0  0  0  0  0
  151.4853  137.6188  153.7065 H   0  0  0  0  0  0  0  0  0  0  0  0
  149.6061  139.6757  153.5958 H   0  0  0  0  0  0  0  0  0  0  0  0
  152.0936  143.8352  156.7184 H   0  0  0  0  0  0  0  0  0  0  0  0
  150.3916  143.6410  157.1303 H   0  0  0  0  0  0  0  0  0  0  0  0
  152.0473  144.8972  158.8805 H   0  0  0  0  0  0  0  0  0  0  0  0
  150.8125  143.7776  159.4689 H   0  0  0  0  0  0  0  0  0  0  0  0
  153.7338  143.1599  158.9276 H   0  0  0  0  0  0  0  0  0  0  0  0
  152.8210  142.7887  160.3949 H   0  0  0  0  0  0  0  0  0  0  0  0
  151.5937  141.0432  159.2850 H   0  0  0  0  0  0  0  0  0  0  0  0
  153.1382  140.9135  158.4464 H   0  0  0  0  0  0  0  0  0  0  0  0
  1  2  1  0  0  0  0
  1 19  1  0  0  0  0
  1 20  1  0  0  0  0
  1 21  1  0  0  0  0
  2  3  1  0  0  0  0
  2 22  1  0  0  0  0
  2 23  1  0  0  0  0
  3  4  1  0  0  0  0
  3 24  1  0  0  0  0
  4  5  2  0  0  0  0
  4  6  1  0  0  0  0
  6  7  1  0  0  0  0
  6 25  1  0  0  0  0
  7  8  1  0  0  0  0
  7 26  1  0  0  0  0
  7 27  1  0  0  0  0
  8  9  1  0  0  0  0
  8 28  1  0  0  0  0
  8 29  1  0  0  0  0
  9 18  1  0  0  0  0
  9 10  2  0  0  0  0
 10 11  1  0  0  0  0
 10 30  1  0  0  0  0
 11 12  1  0  0  0  0
 12 13  1  0  0  0  0
 12 18  2  0  0  0  0
 13 17  1  0  0  0  0
 13 14  1  0  0  0  0
 14 15  1  0  0  0  0
 14 31  1  0  0  0  0
 14 32  1  0  0  0  0
 15 16  1  0  0  0  0
 15 33  1  0  0  0  0
 15 34  1  0  0  0  0
 16 17  1  0  0  0  0
 16 35  1  0  0  0  0
 16 36  1  0  0  0  0
 17 37  1  0  0  0  0
 17 38  1  0  0  0  0
M  END
> <s_m_source_file>
AV-unprocessed.smi

> <i_m_source_file_index>
695

> <i_lp_mmshare_version>
43012

> <i_f3d_flags>
0

> <s_epik_input>
W0NIM11bQ0gyXVtOSF1DKD1PKVtOSF1bQ0gyXVtDSDJdYzFbY0hdc2MobjEpTjJbQ0gyXVtDSDJdW0NIMl1bQ0gyXTI=

> <s_epik_cmdline>
J2VwaWtfcHl0aG9uJywgJy1waCcsICc3LjAnLCAnLXRuJywgJzgnLCAnLW1hJywgJzIwMCcsICctbWV0YWxfYmluZGluZycsICctaW1hZScsICc8aW5maWxlLm1hZT4nLCAnLW9tYWUnLCAnPG91dGZpbGUubWFlPic=

> <r_epik_Ionization_Penalty>
0.166233

> <r_epik_Ionization_Penalty_Charging>
0

> <r_epik_Ionization_Penalty_Neutral>
0.166233

> <r_epik_State_Penalty>
0.155475

> <r_epik_Charging_Adjusted_Penalty>
0.155475

> <i_epik_Tot_Q>
0

> <i_epik_Tot_abs_Q>
0

> <r_epik_Metal_State_Penalty>
0.121092

> <b_epik_Metal_Only>
0

> <s_lp_Force_Field>
OPLS_2005

> <r_lp_Energy>
13.2485

> <b_lp_Chiralities_Consistent>
1

> <s_lp_Variant>
AV-unprocessed.smi:695-1

> <Gold.Version>
5.8.1

> <Gold.Id.Protein>
6NUR|6NUR_protein|mol2

> <Gold.PLP.Fitness>
44.4858

> <Gold.PLP.PLP>
-37.7405

> <Gold.PLP.part.hbond>
-2.0280

> <Gold.PLP.part.metal>
0.0000

> <Gold.PLP.part.buried>
-2.5181

> <Gold.PLP.part.nonpolar>
-33.0242

> <Gold.PLP.part.repulsive>
0.0655

> <Gold.PLP.ligand.clash>
0.0000

> <Gold.PLP.ligand.torsion>
1.1430

> <Gold.PLP.Chemscore.Hbond>
2.0000

> <Gold.PLP.Chemscore.CHOScore>
1.0000

> <Gold.PLP.Chemscore.Metal>
0.0000

> <Gold.Chemscore.Hbonds>
donor molecule, donor type, donor heavy atom, donor atom, acceptor molecule, acceptor atom, score
      L1  H     3    24       P1  7948  0.34
      L1  H     6    25       P1  7948  0.80
      L1  C    10    30       P1  7957  1.00

> <Gold.PLP.Chemscore.Internal.Correction>
0.0313

> <Gold.Rescore>
     Score         DG    S(hbond)    S(metal)    S(lipo)     H(rot)  DE(clash)    DE(int)     intcor
     15.56     -17.11       1.69        0.00      88.35       1.70       0.37       1.18       ----

> <Gold.Chemscore.Fitness>
15.5588

> <Gold.Chemscore.DG>
-17.1082

> <Gold.Chemscore.ZeroCoef>
-5.4800

> <Gold.Chemscore.Hbond>
1.6869

> <Gold.Chemscore.Metal>
0.0000

> <Gold.Chemscore.Lipo>
88.3468

> <Gold.Chemscore.Internal_Hbond>
0.0000

> <Gold.Chemscore.DEClash>
0.3672

> <Gold.Chemscore.DEInternal>
1.1822

> <Gold.Chemscore.Rot>
1.6963

> <Gold.Chemscore.Internal.Correction>
   9.000000E+99

> <Gold.Chemscore.Hbonds>
donor molecule, donor type, donor heavy atom, donor atom, acceptor molecule, acceptor atom, score
      L1  H     3    24       P1  7948  0.01
      L1  H     6    25       P1  7948  0.11

> <Gold.Chemscore.Hbond.Weighted>
-5.6342

> <Gold.Chemscore.Metal.Weighted>
-0.0000

> <Gold.Chemscore.Lipo.Weighted>
-10.3366

> <Gold.Chemscore.Internal_Hbond.Weighted>
0.0000

> <Gold.Chemscore.DEClash.Weighted>
0.3672

> <Gold.Chemscore.DEInternal.Weighted>
1.1822

> <Gold.Chemscore.Rot.Weighted>
4.3426

> <Gold.Chemscore.Internal.Correction.Weighted>
   9.000000E+99

> <Gold.Protein.RotatedTorsions>
[ 6907 6896 6895 6894 ] final   -9.75 input  -60.11 | X-H torsion
[ 7974 7965 7964 7962 ] final -116.48 input  175.53 | X-H torsion
[ 8008 7997 7996 7995 ] final -158.86 input   59.86 | X-H torsion
[ 10167 10162 10161 10158 ] final  140.87 input  -65.29 | X-H torsion
[ 10718 10713 10712 10709 ] final  -25.92 input   66.30 | X-H torsion
[ 10763 10752 10751 10750 ] final -172.00 input  -60.55 | X-H torsion
[ 11005 11000 10999 10996 ] final  -99.97 input  -57.11 | X-H torsion

> <Gold.Protein.ActiveResidues>
 VAL166  LYS551  ARG553  GLY616  TRP617  ASP618  TYR619  PRO620  LYS621  CYS622 
 ASP623  PHE694  ASN695  SER759  ASP760  ASP761  ALA762  ILE779  LEU786  VAL792 
 PHE793  MET794  SER795  GLU796  ALA797  LYS798  CYS799  TRP800  GLU811  SER814 

> <Gold.Protein.RotatedAtoms>
  151.4128  135.0987  159.9590 H   0  0  0  0  0  0  0  0  0  0  0  0  # atno 6907 bound_to 6896
  152.5014  133.8781  159.7343 H   0  0  0  0  0  0  0  0  0  0  0  0  # atno 6908 bound_to 6896
  150.9279  133.6744  159.2845 H   0  0  0  0  0  0  0  0  0  0  0  0  # atno 6909 bound_to 6896
  145.0963  140.8523  143.3952 H   0  0  0  0  0  0  0  0  0  0  0  0  # atno 7974 bound_to 7965
  155.7538  140.0830  157.2188 H   0  0  0  0  0  0  0  0  0  0  0  0  # atno 8008 bound_to 7997
  154.4009  140.1555  156.2811 H   0  0  0  0  0  0  0  0  0  0  0  0  # atno 8009 bound_to 7997
  155.8905  140.3415  155.5955 H   0  0  0  0  0  0  0  0  0  0  0  0  # atno 8010 bound_to 7997
  139.5036  144.6207  151.6057 H   0  0  0  0  0  0  0  0  0  0  0  0  # atno 10167 bound_to 10162
  156.4580  130.4498  149.6947 H   0  0  0  0  0  0  0  0  0  0  0  0  # atno 10718 bound_to 10713
  154.6242  135.2879  155.0292 H   0  0  0  0  0  0  0  0  0  0  0  0  # atno 10763 bound_to 10752
  154.1476  135.6508  153.4960 H   0  0  0  0  0  0  0  0  0  0  0  0  # atno 10764 bound_to 10752
  153.0249  135.5348  154.7043 H   0  0  0  0  0  0  0  0  0  0  0  0  # atno 10765 bound_to 10752
  141.1289  133.8362  157.1041 H   0  0  0  0  0  0  0  0  0  0  0  0  # atno 11005 bound_to 11000
  145.1007  139.2824  143.5687 LP  0  0  0  0  0  0  0  0  0  0  0  0  # atno 17320 bound_to 7965
  146.3530  140.0573  142.8631 LP  0  0  0  0  0  0  0  0  0  0  0  0  # atno 17321 bound_to 7965
  140.5908  143.9782  150.6324 LP  0  0  0  0  0  0  0  0  0  0  0  0  # atno 17342 bound_to 10162
  140.2962  143.3291  152.1015 LP  0  0  0  0  0  0  0  0  0  0  0  0  # atno 17343 bound_to 10162
  156.3746  130.7548  151.2535 LP  0  0  0  0  0  0  0  0  0  0  0  0  # atno 17370 bound_to 10713
  157.7499  131.0313  150.4176 LP  0  0  0  0  0  0  0  0  0  0  0  0  # atno 17371 bound_to 10713
  140.0315  134.9899  157.0790 LP  0  0  0  0  0  0  0  0  0  0  0  0  # atno 17394 bound_to 11000
  140.4277  134.1813  155.7167 LP  0  0  0  0  0  0  0  0  0  0  0  0  # atno 17395 bound_to 11000

$$$$
