#       Name:                AV-unprocessed.smi:3308
#       Creating user name   scv26
#       Creation time:       Fri Mar 27 19:04:12 2020


#       File generated by GOLD software.
#

@<TRIPOS>MOLECULE
AV-unprocessed.smi:3308
    44    45     1
SMALL
NO_CHARGES


@<TRIPOS>ATOM
      1 ****        -2.6158  -1.6949  -0.8714 C.3            1 S1                 0.0000
      2 ****        -1.9747  -0.8087   0.2139 C.3            1 S1                 0.0000
      3 ****        -0.4981  -0.9220   0.1537 N.4            1 S1                 1.0000
      4 ****         0.1591  -0.1428  -0.9181 C.3            1 S1                 0.0000
      5 ****         1.6900  -0.2151  -0.8300 C.2            1 S1                 0.0000
      6 ****         2.2187  -0.9479   0.0078 O.2            1 S1                 0.0000
      7 ****         2.4134   0.5365  -1.6851 N.am           1 S1                 0.0000
      8 ****         3.8746   0.5706  -1.6938 C.3            1 S1                 0.0000
      9 ****         4.2552   1.7327  -2.6108 C.3            1 S1                 0.0000
     10 ****         3.0670   1.8669  -3.5532 C.3            1 S1                 0.0000
     11 ****         1.8688   1.4243  -2.7124 C.3            1 S1                 0.0000
     12 ****        -2.4736  -1.1664   1.6414 C.3            1 S1                 0.0000
     13 ****        -3.9886  -0.9586   1.8257 C.3            1 S1                 0.0000
     14 ****        -1.7547  -0.4232   2.6715 N.pl3          1 S1                 0.0000
     15 ****        -1.1337  -0.9168   3.8007 C.2            1 S1                 0.0000
     16 ****        -0.6099   0.1469   4.4777 C.2            1 S1                 0.0000
     17 ****        -0.9772   1.2681   3.6831 C.2            1 S1                 0.0000
     18 ****        -1.6652   0.9249   2.6064 N.2            1 S1                 0.0000
     19 ****        -3.6979  -1.5733  -0.9034 H              1 S1                 0.0000
     20 ****        -2.4043  -2.7503  -0.6976 H              1 S1                 0.0000
     21 ****        -2.2490  -1.4438  -1.8662 H              1 S1                 0.0000
     22 ****        -2.2426   0.2295   0.0111 H              1 S1                 0.0000
     23 ****        -0.1351  -0.5706   1.0289 H              1 S1                 0.0000
     24 ****        -0.1578  -0.5154  -1.8919 H              1 S1                 0.0000
     25 ****        -0.1530   0.8995  -0.8408 H              1 S1                 0.0000
     26 ****         4.2904   0.7029  -0.6937 H              1 S1                 0.0000
     27 ****         4.2490  -0.3725  -2.0947 H              1 S1                 0.0000
     28 ****         4.3581   2.6450  -2.0214 H              1 S1                 0.0000
     29 ****         5.1963   1.5663  -3.1358 H              1 S1                 0.0000
     30 ****         2.9546   2.8754  -3.9524 H              1 S1                 0.0000
     31 ****         3.1933   1.1864  -4.3962 H              1 S1                 0.0000
     32 ****         1.1184   0.9323  -3.3330 H              1 S1                 0.0000
     33 ****         1.4036   2.2860  -2.2314 H              1 S1                 0.0000
     34 ****        -2.2643  -2.2232   1.8155 H              1 S1                 0.0000
     35 ****        -4.5702  -1.6267   1.1916 H              1 S1                 0.0000
     36 ****        -4.2824   0.0653   1.5922 H              1 S1                 0.0000
     37 ****        -4.2871  -1.1609   2.8550 H              1 S1                 0.0000
     38 ****        -1.1145  -1.9730   4.0267 H              1 S1                 0.0000
     39 ****        -0.0543   0.1279   5.4037 H              1 S1                 0.0000
     40 ****        -0.7680   2.3134   3.8566 H              1 S1                 0.0000
     41 ****        -0.2380  -1.8945   0.0710 H              1 S1                 0.0000
     42 ****         1.6510  -1.4916   0.6259 LP             1 S1                 0.0000
     43 ****         3.2155  -0.9989   0.0696 LP             1 S1                 0.0000
     44 ****        -2.0367   1.5284   1.9008 LP             1 S1                 0.0000
@<TRIPOS>BOND
    1    1    2 1     
    2    1   19 1     
    3    1   20 1     
    4    1   21 1     
    5    2    3 1     
    6    2   12 1     
    7    2   22 1     
    8    3    4 1     
    9    3   23 1     
   10    3   41 1     
   11    4    5 1     
   12    4   24 1     
   13    4   25 1     
   14    5    6 2     
   15    5    7 am    
   16    7   11 1     
   17    7    8 1     
   18    8    9 1     
   19    8   26 1     
   20    8   27 1     
   21    9   10 1     
   22    9   28 1     
   23    9   29 1     
   24   10   11 1     
   25   10   30 1     
   26   10   31 1     
   27   11   32 1     
   28   11   33 1     
   29   12   13 1     
   30   12   14 1     
   31   12   34 1     
   32   13   35 1     
   33   13   36 1     
   34   13   37 1     
   35   14   18 1     
   36   14   15 1     
   37   15   16 2     
   38   15   38 1     
   39   16   17 1     
   40   16   39 1     
   41   17   18 2     
   42   17   40 1     
   43    6   42 1     
   44    6   43 1     
   45   18   44 1     
@<TRIPOS>SUBSTRUCTURE
      1 S1             1
@<TRIPOS>SET
LONE_PAIRS      STATIC     ATOMS    <user>   **** ""
3 42 43 44
DONOR_HYDROGENS      STATIC     ATOMS    <user>   **** ""
2 23 41
ATOM$BLUE        STATIC     ATOMS    COLORGROUP SYSTEM
3 42 43 44
ATOM$RED        STATIC     ATOMS    COLORGROUP SYSTEM
2 23 41
