#       Name:                AV-unprocessed.smi:2620
#       Creating user name   scv26
#       Creation time:       Fri Mar 27 14:23:09 2020


#       File generated by GOLD software.
#

@<TRIPOS>MOLECULE
AV-unprocessed.smi:2620
    42    43     1
SMALL
NO_CHARGES


@<TRIPOS>ATOM
      1 ****        -5.2777   3.2176  -0.3870 C.3            1 S1                 0.0000
      2 ****        -4.8385   1.8706  -0.4058 O.3            1 S1                 0.0000
      3 ****        -3.4390   1.7592  -0.5998 C.3            1 S1                 0.0000
      4 ****        -3.0568   0.2718  -0.6137 C.3            1 S1                 0.0000
      5 ****        -1.6096   0.0923  -0.7893 N.am           1 S1                 0.0000
      6 ****        -0.8369  -0.0202   0.3826 C.2            1 S1                 0.0000
      7 ****         0.4986  -0.1878   0.3492 C.2            1 S1                 0.0000
      8 ****         1.2743  -0.2905   1.6095 C.2            1 S1                 0.0000
      9 ****         0.8588   0.2148   2.6536 O.2            1 S1                 0.0000
     10 ****         2.5620  -1.0478   1.5794 C.ar           1 S1                 0.0000
     11 ****         2.5873  -2.3315   0.9839 C.ar           1 S1                 0.0000
     12 ****         3.7759  -3.0842   0.9449 C.ar           1 S1                 0.0000
     13 ****         4.9565  -2.5620   1.5018 C.ar           1 S1                 0.0000
     14 ****         4.9469  -1.2861   2.0945 C.ar           1 S1                 0.0000
     15 ****         3.7607  -0.5250   2.1370 C.ar           1 S1                 0.0000
     16 ****         3.8175   0.7182   2.7056 O.co2          1 S1                -1.0000
     17 ****         1.1375  -0.2363  -0.9519 C.2            1 S1                 0.0000
     18 ****         0.4048  -0.1180  -2.0769 C.2            1 S1                 0.0000
     19 ****         1.0135  -0.1542  -3.3653 C.1            1 S1                 0.0000
     20 ****         1.5263  -0.1909  -4.4024 N.1            1 S1                 0.0000
     21 ****        -1.0534   0.0613  -2.0382 C.2            1 S1                 0.0000
     22 ****        -1.7362   0.1804  -3.0572 O.2            1 S1                 0.0000
     23 ****        -6.3563   3.2491  -0.2334 H              1 S1                 0.0000
     24 ****        -5.0574   3.7176  -1.3311 H              1 S1                 0.0000
     25 ****        -4.8062   3.7753   0.4231 H              1 S1                 0.0000
     26 ****        -3.1552   2.2330  -1.5410 H              1 S1                 0.0000
     27 ****        -2.9096   2.2756   0.2027 H              1 S1                 0.0000
     28 ****        -3.3824  -0.1962   0.3166 H              1 S1                 0.0000
     29 ****        -3.6094  -0.2476  -1.3985 H              1 S1                 0.0000
     30 ****        -1.4033   0.0410   1.3016 H              1 S1                 0.0000
     31 ****         1.6885  -2.7542   0.5587 H              1 S1                 0.0000
     32 ****         3.7807  -4.0638   0.4905 H              1 S1                 0.0000
     33 ****         5.8694  -3.1381   1.4742 H              1 S1                 0.0000
     34 ****         5.8591  -0.8891   2.5161 H              1 S1                 0.0000
     35 ****         2.2088  -0.3537  -1.0324 H              1 S1                 0.0000
     36 ****        -5.3046   1.3916  -1.1497 LP             1 S1                 0.0000
     37 ****        -5.0764   1.4434   0.4664 LP             1 S1                 0.0000
     38 ****        -0.0137   0.7033   2.6599 LP             1 S1                 0.0000
     39 ****         1.3941   0.1364   3.4946 LP             1 S1                 0.0000
     40 ****         1.9693  -0.2226  -5.2984 LP             1 S1                 0.0000
     41 ****        -2.7259   0.3038  -2.9844 LP             1 S1                 0.0000
     42 ****        -1.3006   0.1536  -3.9570 LP             1 S1                 0.0000
@<TRIPOS>BOND
    1    1    2 1     
    2    1   23 1     
    3    1   24 1     
    4    1   25 1     
    5    2    3 1     
    6    3    4 1     
    7    3   26 1     
    8    3   27 1     
    9    4    5 1     
   10    4   28 1     
   11    4   29 1     
   12    5   21 am    
   13    5    6 1     
   14    6    7 2     
   15    6   30 1     
   16    7    8 1     
   17    7   17 1     
   18    8    9 2     
   19    8   10 1     
   20   10   15 ar    
   21   10   11 ar    
   22   11   12 ar    
   23   11   31 1     
   24   12   13 ar    
   25   12   32 1     
   26   13   14 ar    
   27   13   33 1     
   28   14   15 ar    
   29   14   34 1     
   30   15   16 ar    
   31   17   18 2     
   32   17   35 1     
   33   18   19 1     
   34   18   21 1     
   35   19   20 3     
   36   21   22 2     
   37    2   36 1     
   38    2   37 1     
   39    9   38 1     
   40    9   39 1     
   41   20   40 1     
   42   22   41 1     
   43   22   42 1     
@<TRIPOS>SUBSTRUCTURE
      1 S1             1
@<TRIPOS>SET
LONE_PAIRS      STATIC     ATOMS    <user>   **** ""
8 36 37 38 39 16 40 41 42
ATOM$BLUE        STATIC     ATOMS    COLORGROUP SYSTEM
8 36 37 38 39 16 40 41 42
