AV-unprocessed.smi:3111|AV-procd|sdf|11833|dock2
  -GOLD-   2272017203D 1   1.00000     0.00000
 Structure written by MMmdl.
 29 29  0  0  0  0  0  0  0  0  1 V2000
  144.6138  143.7598  161.7244 C   0  0  0  0  0  0  0  0  0  0  0  0
  145.8173  144.5662  161.5907 N   0  0  0  0  0  0  0  0  0  0  0  0
  146.9522  144.1374  161.0212 C   0  0  0  0  0  0  0  0  0  0  0  0
  147.0794  143.0096  160.5415 O   0  0  0  0  0  0  0  0  0  0  0  0
  148.1059  145.1478  160.9744 C   0  0  0  0  0  0  0  0  0  0  0  0
  148.9886  144.9435  159.8291 N   0  0  0  0  0  0  0  0  0  0  0  0
  150.2590  144.5135  159.8975 C   0  0  0  0  0  0  0  0  0  0  0  0
  150.8378  144.2938  160.9623 O   0  0  0  0  0  0  0  0  0  0  0  0
  150.9694  144.2885  158.5533 C   0  0  1  0  0  0  0  0  0  0  0  0
  152.3064  145.0459  158.4439 C   0  0  0  0  0  0  0  0  0  0  0  0
  151.1489  142.8639  158.3092 N   0  0  0  0  0  0  0  0  0  0  0  0
  151.8439  141.9637  159.1079 C   0  0  0  0  0  0  0  0  0  0  0  0
  151.7602  140.7376  158.4880 C   0  0  0  0  0  0  0  0  0  0  0  0
  151.0251  140.8559  157.3115 N   0  0  0  0  0  0  0  0  0  0  0  0
  150.6979  142.1409  157.2716 C   0  0  0  0  0  0  0  0  0  0  0  0
  143.8310  144.3385  162.2147 H   0  0  0  0  0  0  0  0  0  0  0  0
  144.8075  142.8704  162.3255 H   0  0  0  0  0  0  0  0  0  0  0  0
  144.2453  143.4464  160.7469 H   0  0  0  0  0  0  0  0  0  0  0  0
  145.7879  145.5063  161.9581 H   0  0  0  0  0  0  0  0  0  0  0  0
  147.6851  146.1514  160.9080 H   0  0  0  0  0  0  0  0  0  0  0  0
  148.6775  145.1076  161.9036 H   0  0  0  0  0  0  0  0  0  0  0  0
  148.5878  145.0924  158.9144 H   0  0  0  0  0  0  0  0  0  0  0  0
  150.3102  144.6748  157.7742 H   0  0  0  0  0  0  0  0  0  0  0  0
  152.1682  146.1161  158.6016 H   0  0  0  0  0  0  0  0  0  0  0  0
  152.7450  144.9164  157.4540 H   0  0  0  0  0  0  0  0  0  0  0  0
  153.0348  144.6930  159.1751 H   0  0  0  0  0  0  0  0  0  0  0  0
  152.3287  142.2610  160.0261 H   0  0  0  0  0  0  0  0  0  0  0  0
  152.1708  139.7871  158.7953 H   0  0  0  0  0  0  0  0  0  0  0  0
  150.1183  142.5680  156.4662 H   0  0  0  0  0  0  0  0  0  0  0  0
  1  2  1  0  0  0  0
  1 16  1  0  0  0  0
  1 17  1  0  0  0  0
  1 18  1  0  0  0  0
  2  3  1  0  0  0  0
  2 19  1  0  0  0  0
  3  4  2  0  0  0  0
  3  5  1  0  0  0  0
  5  6  1  0  0  0  0
  5 20  1  0  0  0  0
  5 21  1  0  0  0  0
  6  7  1  0  0  0  0
  6 22  1  0  0  0  0
  7  8  2  0  0  0  0
  7  9  1  0  0  0  0
  9 10  1  0  0  0  0
  9 11  1  0  0  0  0
  9 23  1  0  0  0  0
 10 24  1  0  0  0  0
 10 25  1  0  0  0  0
 10 26  1  0  0  0  0
 11 15  1  0  0  0  0
 11 12  1  0  0  0  0
 12 13  2  0  0  0  0
 12 27  1  0  0  0  0
 13 14  1  0  0  0  0
 13 28  1  0  0  0  0
 14 15  2  0  0  0  0
 15 29  1  0  0  0  0
M  END
> <s_m_source_file>
AV-unprocessed.smi

> <i_m_source_file_index>
3111

> <i_lp_mmshare_version>
43012

> <i_f3d_flags>
0

> <s_epik_input>
W0NIM11bTkhdQyg9TylbQ0gyXVtOSF1DKD1PKVtDQEhdKFtDSDNdKW4xW2NIXVtjSF1uW2NIXTE=

> <s_epik_cmdline>
J2VwaWtfcHl0aG9uJywgJy1waCcsICc3LjAnLCAnLXRuJywgJzgnLCAnLW1hJywgJzIwMCcsICctbWV0YWxfYmluZGluZycsICctaW1hZScsICc8aW5maWxlLm1hZT4nLCAnLW9tYWUnLCAnPG91dGZpbGUubWFlPic=

> <r_lp_tautomer_probability>
1

> <r_epik_Ionization_Penalty>
0.278299

> <r_epik_Ionization_Penalty_Charging>
0.278299

> <r_epik_Ionization_Penalty_Neutral>
1.78617e-07

> <r_epik_State_Penalty>
0.270759

> <r_epik_Charging_Adjusted_Penalty>
0.549058

> <i_epik_Tot_Q>
0

> <i_epik_Tot_abs_Q>
0

> <r_epik_Metal_State_Penalty>
0.183212

> <b_epik_Metal_Only>
0

> <s_lp_Force_Field>
OPLS_2005

> <r_lp_Energy>
4.73549

> <b_lp_Chiralities_Consistent>
1

> <s_lp_Variant>
AV-unprocessed.smi:3111-2

> <Gold.Version>
5.8.1

> <Gold.Id.Protein>
6NUR|6NUR_protein|mol2

> <Gold.PLP.Fitness>
42.9645

> <Gold.PLP.PLP>
-33.4192

> <Gold.PLP.part.hbond>
-3.9786

> <Gold.PLP.part.metal>
0.0000

> <Gold.PLP.part.buried>
-7.6174

> <Gold.PLP.part.nonpolar>
-23.5208

> <Gold.PLP.part.repulsive>
0.5523

> <Gold.PLP.ligand.clash>
0.0000

> <Gold.PLP.ligand.torsion>
0.6076

> <Gold.PLP.Chemscore.Hbond>
2.5569

> <Gold.PLP.Chemscore.CHOScore>
1.0000

> <Gold.PLP.Chemscore.Metal>
0.0000

> <Gold.Chemscore.Hbonds>
donor molecule, donor type, donor heavy atom, donor atom, acceptor molecule, acceptor atom, score
      L1  H     6    22       P1  8029  1.00
      P1  H  6933  6944       L1     4  1.00
      P1  H  6934  6946       L1     4  0.54
      L1  C    15    29       P1  8028  0.81

> <Gold.PLP.Chemscore.Internal.Correction>
0.0897

> <Gold.Rescore>
     Score         DG    S(hbond)    S(metal)    S(lipo)     H(rot)  DE(clash)    DE(int)     intcor
     13.91     -14.32       2.51        0.00      53.42       2.27       0.09       0.31       ----

> <Gold.Chemscore.Fitness>
13.9142

> <Gold.Chemscore.DG>
-14.3156

> <Gold.Chemscore.ZeroCoef>
-5.4800

> <Gold.Chemscore.Hbond>
2.5147

> <Gold.Chemscore.Metal>
0.0000

> <Gold.Chemscore.Lipo>
53.4175

> <Gold.Chemscore.Internal_Hbond>
0.0000

> <Gold.Chemscore.DEClash>
0.0917

> <Gold.Chemscore.DEInternal>
0.3097

> <Gold.Chemscore.Rot>
2.2709

> <Gold.Chemscore.Internal.Correction>
   9.000000E+99

> <Gold.Chemscore.Hbonds>
donor molecule, donor type, donor heavy atom, donor atom, acceptor molecule, acceptor atom, score
      L1  H     6    22       P1  8029  0.98
      P1  H  6933  6944       L1     4  0.38
      P1  H  6934  6946       L1     4  0.54

> <Gold.Chemscore.Hbond.Weighted>
-8.3993

> <Gold.Chemscore.Metal.Weighted>
-0.0000

> <Gold.Chemscore.Lipo.Weighted>
-6.2499

> <Gold.Chemscore.Internal_Hbond.Weighted>
0.0000

> <Gold.Chemscore.DEClash.Weighted>
0.0917

> <Gold.Chemscore.DEInternal.Weighted>
0.3097

> <Gold.Chemscore.Rot.Weighted>
5.8135

> <Gold.Chemscore.Internal.Correction.Weighted>
   9.000000E+99

> <Gold.Protein.RotatedTorsions>
[ 6907 6896 6895 6894 ] final  -68.68 input  -60.11 | X-H torsion
[ 7974 7965 7964 7962 ] final  162.75 input  175.53 | X-H torsion
[ 8008 7997 7996 7995 ] final -139.35 input   59.86 | X-H torsion
[ 10167 10162 10161 10158 ] final -161.44 input  -65.29 | X-H torsion
[ 10718 10713 10712 10709 ] final  122.37 input   66.30 | X-H torsion
[ 10763 10752 10751 10750 ] final  -62.45 input  -60.55 | X-H torsion
[ 11005 11000 10999 10996 ] final  -53.60 input  -57.11 | X-H torsion

> <Gold.Protein.ActiveResidues>
 VAL166  LYS551  ARG553  GLY616  TRP617  ASP618  TYR619  PRO620  LYS621  CYS622 
 ASP623  PHE694  ASN695  SER759  ASP760  ASP761  ALA762  ILE779  LEU786  VAL792 
 PHE793  MET794  SER795  GLU796  ALA797  LYS798  CYS799  TRP800  GLU811  SER814 

> <Gold.Protein.RotatedAtoms>
  150.7344  134.5704  159.5887 H   0  0  0  0  0  0  0  0  0  0  0  0  # atno 6907 bound_to 6896
  152.3145  134.7454  160.0338 H   0  0  0  0  0  0  0  0  0  0  0  0  # atno 6908 bound_to 6896
  151.7991  133.3332  159.3558 H   0  0  0  0  0  0  0  0  0  0  0  0  # atno 6909 bound_to 6896
  144.7622  139.8084  143.6328 H   0  0  0  0  0  0  0  0  0  0  0  0  # atno 7974 bound_to 7965
  155.4435  140.0533  157.3008 H   0  0  0  0  0  0  0  0  0  0  0  0  # atno 8008 bound_to 7997
  154.4808  140.2080  155.9725 H   0  0  0  0  0  0  0  0  0  0  0  0  # atno 8009 bound_to 7997
  156.1202  140.3189  155.8202 H   0  0  0  0  0  0  0  0  0  0  0  0  # atno 8010 bound_to 7997
  139.6465  144.0163  152.2131 H   0  0  0  0  0  0  0  0  0  0  0  0  # atno 10167 bound_to 10162
  157.5747  131.1080  150.8301 H   0  0  0  0  0  0  0  0  0  0  0  0  # atno 10718 bound_to 10713
  154.3000  135.6236  153.5421 H   0  0  0  0  0  0  0  0  0  0  0  0  # atno 10763 bound_to 10752
  152.9841  135.5676  154.5294 H   0  0  0  0  0  0  0  0  0  0  0  0  # atno 10764 bound_to 10752
  154.4923  135.2868  155.1463 H   0  0  0  0  0  0  0  0  0  0  0  0  # atno 10765 bound_to 10752
  141.0984  133.6621  156.4195 H   0  0  0  0  0  0  0  0  0  0  0  0  # atno 11005 bound_to 11000
  146.1695  139.4840  142.9936 LP  0  0  0  0  0  0  0  0  0  0  0  0  # atno 17320 bound_to 7965
  145.6584  141.0246  143.1722 LP  0  0  0  0  0  0  0  0  0  0  0  0  # atno 17321 bound_to 7965
  139.9866  144.6391  150.7852 LP  0  0  0  0  0  0  0  0  0  0  0  0  # atno 17342 bound_to 10162
  140.7517  143.2977  151.3161 LP  0  0  0  0  0  0  0  0  0  0  0  0  # atno 17343 bound_to 10162
  156.8763  130.5164  149.5293 LP  0  0  0  0  0  0  0  0  0  0  0  0  # atno 17370 bound_to 10713
  156.0792  130.5806  150.9531 LP  0  0  0  0  0  0  0  0  0  0  0  0  # atno 17371 bound_to 10713
  140.5084  134.6419  157.5275 LP  0  0  0  0  0  0  0  0  0  0  0  0  # atno 17394 bound_to 11000
  139.9827  134.7111  155.9830 LP  0  0  0  0  0  0  0  0  0  0  0  0  # atno 17395 bound_to 11000

$$$$
