AV-unprocessed.smi:1071|AV-procd|sdf|4677|dock7
  -GOLD-   22720 3193D 1   1.00000     0.00000
 Structure written by MMmdl.
 47 48  0  0  0  0  0  0  0  0  2 V2000
  156.8429  140.0377  159.5019 C   0  0  0  0  0  0  0  0  0  0  0  0
  155.4791  140.4094  159.6001 O   0  0  0  0  0  0  0  0  0  0  0  0
  155.0902  140.6950  160.9334 C   0  0  0  0  0  0  0  0  0  0  0  0
  153.7209  141.3797  160.9200 C   0  0  0  0  0  0  0  0  0  0  0  0
  153.6307  142.1958  159.7561 O   0  0  0  0  0  0  0  0  0  0  0  0
  152.4615  142.1723  159.0238 C   0  0  0  0  0  0  0  0  0  0  0  0
  151.6876  140.9953  159.0288 C   0  0  0  0  0  0  0  0  0  0  0  0
  150.4928  140.9668  158.2857 C   0  0  0  0  0  0  0  0  0  0  0  0
  150.0997  142.1139  157.5672 C   0  0  0  0  0  0  0  0  0  0  0  0
  148.8909  142.0428  156.8224 N   0  0  0  0  0  0  0  0  0  0  0  0
  148.0257  141.0163  156.7017 C   0  0  0  0  0  0  0  0  0  0  0  0
  148.0702  139.9924  157.3813 O   0  0  0  0  0  0  0  0  0  0  0  0
  147.0186  141.2861  155.8349 N   0  0  0  0  0  0  0  0  0  0  0  0
  147.3030  141.9756  154.5672 C   0  0  0  0  0  0  0  0  0  0  0  0
  147.5860  140.9255  153.4737 C   0  0  0  0  0  0  0  0  0  0  0  0
  146.4672  139.9551  153.3469 N   0  3  1  0  0  0  0  0  0  0  0  0
  146.7280  138.9232  152.3208 C   0  0  0  0  0  0  0  0  0  0  0  0
  146.0411  139.3700  154.6455 C   0  0  0  0  0  0  0  0  0  0  0  0
  145.7939  140.4724  155.6963 C   0  0  1  0  0  0  0  0  0  0  0  0
  145.2224  139.9166  157.0177 C   0  0  0  0  0  0  0  0  0  0  0  0
  150.9534  143.2438  157.6147 C   0  0  0  0  0  0  0  0  0  0  0  0
  152.1009  143.2768  158.3248 N   0  0  0  0  0  0  0  0  0  0  0  0
  157.0910  139.8262  158.4618 H   0  0  0  0  0  0  0  0  0  0  0  0
  157.0501  139.1403  160.0863 H   0  0  0  0  0  0  0  0  0  0  0  0
  157.4965  140.8398  159.8479 H   0  0  0  0  0  0  0  0  0  0  0  0
  155.0395  139.7728  161.5147 H   0  0  0  0  0  0  0  0  0  0  0  0
  155.8275  141.3448  161.4075 H   0  0  0  0  0  0  0  0  0  0  0  0
  152.9324  140.6253  160.9156 H   0  0  0  0  0  0  0  0  0  0  0  0
  153.6053  141.9863  161.8199 H   0  0  0  0  0  0  0  0  0  0  0  0
  152.0047  140.1305  159.5928 H   0  0  0  0  0  0  0  0  0  0  0  0
  149.8846  140.0741  158.2739 H   0  0  0  0  0  0  0  0  0  0  0  0
  148.7146  142.8320  156.2178 H   0  0  0  0  0  0  0  0  0  0  0  0
  146.4473  142.5909  154.2857 H   0  0  0  0  0  0  0  0  0  0  0  0
  148.1456  142.6649  154.6355 H   0  0  0  0  0  0  0  0  0  0  0  0
  147.7465  141.4219  152.5161 H   0  0  0  0  0  0  0  0  0  0  0  0
  148.5052  140.3861  153.7087 H   0  0  0  0  0  0  0  0  0  0  0  0
  147.5707  138.2921  152.6059 H   0  0  0  0  0  0  0  0  0  0  0  0
  146.9559  139.3852  151.3600 H   0  0  0  0  0  0  0  0  0  0  0  0
  145.8533  138.2862  152.1851 H   0  0  0  0  0  0  0  0  0  0  0  0
  145.1306  138.7890  154.4937 H   0  0  0  0  0  0  0  0  0  0  0  0
  146.8045  138.6757  155.0008 H   0  0  0  0  0  0  0  0  0  0  0  0
  145.0184  141.1345  155.3067 H   0  0  0  0  0  0  0  0  0  0  0  0
  144.2216  139.5136  156.8593 H   0  0  0  0  0  0  0  0  0  0  0  0
  145.1408  140.6980  157.7740 H   0  0  0  0  0  0  0  0  0  0  0  0
  145.8247  139.1068  157.4283 H   0  0  0  0  0  0  0  0  0  0  0  0
  150.7442  144.1489  157.0673 H   0  0  0  0  0  0  0  0  0  0  0  0
  145.6771  140.4905  153.0161 H   0  0  0  0  0  0  0  0  0  0  0  0
  1  2  1  0  0  0  0
  1 23  1  0  0  0  0
  1 24  1  0  0  0  0
  1 25  1  0  0  0  0
  2  3  1  0  0  0  0
  3  4  1  0  0  0  0
  3 26  1  0  0  0  0
  3 27  1  0  0  0  0
  4  5  1  0  0  0  0
  4 28  1  0  0  0  0
  4 29  1  0  0  0  0
  5  6  1  0  0  0  0
  6 22  1  0  0  0  0
  6  7  2  0  0  0  0
  7  8  1  0  0  0  0
  7 30  1  0  0  0  0
  8  9  2  0  0  0  0
  8 31  1  0  0  0  0
  9 10  1  0  0  0  0
  9 21  1  0  0  0  0
 10 11  1  0  0  0  0
 10 32  1  0  0  0  0
 11 12  2  0  0  0  0
 11 13  1  0  0  0  0
 13 19  1  0  0  0  0
 13 14  1  0  0  0  0
 14 15  1  0  0  0  0
 14 33  1  0  0  0  0
 14 34  1  0  0  0  0
 15 16  1  0  0  0  0
 15 35  1  0  0  0  0
 15 36  1  0  0  0  0
 16 17  1  0  0  0  0
 16 18  1  0  0  0  0
 16 47  1  0  0  0  0
 17 37  1  0  0  0  0
 17 38  1  0  0  0  0
 17 39  1  0  0  0  0
 18 19  1  0  0  0  0
 18 40  1  0  0  0  0
 18 41  1  0  0  0  0
 19 20  1  0  0  0  0
 19 42  1  0  0  0  0
 20 43  1  0  0  0  0
 20 44  1  0  0  0  0
 20 45  1  0  0  0  0
 21 22  2  0  0  0  0
 21 46  1  0  0  0  0
M  CHG  1  16   1
M  END
> <s_m_source_file>
AV-unprocessed.smi

> <i_m_source_file_index>
1071

> <i_lp_mmshare_version>
43012

> <i_f3d_flags>
0

> <s_epik_input>
W0NIM11PW0NIMl1bQ0gyXU9jMVtjSF1bY0hdYyhbY0hdbjEpW05IXUMoPU8pTjJbQ0gyXVtDSDJdTihbQ0gzXSlbQ0gyXVtDQEhdMltDSDNd

> <s_epik_cmdline>
J2VwaWtfcHl0aG9uJywgJy1waCcsICc3LjAnLCAnLXRuJywgJzgnLCAnLW1hJywgJzIwMCcsICctbWV0YWxfYmluZGluZycsICctaW1hZScsICc8aW5maWxlLm1hZT4nLCAnLW9tYWUnLCAnPG91dGZpbGUubWFlPic=

> <r_lp_tautomer_probability>
1

> <r_epik_Ionization_Penalty>
0.25455

> <r_epik_Ionization_Penalty_Charging>
0.254506

> <r_epik_Ionization_Penalty_Neutral>
4.43365e-05

> <r_epik_State_Penalty>
0.245983

> <r_epik_Charging_Adjusted_Penalty>
0.500488

> <i_epik_Tot_Q>
1

> <i_epik_Tot_abs_Q>
1

> <r_epik_Metal_State_Penalty>
0.245987

> <b_epik_Metal_Only>
0

> <s_lp_Force_Field>
OPLS_2005

> <r_lp_Energy>
54.998

> <b_lp_Chiralities_Consistent>
1

> <s_lp_Variant>
AV-unprocessed.smi:1071-1

> <Gold.Version>
5.8.1

> <Gold.Id.Protein>
6NUR|6NUR_protein|mol2

> <Gold.PLP.Fitness>
42.9023

> <Gold.PLP.PLP>
-32.9492

> <Gold.PLP.part.hbond>
-2.8925

> <Gold.PLP.part.metal>
0.0000

> <Gold.PLP.part.buried>
-3.7462

> <Gold.PLP.part.nonpolar>
-27.7950

> <Gold.PLP.part.repulsive>
0.0351

> <Gold.PLP.ligand.clash>
0.0000

> <Gold.PLP.ligand.torsion>
1.1877

> <Gold.PLP.Chemscore.Hbond>
2.9032

> <Gold.PLP.Chemscore.CHOScore>
1.0000

> <Gold.PLP.Chemscore.Metal>
0.0000

> <Gold.Chemscore.Hbonds>
donor molecule, donor type, donor heavy atom, donor atom, acceptor molecule, acceptor atom, score
      L1  H    10    32       P1  8028  1.00
      L1  H    16    47       P1 10175  1.75
      L1  C    21    46       P1  8028  1.00

> <Gold.PLP.Chemscore.Internal.Correction>
0.6189

> <Gold.Rescore>
     Score         DG    S(hbond)    S(metal)    S(lipo)     H(rot)  DE(clash)    DE(int)     intcor
     12.06     -15.86       1.80        0.00      72.36       1.60       0.01       3.79       ----

> <Gold.Chemscore.Fitness>
12.0591

> <Gold.Chemscore.DG>
-15.8563

> <Gold.Chemscore.ZeroCoef>
-5.4800

> <Gold.Chemscore.Hbond>
1.8018

> <Gold.Chemscore.Metal>
0.0000

> <Gold.Chemscore.Lipo>
72.3574

> <Gold.Chemscore.Internal_Hbond>
0.0000

> <Gold.Chemscore.DEClash>
0.0089

> <Gold.Chemscore.DEInternal>
3.7883

> <Gold.Chemscore.Rot>
1.6045

> <Gold.Chemscore.Internal.Correction>
   9.000000E+99

> <Gold.Chemscore.Hbonds>
donor molecule, donor type, donor heavy atom, donor atom, acceptor molecule, acceptor atom, score
      L1  H    10    32       P1  8028  0.95
      L1  H    16    47       P1 10175  0.70

> <Gold.Chemscore.Hbond.Weighted>
-6.0180

> <Gold.Chemscore.Metal.Weighted>
-0.0000

> <Gold.Chemscore.Lipo.Weighted>
-8.4658

> <Gold.Chemscore.Internal_Hbond.Weighted>
0.0000

> <Gold.Chemscore.DEClash.Weighted>
0.0089

> <Gold.Chemscore.DEInternal.Weighted>
3.7883

> <Gold.Chemscore.Rot.Weighted>
4.1075

> <Gold.Chemscore.Internal.Correction.Weighted>
   9.000000E+99

> <Gold.Protein.RotatedTorsions>
[ 6907 6896 6895 6894 ] final  135.03 input  -60.11 | X-H torsion
[ 7974 7965 7964 7962 ] final  145.80 input  175.53 | X-H torsion
[ 8008 7997 7996 7995 ] final   86.46 input   59.86 | X-H torsion
[ 10167 10162 10161 10158 ] final  -62.05 input  -65.29 | X-H torsion
[ 10718 10713 10712 10709 ] final   88.93 input   66.30 | X-H torsion
[ 10763 10752 10751 10750 ] final   70.08 input  -60.55 | X-H torsion
[ 11005 11000 10999 10996 ] final  -47.43 input  -57.11 | X-H torsion

> <Gold.Protein.ActiveResidues>
 VAL166  LYS551  ARG553  GLY616  TRP617  ASP618  TYR619  PRO620  LYS621  CYS622 
 ASP623  PHE694  ASN695  SER759  ASP760  ASP761  ALA762  ILE779  LEU786  VAL792 
 PHE793  MET794  SER795  GLU796  ALA797  LYS798  CYS799  TRP800  GLU811  SER814 

> <Gold.Protein.RotatedAtoms>
  152.3048  133.5692  159.5642 H   0  0  0  0  0  0  0  0  0  0  0  0  # atno 6907 bound_to 6896
  150.7295  134.0238  159.3719 H   0  0  0  0  0  0  0  0  0  0  0  0  # atno 6908 bound_to 6896
  151.8135  135.0674  160.0467 H   0  0  0  0  0  0  0  0  0  0  0  0  # atno 6909 bound_to 6896
  144.8722  139.5828  143.5881 H   0  0  0  0  0  0  0  0  0  0  0  0  # atno 7974 bound_to 7965
  155.9631  140.3392  155.6508 H   0  0  0  0  0  0  0  0  0  0  0  0  # atno 8008 bound_to 7997
  155.6773  140.0733  157.2516 H   0  0  0  0  0  0  0  0  0  0  0  0  # atno 8009 bound_to 7997
  154.4148  140.1681  156.1931 H   0  0  0  0  0  0  0  0  0  0  0  0  # atno 8010 bound_to 7997
  140.5965  143.2352  151.6024 H   0  0  0  0  0  0  0  0  0  0  0  0  # atno 10167 bound_to 10162
  157.6952  131.0314  150.3349 H   0  0  0  0  0  0  0  0  0  0  0  0  # atno 10718 bound_to 10713
  153.0322  135.5187  154.7387 H   0  0  0  0  0  0  0  0  0  0  0  0  # atno 10763 bound_to 10752
  154.6393  135.2910  155.0125 H   0  0  0  0  0  0  0  0  0  0  0  0  # atno 10764 bound_to 10752
  154.1049  135.6630  153.4927 H   0  0  0  0  0  0  0  0  0  0  0  0  # atno 10765 bound_to 10752
  141.0640  133.6700  156.3297 H   0  0  0  0  0  0  0  0  0  0  0  0  # atno 11005 bound_to 11000
  146.2938  139.7218  142.9141 LP  0  0  0  0  0  0  0  0  0  0  0  0  # atno 17320 bound_to 7965
  145.4108  141.0396  143.3018 LP  0  0  0  0  0  0  0  0  0  0  0  0  # atno 17321 bound_to 7965
  139.5262  144.3053  152.1039 LP  0  0  0  0  0  0  0  0  0  0  0  0  # atno 17342 bound_to 10162
  140.2227  144.4450  150.6335 LP  0  0  0  0  0  0  0  0  0  0  0  0  # atno 17343 bound_to 10162
  156.3818  130.3882  149.7096 LP  0  0  0  0  0  0  0  0  0  0  0  0  # atno 17370 bound_to 10713
  156.4476  130.7891  151.2912 LP  0  0  0  0  0  0  0  0  0  0  0  0  # atno 17371 bound_to 10713
  140.5811  134.5745  157.5479 LP  0  0  0  0  0  0  0  0  0  0  0  0  # atno 17394 bound_to 11000
  139.9459  134.7703  156.0563 LP  0  0  0  0  0  0  0  0  0  0  0  0  # atno 17395 bound_to 11000

$$$$
