AV-unprocessed.smi:1139|AV-procd|sdf|4870|dock3
  -GOLD-   22720 3443D 1   1.00000     0.00000
 Structure written by MMmdl.
 43 44  0  0  0  0  0  0  0  0  2 V2000
  152.3204  136.9817  157.9152 C   0  0  0  0  0  0  0  0  0  0  0  0
  150.9566  136.6893  157.3583 C   0  0  0  0  0  0  0  0  0  0  0  0
  150.1045  135.9753  158.0740 N   0  0  0  0  0  0  0  0  0  0  0  0
  148.9479  135.8655  157.2963 O   0  0  0  0  0  0  0  0  0  0  0  0
  149.1534  136.5230  156.1267 C   0  0  0  0  0  0  0  0  0  0  0  0
  148.0298  136.5175  155.1463 C   0  0  0  0  0  0  0  0  0  0  0  0
  150.4068  137.0698  156.0997 C   0  0  0  0  0  0  0  0  0  0  0  0
  151.0526  137.8743  155.0014 C   0  0  0  0  0  0  0  0  0  0  0  0
  151.1115  139.3450  155.4127 C   0  0  0  0  0  0  0  0  0  0  0  0
  150.7504  140.2206  154.6269 O   0  0  0  0  0  0  0  0  0  0  0  0
  151.5816  139.6063  156.6408 N   0  0  0  0  0  0  0  0  0  0  0  0
  151.7609  140.9468  157.1843 C   0  0  0  0  0  0  0  0  0  0  0  0
  150.5897  141.8887  156.8114 C   0  0  1  0  0  0  0  0  0  0  0  0
  149.2285  141.2195  157.1090 C   0  0  0  0  0  0  0  0  0  0  0  0
  150.6967  143.1976  157.5198 N   0  3  0  0  0  0  0  0  0  0  0  0
  150.5803  143.1467  158.9938 C   0  0  0  0  0  0  0  0  0  0  0  0
  151.1953  144.4519  159.4843 C   0  0  0  0  0  0  0  0  0  0  0  0
  152.3584  144.6657  158.5230 C   0  0  0  0  0  0  0  0  0  0  0  0
  151.9220  143.9821  157.2197 C   0  0  0  0  0  0  0  0  0  0  0  0
  153.0252  136.1958  157.6438 H   0  0  0  0  0  0  0  0  0  0  0  0
  152.3017  137.0508  159.0035 H   0  0  0  0  0  0  0  0  0  0  0  0
  152.7104  137.9250  157.5331 H   0  0  0  0  0  0  0  0  0  0  0  0
  148.3805  136.2116  154.1605 H   0  0  0  0  0  0  0  0  0  0  0  0
  147.5928  137.5119  155.0561 H   0  0  0  0  0  0  0  0  0  0  0  0
  147.2424  135.8285  155.4526 H   0  0  0  0  0  0  0  0  0  0  0  0
  152.0678  137.5292  154.8009 H   0  0  0  0  0  0  0  0  0  0  0  0
  150.5099  137.7724  154.0609 H   0  0  0  0  0  0  0  0  0  0  0  0
  151.8540  138.8280  157.2237 H   0  0  0  0  0  0  0  0  0  0  0  0
  151.8569  140.8821  158.2697 H   0  0  0  0  0  0  0  0  0  0  0  0
  152.7067  141.3317  156.8011 H   0  0  0  0  0  0  0  0  0  0  0  0
  150.6453  142.0878  155.7396 H   0  0  0  0  0  0  0  0  0  0  0  0
  149.1071  140.2892  156.5545 H   0  0  0  0  0  0  0  0  0  0  0  0
  148.3867  141.8515  156.8280 H   0  0  0  0  0  0  0  0  0  0  0  0
  149.1275  140.9868  158.1696 H   0  0  0  0  0  0  0  0  0  0  0  0
  149.5453  143.0385  159.3196 H   0  0  0  0  0  0  0  0  0  0  0  0
  151.1525  142.3016  159.3809 H   0  0  0  0  0  0  0  0  0  0  0  0
  150.4739  145.2639  159.3810 H   0  0  0  0  0  0  0  0  0  0  0  0
  151.5080  144.4090  160.5279 H   0  0  0  0  0  0  0  0  0  0  0  0
  152.5946  145.7212  158.3846 H   0  0  0  0  0  0  0  0  0  0  0  0
  153.2513  144.1757  158.9133 H   0  0  0  0  0  0  0  0  0  0  0  0
  152.7295  143.3462  156.8536 H   0  0  0  0  0  0  0  0  0  0  0  0
  151.6977  144.7144  156.4434 H   0  0  0  0  0  0  0  0  0  0  0  0
  149.9217  143.7649  157.2069 H   0  0  0  0  0  0  0  0  0  0  0  0
  1  2  1  0  0  0  0
  1 20  1  0  0  0  0
  1 21  1  0  0  0  0
  1 22  1  0  0  0  0
  2  7  1  0  0  0  0
  2  3  2  0  0  0  0
  3  4  1  0  0  0  0
  4  5  1  0  0  0  0
  5  6  1  0  0  0  0
  5  7  2  0  0  0  0
  6 23  1  0  0  0  0
  6 24  1  0  0  0  0
  6 25  1  0  0  0  0
  7  8  1  0  0  0  0
  8  9  1  0  0  0  0
  8 26  1  0  0  0  0
  8 27  1  0  0  0  0
  9 10  2  0  0  0  0
  9 11  1  0  0  0  0
 11 12  1  0  0  0  0
 11 28  1  0  0  0  0
 12 13  1  0  0  0  0
 12 29  1  0  0  0  0
 12 30  1  0  0  0  0
 13 14  1  0  0  0  0
 13 15  1  0  0  0  0
 13 31  1  0  0  0  0
 14 32  1  0  0  0  0
 14 33  1  0  0  0  0
 14 34  1  0  0  0  0
 15 19  1  0  0  0  0
 15 16  1  0  0  0  0
 15 43  1  0  0  0  0
 16 17  1  0  0  0  0
 16 35  1  0  0  0  0
 16 36  1  0  0  0  0
 17 18  1  0  0  0  0
 17 37  1  0  0  0  0
 17 38  1  0  0  0  0
 18 19  1  0  0  0  0
 18 39  1  0  0  0  0
 18 40  1  0  0  0  0
 19 41  1  0  0  0  0
 19 42  1  0  0  0  0
M  CHG  1  15   1
M  END
> <s_m_source_file>
AV-unprocessed.smi

> <i_m_source_file_index>
1139

> <i_lp_mmshare_version>
43012

> <i_f3d_flags>
0

> <s_epik_input>
W0NIM11jMW5vYyhbQ0gzXSljMVtDSDJdQyg9TylbTkhdW0NIMl1bQ0BIXShbQ0gzXSlOMltDSDJdW0NIMl1bQ0gyXVtDSDJdMg==

> <s_epik_cmdline>
J2VwaWtfcHl0aG9uJywgJy1waCcsICc3LjAnLCAnLXRuJywgJzgnLCAnLW1hJywgJzIwMCcsICctbWV0YWxfYmluZGluZycsICctaW1hZScsICc8aW5maWxlLm1hZT4nLCAnLW9tYWUnLCAnPG91dGZpbGUubWFlPic=

> <r_epik_Ionization_Penalty>
0.0050436

> <r_epik_Ionization_Penalty_Charging>
0.0050435

> <r_epik_Ionization_Penalty_Neutral>
9.69799e-08

> <r_epik_State_Penalty>
0.00366867

> <r_epik_Charging_Adjusted_Penalty>
0.00871217

> <i_epik_Tot_Q>
1

> <i_epik_Tot_abs_Q>
1

> <r_epik_Metal_State_Penalty>
-0

> <b_epik_Metal_Only>
0

> <s_lp_Force_Field>
OPLS_2005

> <r_lp_Energy>
24.7849

> <b_lp_Chiralities_Consistent>
1

> <s_lp_Variant>
AV-unprocessed.smi:1139-2

> <Gold.Version>
5.8.1

> <Gold.Id.Protein>
6NUR|6NUR_protein|mol2

> <Gold.PLP.Fitness>
40.9652

> <Gold.PLP.PLP>
-30.2804

> <Gold.PLP.part.hbond>
-3.0000

> <Gold.PLP.part.metal>
0.0000

> <Gold.PLP.part.buried>
-6.7495

> <Gold.PLP.part.nonpolar>
-21.2201

> <Gold.PLP.part.repulsive>
0.1977

> <Gold.PLP.ligand.clash>
0.0000

> <Gold.PLP.ligand.torsion>
0.4880

> <Gold.PLP.Chemscore.Hbond>
3.8640

> <Gold.PLP.Chemscore.CHOScore>
0.0000

> <Gold.PLP.Chemscore.Metal>
0.0000

> <Gold.Chemscore.Hbonds>
donor molecule, donor type, donor heavy atom, donor atom, acceptor molecule, acceptor atom, score
      L1  H    15    43       P1  8028  1.76
      P1  H  6896  6909       L1     3  0.79
      P1  H  7989  7998       L1    10  1.00

> <Gold.PLP.Chemscore.Internal.Correction>
0.0688

> <Gold.Rescore>
     Score         DG    S(hbond)    S(metal)    S(lipo)     H(rot)  DE(clash)    DE(int)     intcor
     17.78     -20.07       2.88        0.00      80.11       1.72       0.34       1.95       ----

> <Gold.Chemscore.Fitness>
17.7796

> <Gold.Chemscore.DG>
-20.0693

> <Gold.Chemscore.ZeroCoef>
-5.4800

> <Gold.Chemscore.Hbond>
2.8798

> <Gold.Chemscore.Metal>
0.0000

> <Gold.Chemscore.Lipo>
80.1072

> <Gold.Chemscore.Internal_Hbond>
0.0000

> <Gold.Chemscore.DEClash>
0.3364

> <Gold.Chemscore.DEInternal>
1.9533

> <Gold.Chemscore.Rot>
1.7195

> <Gold.Chemscore.Internal.Correction>
   9.000000E+99

> <Gold.Chemscore.Hbonds>
donor molecule, donor type, donor heavy atom, donor atom, acceptor molecule, acceptor atom, score
      L1  H    15    43       P1  8028  0.74
      P1  H  6896  6909       L1     3  0.74
      P1  H  7989  7998       L1    10  0.96

> <Gold.Chemscore.Hbond.Weighted>
-9.6185

> <Gold.Chemscore.Metal.Weighted>
-0.0000

> <Gold.Chemscore.Lipo.Weighted>
-9.3725

> <Gold.Chemscore.Internal_Hbond.Weighted>
0.0000

> <Gold.Chemscore.DEClash.Weighted>
0.3364

> <Gold.Chemscore.DEInternal.Weighted>
1.9533

> <Gold.Chemscore.Rot.Weighted>
4.4018

> <Gold.Chemscore.Internal.Correction.Weighted>
   9.000000E+99

> <Gold.Protein.RotatedTorsions>
[ 6907 6896 6895 6894 ] final   64.29 input  -60.11 | X-H torsion
[ 7974 7965 7964 7962 ] final  160.63 input  175.53 | X-H torsion
[ 8008 7997 7996 7995 ] final  -14.71 input   59.86 | X-H torsion
[ 10167 10162 10161 10158 ] final  164.92 input  -65.29 | X-H torsion
[ 10718 10713 10712 10709 ] final  -31.92 input   66.30 | X-H torsion
[ 10763 10752 10751 10750 ] final -144.63 input  -60.55 | X-H torsion
[ 11005 11000 10999 10996 ] final   31.00 input  -57.11 | X-H torsion

> <Gold.Protein.ActiveResidues>
 VAL166  LYS551  ARG553  GLY616  TRP617  ASP618  TYR619  PRO620  LYS621  CYS622 
 ASP623  PHE694  ASN695  SER759  ASP760  ASP761  ALA762  ILE779  LEU786  VAL792 
 PHE793  MET794  SER795  GLU796  ALA797  LYS798  CYS799  TRP800  GLU811  SER814 

> <Gold.Protein.RotatedAtoms>
  152.4320  134.5759  159.9933 H   0  0  0  0  0  0  0  0  0  0  0  0  # atno 6907 bound_to 6896
  151.5879  133.3364  159.3029 H   0  0  0  0  0  0  0  0  0  0  0  0  # atno 6908 bound_to 6896
  150.8214  134.7459  159.6840 H   0  0  0  0  0  0  0  0  0  0  0  0  # atno 6909 bound_to 6896
  144.7727  139.7784  143.6291 H   0  0  0  0  0  0  0  0  0  0  0  0  # atno 7974 bound_to 7965
  154.5188  140.2215  155.9015 H   0  0  0  0  0  0  0  0  0  0  0  0  # atno 8008 bound_to 7997
  156.1638  140.3136  155.8818 H   0  0  0  0  0  0  0  0  0  0  0  0  # atno 8009 bound_to 7997
  155.3698  140.0466  157.3036 H   0  0  0  0  0  0  0  0  0  0  0  0  # atno 8010 bound_to 7997
  139.4897  144.4186  151.9214 H   0  0  0  0  0  0  0  0  0  0  0  0  # atno 10167 bound_to 10162
  156.3813  130.4356  149.7466 H   0  0  0  0  0  0  0  0  0  0  0  0  # atno 10718 bound_to 10713
  154.8420  135.3435  154.6376 H   0  0  0  0  0  0  0  0  0  0  0  0  # atno 10763 bound_to 10752
  153.6986  135.6971  153.5074 H   0  0  0  0  0  0  0  0  0  0  0  0  # atno 10764 bound_to 10752
  153.2540  135.4344  155.0781 H   0  0  0  0  0  0  0  0  0  0  0  0  # atno 10765 bound_to 10752
  140.2884  134.2892  155.7782 H   0  0  0  0  0  0  0  0  0  0  0  0  # atno 11005 bound_to 11000
  146.1885  139.5112  142.9820 LP  0  0  0  0  0  0  0  0  0  0  0  0  # atno 17320 bound_to 7965
  145.6277  141.0310  143.1880 LP  0  0  0  0  0  0  0  0  0  0  0  0  # atno 17321 bound_to 7965
  140.3629  144.2950  150.5931 LP  0  0  0  0  0  0  0  0  0  0  0  0  # atno 17342 bound_to 10162
  140.5387  143.2228  151.8121 LP  0  0  0  0  0  0  0  0  0  0  0  0  # atno 17343 bound_to 10162
  156.4556  130.7927  151.2948 LP  0  0  0  0  0  0  0  0  0  0  0  0  # atno 17370 bound_to 10713
  157.7492  131.0082  150.3219 LP  0  0  0  0  0  0  0  0  0  0  0  0  # atno 17371 bound_to 10713
  141.2150  133.7570  156.9588 LP  0  0  0  0  0  0  0  0  0  0  0  0  # atno 17394 bound_to 11000
  140.1218  134.9412  157.2214 LP  0  0  0  0  0  0  0  0  0  0  0  0  # atno 17395 bound_to 11000

$$$$
