AV-unprocessed.smi:1795|AV-procd|sdf|7247|dock7
  -GOLD-   22720 8493D 1   1.00000     0.00000
 Structure written by MMmdl.
 48 49  0  0  0  0  0  0  0  0  2 V2000
  145.9051  131.7671  150.8239 C   0  0  0  0  0  0  0  0  0  0  0  0
  146.3473  133.0617  151.5157 C   0  0  2  0  0  0  0  0  0  0  0  0
  147.5154  132.8269  152.4927 C   0  0  0  0  0  0  0  0  0  0  0  0
  147.8781  134.0712  153.2277 N   0  3  2  0  0  0  0  0  0  0  0  0
  149.0145  133.9164  154.1973 C   0  0  2  0  0  0  0  0  0  0  0  0
  148.9285  132.5616  154.9420 C   0  0  0  0  0  0  0  0  0  0  0  0
  149.1062  135.0844  155.2219 C   0  0  0  0  0  0  0  0  0  0  0  0
  149.8786  136.2236  154.7326 N   0  0  0  0  0  0  0  0  0  0  0  0
  150.9029  136.7955  155.3840 C   0  0  0  0  0  0  0  0  0  0  0  0
  151.2914  136.4166  156.4897 O   0  0  0  0  0  0  0  0  0  0  0  0
  151.5666  137.9897  154.6835 C   0  0  0  0  0  0  0  0  0  0  0  0
  151.1749  139.2882  155.2564 N   0  0  0  0  0  0  0  0  0  0  0  0
  150.1807  140.0188  154.5750 C   0  0  0  0  0  0  0  0  0  0  0  0
  149.7494  141.2117  155.0147 C   0  0  0  0  0  0  0  0  0  0  0  0
  150.3334  141.7460  156.2223 C   0  0  0  0  0  0  0  0  0  0  0  0
  151.2830  141.0542  156.8833 C   0  0  0  0  0  0  0  0  0  0  0  0
  151.7555  139.7488  156.4077 C   0  0  0  0  0  0  0  0  0  0  0  0
  152.6195  139.1076  157.0071 O   0  0  0  0  0  0  0  0  0  0  0  0
  146.6567  134.6509  153.8530 C   0  0  0  0  0  0  0  0  0  0  0  0
  145.5256  134.8362  152.8249 C   0  0  2  0  0  0  0  0  0  0  0  0
  144.2397  135.3651  153.4703 C   0  0  0  0  0  0  0  0  0  0  0  0
  145.2346  133.5813  152.2281 O   0  0  0  0  0  0  0  0  0  0  0  0
  146.7221  131.3288  150.2501 H   0  0  0  0  0  0  0  0  0  0  0  0
  145.0803  131.9549  150.1360 H   0  0  0  0  0  0  0  0  0  0  0  0
  145.5702  131.0256  151.5498 H   0  0  0  0  0  0  0  0  0  0  0  0
  146.6491  133.7763  150.7477 H   0  0  0  0  0  0  0  0  0  0  0  0
  147.2610  132.0437  153.2089 H   0  0  0  0  0  0  0  0  0  0  0  0
  148.3558  132.4704  151.8991 H   0  0  0  0  0  0  0  0  0  0  0  0
  149.9364  133.9213  153.6132 H   0  0  0  0  0  0  0  0  0  0  0  0
  149.7172  132.4515  155.6857 H   0  0  0  0  0  0  0  0  0  0  0  0
  149.0462  131.7083  154.2766 H   0  0  0  0  0  0  0  0  0  0  0  0
  147.9747  132.4566  155.4602 H   0  0  0  0  0  0  0  0  0  0  0  0
  148.1209  135.4680  155.4867 H   0  0  0  0  0  0  0  0  0  0  0  0
  149.5666  134.7359  156.1472 H   0  0  0  0  0  0  0  0  0  0  0  0
  149.6214  136.5978  153.8304 H   0  0  0  0  0  0  0  0  0  0  0  0
  152.6521  137.8786  154.7207 H   0  0  0  0  0  0  0  0  0  0  0  0
  151.3116  137.9447  153.6237 H   0  0  0  0  0  0  0  0  0  0  0  0
  149.7902  139.5472  153.6849 H   0  0  0  0  0  0  0  0  0  0  0  0
  148.9832  141.7555  154.4817 H   0  0  0  0  0  0  0  0  0  0  0  0
  150.0062  142.7041  156.5984 H   0  0  0  0  0  0  0  0  0  0  0  0
  151.7075  141.4689  157.7860 H   0  0  0  0  0  0  0  0  0  0  0  0
  146.3224  134.0016  154.6641 H   0  0  0  0  0  0  0  0  0  0  0  0
  146.8659  135.6255  154.2890 H   0  0  0  0  0  0  0  0  0  0  0  0
  145.8398  135.5415  152.0533 H   0  0  0  0  0  0  0  0  0  0  0  0
  144.4056  136.3357  153.9382 H   0  0  0  0  0  0  0  0  0  0  0  0
  143.8720  134.6823  154.2368 H   0  0  0  0  0  0  0  0  0  0  0  0
  143.4514  135.4860  152.7269 H   0  0  0  0  0  0  0  0  0  0  0  0
  148.1867  134.7295  152.5266 H   0  0  0  0  0  0  0  0  0  0  0  0
  1  2  1  0  0  0  0
  1 23  1  0  0  0  0
  1 24  1  0  0  0  0
  1 25  1  0  0  0  0
  2 22  1  0  0  0  0
  2  3  1  0  0  0  0
  2 26  1  0  0  0  0
  3  4  1  0  0  0  0
  3 27  1  0  0  0  0
  3 28  1  0  0  0  0
  4  5  1  0  0  0  0
  4 19  1  0  0  0  0
  4 48  1  0  0  0  0
  5  6  1  0  0  0  0
  5  7  1  0  0  0  0
  5 29  1  0  0  0  0
  6 30  1  0  0  0  0
  6 31  1  0  0  0  0
  6 32  1  0  0  0  0
  7  8  1  0  0  0  0
  7 33  1  0  0  0  0
  7 34  1  0  0  0  0
  8  9  1  0  0  0  0
  8 35  1  0  0  0  0
  9 10  2  0  0  0  0
  9 11  1  0  0  0  0
 11 12  1  0  0  0  0
 11 36  1  0  0  0  0
 11 37  1  0  0  0  0
 12 17  1  0  0  0  0
 12 13  1  0  0  0  0
 13 14  2  0  0  0  0
 13 38  1  0  0  0  0
 14 15  1  0  0  0  0
 14 39  1  0  0  0  0
 15 16  2  0  0  0  0
 15 40  1  0  0  0  0
 16 17  1  0  0  0  0
 16 41  1  0  0  0  0
 17 18  2  0  0  0  0
 19 20  1  0  0  0  0
 19 42  1  0  0  0  0
 19 43  1  0  0  0  0
 20 21  1  0  0  0  0
 20 22  1  0  0  0  0
 20 44  1  0  0  0  0
 21 45  1  0  0  0  0
 21 46  1  0  0  0  0
 21 47  1  0  0  0  0
M  CHG  1   4   1
M  END
> <s_m_source_file>
AV-unprocessed.smi

> <i_m_source_file_index>
1795

> <i_lp_mmshare_version>
43012

> <i_f3d_flags>
0

> <s_epik_input>
W0NIM11bQ0BASF0xW0NIMl1OKFtDSDJdW0NASF0oTzEpW0NIM10pW0NASF0oW0NIM10pW0NIMl1bTkhdQyg9TylbQ0gyXW4yW2NIXVtjSF1bY0hdW2NIXWMyPU8=

> <s_epik_cmdline>
J2VwaWtfcHl0aG9uJywgJy1waCcsICc3LjAnLCAnLXRuJywgJzgnLCAnLW1hJywgJzIwMCcsICctbWV0YWxfYmluZGluZycsICctaW1hZScsICc8aW5maWxlLm1hZT4nLCAnLW9tYWUnLCAnPG91dGZpbGUubWFlPic=

> <r_lp_tautomer_probability>
1

> <r_epik_Ionization_Penalty>
0.656654

> <r_epik_Ionization_Penalty_Charging>
0.656654

> <r_epik_Ionization_Penalty_Neutral>
8.90321e-08

> <r_epik_State_Penalty>
0.675641

> <r_epik_Charging_Adjusted_Penalty>
1.33229

> <i_epik_Tot_Q>
1

> <i_epik_Tot_abs_Q>
1

> <r_epik_Metal_State_Penalty>
0.675691

> <b_epik_Metal_Only>
0

> <s_lp_Force_Field>
OPLS_2005

> <r_lp_Energy>
28.0815

> <b_lp_Chiralities_Consistent>
1

> <s_lp_Variant>
AV-unprocessed.smi:1795-11

> <Gold.Version>
5.8.1

> <Gold.Id.Protein>
6NUR|6NUR_protein|mol2

> <Gold.PLP.Fitness>
55.7832

> <Gold.PLP.PLP>
-40.6711

> <Gold.PLP.part.hbond>
-4.5525

> <Gold.PLP.part.metal>
0.0000

> <Gold.PLP.part.buried>
0.0561

> <Gold.PLP.part.nonpolar>
-35.1858

> <Gold.PLP.part.repulsive>
0.1804

> <Gold.PLP.ligand.clash>
0.0000

> <Gold.PLP.ligand.torsion>
1.3126

> <Gold.PLP.Chemscore.Hbond>
4.9280

> <Gold.PLP.Chemscore.CHOScore>
0.9649

> <Gold.PLP.Chemscore.Metal>
0.0000

> <Gold.Chemscore.Hbonds>
donor molecule, donor type, donor heavy atom, donor atom, acceptor molecule, acceptor atom, score
      L1  H     4    48       P1  7948  2.00
      L1  H     8    35       P1  7948  0.84
      P1  H  7997  8008       L1    18  0.98
      L1  C    13    38       P1  7957  0.89

> <Gold.PLP.Chemscore.Internal.Correction>
0.0588

> <Gold.Rescore>
     Score         DG    S(hbond)    S(metal)    S(lipo)     H(rot)  DE(clash)    DE(int)     intcor
     19.22     -20.94       3.19        0.00      82.46       1.89       0.64       1.08       ----

> <Gold.Chemscore.Fitness>
19.2160

> <Gold.Chemscore.DG>
-20.9360

> <Gold.Chemscore.ZeroCoef>
-5.4800

> <Gold.Chemscore.Hbond>
3.1853

> <Gold.Chemscore.Metal>
0.0000

> <Gold.Chemscore.Lipo>
82.4604

> <Gold.Chemscore.Internal_Hbond>
0.0000

> <Gold.Chemscore.DEClash>
0.6422

> <Gold.Chemscore.DEInternal>
1.0779

> <Gold.Chemscore.Rot>
1.8870

> <Gold.Chemscore.Internal.Correction>
   9.000000E+99

> <Gold.Chemscore.Hbonds>
donor molecule, donor type, donor heavy atom, donor atom, acceptor molecule, acceptor atom, score
      L1  H     4    48       P1  7948  0.45
      L1  H     8    35       P1  7948  0.55
      P1  H  7997  8008       L1    18  0.41

> <Gold.Chemscore.Hbond.Weighted>
-10.6389

> <Gold.Chemscore.Metal.Weighted>
-0.0000

> <Gold.Chemscore.Lipo.Weighted>
-9.6479

> <Gold.Chemscore.Internal_Hbond.Weighted>
0.0000

> <Gold.Chemscore.DEClash.Weighted>
0.6422

> <Gold.Chemscore.DEInternal.Weighted>
1.0779

> <Gold.Chemscore.Rot.Weighted>
4.8308

> <Gold.Chemscore.Internal.Correction.Weighted>
   9.000000E+99

> <Gold.Protein.RotatedTorsions>
[ 6907 6896 6895 6894 ] final  166.11 input  -60.11 | X-H torsion
[ 7974 7965 7964 7962 ] final   46.35 input  175.53 | X-H torsion
[ 8008 7997 7996 7995 ] final  -55.55 input   59.86 | X-H torsion
[ 10167 10162 10161 10158 ] final -105.85 input  -65.29 | X-H torsion
[ 10718 10713 10712 10709 ] final  146.41 input   66.30 | X-H torsion
[ 10763 10752 10751 10750 ] final   94.27 input  -60.55 | X-H torsion
[ 11005 11000 10999 10996 ] final   35.19 input  -57.11 | X-H torsion

> <Gold.Protein.ActiveResidues>
 VAL166  LYS551  ARG553  GLY616  TRP617  ASP618  TYR619  PRO620  LYS621  CYS622 
 ASP623  PHE694  ASN695  SER759  ASP760  ASP761  ALA762  ILE779  LEU786  VAL792 
 PHE793  MET794  SER795  GLU796  ALA797  LYS798  CYS799  TRP800  GLU811  SER814 

> <Gold.Protein.RotatedAtoms>
  151.8839  133.3501  159.3775 H   0  0  0  0  0  0  0  0  0  0  0  0  # atno 6907 bound_to 6896
  150.7120  134.4991  159.5562 H   0  0  0  0  0  0  0  0  0  0  0  0  # atno 6908 bound_to 6896
  152.2548  134.8096  160.0491 H   0  0  0  0  0  0  0  0  0  0  0  0  # atno 6909 bound_to 6896
  146.0397  139.4865  142.9786 H   0  0  0  0  0  0  0  0  0  0  0  0  # atno 7974 bound_to 7965
  154.4199  140.1150  156.5494 H   0  0  0  0  0  0  0  0  0  0  0  0  # atno 8008 bound_to 7997
  155.6425  140.3496  155.4701 H   0  0  0  0  0  0  0  0  0  0  0  0  # atno 8009 bound_to 7997
  155.9859  140.1169  157.0673 H   0  0  0  0  0  0  0  0  0  0  0  0  # atno 8010 bound_to 7997
  140.1941  143.3869  152.1183 H   0  0  0  0  0  0  0  0  0  0  0  0  # atno 10167 bound_to 10162
  157.3336  131.0924  151.1142 H   0  0  0  0  0  0  0  0  0  0  0  0  # atno 10718 bound_to 10713
  153.2398  135.4295  155.0685 H   0  0  0  0  0  0  0  0  0  0  0  0  # atno 10763 bound_to 10752
  154.8335  135.3400  154.6666 H   0  0  0  0  0  0  0  0  0  0  0  0  # atno 10764 bound_to 10752
  153.7090  135.7024  153.5099 H   0  0  0  0  0  0  0  0  0  0  0  0  # atno 10765 bound_to 10752
  140.2452  134.3368  155.7910 H   0  0  0  0  0  0  0  0  0  0  0  0  # atno 11005 bound_to 11000
  145.6904  141.0166  143.1558 LP  0  0  0  0  0  0  0  0  0  0  0  0  # atno 17320 bound_to 7965
  144.7069  139.8526  143.7427 LP  0  0  0  0  0  0  0  0  0  0  0  0  # atno 17321 bound_to 7965
  139.5244  144.7083  151.5286 LP  0  0  0  0  0  0  0  0  0  0  0  0  # atno 17342 bound_to 10162
  140.6436  143.8840  150.6715 LP  0  0  0  0  0  0  0  0  0  0  0  0  # atno 17343 bound_to 10162
  157.2381  130.6556  149.5878 LP  0  0  0  0  0  0  0  0  0  0  0  0  # atno 17370 bound_to 10713
  155.9698  130.4577  150.5972 LP  0  0  0  0  0  0  0  0  0  0  0  0  # atno 17371 bound_to 10713
  141.2207  133.7321  156.8949 LP  0  0  0  0  0  0  0  0  0  0  0  0  # atno 17394 bound_to 11000
  140.1613  134.9163  157.2718 LP  0  0  0  0  0  0  0  0  0  0  0  0  # atno 17395 bound_to 11000

$$$$
