AV-unprocessed.smi:3056|AV-procd|sdf|11651|dock7
  -GOLD-   2272017 53D 1   1.00000     0.00000
 Structure written by MMmdl.
 48 49  0  0  0  0  0  0  0  0  2 V2000
  151.9252  144.8938  159.0765 C   0  0  0  0  0  0  0  0  0  0  0  0
  151.7116  143.4954  158.5727 C   0  0  0  0  0  0  0  0  0  0  0  0
  152.1714  142.2785  159.1499 C   0  0  0  0  0  0  0  0  0  0  0  0
  151.8080  141.2126  158.4561 N   0  0  0  0  0  0  0  0  0  0  0  0
  151.1146  141.7046  157.4067 N   0  0  0  0  0  0  0  0  0  0  0  0
  150.5403  140.7854  156.4284 C   0  0  2  0  0  0  0  0  0  0  0  0
  151.6201  139.8728  155.8200 C   0  0  0  0  0  0  0  0  0  0  0  0
  149.6574  141.5034  155.3718 C   0  0  1  0  0  0  0  0  0  0  0  0
  149.2072  140.5609  154.2436 C   0  0  0  0  0  0  0  0  0  0  0  0
  148.4639  142.1298  155.9845 N   0  3  0  0  0  0  0  0  0  0  0  0
  147.9212  141.4296  157.1691 C   0  0  0  0  0  0  0  0  0  0  0  0
  147.5492  142.3974  158.3019 C   0  0  0  0  0  0  0  0  0  0  0  0
  148.4464  143.0346  158.8564 O   0  0  0  0  0  0  0  0  0  0  0  0
  146.2476  142.5242  158.6541 N   0  0  0  0  0  0  0  0  0  0  0  0
  145.1220  141.7750  158.0868 C   0  0  0  0  0  0  0  0  0  0  0  0
  144.5194  140.8975  159.1979 C   0  0  0  0  0  0  0  0  0  0  0  0
  144.1202  141.7179  160.2934 O   0  0  0  0  0  0  0  0  0  0  0  0
  145.1877  142.4831  160.8512 C   0  0  2  0  0  0  0  0  0  0  0  0
  144.6322  143.2968  162.0247 C   0  0  0  0  0  0  0  0  0  0  0  0
  145.7916  143.3805  159.7522 C   0  0  0  0  0  0  0  0  0  0  0  0
  151.0369  143.0832  157.4590 C   0  0  0  0  0  0  0  0  0  0  0  0
  152.2332  144.9055  160.1222 H   0  0  0  0  0  0  0  0  0  0  0  0
  151.0168  145.4919  159.0035 H   0  0  0  0  0  0  0  0  0  0  0  0
  152.6984  145.4111  158.5082 H   0  0  0  0  0  0  0  0  0  0  0  0
  152.7528  142.1390  160.0494 H   0  0  0  0  0  0  0  0  0  0  0  0
  149.8750  140.1173  156.9788 H   0  0  0  0  0  0  0  0  0  0  0  0
  151.1805  139.1512  155.1309 H   0  0  0  0  0  0  0  0  0  0  0  0
  152.1346  139.3088  156.5986 H   0  0  0  0  0  0  0  0  0  0  0  0
  152.3748  140.4385  155.2737 H   0  0  0  0  0  0  0  0  0  0  0  0
  150.2594  142.2837  154.9027 H   0  0  0  0  0  0  0  0  0  0  0  0
  150.0634  140.0810  153.7687 H   0  0  0  0  0  0  0  0  0  0  0  0
  148.6687  141.1079  153.4690 H   0  0  0  0  0  0  0  0  0  0  0  0
  148.5463  139.7749  154.6098 H   0  0  0  0  0  0  0  0  0  0  0  0
  148.7107  143.0657  156.2735 H   0  0  0  0  0  0  0  0  0  0  0  0
  147.0351  140.8627  156.8844 H   0  0  0  0  0  0  0  0  0  0  0  0
  148.6717  140.7231  157.5264 H   0  0  0  0  0  0  0  0  0  0  0  0
  144.3729  142.4779  157.7193 H   0  0  0  0  0  0  0  0  0  0  0  0
  145.3874  141.1538  157.2333 H   0  0  0  0  0  0  0  0  0  0  0  0
  143.6474  140.3606  158.8242 H   0  0  0  0  0  0  0  0  0  0  0  0
  145.2370  140.1477  159.5347 H   0  0  0  0  0  0  0  0  0  0  0  0
  145.9520  141.8021  161.2304 H   0  0  0  0  0  0  0  0  0  0  0  0
  145.4159  143.8893  162.4974 H   0  0  0  0  0  0  0  0  0  0  0  0
  144.2061  142.6427  162.7859 H   0  0  0  0  0  0  0  0  0  0  0  0
  143.8484  143.9795  161.6955 H   0  0  0  0  0  0  0  0  0  0  0  0
  146.5909  143.9936  160.1709 H   0  0  0  0  0  0  0  0  0  0  0  0
  145.0418  144.0787  159.3769 H   0  0  0  0  0  0  0  0  0  0  0  0
  150.5139  143.6561  156.7075 H   0  0  0  0  0  0  0  0  0  0  0  0
  147.7407  142.1986  155.2828 H   0  0  0  0  0  0  0  0  0  0  0  0
  1  2  1  0  0  0  0
  1 22  1  0  0  0  0
  1 23  1  0  0  0  0
  1 24  1  0  0  0  0
  2 21  2  0  0  0  0
  2  3  1  0  0  0  0
  3  4  2  0  0  0  0
  3 25  1  0  0  0  0
  4  5  1  0  0  0  0
  5  6  1  0  0  0  0
  5 21  1  0  0  0  0
  6  7  1  0  0  0  0
  6  8  1  0  0  0  0
  6 26  1  0  0  0  0
  7 27  1  0  0  0  0
  7 28  1  0  0  0  0
  7 29  1  0  0  0  0
  8  9  1  0  0  0  0
  8 10  1  0  0  0  0
  8 30  1  0  0  0  0
  9 31  1  0  0  0  0
  9 32  1  0  0  0  0
  9 33  1  0  0  0  0
 10 11  1  0  0  0  0
 10 34  1  0  0  0  0
 10 48  1  0  0  0  0
 11 12  1  0  0  0  0
 11 35  1  0  0  0  0
 11 36  1  0  0  0  0
 12 13  2  0  0  0  0
 12 14  1  0  0  0  0
 14 20  1  0  0  0  0
 14 15  1  0  0  0  0
 15 16  1  0  0  0  0
 15 37  1  0  0  0  0
 15 38  1  0  0  0  0
 16 17  1  0  0  0  0
 16 39  1  0  0  0  0
 16 40  1  0  0  0  0
 17 18  1  0  0  0  0
 18 19  1  0  0  0  0
 18 20  1  0  0  0  0
 18 41  1  0  0  0  0
 19 42  1  0  0  0  0
 19 43  1  0  0  0  0
 19 44  1  0  0  0  0
 20 45  1  0  0  0  0
 20 46  1  0  0  0  0
 21 47  1  0  0  0  0
M  CHG  1  10   1
M  END
> <s_m_source_file>
AV-unprocessed.smi

> <i_m_source_file_index>
3056

> <i_lp_mmshare_version>
43012

> <i_f3d_flags>
0

> <s_epik_input>
W0NIM11jMVtjSF1ubihbY0hdMSlbQ0BIXShbQ0gzXSlbQ0BIXShbQ0gzXSlbTkhdW0NIMl1DKD1PKU4yW0NIMl1bQ0gyXU9bQ0BASF0oW0NIM10pW0NIMl0y

> <s_epik_cmdline>
J2VwaWtfcHl0aG9uJywgJy1waCcsICc3LjAnLCAnLXRuJywgJzgnLCAnLW1hJywgJzIwMCcsICctbWV0YWxfYmluZGluZycsICctaW1hZScsICc8aW5maWxlLm1hZT4nLCAnLW9tYWUnLCAnPG91dGZpbGUubWFlPic=

> <r_lp_tautomer_probability>
1

> <r_epik_Ionization_Penalty>
0.233715

> <r_epik_Ionization_Penalty_Charging>
0.233698

> <r_epik_Ionization_Penalty_Neutral>
1.68157e-05

> <r_epik_State_Penalty>
0.225221

> <r_epik_Charging_Adjusted_Penalty>
0.458919

> <i_epik_Tot_Q>
1

> <i_epik_Tot_abs_Q>
1

> <r_epik_Metal_State_Penalty>
0.225535

> <b_epik_Metal_Only>
0

> <s_lp_Force_Field>
OPLS_2005

> <r_lp_Energy>
29.3518

> <b_lp_Chiralities_Consistent>
1

> <s_lp_Variant>
AV-unprocessed.smi:3056-7

> <Gold.Version>
5.8.1

> <Gold.Id.Protein>
6NUR|6NUR_protein|mol2

> <Gold.PLP.Fitness>
47.4031

> <Gold.PLP.PLP>
-40.6575

> <Gold.PLP.part.hbond>
-1.0000

> <Gold.PLP.part.metal>
0.0000

> <Gold.PLP.part.buried>
-6.2433

> <Gold.PLP.part.nonpolar>
-35.2217

> <Gold.PLP.part.repulsive>
0.2373

> <Gold.PLP.ligand.clash>
0.0000

> <Gold.PLP.ligand.torsion>
0.8988

> <Gold.PLP.Chemscore.Hbond>
1.7920

> <Gold.PLP.Chemscore.CHOScore>
1.0000

> <Gold.PLP.Chemscore.Metal>
0.0000

> <Gold.Chemscore.Hbonds>
donor molecule, donor type, donor heavy atom, donor atom, acceptor molecule, acceptor atom, score
      L1  H    10    34       P1  8028  1.70
      L1  C    21    47       P1  8028  1.00

> <Gold.PLP.Chemscore.Internal.Correction>
0.1672

> <Gold.Rescore>
     Score         DG    S(hbond)    S(metal)    S(lipo)     H(rot)  DE(clash)    DE(int)     intcor
     14.05     -15.04       0.93        0.00      93.08       1.74       0.08       0.91       ----

> <Gold.Chemscore.Fitness>
14.0526

> <Gold.Chemscore.DG>
-15.0416

> <Gold.Chemscore.ZeroCoef>
-5.4800

> <Gold.Chemscore.Hbond>
0.9322

> <Gold.Chemscore.Metal>
0.0000

> <Gold.Chemscore.Lipo>
93.0826

> <Gold.Chemscore.Internal_Hbond>
0.0000

> <Gold.Chemscore.DEClash>
0.0806

> <Gold.Chemscore.DEInternal>
0.9085

> <Gold.Chemscore.Rot>
1.7354

> <Gold.Chemscore.Internal.Correction>
   9.000000E+99

> <Gold.Chemscore.Hbonds>
donor molecule, donor type, donor heavy atom, donor atom, acceptor molecule, acceptor atom, score
      L1  H    10    34       P1  8028  0.81

> <Gold.Chemscore.Hbond.Weighted>
-3.1135

> <Gold.Chemscore.Metal.Weighted>
-0.0000

> <Gold.Chemscore.Lipo.Weighted>
-10.8907

> <Gold.Chemscore.Internal_Hbond.Weighted>
0.0000

> <Gold.Chemscore.DEClash.Weighted>
0.0806

> <Gold.Chemscore.DEInternal.Weighted>
0.9085

> <Gold.Chemscore.Rot.Weighted>
4.4426

> <Gold.Chemscore.Internal.Correction.Weighted>
   9.000000E+99

> <Gold.Protein.RotatedTorsions>
[ 6907 6896 6895 6894 ] final  -88.33 input  -60.11 | X-H torsion
[ 7974 7965 7964 7962 ] final   47.74 input  175.53 | X-H torsion
[ 8008 7997 7996 7995 ] final  -33.15 input   59.86 | X-H torsion
[ 10167 10162 10161 10158 ] final -169.07 input  -65.29 | X-H torsion
[ 10718 10713 10712 10709 ] final   78.78 input   66.30 | X-H torsion
[ 10763 10752 10751 10750 ] final  127.85 input  -60.55 | X-H torsion
[ 11005 11000 10999 10996 ] final  -42.63 input  -57.11 | X-H torsion

> <Gold.Protein.ActiveResidues>
 VAL166  LYS551  ARG553  GLY616  TRP617  ASP618  TYR619  PRO620  LYS621  CYS622 
 ASP623  PHE694  ASN695  SER759  ASP760  ASP761  ALA762  ILE779  LEU786  VAL792 
 PHE793  MET794  SER795  GLU796  ALA797  LYS798  CYS799  TRP800  GLU811  SER814 

> <Gold.Protein.RotatedAtoms>
  150.6868  134.2759  159.4606 H   0  0  0  0  0  0  0  0  0  0  0  0  # atno 6907 bound_to 6896
  152.0677  134.9551  160.0584 H   0  0  0  0  0  0  0  0  0  0  0  0  # atno 6908 bound_to 6896
  152.0953  133.4187  159.4599 H   0  0  0  0  0  0  0  0  0  0  0  0  # atno 6909 bound_to 6896
  146.0269  139.4717  142.9862 H   0  0  0  0  0  0  0  0  0  0  0  0  # atno 7974 bound_to 7965
  154.4157  140.1718  156.1842 H   0  0  0  0  0  0  0  0  0  0  0  0  # atno 8008 bound_to 7997
  155.9657  140.3390  155.6506 H   0  0  0  0  0  0  0  0  0  0  0  0  # atno 8009 bound_to 7997
  155.6691  140.0709  157.2517 H   0  0  0  0  0  0  0  0  0  0  0  0  # atno 8010 bound_to 7997
  139.5946  144.1141  152.1674 H   0  0  0  0  0  0  0  0  0  0  0  0  # atno 10167 bound_to 10162
  157.6756  130.9884  150.1837 H   0  0  0  0  0  0  0  0  0  0  0  0  # atno 10718 bound_to 10713
  153.7161  135.3260  155.3256 H   0  0  0  0  0  0  0  0  0  0  0  0  # atno 10763 bound_to 10752
  154.8370  135.4488  154.1265 H   0  0  0  0  0  0  0  0  0  0  0  0  # atno 10764 bound_to 10752
  153.2372  135.6967  153.7903 H   0  0  0  0  0  0  0  0  0  0  0  0  # atno 10765 bound_to 10752
  141.0329  133.6812  156.2621 H   0  0  0  0  0  0  0  0  0  0  0  0  # atno 11005 bound_to 11000
  145.7103  141.0108  143.1457 LP  0  0  0  0  0  0  0  0  0  0  0  0  # atno 17320 bound_to 7965
  144.7013  139.8749  143.7443 LP  0  0  0  0  0  0  0  0  0  0  0  0  # atno 17321 bound_to 7965
  140.0723  144.5769  150.7183 LP  0  0  0  0  0  0  0  0  0  0  0  0  # atno 17342 bound_to 10162
  140.7201  143.2580  151.4307 LP  0  0  0  0  0  0  0  0  0  0  0  0  # atno 17343 bound_to 10162
  156.2563  130.3706  149.8178 LP  0  0  0  0  0  0  0  0  0  0  0  0  # atno 17370 bound_to 10713
  156.5936  130.8516  151.3414 LP  0  0  0  0  0  0  0  0  0  0  0  0  # atno 17371 bound_to 10713
  140.6375  134.5200  157.5566 LP  0  0  0  0  0  0  0  0  0  0  0  0  # atno 17394 bound_to 11000
  139.9220  134.8130  156.1183 LP  0  0  0  0  0  0  0  0  0  0  0  0  # atno 17395 bound_to 11000

$$$$
