AV-unprocessed.smi:1977|AV-procd|sdf|7991|dock1
  -GOLD-   2272010173D 1   1.00000     0.00000
 Structure written by MMmdl.
 45 46  0  0  0  0  0  0  0  0  1 V2000
  145.1158  135.7107  150.6951 C   0  0  0  0  0  0  0  0  0  0  0  0
  145.5402  134.2697  151.0277 C   0  0  0  0  0  0  0  0  0  0  0  0
  144.4224  133.2794  150.6700 C   0  0  0  0  0  0  0  0  0  0  0  0
  145.9615  134.1066  152.5038 C   0  0  0  0  0  0  0  0  0  0  0  0
  146.9056  135.1320  152.9360 N   0  0  0  0  0  0  0  0  0  0  0  0
  146.8022  135.8454  154.0658 C   0  0  0  0  0  0  0  0  0  0  0  0
  145.8886  135.7178  154.8809 O   0  0  0  0  0  0  0  0  0  0  0  0
  147.8119  136.7180  154.1949 N   0  0  0  0  0  0  0  0  0  0  0  0
  148.0008  137.6428  155.3100 C   0  0  0  0  0  0  0  0  0  0  0  0
  148.1016  139.1134  154.8969 C   0  0  0  0  0  0  0  0  0  0  0  0
  147.0107  139.7512  154.2613 C   0  0  0  0  0  0  0  0  0  0  0  0
  147.1052  141.1116  153.9189 C   0  0  0  0  0  0  0  0  0  0  0  0
  148.2921  141.7955  154.2320 C   0  0  0  0  0  0  0  0  0  0  0  0
  149.3396  141.2089  154.8448 N   0  0  0  0  0  0  0  0  0  0  0  0
  149.2549  139.8974  155.1778 C   0  0  0  0  0  0  0  0  0  0  0  0
  150.3794  139.3227  155.7969 N   0  0  0  0  0  0  0  0  0  0  0  0
  150.8085  139.9222  157.0566 C   0  0  0  0  0  0  0  0  0  0  0  0
  151.9241  139.0709  157.6868 C   0  0  0  0  0  0  0  0  0  0  0  0
  152.9984  138.9320  156.7607 O   0  0  0  0  0  0  0  0  0  0  0  0
  152.5895  138.2848  155.5586 C   0  0  0  0  0  0  0  0  0  0  0  0
  151.4876  139.1122  154.8740 C   0  0  0  0  0  0  0  0  0  0  0  0
  144.2700  136.0248  151.3073 H   0  0  0  0  0  0  0  0  0  0  0  0
  144.8195  135.7999  149.6496 H   0  0  0  0  0  0  0  0  0  0  0  0
  145.9290  136.4176  150.8610 H   0  0  0  0  0  0  0  0  0  0  0  0
  146.3986  134.0253  150.4005 H   0  0  0  0  0  0  0  0  0  0  0  0
  143.5241  133.4654  151.2595 H   0  0  0  0  0  0  0  0  0  0  0  0
  144.7345  132.2510  150.8541 H   0  0  0  0  0  0  0  0  0  0  0  0
  144.1514  133.3559  149.6165 H   0  0  0  0  0  0  0  0  0  0  0  0
  145.0840  134.1648  153.1486 H   0  0  0  0  0  0  0  0  0  0  0  0
  146.3956  133.1188  152.6686 H   0  0  0  0  0  0  0  0  0  0  0  0
  147.6929  135.3097  152.3295 H   0  0  0  0  0  0  0  0  0  0  0  0
  148.5094  136.7438  153.4656 H   0  0  0  0  0  0  0  0  0  0  0  0
  147.1944  137.5476  156.0386 H   0  0  0  0  0  0  0  0  0  0  0  0
  148.9025  137.3160  155.8248 H   0  0  0  0  0  0  0  0  0  0  0  0
  146.1002  139.2150  154.0403 H   0  0  0  0  0  0  0  0  0  0  0  0
  146.2851  141.6191  153.4328 H   0  0  0  0  0  0  0  0  0  0  0  0
  148.4033  142.8413  153.9865 H   0  0  0  0  0  0  0  0  0  0  0  0
  151.1772  140.9338  156.8806 H   0  0  0  0  0  0  0  0  0  0  0  0
  149.9608  139.9979  157.7385 H   0  0  0  0  0  0  0  0  0  0  0  0
  152.2956  139.5487  158.5933 H   0  0  0  0  0  0  0  0  0  0  0  0
  151.5488  138.0874  157.9744 H   0  0  0  0  0  0  0  0  0  0  0  0
  153.4502  138.1843  154.8975 H   0  0  0  0  0  0  0  0  0  0  0  0
  152.2362  137.2763  155.7791 H   0  0  0  0  0  0  0  0  0  0  0  0
  151.1441  138.6040  153.9725 H   0  0  0  0  0  0  0  0  0  0  0  0
  151.8851  140.0794  154.5625 H   0  0  0  0  0  0  0  0  0  0  0  0
  1  2  1  0  0  0  0
  1 22  1  0  0  0  0
  1 23  1  0  0  0  0
  1 24  1  0  0  0  0
  2  3  1  0  0  0  0
  2  4  1  0  0  0  0
  2 25  1  0  0  0  0
  3 26  1  0  0  0  0
  3 27  1  0  0  0  0
  3 28  1  0  0  0  0
  4  5  1  0  0  0  0
  4 29  1  0  0  0  0
  4 30  1  0  0  0  0
  5  6  1  0  0  0  0
  5 31  1  0  0  0  0
  6  7  2  0  0  0  0
  6  8  1  0  0  0  0
  8  9  1  0  0  0  0
  8 32  1  0  0  0  0
  9 10  1  0  0  0  0
  9 33  1  0  0  0  0
  9 34  1  0  0  0  0
 10 15  1  0  0  0  0
 10 11  2  0  0  0  0
 11 12  1  0  0  0  0
 11 35  1  0  0  0  0
 12 13  2  0  0  0  0
 12 36  1  0  0  0  0
 13 14  1  0  0  0  0
 13 37  1  0  0  0  0
 14 15  2  0  0  0  0
 15 16  1  0  0  0  0
 16 21  1  0  0  0  0
 16 17  1  0  0  0  0
 17 18  1  0  0  0  0
 17 38  1  0  0  0  0
 17 39  1  0  0  0  0
 18 19  1  0  0  0  0
 18 40  1  0  0  0  0
 18 41  1  0  0  0  0
 19 20  1  0  0  0  0
 20 21  1  0  0  0  0
 20 42  1  0  0  0  0
 20 43  1  0  0  0  0
 21 44  1  0  0  0  0
 21 45  1  0  0  0  0
M  END
> <s_m_source_file>
AV-unprocessed.smi

> <i_m_source_file_index>
1977

> <i_lp_mmshare_version>
43012

> <i_f3d_flags>
0

> <s_epik_input>
W0NIM11bQ0hdKFtDSDNdKVtDSDJdW05IXUMoPU8pW05IXVtDSDJdYzFbY0hdW2NIXVtjSF1uYzFOMltDSDJdW0NIMl1PW0NIMl1bQ0gyXTI=

> <s_epik_cmdline>
J2VwaWtfcHl0aG9uJywgJy1waCcsICc3LjAnLCAnLXRuJywgJzgnLCAnLW1hJywgJzIwMCcsICctbWV0YWxfYmluZGluZycsICctaW1hZScsICc8aW5maWxlLm1hZT4nLCAnLW9tYWUnLCAnPG91dGZpbGUubWFlPic=

> <r_lp_tautomer_probability>
1

> <r_epik_Ionization_Penalty>
0.00617532

> <r_epik_Ionization_Penalty_Charging>
0

> <r_epik_Ionization_Penalty_Neutral>
0.00617532

> <r_epik_State_Penalty>
0.00451205

> <r_epik_Charging_Adjusted_Penalty>
0.00451205

> <i_epik_Tot_Q>
0

> <i_epik_Tot_abs_Q>
0

> <r_epik_Metal_State_Penalty>
-0

> <b_epik_Metal_Only>
0

> <s_lp_Force_Field>
OPLS_2005

> <r_lp_Energy>
18.8779

> <b_lp_Chiralities_Consistent>
1

> <s_lp_Variant>
AV-unprocessed.smi:1977-1

> <Gold.Version>
5.8.1

> <Gold.Id.Protein>
6NUR|6NUR_protein|mol2

> <Gold.PLP.Fitness>
41.2576

> <Gold.PLP.PLP>
-30.0132

> <Gold.PLP.part.hbond>
-3.0705

> <Gold.PLP.part.metal>
0.0000

> <Gold.PLP.part.buried>
-2.4375

> <Gold.PLP.part.nonpolar>
-24.3440

> <Gold.PLP.part.repulsive>
0.1836

> <Gold.PLP.ligand.clash>
0.0000

> <Gold.PLP.ligand.torsion>
0.2862

> <Gold.PLP.Chemscore.Hbond>
2.9920

> <Gold.PLP.Chemscore.CHOScore>
0.8851

> <Gold.PLP.Chemscore.Metal>
0.0000

> <Gold.Chemscore.Hbonds>
donor molecule, donor type, donor heavy atom, donor atom, acceptor molecule, acceptor atom, score
      L1  H     5    31       P1  7948  1.00
      L1  H     8    32       P1  7948  0.94
      P1  H  7997  8008       L1    19  1.00
      L1  C    13    37       P1  8028  0.93

> <Gold.PLP.Chemscore.Internal.Correction>
0.1854

> <Gold.Rescore>
     Score         DG    S(hbond)    S(metal)    S(lipo)     H(rot)  DE(clash)    DE(int)     intcor
     18.55     -18.86       2.89        0.00      70.41       1.77       0.09       0.22       ----

> <Gold.Chemscore.Fitness>
18.5525

> <Gold.Chemscore.DG>
-18.8564

> <Gold.Chemscore.ZeroCoef>
-5.4800

> <Gold.Chemscore.Hbond>
2.8923

> <Gold.Chemscore.Metal>
0.0000

> <Gold.Chemscore.Lipo>
70.4056

> <Gold.Chemscore.Internal_Hbond>
0.0000

> <Gold.Chemscore.DEClash>
0.0885

> <Gold.Chemscore.DEInternal>
0.2153

> <Gold.Chemscore.Rot>
1.7662

> <Gold.Chemscore.Internal.Correction>
   9.000000E+99

> <Gold.Chemscore.Hbonds>
donor molecule, donor type, donor heavy atom, donor atom, acceptor molecule, acceptor atom, score
      L1  H     5    31       P1  7948  0.95
      L1  H     8    32       P1  7948  0.91
      P1  H  7997  8008       L1    19  0.85

> <Gold.Chemscore.Hbond.Weighted>
-9.6603

> <Gold.Chemscore.Metal.Weighted>
-0.0000

> <Gold.Chemscore.Lipo.Weighted>
-8.2375

> <Gold.Chemscore.Internal_Hbond.Weighted>
0.0000

> <Gold.Chemscore.DEClash.Weighted>
0.0885

> <Gold.Chemscore.DEInternal.Weighted>
0.2153

> <Gold.Chemscore.Rot.Weighted>
4.5214

> <Gold.Chemscore.Internal.Correction.Weighted>
   9.000000E+99

> <Gold.Protein.RotatedTorsions>
[ 6907 6896 6895 6894 ] final   80.41 input  -60.11 | X-H torsion
[ 7974 7965 7964 7962 ] final   79.87 input  175.53 | X-H torsion
[ 8008 7997 7996 7995 ] final  -53.68 input   59.86 | X-H torsion
[ 10167 10162 10161 10158 ] final    2.37 input  -65.29 | X-H torsion
[ 10718 10713 10712 10709 ] final  142.07 input   66.30 | X-H torsion
[ 10763 10752 10751 10750 ] final  -17.59 input  -60.55 | X-H torsion
[ 11005 11000 10999 10996 ] final  -86.62 input  -57.11 | X-H torsion

> <Gold.Protein.ActiveResidues>
 VAL166  LYS551  ARG553  GLY616  TRP617  ASP618  TYR619  PRO620  LYS621  CYS622 
 ASP623  PHE694  ASN695  SER759  ASP760  ASP761  ALA762  ILE779  LEU786  VAL792 
 PHE793  MET794  SER795  GLU796  ALA797  LYS798  CYS799  TRP800  GLU811  SER814 

> <Gold.Protein.RotatedAtoms>
  152.5234  134.3362  159.9200 H   0  0  0  0  0  0  0  0  0  0  0  0  # atno 6907 bound_to 6896
  151.3311  133.3994  159.2670 H   0  0  0  0  0  0  0  0  0  0  0  0  # atno 6908 bound_to 6896
  150.9880  134.9238  159.7940 H   0  0  0  0  0  0  0  0  0  0  0  0  # atno 6909 bound_to 6896
  145.6585  139.2465  143.1936 H   0  0  0  0  0  0  0  0  0  0  0  0  # atno 7974 bound_to 7965
  154.4140  140.1194  156.5193 H   0  0  0  0  0  0  0  0  0  0  0  0  # atno 8008 bound_to 7997
  155.6718  140.3496  155.4802 H   0  0  0  0  0  0  0  0  0  0  0  0  # atno 8009 bound_to 7997
  155.9626  140.1126  157.0872 H   0  0  0  0  0  0  0  0  0  0  0  0  # atno 8010 bound_to 7997
  140.6638  143.7233  150.7789 H   0  0  0  0  0  0  0  0  0  0  0  0  # atno 10167 bound_to 10162
  157.3847  131.0997  151.0704 H   0  0  0  0  0  0  0  0  0  0  0  0  # atno 10718 bound_to 10713
  153.5762  135.7006  153.5483 H   0  0  0  0  0  0  0  0  0  0  0  0  # atno 10763 bound_to 10752
  153.3300  135.4050  155.1487 H   0  0  0  0  0  0  0  0  0  0  0  0  # atno 10764 bound_to 10752
  154.8625  135.3716  154.5288 H   0  0  0  0  0  0  0  0  0  0  0  0  # atno 10765 bound_to 10752
  141.1627  133.7465  156.9188 H   0  0  0  0  0  0  0  0  0  0  0  0  # atno 11005 bound_to 11000
  146.1145  140.7387  142.9487 LP  0  0  0  0  0  0  0  0  0  0  0  0  # atno 17320 bound_to 7965
  144.7097  140.3992  143.7090 LP  0  0  0  0  0  0  0  0  0  0  0  0  # atno 17321 bound_to 7965
  140.0907  143.4881  152.2480 LP  0  0  0  0  0  0  0  0  0  0  0  0  # atno 17342 bound_to 10162
  139.5880  144.7539  151.3471 LP  0  0  0  0  0  0  0  0  0  0  0  0  # atno 17343 bound_to 10162
  157.1760  130.6288  149.5656 LP  0  0  0  0  0  0  0  0  0  0  0  0  # atno 17370 bound_to 10713
  155.9784  130.4769  150.6652 LP  0  0  0  0  0  0  0  0  0  0  0  0  # atno 17371 bound_to 10713
  140.1466  134.9258  157.2537 LP  0  0  0  0  0  0  0  0  0  0  0  0  # atno 17394 bound_to 11000
  140.2773  134.3391  155.7354 LP  0  0  0  0  0  0  0  0  0  0  0  0  # atno 17395 bound_to 11000

$$$$
