AV-unprocessed.smi:2928|AV-procd|sdf|11232|dock10
  -GOLD-   2272016123D 1   1.00000     0.00000
 Structure written by MMmdl.
 55 58  0  0  0  0  0  0  0  0  2 V2000
  147.9894  141.2039  153.8602 C   0  0  0  0  0  0  0  0  0  0  0  0
  148.8236  141.0824  155.0798 N   0  3  2  0  0  0  0  0  0  0  0  0
  150.2102  140.6121  154.8429 C   0  0  1  0  0  0  0  0  0  0  0  0
  151.0703  140.9465  156.0838 C   0  0  0  0  0  0  0  0  0  0  0  0
  150.4841  140.4163  157.4080 C   0  0  0  0  0  0  0  0  0  0  0  0
  148.9579  140.6214  157.4991 C   0  0  0  0  0  0  0  0  0  0  0  0
  148.2045  140.3103  156.1844 C   0  0  2  0  0  0  0  0  0  0  0  0
  148.1080  138.8054  155.8318 C   0  0  0  0  0  0  0  0  0  0  0  0
  149.4282  138.1730  155.3353 C   0  0  1  0  0  0  0  0  0  0  0  0
  149.1207  136.9434  154.6076 N   0  0  0  0  0  0  0  0  0  0  0  0
  149.3413  135.6937  155.0402 C   0  0  0  0  0  0  0  0  0  0  0  0
  149.8494  135.4251  156.1286 O   0  0  0  0  0  0  0  0  0  0  0  0
  148.9550  134.7935  154.1215 N   0  0  0  0  0  0  0  0  0  0  0  0
  149.0001  133.3730  154.2001 C   0  0  0  0  0  0  0  0  0  0  0  0
  149.8965  132.6795  155.0492 C   0  0  0  0  0  0  0  0  0  0  0  0
  149.8560  131.2737  155.0864 C   0  0  0  0  0  0  0  0  0  0  0  0
  148.9138  130.6104  154.2801 C   0  0  0  0  0  0  0  0  0  0  0  0
  148.0432  131.2564  153.4779 N   0  0  0  0  0  0  0  0  0  0  0  0
  148.0783  132.6109  153.4377 C   0  0  0  0  0  0  0  0  0  0  0  0
  147.1626  133.2636  152.5929 N   0  0  0  0  0  0  0  0  0  0  0  0
  146.4274  132.4010  151.6831 C   0  0  0  0  0  0  0  0  0  0  0  0
  145.2677  133.2540  151.1625 C   0  0  0  0  0  0  0  0  0  0  0  0
  145.0919  134.3615  152.2088 C   0  0  0  0  0  0  0  0  0  0  0  0
  146.1669  134.0831  153.2630 C   0  0  0  0  0  0  0  0  0  0  0  0
  150.2351  139.1222  154.4178 C   0  0  0  0  0  0  0  0  0  0  0  0
  147.8183  140.2422  153.3773 H   0  0  0  0  0  0  0  0  0  0  0  0
  148.4689  141.8635  153.1365 H   0  0  0  0  0  0  0  0  0  0  0  0
  147.0187  141.6353  154.1057 H   0  0  0  0  0  0  0  0  0  0  0  0
  150.6221  141.1928  154.0161 H   0  0  0  0  0  0  0  0  0  0  0  0
  152.0892  140.5803  155.9522 H   0  0  0  0  0  0  0  0  0  0  0  0
  151.1522  142.0318  156.1587 H   0  0  0  0  0  0  0  0  0  0  0  0
  150.7353  139.3673  157.5401 H   0  0  0  0  0  0  0  0  0  0  0  0
  150.9682  140.9192  158.2459 H   0  0  0  0  0  0  0  0  0  0  0  0
  148.5500  140.0326  158.3214 H   0  0  0  0  0  0  0  0  0  0  0  0
  148.7705  141.6640  157.7594 H   0  0  0  0  0  0  0  0  0  0  0  0
  147.1858  140.6778  156.3178 H   0  0  0  0  0  0  0  0  0  0  0  0
  147.7313  138.2447  156.6882 H   0  0  0  0  0  0  0  0  0  0  0  0
  147.3474  138.6896  155.0586 H   0  0  0  0  0  0  0  0  0  0  0  0
  150.0334  137.9243  156.2035 H   0  0  0  0  0  0  0  0  0  0  0  0
  148.7033  137.0525  153.6948 H   0  0  0  0  0  0  0  0  0  0  0  0
  148.6569  135.1638  153.2308 H   0  0  0  0  0  0  0  0  0  0  0  0
  150.6004  133.1982  155.6816 H   0  0  0  0  0  0  0  0  0  0  0  0
  150.5281  130.7176  155.7228 H   0  0  0  0  0  0  0  0  0  0  0  0
  148.8529  129.5322  154.2836 H   0  0  0  0  0  0  0  0  0  0  0  0
  147.0658  132.0509  150.8714 H   0  0  0  0  0  0  0  0  0  0  0  0
  146.0415  131.5266  152.2094 H   0  0  0  0  0  0  0  0  0  0  0  0
  145.5231  133.6926  150.1970 H   0  0  0  0  0  0  0  0  0  0  0  0
  144.3626  132.6609  151.0289 H   0  0  0  0  0  0  0  0  0  0  0  0
  145.2549  135.3365  151.7481 H   0  0  0  0  0  0  0  0  0  0  0  0
  144.0933  134.3632  152.6468 H   0  0  0  0  0  0  0  0  0  0  0  0
  145.7336  133.5464  154.1080 H   0  0  0  0  0  0  0  0  0  0  0  0
  146.6081  135.0059  153.6404 H   0  0  0  0  0  0  0  0  0  0  0  0
  149.8368  139.0567  153.4044 H   0  0  0  0  0  0  0  0  0  0  0  0
  151.2656  138.7729  154.3417 H   0  0  0  0  0  0  0  0  0  0  0  0
  148.9120  142.0274  155.4253 H   0  0  0  0  0  0  0  0  0  0  0  0
  1  2  1  0  0  0  0
  1 26  1  0  0  0  0
  1 27  1  0  0  0  0
  1 28  1  0  0  0  0
  2  7  1  0  0  0  0
  2  3  1  0  0  0  0
  2 55  1  0  0  0  0
  3 25  1  0  0  0  0
  3  4  1  0  0  0  0
  3 29  1  0  0  0  0
  4  5  1  0  0  0  0
  4 30  1  0  0  0  0
  4 31  1  0  0  0  0
  5  6  1  0  0  0  0
  5 32  1  0  0  0  0
  5 33  1  0  0  0  0
  6  7  1  0  0  0  0
  6 34  1  0  0  0  0
  6 35  1  0  0  0  0
  7  8  1  0  0  0  0
  7 36  1  0  0  0  0
  8  9  1  0  0  0  0
  8 37  1  0  0  0  0
  8 38  1  0  0  0  0
  9 10  1  0  0  0  0
  9 25  1  0  0  0  0
  9 39  1  0  0  0  0
 10 11  1  0  0  0  0
 10 40  1  0  0  0  0
 11 12  2  0  0  0  0
 11 13  1  0  0  0  0
 13 14  1  0  0  0  0
 13 41  1  0  0  0  0
 14 19  1  0  0  0  0
 14 15  2  0  0  0  0
 15 16  1  0  0  0  0
 15 42  1  0  0  0  0
 16 17  2  0  0  0  0
 16 43  1  0  0  0  0
 17 18  1  0  0  0  0
 17 44  1  0  0  0  0
 18 19  2  0  0  0  0
 19 20  1  0  0  0  0
 20 24  1  0  0  0  0
 20 21  1  0  0  0  0
 21 22  1  0  0  0  0
 21 45  1  0  0  0  0
 21 46  1  0  0  0  0
 22 23  1  0  0  0  0
 22 47  1  0  0  0  0
 22 48  1  0  0  0  0
 23 24  1  0  0  0  0
 23 49  1  0  0  0  0
 23 50  1  0  0  0  0
 24 51  1  0  0  0  0
 24 52  1  0  0  0  0
 25 53  1  0  0  0  0
 25 54  1  0  0  0  0
M  CHG  1   2   1
M  END
> <s_m_source_file>
AV-unprocessed.smi

> <i_m_source_file_index>
2928

> <i_lp_mmshare_version>
43012

> <i_f3d_flags>
0

> <s_epik_input>
W0NIMl0xW0NIMl1bQ0gyXVtDQEhdKE4oW0NIM10pW0NIXTEyKVtDSDJdW0NASF0oW0NIMl0yKVtOSF1DKD1PKVtOSF1jM1tjSF1bY0hdW2NIXW5jM040W0NIMl1bQ0gyXVtDSDJdW0NIMl00

> <s_epik_cmdline>
J2VwaWtfcHl0aG9uJywgJy1waCcsICc3LjAnLCAnLXRuJywgJzgnLCAnLW1hJywgJzIwMCcsICctbWV0YWxfYmluZGluZycsICctaW1hZScsICc8aW5maWxlLm1hZT4nLCAnLW9tYWUnLCAnPG91dGZpbGUubWFlPic=

> <r_lp_tautomer_probability>
1

> <r_epik_Ionization_Penalty>
0.07954

> <r_epik_Ionization_Penalty_Charging>
0.00089841

> <r_epik_Ionization_Penalty_Neutral>
0.0786416

> <r_epik_State_Penalty>
0.0689917

> <r_epik_Charging_Adjusted_Penalty>
0.0698901

> <i_epik_Tot_Q>
1

> <i_epik_Tot_abs_Q>
1

> <r_epik_Metal_State_Penalty>
0.0608947

> <b_epik_Metal_Only>
0

> <s_lp_Force_Field>
OPLS_2005

> <r_lp_Energy>
65.7965

> <b_lp_Chiralities_Consistent>
1

> <s_lp_Variant>
AV-unprocessed.smi:2928-2

> <Gold.Version>
5.8.1

> <Gold.Id.Protein>
6NUR|6NUR_protein|mol2

> <Gold.PLP.Fitness>
40.5748

> <Gold.PLP.PLP>
-36.0984

> <Gold.PLP.part.hbond>
-2.0000

> <Gold.PLP.part.metal>
0.0000

> <Gold.PLP.part.buried>
-2.3160

> <Gold.PLP.part.nonpolar>
-32.1786

> <Gold.PLP.part.repulsive>
0.4067

> <Gold.PLP.ligand.clash>
0.0000

> <Gold.PLP.ligand.torsion>
0.3809

> <Gold.PLP.Chemscore.Hbond>
1.7360

> <Gold.PLP.Chemscore.CHOScore>
0.0000

> <Gold.PLP.Chemscore.Metal>
0.0000

> <Gold.Chemscore.Hbonds>
donor molecule, donor type, donor heavy atom, donor atom, acceptor molecule, acceptor atom, score
      L1  H    10    40       P1  7948  0.72
      L1  H    13    41       P1  7948  0.98

> <Gold.PLP.Chemscore.Internal.Correction>
0.0301

> <Gold.Rescore>
     Score         DG    S(hbond)    S(metal)    S(lipo)     H(rot)  DE(clash)    DE(int)     intcor
     15.17     -18.05       1.86        0.00      80.10       1.18       0.28       2.59       ----

> <Gold.Chemscore.Fitness>
15.1743

> <Gold.Chemscore.DG>
-18.0501

> <Gold.Chemscore.ZeroCoef>
-5.4800

> <Gold.Chemscore.Hbond>
1.8602

> <Gold.Chemscore.Metal>
0.0000

> <Gold.Chemscore.Lipo>
80.1018

> <Gold.Chemscore.Internal_Hbond>
0.0000

> <Gold.Chemscore.DEClash>
0.2836

> <Gold.Chemscore.DEInternal>
2.5923

> <Gold.Chemscore.Rot>
1.1776

> <Gold.Chemscore.Internal.Correction>
   9.000000E+99

> <Gold.Chemscore.Hbonds>
donor molecule, donor type, donor heavy atom, donor atom, acceptor molecule, acceptor atom, score
      L1  H    10    40       P1  7948  0.69
      L1  H    13    41       P1  7948  0.69

> <Gold.Chemscore.Hbond.Weighted>
-6.2129

> <Gold.Chemscore.Metal.Weighted>
-0.0000

> <Gold.Chemscore.Lipo.Weighted>
-9.3719

> <Gold.Chemscore.Internal_Hbond.Weighted>
0.0000

> <Gold.Chemscore.DEClash.Weighted>
0.2836

> <Gold.Chemscore.DEInternal.Weighted>
2.5923

> <Gold.Chemscore.Rot.Weighted>
3.0147

> <Gold.Chemscore.Internal.Correction.Weighted>
   9.000000E+99

> <Gold.Protein.RotatedTorsions>
[ 6907 6896 6895 6894 ] final  148.64 input  -60.11 | X-H torsion
[ 7974 7965 7964 7962 ] final  -69.81 input  175.53 | X-H torsion
[ 8008 7997 7996 7995 ] final  -80.94 input   59.86 | X-H torsion
[ 10167 10162 10161 10158 ] final -173.23 input  -65.29 | X-H torsion
[ 10718 10713 10712 10709 ] final  -21.05 input   66.30 | X-H torsion
[ 10763 10752 10751 10750 ] final  -67.92 input  -60.55 | X-H torsion
[ 11005 11000 10999 10996 ] final  -56.50 input  -57.11 | X-H torsion

> <Gold.Protein.ActiveResidues>
 VAL166  LYS551  ARG553  GLY616  TRP617  ASP618  TYR619  PRO620  LYS621  CYS622 
 ASP623  PHE694  ASN695  SER759  ASP760  ASP761  ALA762  ILE779  LEU786  VAL792 
 PHE793  MET794  SER795  GLU796  ALA797  LYS798  CYS799  TRP800  GLU811  SER814 

> <Gold.Protein.RotatedAtoms>
  152.1387  133.4451  159.4756 H   0  0  0  0  0  0  0  0  0  0  0  0  # atno 6907 bound_to 6896
  150.6884  134.2331  159.4451 H   0  0  0  0  0  0  0  0  0  0  0  0  # atno 6908 bound_to 6896
  152.0220  134.9816  160.0621 H   0  0  0  0  0  0  0  0  0  0  0  0  # atno 6909 bound_to 6896
  145.6989  140.9124  143.0741 H   0  0  0  0  0  0  0  0  0  0  0  0  # atno 7974 bound_to 7965
  154.5933  140.0655  156.9269 H   0  0  0  0  0  0  0  0  0  0  0  0  # atno 8008 bound_to 7997
  155.2257  140.3333  155.4291 H   0  0  0  0  0  0  0  0  0  0  0  0  # atno 8009 bound_to 7997
  156.2270  140.1824  156.7321 H   0  0  0  0  0  0  0  0  0  0  0  0  # atno 8010 bound_to 7997
  139.5700  144.1665  152.1369 H   0  0  0  0  0  0  0  0  0  0  0  0  # atno 10167 bound_to 10162
  156.5234  130.4638  149.6585 H   0  0  0  0  0  0  0  0  0  0  0  0  # atno 10718 bound_to 10713
  154.3815  135.6073  153.5793 H   0  0  0  0  0  0  0  0  0  0  0  0  # atno 10763 bound_to 10752
  152.9788  135.5862  154.4404 H   0  0  0  0  0  0  0  0  0  0  0  0  # atno 10764 bound_to 10752
  154.4174  135.2845  155.1975 H   0  0  0  0  0  0  0  0  0  0  0  0  # atno 10765 bound_to 10752
  141.1123  133.6610  156.4628 H   0  0  0  0  0  0  0  0  0  0  0  0  # atno 11005 bound_to 11000
  144.6974  139.8921  143.7453 LP  0  0  0  0  0  0  0  0  0  0  0  0  # atno 17320 bound_to 7965
  146.0815  139.3803  143.0461 LP  0  0  0  0  0  0  0  0  0  0  0  0  # atno 17321 bound_to 7965
  140.1196  144.5385  150.6871 LP  0  0  0  0  0  0  0  0  0  0  0  0  # atno 17342 bound_to 10162
  140.6984  143.2418  151.4935 LP  0  0  0  0  0  0  0  0  0  0  0  0  # atno 17343 bound_to 10162
  156.3128  130.7238  151.2134 LP  0  0  0  0  0  0  0  0  0  0  0  0  # atno 17370 bound_to 10713
  157.7433  131.0477  150.4956 LP  0  0  0  0  0  0  0  0  0  0  0  0  # atno 17371 bound_to 10713
  140.4742  134.6725  157.5143 LP  0  0  0  0  0  0  0  0  0  0  0  0  # atno 17394 bound_to 11000
  140.0023  134.6817  155.9510 LP  0  0  0  0  0  0  0  0  0  0  0  0  # atno 17395 bound_to 11000

$$$$
