AV-unprocessed.smi:2911|AV-procd|sdf|11178|dock7
  -GOLD-   2272016 73D 1   1.00000     0.00000
 Structure written by MMmdl.
 41 42  0  0  0  0  0  0  0  0  1 V2000
  147.2932  135.8302  162.8455 C   0  0  0  0  0  0  0  0  0  0  0  0
  147.5751  136.0005  161.3920 C   0  0  0  0  0  0  0  0  0  0  0  0
  147.3212  135.0305  160.5219 N   0  0  0  0  0  0  0  0  0  0  0  0
  147.7297  135.5795  159.2979 O   0  0  0  0  0  0  0  0  0  0  0  0
  148.1686  136.8292  159.5814 C   0  0  0  0  0  0  0  0  0  0  0  0
  148.7219  137.6662  158.4772 C   0  0  0  0  0  0  0  0  0  0  0  0
  150.2222  137.9504  158.6525 C   0  0  0  0  0  0  0  0  0  0  0  0
  150.5117  139.3779  158.5751 N   0  0  0  0  0  0  0  0  0  0  0  0
  151.7157  139.9404  158.7771 C   0  0  0  0  0  0  0  0  0  0  0  0
  152.7122  139.2621  159.0325 O   0  0  0  0  0  0  0  0  0  0  0  0
  151.7518  141.2903  158.6167 N   0  0  0  0  0  0  0  0  0  0  0  0
  152.8811  142.1606  159.0126 C   0  0  0  0  0  0  0  0  0  0  0  0
  152.3949  143.3191  159.8948 C   0  0  0  0  0  0  0  0  0  0  0  0
  151.3224  144.1456  159.1694 C   0  0  2  0  0  0  0  0  0  0  0  0
  150.8033  145.2935  160.0462 C   0  0  0  0  0  0  0  0  0  0  0  0
  150.1810  143.2251  158.7052 C   0  0  0  0  0  0  0  0  0  0  0  0
  150.6712  142.0017  157.8992 C   0  0  1  0  0  0  0  0  0  0  0  0
  151.0664  142.3229  156.4463 C   0  0  0  0  0  0  0  0  0  0  0  0
  148.1136  137.1386  160.8745 N   0  0  0  0  0  0  0  0  0  0  0  0
  146.5012  135.0971  163.0027 H   0  0  0  0  0  0  0  0  0  0  0  0
  146.9761  136.7762  163.2852 H   0  0  0  0  0  0  0  0  0  0  0  0
  148.1895  135.4898  163.3641 H   0  0  0  0  0  0  0  0  0  0  0  0
  148.5441  137.1536  157.5312 H   0  0  0  0  0  0  0  0  0  0  0  0
  148.1599  138.6002  158.4375 H   0  0  0  0  0  0  0  0  0  0  0  0
  150.5811  137.5447  159.6000 H   0  0  0  0  0  0  0  0  0  0  0  0
  150.7883  137.4499  157.8665 H   0  0  0  0  0  0  0  0  0  0  0  0
  149.7405  139.9872  158.3442 H   0  0  0  0  0  0  0  0  0  0  0  0
  153.6816  141.6414  159.5386 H   0  0  0  0  0  0  0  0  0  0  0  0
  153.3528  142.5561  158.1131 H   0  0  0  0  0  0  0  0  0  0  0  0
  151.9958  142.9237  160.8301 H   0  0  0  0  0  0  0  0  0  0  0  0
  153.2383  143.9565  160.1617 H   0  0  0  0  0  0  0  0  0  0  0  0
  151.7804  144.5908  158.2852 H   0  0  0  0  0  0  0  0  0  0  0  0
  150.3314  144.9172  160.9543 H   0  0  0  0  0  0  0  0  0  0  0  0
  150.0660  145.8931  159.5116 H   0  0  0  0  0  0  0  0  0  0  0  0
  151.6152  145.9576  160.3436 H   0  0  0  0  0  0  0  0  0  0  0  0
  149.6418  142.8662  159.5834 H   0  0  0  0  0  0  0  0  0  0  0  0
  149.4557  143.7908  158.1190 H   0  0  0  0  0  0  0  0  0  0  0  0
  149.7936  141.3576  157.8251 H   0  0  0  0  0  0  0  0  0  0  0  0
  150.2274  142.7598  155.9043 H   0  0  0  0  0  0  0  0  0  0  0  0
  151.3647  141.4197  155.9130 H   0  0  0  0  0  0  0  0  0  0  0  0
  151.8928  143.0308  156.3908 H   0  0  0  0  0  0  0  0  0  0  0  0
  1  2  1  0  0  0  0
  1 20  1  0  0  0  0
  1 21  1  0  0  0  0
  1 22  1  0  0  0  0
  2 19  1  0  0  0  0
  2  3  2  0  0  0  0
  3  4  1  0  0  0  0
  4  5  1  0  0  0  0
  5  6  1  0  0  0  0
  5 19  2  0  0  0  0
  6  7  1  0  0  0  0
  6 23  1  0  0  0  0
  6 24  1  0  0  0  0
  7  8  1  0  0  0  0
  7 25  1  0  0  0  0
  7 26  1  0  0  0  0
  8  9  1  0  0  0  0
  8 27  1  0  0  0  0
  9 10  2  0  0  0  0
  9 11  1  0  0  0  0
 11 17  1  0  0  0  0
 11 12  1  0  0  0  0
 12 13  1  0  0  0  0
 12 28  1  0  0  0  0
 12 29  1  0  0  0  0
 13 14  1  0  0  0  0
 13 30  1  0  0  0  0
 13 31  1  0  0  0  0
 14 15  1  0  0  0  0
 14 16  1  0  0  0  0
 14 32  1  0  0  0  0
 15 33  1  0  0  0  0
 15 34  1  0  0  0  0
 15 35  1  0  0  0  0
 16 17  1  0  0  0  0
 16 36  1  0  0  0  0
 16 37  1  0  0  0  0
 17 18  1  0  0  0  0
 17 38  1  0  0  0  0
 18 39  1  0  0  0  0
 18 40  1  0  0  0  0
 18 41  1  0  0  0  0
M  END
> <s_m_source_file>
AV-unprocessed.smi

> <i_m_source_file_index>
2911

> <i_lp_mmshare_version>
43012

> <i_f3d_flags>
0

> <s_epik_input>
W0NIM11jMW5vYyhuMSlbQ0gyXVtDSDJdW05IXUMoPU8pTjJbQ0gyXVtDSDJdW0NAQEhdKFtDSDNdKVtDSDJdW0NASF0yW0NIM10=

> <s_epik_cmdline>
J2VwaWtfcHl0aG9uJywgJy1waCcsICc3LjAnLCAnLXRuJywgJzgnLCAnLW1hJywgJzIwMCcsICctbWV0YWxfYmluZGluZycsICctaW1hZScsICc8aW5maWxlLm1hZT4nLCAnLW9tYWUnLCAnPG91dGZpbGUubWFlPic=

> <r_lp_tautomer_probability>
1

> <r_epik_Ionization_Penalty>
6.61671e-05

> <r_epik_Ionization_Penalty_Charging>
0

> <r_epik_Ionization_Penalty_Neutral>
6.61671e-05

> <r_epik_State_Penalty>
-0

> <r_epik_Charging_Adjusted_Penalty>
0

> <i_epik_Tot_Q>
0

> <i_epik_Tot_abs_Q>
0

> <r_epik_Metal_State_Penalty>
-0

> <b_epik_Metal_Only>
0

> <s_lp_Force_Field>
OPLS_2005

> <r_lp_Energy>
30.9139

> <b_lp_Chiralities_Consistent>
1

> <s_lp_Variant>
AV-unprocessed.smi:2911-2

> <Gold.Version>
5.8.1

> <Gold.Id.Protein>
6NUR|6NUR_protein|mol2

> <Gold.PLP.Fitness>
40.0763

> <Gold.PLP.PLP>
-37.7976

> <Gold.PLP.part.hbond>
-2.0000

> <Gold.PLP.part.metal>
0.0000

> <Gold.PLP.part.buried>
-5.9706

> <Gold.PLP.part.nonpolar>
-30.1669

> <Gold.PLP.part.repulsive>
0.1891

> <Gold.PLP.ligand.clash>
1.2943

> <Gold.PLP.ligand.torsion>
0.5080

> <Gold.PLP.Chemscore.Hbond>
1.5220

> <Gold.PLP.Chemscore.CHOScore>
0.0000

> <Gold.PLP.Chemscore.Metal>
0.0000

> <Gold.Chemscore.Hbonds>
donor molecule, donor type, donor heavy atom, donor atom, acceptor molecule, acceptor atom, score
      P1  H  6931  6943       L1    19  0.93
      P1  H  6934  6947       L1    19  0.59

> <Gold.PLP.Chemscore.Internal.Correction>
0.0230

> <Gold.Rescore>
     Score         DG    S(hbond)    S(metal)    S(lipo)     H(rot)  DE(clash)    DE(int)     intcor
     15.53     -15.97       1.55        0.00      80.68       1.61       0.00       0.44       ----

> <Gold.Chemscore.Fitness>
15.5251

> <Gold.Chemscore.DG>
-15.9687

> <Gold.Chemscore.ZeroCoef>
-5.4800

> <Gold.Chemscore.Hbond>
1.5471

> <Gold.Chemscore.Metal>
0.0000

> <Gold.Chemscore.Lipo>
80.6829

> <Gold.Chemscore.Internal_Hbond>
0.0000

> <Gold.Chemscore.DEClash>
0.0048

> <Gold.Chemscore.DEInternal>
0.4388

> <Gold.Chemscore.Rot>
1.6088

> <Gold.Chemscore.Internal.Correction>
   9.000000E+99

> <Gold.Chemscore.Hbonds>
donor molecule, donor type, donor heavy atom, donor atom, acceptor molecule, acceptor atom, score
      P1  H  6931  6943       L1    19  0.88
      P1  H  6934  6947       L1    19  0.29

> <Gold.Chemscore.Hbond.Weighted>
-5.1674

> <Gold.Chemscore.Metal.Weighted>
-0.0000

> <Gold.Chemscore.Lipo.Weighted>
-9.4399

> <Gold.Chemscore.Internal_Hbond.Weighted>
0.0000

> <Gold.Chemscore.DEClash.Weighted>
0.0048

> <Gold.Chemscore.DEInternal.Weighted>
0.4388

> <Gold.Chemscore.Rot.Weighted>
4.1186

> <Gold.Chemscore.Internal.Correction.Weighted>
   9.000000E+99

> <Gold.Protein.RotatedTorsions>
[ 6907 6896 6895 6894 ] final   17.83 input  -60.11 | X-H torsion
[ 7974 7965 7964 7962 ] final  -25.34 input  175.53 | X-H torsion
[ 8008 7997 7996 7995 ] final  177.82 input   59.86 | X-H torsion
[ 10167 10162 10161 10158 ] final -128.03 input  -65.29 | X-H torsion
[ 10718 10713 10712 10709 ] final -123.56 input   66.30 | X-H torsion
[ 10763 10752 10751 10750 ] final   66.33 input  -60.55 | X-H torsion
[ 11005 11000 10999 10996 ] final  -96.34 input  -57.11 | X-H torsion

> <Gold.Protein.ActiveResidues>
 VAL166  LYS551  ARG553  GLY616  TRP617  ASP618  TYR619  PRO620  LYS621  CYS622 
 ASP623  PHE694  ASN695  SER759  ASP760  ASP761  ALA762  ILE779  LEU786  VAL792 
 PHE793  MET794  SER795  GLU796  ALA797  LYS798  CYS799  TRP800  GLU811  SER814 

> <Gold.Protein.RotatedAtoms>
  151.8558  135.0541  160.0463 H   0  0  0  0  0  0  0  0  0  0  0  0  # atno 6907 bound_to 6896
  152.2701  133.5370  159.5442 H   0  0  0  0  0  0  0  0  0  0  0  0  # atno 6908 bound_to 6896
  150.7148  134.0626  159.3879 H   0  0  0  0  0  0  0  0  0  0  0  0  # atno 6909 bound_to 6896
  146.1497  140.4872  142.8616 H   0  0  0  0  0  0  0  0  0  0  0  0  # atno 7974 bound_to 7965
  156.0615  140.1349  156.9936 H   0  0  0  0  0  0  0  0  0  0  0  0  # atno 8008 bound_to 7997
  154.4484  140.0990  156.6594 H   0  0  0  0  0  0  0  0  0  0  0  0  # atno 8009 bound_to 7997
  155.5370  140.3460  155.4441 H   0  0  0  0  0  0  0  0  0  0  0  0  # atno 8010 bound_to 7997
  139.9546  143.6017  152.2464 H   0  0  0  0  0  0  0  0  0  0  0  0  # atno 10167 bound_to 10162
  156.1512  130.6536  150.9917 H   0  0  0  0  0  0  0  0  0  0  0  0  # atno 10718 bound_to 10713
  153.0135  135.5324  154.6807 H   0  0  0  0  0  0  0  0  0  0  0  0  # atno 10763 bound_to 10752
  154.5968  135.2864  155.0580 H   0  0  0  0  0  0  0  0  0  0  0  0  # atno 10764 bound_to 10752
  154.1652  135.6541  153.5048 H   0  0  0  0  0  0  0  0  0  0  0  0  # atno 10765 bound_to 10752
  141.1414  133.8090  157.0558 H   0  0  0  0  0  0  0  0  0  0  0  0  # atno 11005 bound_to 11000
  144.7889  140.5993  143.6555 LP  0  0  0  0  0  0  0  0  0  0  0  0  # atno 17320 bound_to 7965
  145.4852  139.1492  143.3740 LP  0  0  0  0  0  0  0  0  0  0  0  0  # atno 17321 bound_to 7965
  139.6601  144.7662  151.1979 LP  0  0  0  0  0  0  0  0  0  0  0  0  # atno 17342 bound_to 10162
  140.7572  143.6023  150.8687 LP  0  0  0  0  0  0  0  0  0  0  0  0  # atno 17343 bound_to 10162
  157.6659  131.0872  150.7730 LP  0  0  0  0  0  0  0  0  0  0  0  0  # atno 17370 bound_to 10713
  156.7798  130.4855  149.5403 LP  0  0  0  0  0  0  0  0  0  0  0  0  # atno 17371 bound_to 10713
  140.0603  134.9758  157.1293 LP  0  0  0  0  0  0  0  0  0  0  0  0  # atno 17394 bound_to 11000
  140.3858  134.2237  155.7168 LP  0  0  0  0  0  0  0  0  0  0  0  0  # atno 17395 bound_to 11000

$$$$
