#       Name:                AV-unprocessed.smi:3173
#       Creating user name   scv26
#       Creation time:       Fri Mar 27 17:55:48 2020


#       File generated by GOLD software.
#

@<TRIPOS>MOLECULE
AV-unprocessed.smi:3173
    38    39     1
SMALL
NO_CHARGES


@<TRIPOS>ATOM
      1 ****        -0.5671   1.3200   0.2650 O.2            1 S1                 0.0000
      2 ****        -0.9968   0.2077  -0.0420 C.2            1 S1                 0.0000
      3 ****        -2.5050  -0.0644  -0.0692 C.3            1 S1                 0.0000
      4 ****        -3.2897   0.6853   1.0282 C.3            1 S1                 0.0000
      5 ****        -4.7704   0.4141   0.9563 C.2            1 S1                 0.0000
      6 ****        -5.2827   0.0356   2.1251 C.2            1 S1                 0.0000
      7 ****        -4.2482  -0.0245   3.2141 C.3            1 S1                 0.0000
      8 ****        -2.9224   0.2736   2.4796 C.3            1 S1                 0.0000
      9 ****        -0.2019  -0.8211  -0.3737 N.am           1 S1                 0.0000
     10 ****         1.2552  -0.7751  -0.4122 C.3            1 S1                 0.0000
     11 ****         1.7685  -0.1361  -1.7134 C.3            1 S1                 0.0000
     12 ****         3.2836  -0.0939  -1.7738 C.ar           1 S1                 0.0000
     13 ****         3.9833   1.0976  -1.4863 C.ar           1 S1                 0.0000
     14 ****         5.3901   1.0820  -1.5515 C.ar           1 S1                 0.0000
     15 ****         6.0397  -0.1183  -1.8984 C.ar           1 S1                 0.0000
     16 ****         5.2502  -1.2548  -2.1654 C.ar           1 S1                 0.0000
     17 ****         3.9008  -1.2504  -2.1063 N.ar           1 S1                 0.0000
     18 ****        -2.8779   0.2282  -1.0514 H              1 S1                 0.0000
     19 ****        -2.6827  -1.1375   0.0206 H              1 S1                 0.0000
     20 ****        -3.1602   1.7619   0.9069 H              1 S1                 0.0000
     21 ****        -5.3344   0.5382   0.0435 H              1 S1                 0.0000
     22 ****        -6.3226  -0.1946   2.3045 H              1 S1                 0.0000
     23 ****        -4.4671   0.7268   3.9732 H              1 S1                 0.0000
     24 ****        -4.2390  -1.0072   3.6865 H              1 S1                 0.0000
     25 ****        -2.3024  -0.6238   2.4818 H              1 S1                 0.0000
     26 ****        -2.3523   1.0555   2.9826 H              1 S1                 0.0000
     27 ****        -0.6376  -1.6994  -0.6153 H              1 S1                 0.0000
     28 ****         1.6362  -0.2339   0.4557 H              1 S1                 0.0000
     29 ****         1.6268  -1.7966  -0.3275 H              1 S1                 0.0000
     30 ****         1.3958  -0.6916  -2.5753 H              1 S1                 0.0000
     31 ****         1.3814   0.8788  -1.8136 H              1 S1                 0.0000
     32 ****         3.4564   2.0026  -1.2211 H              1 S1                 0.0000
     33 ****         5.9602   1.9742  -1.3387 H              1 S1                 0.0000
     34 ****         7.1168  -0.1674  -1.9576 H              1 S1                 0.0000
     35 ****         5.7149  -2.1924  -2.4326 H              1 S1                 0.0000
     36 ****        -1.2037   2.0548   0.4993 LP             1 S1                 0.0000
     37 ****         0.4185   1.4886   0.2802 LP             1 S1                 0.0000
     38 ****         3.3740  -2.0774  -2.3025 LP             1 S1                 0.0000
@<TRIPOS>BOND
    1    1    2 2     
    2    2    3 1     
    3    2    9 am    
    4    3    4 1     
    5    3   18 1     
    6    3   19 1     
    7    4    8 1     
    8    4    5 1     
    9    4   20 1     
   10    5    6 2     
   11    5   21 1     
   12    6    7 1     
   13    6   22 1     
   14    7    8 1     
   15    7   23 1     
   16    7   24 1     
   17    8   25 1     
   18    8   26 1     
   19    9   10 1     
   20    9   27 1     
   21   10   11 1     
   22   10   28 1     
   23   10   29 1     
   24   11   12 1     
   25   11   30 1     
   26   11   31 1     
   27   12   17 ar    
   28   12   13 ar    
   29   13   14 ar    
   30   13   32 1     
   31   14   15 ar    
   32   14   33 1     
   33   15   16 ar    
   34   15   34 1     
   35   16   17 ar    
   36   16   35 1     
   37    1   36 1     
   38    1   37 1     
   39   17   38 1     
@<TRIPOS>SUBSTRUCTURE
      1 S1             1
@<TRIPOS>SET
LONE_PAIRS      STATIC     ATOMS    <user>   **** ""
3 36 37 38
DONOR_HYDROGENS      STATIC     ATOMS    <user>   **** ""
1 27
ATOM$BLUE        STATIC     ATOMS    COLORGROUP SYSTEM
3 36 37 38
ATOM$RED        STATIC     ATOMS    COLORGROUP SYSTEM
1 27
